MODEL 1
REMARK VINA RESULT:    -5.616      0.000      0.000
REMARK INTER + INTRA:          -7.668
REMARK INTER:                  -7.094
REMARK INTRA:                  -0.574
REMARK UNBOUND:                -0.574
REMARK SMILES O=C(C=Cc1ccc(O)cc1)c1ccc(O)cc1O
REMARK SMILES IDX 4 1 3 2 5 3 6 4 7 5 8 6 11 7 10 8 9 9 2 11 1 12 12 13 18 14
REMARK SMILES IDX 13 15 17 16 14 17 15 18 19 19 16 21
REMARK H PARENT 9 10 19 20 16 22
REMARK Flexibility Score: inf
ROOT
ATOM      1  C   UNL     1       3.853   6.255   1.742  1.00  0.00     0.012 C 
ATOM      2  C   UNL     1       2.940   5.890   0.830  1.00  0.00     0.053 C 
ENDROOT
BRANCH   1   3
ATOM      3  C   UNL     1       5.289   5.891   1.658  1.00  0.00    -0.025 A 
ATOM      4  C   UNL     1       6.041   6.365   0.570  1.00  0.00     0.012 A 
ATOM      5  C   UNL     1       7.395   6.037   0.445  1.00  0.00     0.047 A 
ATOM      6  C   UNL     1       8.013   5.223   1.397  1.00  0.00     0.115 A 
ATOM      7  C   UNL     1       5.915   5.056   2.607  1.00  0.00     0.012 A 
ATOM      8  C   UNL     1       7.270   4.731   2.477  1.00  0.00     0.047 A 
BRANCH   6   9
ATOM      9  O   UNL     1       9.362   4.905   1.260  1.00  0.00    -0.508 OA
ATOM     10  H   UNL     1      10.076   5.379   1.802  1.00  0.00     0.293 HD
ENDBRANCH   6   9
ENDBRANCH   1   3
BRANCH   2  11
ATOM     11  C   UNL     1       1.512   6.259   0.954  1.00  0.00     0.189 C 
ATOM     12  O   UNL     1       0.676   5.826   0.115  1.00  0.00    -0.289 OA
BRANCH  11  13
ATOM     13  C   UNL     1       1.049   7.174   2.024  1.00  0.00     0.064 A 
ATOM     14  C   UNL     1       1.013   8.575   1.842  1.00  0.00     0.130 A 
ATOM     15  C   UNL     1       0.659   6.635   3.262  1.00  0.00     0.020 A 
ATOM     16  C   UNL     1       0.553   9.401   2.880  1.00  0.00     0.093 A 
ATOM     17  C   UNL     1       0.209   7.467   4.291  1.00  0.00     0.047 A 
ATOM     18  C   UNL     1       0.150   8.849   4.101  1.00  0.00     0.119 A 
BRANCH  14  19
ATOM     19  O   UNL     1       1.456   9.148   0.651  1.00  0.00    -0.507 OA
ATOM     20  H   UNL     1       2.130   8.683   0.054  1.00  0.00     0.293 HD
ENDBRANCH  14  19
BRANCH  18  21
ATOM     21  O   UNL     1      -0.305   9.665   5.134  1.00  0.00    -0.508 OA
ATOM     22  H   UNL     1      -1.032  10.355   4.983  1.00  0.00     0.293 HD
ENDBRANCH  18  21
ENDBRANCH  11  13
ENDBRANCH   2  11
TORSDOF 6
ENDMDL
MODEL 2
REMARK VINA RESULT:    -5.333      0.880      1.583
REMARK INTER + INTRA:          -7.310
REMARK INTER:                  -6.646
REMARK INTRA:                  -0.664
REMARK UNBOUND:                -0.574
REMARK SMILES O=C(C=Cc1ccc(O)cc1)c1ccc(O)cc1O
REMARK SMILES IDX 4 1 3 2 5 3 6 4 7 5 8 6 11 7 10 8 9 9 2 11 1 12 12 13 18 14
REMARK SMILES IDX 13 15 17 16 14 17 15 18 19 19 16 21
REMARK H PARENT 9 10 19 20 16 22
REMARK Flexibility Score: inf
ROOT
ATOM      1  C   UNL     1       4.111   6.037   1.817  1.00  0.00     0.012 C 
ATOM      2  C   UNL     1       3.382   6.366   0.741  1.00  0.00     0.053 C 
ENDROOT
BRANCH   1   3
ATOM      3  C   UNL     1       5.577   5.816   1.780  1.00  0.00    -0.025 A 
ATOM      4  C   UNL     1       6.309   6.339   0.700  1.00  0.00     0.012 A 
ATOM      5  C   UNL     1       7.692   6.145   0.618  1.00  0.00     0.047 A 
ATOM      6  C   UNL     1       8.360   5.418   1.607  1.00  0.00     0.115 A 
ATOM      7  C   UNL     1       6.256   5.069   2.765  1.00  0.00     0.012 A 
ATOM      8  C   UNL     1       7.639   4.878   2.679  1.00  0.00     0.047 A 
BRANCH   6   9
ATOM      9  O   UNL     1       9.738   5.234   1.512  1.00  0.00    -0.508 OA
ATOM     10  H   UNL     1      10.234   4.616   2.144  1.00  0.00     0.293 HD
ENDBRANCH   6   9
ENDBRANCH   1   3
BRANCH   2  11
ATOM     11  C   UNL     1       1.917   6.563   0.812  1.00  0.00     0.189 C 
ATOM     12  O   UNL     1       1.164   5.993  -0.025  1.00  0.00    -0.289 OA
BRANCH  11  13
ATOM     13  C   UNL     1       1.315   7.463   1.824  1.00  0.00     0.064 A 
ATOM     14  C   UNL     1       0.720   6.964   3.005  1.00  0.00     0.130 A 
ATOM     15  C   UNL     1       1.314   8.849   1.591  1.00  0.00     0.020 A 
ATOM     16  C   UNL     1       0.176   7.856   3.942  1.00  0.00     0.093 A 
ATOM     17  C   UNL     1       0.763   9.728   2.527  1.00  0.00     0.047 A 
ATOM     18  C   UNL     1       0.198   9.235   3.705  1.00  0.00     0.119 A 
BRANCH  14  19
ATOM     19  O   UNL     1       0.644   5.591   3.237  1.00  0.00    -0.507 OA
ATOM     20  H   UNL     1       0.593   5.212   4.176  1.00  0.00     0.293 HD
ENDBRANCH  14  19
BRANCH  18  21
ATOM     21  O   UNL     1      -0.343  10.125   4.631  1.00  0.00    -0.508 OA
ATOM     22  H   UNL     1       0.100  10.290   5.527  1.00  0.00     0.293 HD
ENDBRANCH  18  21
ENDBRANCH  11  13
ENDBRANCH   2  11
TORSDOF 6
ENDMDL
MODEL 3
REMARK VINA RESULT:    -5.242      2.467      3.569
REMARK INTER + INTRA:          -7.195
REMARK INTER:                  -6.503
REMARK INTRA:                  -0.692
REMARK UNBOUND:                -0.574
REMARK SMILES O=C(C=Cc1ccc(O)cc1)c1ccc(O)cc1O
REMARK SMILES IDX 4 1 3 2 5 3 6 4 7 5 8 6 11 7 10 8 9 9 2 11 1 12 12 13 18 14
REMARK SMILES IDX 13 15 17 16 14 17 15 18 19 19 16 21
REMARK H PARENT 9 10 19 20 16 22
REMARK Flexibility Score: inf
ROOT
ATOM      1  C   UNL     1       5.933   4.858   2.919  1.00  0.00     0.012 C 
ATOM      2  C   UNL     1       5.846   6.113   2.456  1.00  0.00     0.053 C 
ENDROOT
BRANCH   1   3
ATOM      3  C   UNL     1       7.048   4.369   3.766  1.00  0.00    -0.025 A 
ATOM      4  C   UNL     1       6.743   3.766   4.999  1.00  0.00     0.012 A 
ATOM      5  C   UNL     1       7.763   3.301   5.834  1.00  0.00     0.047 A 
ATOM      6  C   UNL     1       9.102   3.442   5.457  1.00  0.00     0.115 A 
ATOM      7  C   UNL     1       8.401   4.523   3.400  1.00  0.00     0.012 A 
ATOM      8  C   UNL     1       9.418   4.057   4.240  1.00  0.00     0.047 A 
BRANCH   6   9
ATOM      9  O   UNL     1      10.107   2.974   6.300  1.00  0.00    -0.508 OA
ATOM     10  H   UNL     1      10.140   3.232   7.279  1.00  0.00     0.293 HD
ENDBRANCH   6   9
ENDBRANCH   1   3
BRANCH   2  11
ATOM     11  C   UNL     1       4.726   6.561   1.599  1.00  0.00     0.189 C 
ATOM     12  O   UNL     1       4.926   6.804   0.377  1.00  0.00    -0.289 OA
BRANCH  11  13
ATOM     13  C   UNL     1       3.373   6.780   2.163  1.00  0.00     0.064 A 
ATOM     14  C   UNL     1       2.206   6.363   1.483  1.00  0.00     0.130 A 
ATOM     15  C   UNL     1       3.246   7.442   3.396  1.00  0.00     0.020 A 
ATOM     16  C   UNL     1       0.946   6.578   2.063  1.00  0.00     0.093 A 
ATOM     17  C   UNL     1       1.986   7.658   3.961  1.00  0.00     0.047 A 
ATOM     18  C   UNL     1       0.836   7.224   3.300  1.00  0.00     0.119 A 
BRANCH  14  19
ATOM     19  O   UNL     1       2.292   5.762   0.227  1.00  0.00    -0.507 OA
ATOM     20  H   UNL     1       2.437   6.307  -0.615  1.00  0.00     0.293 HD
ENDBRANCH  14  19
BRANCH  18  21
ATOM     21  O   UNL     1      -0.412   7.442   3.879  1.00  0.00    -0.508 OA
ATOM     22  H   UNL     1      -1.229   6.914   3.592  1.00  0.00     0.293 HD
ENDBRANCH  18  21
ENDBRANCH  11  13
ENDBRANCH   2  11
TORSDOF 6
ENDMDL
MODEL 4
REMARK VINA RESULT:    -5.106      1.798      7.338
REMARK INTER + INTRA:          -7.024
REMARK INTER:                  -6.398
REMARK INTRA:                  -0.626
REMARK UNBOUND:                -0.574
REMARK SMILES O=C(C=Cc1ccc(O)cc1)c1ccc(O)cc1O
REMARK SMILES IDX 4 1 3 2 5 3 6 4 7 5 8 6 11 7 10 8 9 9 2 11 1 12 12 13 18 14
REMARK SMILES IDX 13 15 17 16 14 17 15 18 19 19 16 21
REMARK H PARENT 9 10 19 20 16 22
REMARK Flexibility Score: inf
ROOT
ATOM      1  C   UNL     1       3.218   6.323   1.882  1.00  0.00     0.012 C 
ATOM      2  C   UNL     1       4.502   6.369   2.268  1.00  0.00     0.053 C 
ENDROOT
BRANCH   1   3
ATOM      3  C   UNL     1       2.170   7.235   2.404  1.00  0.00    -0.025 A 
ATOM      4  C   UNL     1       2.320   8.618   2.202  1.00  0.00     0.012 A 
ATOM      5  C   UNL     1       1.363   9.515   2.686  1.00  0.00     0.047 A 
ATOM      6  C   UNL     1       0.249   9.045   3.388  1.00  0.00     0.115 A 
ATOM      7  C   UNL     1       1.053   6.769   3.127  1.00  0.00     0.012 A 
ATOM      8  C   UNL     1       0.098   7.671   3.609  1.00  0.00     0.047 A 
BRANCH   6   9
ATOM      9  O   UNL     1      -0.697   9.950   3.864  1.00  0.00    -0.508 OA
ATOM     10  H   UNL     1      -0.992   9.947   4.833  1.00  0.00     0.293 HD
ENDBRANCH   6   9
ENDBRANCH   1   3
BRANCH   2  11
ATOM     11  C   UNL     1       5.517   5.432   1.738  1.00  0.00     0.189 C 
ATOM     12  O   UNL     1       5.424   5.009   0.553  1.00  0.00    -0.289 OA
BRANCH  11  13
ATOM     13  C   UNL     1       6.621   4.937   2.593  1.00  0.00     0.064 A 
ATOM     14  C   UNL     1       7.952   4.863   2.123  1.00  0.00     0.130 A 
ATOM     15  C   UNL     1       6.333   4.508   3.900  1.00  0.00     0.020 A 
ATOM     16  C   UNL     1       8.968   4.401   2.974  1.00  0.00     0.093 A 
ATOM     17  C   UNL     1       7.351   4.043   4.737  1.00  0.00     0.047 A 
ATOM     18  C   UNL     1       8.669   3.993   4.279  1.00  0.00     0.119 A 
BRANCH  14  19
ATOM     19  O   UNL     1       8.262   5.218   0.810  1.00  0.00    -0.507 OA
ATOM     20  H   UNL     1       7.564   5.205   0.076  1.00  0.00     0.293 HD
ENDBRANCH  14  19
BRANCH  18  21
ATOM     21  O   UNL     1       9.673   3.533   5.128  1.00  0.00    -0.508 OA
ATOM     22  H   UNL     1       9.460   2.976   5.947  1.00  0.00     0.293 HD
ENDBRANCH  18  21
ENDBRANCH  11  13
ENDBRANCH   2  11
TORSDOF 6
ENDMDL
MODEL 5
REMARK VINA RESULT:    -4.905     10.296     13.143
REMARK INTER + INTRA:          -6.770
REMARK INTER:                  -6.146
REMARK INTRA:                  -0.624
REMARK UNBOUND:                -0.574
REMARK SMILES O=C(C=Cc1ccc(O)cc1)c1ccc(O)cc1O
REMARK SMILES IDX 4 1 3 2 5 3 6 4 7 5 8 6 11 7 10 8 9 9 2 11 1 12 12 13 18 14
REMARK SMILES IDX 13 15 17 16 14 17 15 18 19 19 16 21
REMARK H PARENT 9 10 19 20 16 22
REMARK Flexibility Score: inf
ROOT
ATOM      1  C   UNL     1       8.790   0.112  -6.343  1.00  0.00     0.012 C 
ATOM      2  C   UNL     1       7.540  -0.089  -6.783  1.00  0.00     0.053 C 
ENDROOT
BRANCH   1   3
ATOM      3  C   UNL     1       9.132   1.034  -5.232  1.00  0.00    -0.025 A 
ATOM      4  C   UNL     1       9.761   0.507  -4.090  1.00  0.00     0.012 A 
ATOM      5  C   UNL     1      10.092   1.337  -3.015  1.00  0.00     0.047 A 
ATOM      6  C   UNL     1       9.789   2.701  -3.058  1.00  0.00     0.115 A 
ATOM      7  C   UNL     1       8.815   2.407  -5.262  1.00  0.00     0.012 A 
ATOM      8  C   UNL     1       9.147   3.233  -4.183  1.00  0.00     0.047 A 
BRANCH   6   9
ATOM      9  O   UNL     1      10.124   3.515  -1.979  1.00  0.00    -0.508 OA
ATOM     10  H   UNL     1       9.623   4.375  -1.789  1.00  0.00     0.293 HD
ENDBRANCH   6   9
ENDBRANCH   1   3
BRANCH   2  11
ATOM     11  C   UNL     1       7.238  -1.005  -7.906  1.00  0.00     0.189 C 
ATOM     12  O   UNL     1       7.599  -0.705  -9.077  1.00  0.00    -0.289 OA
BRANCH  11  13
ATOM     13  C   UNL     1       6.469  -2.252  -7.689  1.00  0.00     0.064 A 
ATOM     14  C   UNL     1       7.024  -3.525  -7.952  1.00  0.00     0.130 A 
ATOM     15  C   UNL     1       5.143  -2.167  -7.231  1.00  0.00     0.020 A 
ATOM     16  C   UNL     1       6.262  -4.681  -7.717  1.00  0.00     0.093 A 
ATOM     17  C   UNL     1       4.391  -3.323  -7.007  1.00  0.00     0.047 A 
ATOM     18  C   UNL     1       4.949  -4.581  -7.244  1.00  0.00     0.119 A 
BRANCH  14  19
ATOM     19  O   UNL     1       8.313  -3.644  -8.470  1.00  0.00    -0.507 OA
ATOM     20  H   UNL     1       8.659  -4.522  -8.840  1.00  0.00     0.293 HD
ENDBRANCH  14  19
BRANCH  18  21
ATOM     21  O   UNL     1       4.189  -5.724  -7.011  1.00  0.00    -0.508 OA
ATOM     22  H   UNL     1       3.653  -5.839  -6.159  1.00  0.00     0.293 HD
ENDBRANCH  18  21
ENDBRANCH  11  13
ENDBRANCH   2  11
TORSDOF 6
ENDMDL
MODEL 6
REMARK VINA RESULT:    -4.711     10.651     13.063
REMARK INTER + INTRA:          -6.525
REMARK INTER:                  -5.870
REMARK INTRA:                  -0.655
REMARK UNBOUND:                -0.574
REMARK SMILES O=C(C=Cc1ccc(O)cc1)c1ccc(O)cc1O
REMARK SMILES IDX 4 1 3 2 5 3 6 4 7 5 8 6 11 7 10 8 9 9 2 11 1 12 12 13 18 14
REMARK SMILES IDX 13 15 17 16 14 17 15 18 19 19 16 21
REMARK H PARENT 9 10 19 20 16 22
REMARK Flexibility Score: inf
ROOT
ATOM      1  C   UNL     1       7.717  -0.022  -7.000  1.00  0.00     0.012 C 
ATOM      2  C   UNL     1       6.433  -0.407  -7.008  1.00  0.00     0.053 C 
ENDROOT
BRANCH   1   3
ATOM      3  C   UNL     1       8.311   0.837  -5.947  1.00  0.00    -0.025 A 
ATOM      4  C   UNL     1       7.899   2.179  -5.862  1.00  0.00     0.012 A 
ATOM      5  C   UNL     1       8.440   3.028  -4.891  1.00  0.00     0.047 A 
ATOM      6  C   UNL     1       9.407   2.554  -4.001  1.00  0.00     0.115 A 
ATOM      7  C   UNL     1       9.299   0.371  -5.056  1.00  0.00     0.012 A 
ATOM      8  C   UNL     1       9.838   1.225  -4.087  1.00  0.00     0.047 A 
BRANCH   6   9
ATOM      9  O   UNL     1       9.937   3.412  -3.040  1.00  0.00    -0.508 OA
ATOM     10  H   UNL     1       9.973   4.414  -3.186  1.00  0.00     0.293 HD
ENDBRANCH   6   9
ENDBRANCH   1   3
BRANCH   2  11
ATOM     11  C   UNL     1       5.871  -1.252  -8.086  1.00  0.00     0.189 C 
ATOM     12  O   UNL     1       5.838  -0.821  -9.271  1.00  0.00    -0.289 OA
BRANCH  11  13
ATOM     13  C   UNL     1       5.295  -2.585  -7.790  1.00  0.00     0.064 A 
ATOM     14  C   UNL     1       3.944  -2.892  -8.067  1.00  0.00     0.130 A 
ATOM     15  C   UNL     1       6.110  -3.564  -7.195  1.00  0.00     0.020 A 
ATOM     16  C   UNL     1       3.446  -4.173  -7.783  1.00  0.00     0.093 A 
ATOM     17  C   UNL     1       5.603  -4.835  -6.910  1.00  0.00     0.047 A 
ATOM     18  C   UNL     1       4.274  -5.144  -7.207  1.00  0.00     0.119 A 
BRANCH  14  19
ATOM     19  O   UNL     1       3.090  -1.924  -8.595  1.00  0.00    -0.507 OA
ATOM     20  H   UNL     1       2.253  -1.628  -8.107  1.00  0.00     0.293 HD
ENDBRANCH  14  19
BRANCH  18  21
ATOM     21  O   UNL     1       3.785  -6.416  -6.921  1.00  0.00    -0.508 OA
ATOM     22  H   UNL     1       3.906  -6.838  -6.008  1.00  0.00     0.293 HD
ENDBRANCH  18  21
ENDBRANCH  11  13
ENDBRANCH   2  11
TORSDOF 6
ENDMDL
MODEL 7
REMARK VINA RESULT:    -4.583      2.931      4.447
REMARK INTER + INTRA:          -6.363
REMARK INTER:                  -5.863
REMARK INTRA:                  -0.500
REMARK UNBOUND:                -0.574
REMARK SMILES O=C(C=Cc1ccc(O)cc1)c1ccc(O)cc1O
REMARK SMILES IDX 4 1 3 2 5 3 6 4 7 5 8 6 11 7 10 8 9 9 2 11 1 12 12 13 18 14
REMARK SMILES IDX 13 15 17 16 14 17 15 18 19 19 16 21
REMARK H PARENT 9 10 19 20 16 22
REMARK Flexibility Score: inf
ROOT
ATOM      1  C   UNL     1       7.180   4.757   2.726  1.00  0.00     0.012 C 
ATOM      2  C   UNL     1       5.895   4.901   2.370  1.00  0.00     0.053 C 
ENDROOT
BRANCH   1   3
ATOM      3  C   UNL     1       7.614   4.171   4.018  1.00  0.00    -0.025 A 
ATOM      4  C   UNL     1       8.990   4.091   4.292  1.00  0.00     0.012 A 
ATOM      5  C   UNL     1       9.445   3.537   5.492  1.00  0.00     0.047 A 
ATOM      6  C   UNL     1       8.534   3.044   6.430  1.00  0.00     0.115 A 
ATOM      7  C   UNL     1       6.701   3.657   4.961  1.00  0.00     0.012 A 
ATOM      8  C   UNL     1       7.161   3.103   6.161  1.00  0.00     0.047 A 
BRANCH   6   9
ATOM      9  O   UNL     1       9.001   2.495   7.622  1.00  0.00    -0.508 OA
ATOM     10  H   UNL     1       8.380   2.016   8.264  1.00  0.00     0.293 HD
ENDBRANCH   6   9
ENDBRANCH   1   3
BRANCH   2  11
ATOM     11  C   UNL     1       5.499   5.505   1.078  1.00  0.00     0.189 C 
ATOM     12  O   UNL     1       6.144   5.227   0.030  1.00  0.00    -0.289 OA
BRANCH  11  13
ATOM     13  C   UNL     1       4.383   6.476   0.999  1.00  0.00     0.064 A 
ATOM     14  C   UNL     1       4.607   7.871   0.995  1.00  0.00     0.130 A 
ATOM     15  C   UNL     1       3.062   5.996   0.950  1.00  0.00     0.020 A 
ATOM     16  C   UNL     1       3.519   8.753   0.903  1.00  0.00     0.093 A 
ATOM     17  C   UNL     1       1.985   6.883   0.866  1.00  0.00     0.047 A 
ATOM     18  C   UNL     1       2.211   8.261   0.838  1.00  0.00     0.119 A 
BRANCH  14  19
ATOM     19  O   UNL     1       5.900   8.383   1.108  1.00  0.00    -0.507 OA
ATOM     20  H   UNL     1       6.084   9.379   1.071  1.00  0.00     0.293 HD
ENDBRANCH  14  19
BRANCH  18  21
ATOM     21  O   UNL     1       1.127   9.132   0.749  1.00  0.00    -0.508 OA
ATOM     22  H   UNL     1       1.243  10.133   0.846  1.00  0.00     0.293 HD
ENDBRANCH  18  21
ENDBRANCH  11  13
ENDBRANCH   2  11
TORSDOF 6
ENDMDL
MODEL 8
REMARK VINA RESULT:    -4.558     10.125     12.787
REMARK INTER + INTRA:          -6.332
REMARK INTER:                  -5.694
REMARK INTRA:                  -0.638
REMARK UNBOUND:                -0.574
REMARK SMILES O=C(C=Cc1ccc(O)cc1)c1ccc(O)cc1O
REMARK SMILES IDX 4 1 3 2 5 3 6 4 7 5 8 6 11 7 10 8 9 9 2 11 1 12 12 13 18 14
REMARK SMILES IDX 13 15 17 16 14 17 15 18 19 19 16 21
REMARK H PARENT 9 10 19 20 16 22
REMARK Flexibility Score: inf
ROOT
ATOM      1  C   UNL     1       6.734  -1.403  -7.695  1.00  0.00     0.012 C 
ATOM      2  C   UNL     1       6.715  -0.407  -6.797  1.00  0.00     0.053 C 
ENDROOT
BRANCH   1   3
ATOM      3  C   UNL     1       5.990  -2.676  -7.527  1.00  0.00    -0.025 A 
ATOM      4  C   UNL     1       4.605  -2.621  -7.299  1.00  0.00     0.012 A 
ATOM      5  C   UNL     1       3.866  -3.795  -7.123  1.00  0.00     0.047 A 
ATOM      6  C   UNL     1       4.501  -5.039  -7.161  1.00  0.00     0.115 A 
ATOM      7  C   UNL     1       6.627  -3.934  -7.548  1.00  0.00     0.012 A 
ATOM      8  C   UNL     1       5.884  -5.106  -7.371  1.00  0.00     0.047 A 
BRANCH   6   9
ATOM      9  O   UNL     1       3.752  -6.200  -6.985  1.00  0.00    -0.508 OA
ATOM     10  H   UNL     1       2.943  -6.401  -7.562  1.00  0.00     0.293 HD
ENDBRANCH   6   9
ENDBRANCH   1   3
BRANCH   2  11
ATOM     11  C   UNL     1       7.482   0.843  -6.992  1.00  0.00     0.189 C 
ATOM     12  O   UNL     1       7.603   1.333  -8.148  1.00  0.00    -0.289 OA
BRANCH  11  13
ATOM     13  C   UNL     1       8.160   1.508  -5.854  1.00  0.00     0.064 A 
ATOM     14  C   UNL     1       7.985   2.884  -5.584  1.00  0.00     0.130 A 
ATOM     15  C   UNL     1       9.020   0.755  -5.036  1.00  0.00     0.020 A 
ATOM     16  C   UNL     1       8.636   3.468  -4.486  1.00  0.00     0.093 A 
ATOM     17  C   UNL     1       9.668   1.348  -3.949  1.00  0.00     0.047 A 
ATOM     18  C   UNL     1       9.475   2.702  -3.669  1.00  0.00     0.119 A 
BRANCH  14  19
ATOM     19  O   UNL     1       7.192   3.676  -6.414  1.00  0.00    -0.507 OA
ATOM     20  H   UNL     1       7.528   4.554  -6.793  1.00  0.00     0.293 HD
ENDBRANCH  14  19
BRANCH  18  21
ATOM     21  O   UNL     1      10.125   3.277  -2.579  1.00  0.00    -0.508 OA
ATOM     22  H   UNL     1      10.445   2.717  -1.798  1.00  0.00     0.293 HD
ENDBRANCH  18  21
ENDBRANCH  11  13
ENDBRANCH   2  11
TORSDOF 6
ENDMDL
MODEL 9
REMARK VINA RESULT:    -4.512      4.958      8.031
REMARK INTER + INTRA:          -6.273
REMARK INTER:                  -5.827
REMARK INTRA:                  -0.447
REMARK UNBOUND:                -0.574
REMARK SMILES O=C(C=Cc1ccc(O)cc1)c1ccc(O)cc1O
REMARK SMILES IDX 4 1 3 2 5 3 6 4 7 5 8 6 11 7 10 8 9 9 2 11 1 12 12 13 18 14
REMARK SMILES IDX 13 15 17 16 14 17 15 18 19 19 16 21
REMARK H PARENT 9 10 19 20 16 22
REMARK Flexibility Score: inf
ROOT
ATOM      1  C   UNL     1      10.125   3.905  -2.524  1.00  0.00     0.012 C 
ATOM      2  C   UNL     1       9.066   4.555  -2.018  1.00  0.00     0.053 C 
ENDROOT
BRANCH   1   3
ATOM      3  C   UNL     1      10.015   2.771  -3.474  1.00  0.00    -0.025 A 
ATOM      4  C   UNL     1      10.116   1.462  -2.973  1.00  0.00     0.012 A 
ATOM      5  C   UNL     1      10.030   0.362  -3.833  1.00  0.00     0.047 A 
ATOM      6  C   UNL     1       9.854   0.555  -5.206  1.00  0.00     0.115 A 
ATOM      7  C   UNL     1       9.855   2.958  -4.862  1.00  0.00     0.012 A 
ATOM      8  C   UNL     1       9.769   1.855  -5.719  1.00  0.00     0.047 A 
BRANCH   6   9
ATOM      9  O   UNL     1       9.769  -0.549  -6.051  1.00  0.00    -0.508 OA
ATOM     10  H   UNL     1      10.280  -0.587  -6.926  1.00  0.00     0.293 HD
ENDBRANCH   6   9
ENDBRANCH   1   3
BRANCH   2  11
ATOM     11  C   UNL     1       9.214   5.673  -1.059  1.00  0.00     0.189 C 
ATOM     12  O   UNL     1       9.957   6.651  -1.344  1.00  0.00    -0.289 OA
BRANCH  11  13
ATOM     13  C   UNL     1       8.540   5.642   0.260  1.00  0.00     0.064 A 
ATOM     14  C   UNL     1       7.173   5.968   0.407  1.00  0.00     0.130 A 
ATOM     15  C   UNL     1       9.288   5.302   1.401  1.00  0.00     0.020 A 
ATOM     16  C   UNL     1       6.574   5.910   1.675  1.00  0.00     0.093 A 
ATOM     17  C   UNL     1       8.683   5.254   2.660  1.00  0.00     0.047 A 
ATOM     18  C   UNL     1       7.327   5.553   2.799  1.00  0.00     0.119 A 
BRANCH  14  19
ATOM     19  O   UNL     1       6.417   6.373  -0.693  1.00  0.00    -0.507 OA
ATOM     20  H   UNL     1       6.599   6.018  -1.625  1.00  0.00     0.293 HD
ENDBRANCH  14  19
BRANCH  18  21
ATOM     21  O   UNL     1       6.737   5.496   4.060  1.00  0.00    -0.508 OA
ATOM     22  H   UNL     1       6.424   4.619   4.459  1.00  0.00     0.293 HD
ENDBRANCH  18  21
ENDBRANCH  11  13
ENDBRANCH   2  11
TORSDOF 6
ENDMDL
