MODEL 1
REMARK VINA RESULT:    -1.550      0.000      0.000
REMARK INTER + INTRA:          -6.033
REMARK INTER:                  -3.905
REMARK INTRA:                  -2.128
REMARK UNBOUND:                -2.128
REMARK SMILES CCCCCCCCCCCCCCCCCCCCCCCCCCCC(=O)[O-]
REMARK SMILES IDX 15 1 16 2 17 3 18 4 19 5 20 6 21 7 22 8 23 9 24 10 25 11
REMARK SMILES IDX 26 12 27 13 28 14 29 15 30 16 14 17 13 18 12 19 11 20 10 21
REMARK SMILES IDX 9 22 8 23 7 24 6 25 5 26 4 27 3 28 2 29 1 30
REMARK H PARENT
REMARK Flexibility Score: inf
ROOT
ATOM      1  C   UNL     1       1.145  22.773  25.095  1.00  0.00     0.000 C 
ENDROOT
BRANCH   1   2
ATOM      2  C   UNL     1       2.087  22.924  26.299  1.00  0.00     0.000 C 
BRANCH   2   3
ATOM      3  C   UNL     1       3.057  24.112  26.157  1.00  0.00     0.000 C 
BRANCH   3   4
ATOM      4  C   UNL     1       4.474  23.744  25.675  1.00  0.00     0.000 C 
BRANCH   4   5
ATOM      5  C   UNL     1       5.575  24.203  26.644  1.00  0.00     0.000 C 
BRANCH   5   6
ATOM      6  C   UNL     1       6.657  23.129  26.799  1.00  0.00     0.000 C 
BRANCH   6   7
ATOM      7  C   UNL     1       6.029  21.748  27.041  1.00  0.00     0.000 C 
BRANCH   7   8
ATOM      8  C   UNL     1       7.032  20.592  26.878  1.00  0.00     0.000 C 
BRANCH   8   9
ATOM      9  C   UNL     1       6.403  19.188  26.822  1.00  0.00     0.000 C 
BRANCH   9  10
ATOM     10  C   UNL     1       6.776  18.411  25.547  1.00  0.00     0.000 C 
BRANCH  10  11
ATOM     11  C   UNL     1       6.537  16.892  25.691  1.00  0.00     0.000 C 
BRANCH  11  12
ATOM     12  C   UNL     1       5.582  16.310  24.630  1.00  0.00     0.006 C 
BRANCH  12  13
ATOM     13  C   UNL     1       4.289  15.710  25.203  1.00  0.00     0.053 C 
BRANCH  13  14
ATOM     14  C   UNL     1       3.297  15.371  24.131  1.00  0.00     0.041 C 
ATOM     15  O   UNL     1       3.687  15.123  22.960  1.00  0.00    -0.550 OA
ATOM     16  O   UNL     1       1.939  15.322  24.425  1.00  0.00    -0.550 OA
ENDBRANCH  13  14
ENDBRANCH  12  13
ENDBRANCH  11  12
ENDBRANCH  10  11
ENDBRANCH   9  10
ENDBRANCH   8   9
ENDBRANCH   7   8
ENDBRANCH   6   7
ENDBRANCH   5   6
ENDBRANCH   4   5
ENDBRANCH   3   4
ENDBRANCH   2   3
ENDBRANCH   1   2
BRANCH   1  17
ATOM     17  C   UNL     1       1.789  21.904  24.004  1.00  0.00     0.000 C 
BRANCH  17  18
ATOM     18  C   UNL     1       1.162  22.129  22.616  1.00  0.00     0.000 C 
BRANCH  18  19
ATOM     19  C   UNL     1       2.019  22.963  21.641  1.00  0.00     0.000 C 
BRANCH  19  20
ATOM     20  C   UNL     1       3.313  23.540  22.242  1.00  0.00     0.000 C 
BRANCH  20  21
ATOM     21  C   UNL     1       3.265  25.070  22.398  1.00  0.00     0.000 C 
BRANCH  21  22
ATOM     22  C   UNL     1       1.834  25.609  22.545  1.00  0.00    -0.000 C 
BRANCH  22  23
ATOM     23  C   UNL     1       1.585  26.868  21.697  1.00  0.00    -0.000 C 
BRANCH  23  24
ATOM     24  C   UNL     1       1.045  28.044  22.530  1.00  0.00    -0.000 C 
BRANCH  24  25
ATOM     25  C   UNL     1      -0.331  28.532  22.039  1.00  0.00    -0.000 C 
BRANCH  25  26
ATOM     26  C   UNL     1      -0.330  28.879  20.534  1.00  0.00    -0.000 C 
BRANCH  26  27
ATOM     27  C   UNL     1      -1.453  29.853  20.123  1.00  0.00    -0.000 C 
BRANCH  27  28
ATOM     28  C   UNL     1      -1.051  31.340  20.120  1.00  0.00    -0.000 C 
BRANCH  28  29
ATOM     29  C   UNL     1      -1.553  32.141  18.905  1.00  0.00    -0.003 C 
ATOM     30  C   UNL     1      -2.961  31.739  18.466  1.00  0.00     0.004 C 
ENDBRANCH  28  29
ENDBRANCH  27  28
ENDBRANCH  26  27
ENDBRANCH  25  26
ENDBRANCH  24  25
ENDBRANCH  23  24
ENDBRANCH  22  23
ENDBRANCH  21  22
ENDBRANCH  20  21
ENDBRANCH  19  20
ENDBRANCH  18  19
ENDBRANCH  17  18
ENDBRANCH   1  17
TORSDOF 26
ENDMDL
MODEL 2
REMARK VINA RESULT:    -0.002      1.312      2.180
REMARK INTER + INTRA:          -2.132
REMARK INTER:                  -1.411
REMARK INTRA:                  -0.721
REMARK UNBOUND:                -2.128
REMARK SMILES CCCCCCCCCCCCCCCCCCCCCCCCCCCC(=O)[O-]
REMARK SMILES IDX 15 1 16 2 17 3 18 4 19 5 20 6 21 7 22 8 23 9 24 10 25 11
REMARK SMILES IDX 26 12 27 13 28 14 29 15 30 16 14 17 13 18 12 19 11 20 10 21
REMARK SMILES IDX 9 22 8 23 7 24 6 25 5 26 4 27 3 28 2 29 1 30
REMARK H PARENT
REMARK Flexibility Score: inf
ROOT
ATOM      1  C   UNL     1       1.417  23.739  24.317  1.00  0.00     0.000 C 
ENDROOT
BRANCH   1   2
ATOM      2  C   UNL     1       1.537  22.875  25.581  1.00  0.00     0.000 C 
BRANCH   2   3
ATOM      3  C   UNL     1       2.988  22.738  26.079  1.00  0.00     0.000 C 
BRANCH   3   4
ATOM      4  C   UNL     1       3.537  23.966  26.832  1.00  0.00     0.000 C 
BRANCH   4   5
ATOM      5  C   UNL     1       5.070  23.962  26.946  1.00  0.00     0.000 C 
BRANCH   5   6
ATOM      6  C   UNL     1       5.710  23.206  25.777  1.00  0.00     0.000 C 
BRANCH   6   7
ATOM      7  C   UNL     1       6.870  22.324  26.262  1.00  0.00     0.000 C 
BRANCH   7   8
ATOM      8  C   UNL     1       6.398  21.040  26.967  1.00  0.00     0.000 C 
BRANCH   8   9
ATOM      9  C   UNL     1       6.958  19.732  26.378  1.00  0.00     0.000 C 
BRANCH   9  10
ATOM     10  C   UNL     1       6.229  18.479  26.894  1.00  0.00     0.000 C 
BRANCH  10  11
ATOM     11  C   UNL     1       6.425  17.258  25.968  1.00  0.00     0.000 C 
BRANCH  11  12
ATOM     12  C   UNL     1       5.312  16.200  26.091  1.00  0.00     0.006 C 
BRANCH  12  13
ATOM     13  C   UNL     1       4.235  16.284  24.999  1.00  0.00     0.053 C 
BRANCH  13  14
ATOM     14  C   UNL     1       3.125  15.300  25.219  1.00  0.00     0.041 C 
ATOM     15  O   UNL     1       2.042  15.414  24.586  1.00  0.00    -0.550 OA
ATOM     16  O   UNL     1       3.286  14.252  26.117  1.00  0.00    -0.550 OA
ENDBRANCH  13  14
ENDBRANCH  12  13
ENDBRANCH  11  12
ENDBRANCH  10  11
ENDBRANCH   9  10
ENDBRANCH   8   9
ENDBRANCH   7   8
ENDBRANCH   6   7
ENDBRANCH   5   6
ENDBRANCH   4   5
ENDBRANCH   3   4
ENDBRANCH   2   3
ENDBRANCH   1   2
BRANCH   1  17
ATOM     17  C   UNL     1       2.313  23.193  23.196  1.00  0.00     0.000 C 
BRANCH  17  18
ATOM     18  C   UNL     1       1.718  23.417  21.794  1.00  0.00     0.000 C 
BRANCH  18  19
ATOM     19  C   UNL     1       1.919  24.835  21.219  1.00  0.00     0.000 C 
BRANCH  19  20
ATOM     20  C   UNL     1       1.665  25.983  22.212  1.00  0.00     0.000 C 
BRANCH  20  21
ATOM     21  C   UNL     1       2.540  27.216  21.931  1.00  0.00     0.000 C 
BRANCH  21  22
ATOM     22  C   UNL     1       1.716  28.495  21.719  1.00  0.00    -0.000 C 
BRANCH  22  23
ATOM     23  C   UNL     1       2.545  29.641  21.113  1.00  0.00    -0.000 C 
BRANCH  23  24
ATOM     24  C   UNL     1       1.673  30.817  20.642  1.00  0.00    -0.000 C 
BRANCH  24  25
ATOM     25  C   UNL     1       0.395  30.353  19.920  1.00  0.00    -0.000 C 
BRANCH  25  26
ATOM     26  C   UNL     1      -0.767  31.359  20.073  1.00  0.00    -0.000 C 
BRANCH  26  27
ATOM     27  C   UNL     1      -2.058  30.930  19.346  1.00  0.00    -0.000 C 
BRANCH  27  28
ATOM     28  C   UNL     1      -2.771  29.709  19.957  1.00  0.00    -0.000 C 
BRANCH  28  29
ATOM     29  C   UNL     1      -1.926  28.906  20.962  1.00  0.00    -0.003 C 
ATOM     30  C   UNL     1      -1.336  27.631  20.361  1.00  0.00     0.004 C 
ENDBRANCH  28  29
ENDBRANCH  27  28
ENDBRANCH  26  27
ENDBRANCH  25  26
ENDBRANCH  24  25
ENDBRANCH  23  24
ENDBRANCH  22  23
ENDBRANCH  21  22
ENDBRANCH  20  21
ENDBRANCH  19  20
ENDBRANCH  18  19
ENDBRANCH  17  18
ENDBRANCH   1  17
TORSDOF 26
ENDMDL
MODEL 3
REMARK VINA RESULT:     0.017      2.153      4.124
REMARK INTER + INTRA:          -2.085
REMARK INTER:                   0.634
REMARK INTRA:                  -2.718
REMARK UNBOUND:                -2.128
REMARK SMILES CCCCCCCCCCCCCCCCCCCCCCCCCCCC(=O)[O-]
REMARK SMILES IDX 15 1 16 2 17 3 18 4 19 5 20 6 21 7 22 8 23 9 24 10 25 11
REMARK SMILES IDX 26 12 27 13 28 14 29 15 30 16 14 17 13 18 12 19 11 20 10 21
REMARK SMILES IDX 9 22 8 23 7 24 6 25 5 26 4 27 3 28 2 29 1 30
REMARK H PARENT
REMARK Flexibility Score: inf
ROOT
ATOM      1  C   UNL     1       3.432  22.687  25.661  1.00  0.00     0.000 C 
ENDROOT
BRANCH   1   2
ATOM      2  C   UNL     1       2.899  23.926  24.926  1.00  0.00     0.000 C 
BRANCH   2   3
ATOM      3  C   UNL     1       3.647  24.211  23.610  1.00  0.00     0.000 C 
BRANCH   3   4
ATOM      4  C   UNL     1       3.051  23.534  22.361  1.00  0.00     0.000 C 
BRANCH   4   5
ATOM      5  C   UNL     1       1.560  23.198  22.516  1.00  0.00     0.000 C 
BRANCH   5   6
ATOM      6  C   UNL     1       1.260  21.776  22.029  1.00  0.00     0.000 C 
BRANCH   6   7
ATOM      7  C   UNL     1       1.942  20.732  22.928  1.00  0.00     0.000 C 
BRANCH   7   8
ATOM      8  C   UNL     1       1.725  19.287  22.446  1.00  0.00     0.000 C 
BRANCH   8   9
ATOM      9  C   UNL     1       2.778  18.274  22.934  1.00  0.00     0.000 C 
BRANCH   9  10
ATOM     10  C   UNL     1       2.246  16.831  22.988  1.00  0.00     0.000 C 
BRANCH  10  11
ATOM     11  C   UNL     1       3.377  15.782  22.918  1.00  0.00     0.000 C 
BRANCH  11  12
ATOM     12  C   UNL     1       3.558  14.977  24.219  1.00  0.00     0.006 C 
BRANCH  12  13
ATOM     13  C   UNL     1       4.764  15.407  25.068  1.00  0.00     0.053 C 
BRANCH  13  14
ATOM     14  C   UNL     1       5.908  15.889  24.226  1.00  0.00     0.041 C 
ATOM     15  O   UNL     1       6.550  15.080  23.504  1.00  0.00    -0.550 OA
ATOM     16  O   UNL     1       6.264  17.232  24.234  1.00  0.00    -0.550 OA
ENDBRANCH  13  14
ENDBRANCH  12  13
ENDBRANCH  11  12
ENDBRANCH  10  11
ENDBRANCH   9  10
ENDBRANCH   8   9
ENDBRANCH   7   8
ENDBRANCH   6   7
ENDBRANCH   5   6
ENDBRANCH   4   5
ENDBRANCH   3   4
ENDBRANCH   2   3
ENDBRANCH   1   2
BRANCH   1  17
ATOM     17  C   UNL     1       2.282  21.901  26.308  1.00  0.00     0.000 C 
BRANCH  17  18
ATOM     18  C   UNL     1       1.316  22.800  27.100  1.00  0.00     0.000 C 
BRANCH  18  19
ATOM     19  C   UNL     1      -0.173  22.647  26.723  1.00  0.00     0.000 C 
BRANCH  19  20
ATOM     20  C   UNL     1      -0.915  23.968  26.452  1.00  0.00     0.000 C 
BRANCH  20  21
ATOM     21  C   UNL     1      -0.241  25.177  27.125  1.00  0.00     0.000 C 
BRANCH  21  22
ATOM     22  C   UNL     1       0.054  26.319  26.140  1.00  0.00    -0.000 C 
BRANCH  22  23
ATOM     23  C   UNL     1       0.085  25.846  24.677  1.00  0.00    -0.000 C 
BRANCH  23  24
ATOM     24  C   UNL     1       1.093  26.634  23.822  1.00  0.00    -0.000 C 
BRANCH  24  25
ATOM     25  C   UNL     1       0.437  27.803  23.065  1.00  0.00    -0.000 C 
BRANCH  25  26
ATOM     26  C   UNL     1       1.149  28.114  21.730  1.00  0.00    -0.000 C 
BRANCH  26  27
ATOM     27  C   UNL     1       0.484  29.246  20.921  1.00  0.00    -0.000 C 
BRANCH  27  28
ATOM     28  C   UNL     1      -0.928  28.923  20.396  1.00  0.00    -0.000 C 
BRANCH  28  29
ATOM     29  C   UNL     1      -1.918  30.101  20.445  1.00  0.00    -0.003 C 
ATOM     30  C   UNL     1      -1.440  31.317  19.652  1.00  0.00     0.004 C 
ENDBRANCH  28  29
ENDBRANCH  27  28
ENDBRANCH  26  27
ENDBRANCH  25  26
ENDBRANCH  24  25
ENDBRANCH  23  24
ENDBRANCH  22  23
ENDBRANCH  21  22
ENDBRANCH  20  21
ENDBRANCH  19  20
ENDBRANCH  18  19
ENDBRANCH  17  18
ENDBRANCH   1  17
TORSDOF 26
ENDMDL
MODEL 4
REMARK VINA RESULT:     0.078      2.171      4.116
REMARK INTER + INTRA:          -1.931
REMARK INTER:                  -0.504
REMARK INTRA:                  -1.426
REMARK UNBOUND:                -2.128
REMARK SMILES CCCCCCCCCCCCCCCCCCCCCCCCCCCC(=O)[O-]
REMARK SMILES IDX 15 1 16 2 17 3 18 4 19 5 20 6 21 7 22 8 23 9 24 10 25 11
REMARK SMILES IDX 26 12 27 13 28 14 29 15 30 16 14 17 13 18 12 19 11 20 10 21
REMARK SMILES IDX 9 22 8 23 7 24 6 25 5 26 4 27 3 28 2 29 1 30
REMARK H PARENT
REMARK Flexibility Score: inf
ROOT
ATOM      1  C   UNL     1       4.131  23.996  25.331  1.00  0.00     0.000 C 
ENDROOT
BRANCH   1   2
ATOM      2  C   UNL     1       3.033  24.338  24.314  1.00  0.00     0.000 C 
BRANCH   2   3
ATOM      3  C   UNL     1       3.476  24.118  22.855  1.00  0.00     0.000 C 
BRANCH   3   4
ATOM      4  C   UNL     1       2.382  23.572  21.917  1.00  0.00     0.000 C 
BRANCH   4   5
ATOM      5  C   UNL     1       1.490  22.515  22.587  1.00  0.00     0.000 C 
BRANCH   5   6
ATOM      6  C   UNL     1       1.486  21.208  21.787  1.00  0.00     0.000 C 
BRANCH   6   7
ATOM      7  C   UNL     1       1.492  19.990  22.723  1.00  0.00     0.000 C 
BRANCH   7   8
ATOM      8  C   UNL     1       2.730  19.094  22.541  1.00  0.00     0.000 C 
BRANCH   8   9
ATOM      9  C   UNL     1       2.549  17.635  22.997  1.00  0.00     0.000 C 
BRANCH   9  10
ATOM     10  C   UNL     1       3.779  17.078  23.736  1.00  0.00     0.000 C 
BRANCH  10  11
ATOM     11  C   UNL     1       3.990  15.570  23.477  1.00  0.00     0.000 C 
BRANCH  11  12
ATOM     12  C   UNL     1       3.150  14.659  24.392  1.00  0.00     0.006 C 
BRANCH  12  13
ATOM     13  C   UNL     1       1.870  15.312  24.933  1.00  0.00     0.053 C 
BRANCH  13  14
ATOM     14  C   UNL     1       1.854  15.377  26.432  1.00  0.00     0.041 C 
ATOM     15  O   UNL     1       2.906  15.157  27.088  1.00  0.00    -0.550 OA
ATOM     16  O   UNL     1       0.678  15.685  27.106  1.00  0.00    -0.550 OA
ENDBRANCH  13  14
ENDBRANCH  12  13
ENDBRANCH  11  12
ENDBRANCH  10  11
ENDBRANCH   9  10
ENDBRANCH   8   9
ENDBRANCH   7   8
ENDBRANCH   6   7
ENDBRANCH   5   6
ENDBRANCH   4   5
ENDBRANCH   3   4
ENDBRANCH   2   3
ENDBRANCH   1   2
BRANCH   1  17
ATOM     17  C   UNL     1       3.583  23.087  26.441  1.00  0.00     0.000 C 
BRANCH  17  18
ATOM     18  C   UNL     1       2.332  23.668  27.125  1.00  0.00     0.000 C 
BRANCH  18  19
ATOM     19  C   UNL     1       1.036  22.857  26.911  1.00  0.00     0.000 C 
BRANCH  19  20
ATOM     20  C   UNL     1       0.104  23.398  25.813  1.00  0.00     0.000 C 
BRANCH  20  21
ATOM     21  C   UNL     1      -0.828  24.513  26.320  1.00  0.00     0.000 C 
BRANCH  21  22
ATOM     22  C   UNL     1      -0.147  25.889  26.351  1.00  0.00    -0.000 C 
BRANCH  22  23
ATOM     23  C   UNL     1       0.813  26.102  25.168  1.00  0.00    -0.000 C 
BRANCH  23  24
ATOM     24  C   UNL     1       0.208  26.994  24.069  1.00  0.00    -0.000 C 
BRANCH  24  25
ATOM     25  C   UNL     1       0.919  26.827  22.714  1.00  0.00    -0.000 C 
BRANCH  25  26
ATOM     26  C   UNL     1       0.968  28.143  21.908  1.00  0.00    -0.000 C 
BRANCH  26  27
ATOM     27  C   UNL     1      -0.085  28.221  20.784  1.00  0.00    -0.000 C 
BRANCH  27  28
ATOM     28  C   UNL     1      -1.005  29.455  20.843  1.00  0.00    -0.000 C 
BRANCH  28  29
ATOM     29  C   UNL     1      -0.511  30.666  20.033  1.00  0.00    -0.003 C 
ATOM     30  C   UNL     1      -1.646  31.434  19.355  1.00  0.00     0.004 C 
ENDBRANCH  28  29
ENDBRANCH  27  28
ENDBRANCH  26  27
ENDBRANCH  25  26
ENDBRANCH  24  25
ENDBRANCH  23  24
ENDBRANCH  22  23
ENDBRANCH  21  22
ENDBRANCH  20  21
ENDBRANCH  19  20
ENDBRANCH  18  19
ENDBRANCH  17  18
ENDBRANCH   1  17
TORSDOF 26
ENDMDL
MODEL 5
REMARK VINA RESULT:     0.663      4.921     10.001
REMARK INTER + INTRA:          -0.458
REMARK INTER:                  -0.737
REMARK INTRA:                   0.280
REMARK UNBOUND:                -2.128
REMARK SMILES CCCCCCCCCCCCCCCCCCCCCCCCCCCC(=O)[O-]
REMARK SMILES IDX 15 1 16 2 17 3 18 4 19 5 20 6 21 7 22 8 23 9 24 10 25 11
REMARK SMILES IDX 26 12 27 13 28 14 29 15 30 16 14 17 13 18 12 19 11 20 10 21
REMARK SMILES IDX 9 22 8 23 7 24 6 25 5 26 4 27 3 28 2 29 1 30
REMARK H PARENT
REMARK Flexibility Score: inf
ROOT
ATOM      1  C   UNL     1       1.263  22.963  26.038  1.00  0.00     0.000 C 
ENDROOT
BRANCH   1   2
ATOM      2  C   UNL     1       0.487  23.740  27.111  1.00  0.00     0.000 C 
BRANCH   2   3
ATOM      3  C   UNL     1      -0.963  24.051  26.697  1.00  0.00     0.000 C 
BRANCH   3   4
ATOM      4  C   UNL     1      -1.121  25.217  25.702  1.00  0.00     0.000 C 
BRANCH   4   5
ATOM      5  C   UNL     1       0.029  26.233  25.782  1.00  0.00     0.000 C 
BRANCH   5   6
ATOM      6  C   UNL     1       1.192  25.823  24.872  1.00  0.00     0.000 C 
BRANCH   6   7
ATOM      7  C   UNL     1       0.874  26.132  23.401  1.00  0.00     0.000 C 
BRANCH   7   8
ATOM      8  C   UNL     1       0.719  27.638  23.120  1.00  0.00     0.000 C 
BRANCH   8   9
ATOM      9  C   UNL     1       0.962  28.055  21.658  1.00  0.00     0.000 C 
BRANCH   9  10
ATOM     10  C   UNL     1       1.973  29.207  21.521  1.00  0.00     0.000 C 
BRANCH  10  11
ATOM     11  C   UNL     1       1.338  30.481  20.922  1.00  0.00     0.000 C 
BRANCH  11  12
ATOM     12  C   UNL     1       0.145  30.201  19.989  1.00  0.00     0.006 C 
BRANCH  12  13
ATOM     13  C   UNL     1      -0.716  31.432  19.673  1.00  0.00     0.053 C 
BRANCH  13  14
ATOM     14  C   UNL     1      -2.167  31.087  19.517  1.00  0.00     0.041 C 
ATOM     15  O   UNL     1      -2.611  29.995  19.961  1.00  0.00    -0.550 OA
ATOM     16  O   UNL     1      -3.033  31.973  18.886  1.00  0.00    -0.550 OA
ENDBRANCH  13  14
ENDBRANCH  12  13
ENDBRANCH  11  12
ENDBRANCH  10  11
ENDBRANCH   9  10
ENDBRANCH   8   9
ENDBRANCH   7   8
ENDBRANCH   6   7
ENDBRANCH   5   6
ENDBRANCH   4   5
ENDBRANCH   3   4
ENDBRANCH   2   3
ENDBRANCH   1   2
BRANCH   1  17
ATOM     17  C   UNL     1       2.127  21.865  26.676  1.00  0.00     0.000 C 
BRANCH  17  18
ATOM     18  C   UNL     1       3.519  22.370  27.096  1.00  0.00     0.000 C 
BRANCH  18  19
ATOM     19  C   UNL     1       4.671  21.368  26.875  1.00  0.00     0.000 C 
BRANCH  19  20
ATOM     20  C   UNL     1       6.082  21.933  27.117  1.00  0.00     0.000 C 
BRANCH  20  21
ATOM     21  C   UNL     1       6.794  22.329  25.812  1.00  0.00     0.000 C 
BRANCH  21  22
ATOM     22  C   UNL     1       7.124  23.828  25.745  1.00  0.00    -0.000 C 
BRANCH  22  23
ATOM     23  C   UNL     1       6.929  24.415  24.336  1.00  0.00    -0.000 C 
BRANCH  23  24
ATOM     24  C   UNL     1       5.795  23.723  23.559  1.00  0.00    -0.000 C 
BRANCH  24  25
ATOM     25  C   UNL     1       4.588  24.651  23.325  1.00  0.00    -0.000 C 
BRANCH  25  26
ATOM     26  C   UNL     1       3.337  24.198  24.109  1.00  0.00    -0.000 C 
BRANCH  26  27
ATOM     27  C   UNL     1       2.442  23.211  23.332  1.00  0.00    -0.000 C 
BRANCH  27  28
ATOM     28  C   UNL     1       2.134  23.622  21.879  1.00  0.00    -0.000 C 
BRANCH  28  29
ATOM     29  C   UNL     1       1.376  22.564  21.058  1.00  0.00    -0.003 C 
ATOM     30  C   UNL     1       1.082  21.290  21.851  1.00  0.00     0.004 C 
ENDBRANCH  28  29
ENDBRANCH  27  28
ENDBRANCH  26  27
ENDBRANCH  25  26
ENDBRANCH  24  25
ENDBRANCH  23  24
ENDBRANCH  22  23
ENDBRANCH  21  22
ENDBRANCH  20  21
ENDBRANCH  19  20
ENDBRANCH  18  19
ENDBRANCH  17  18
ENDBRANCH   1  17
TORSDOF 26
ENDMDL
