MODEL 1
REMARK VINA RESULT:    -2.793      0.000      0.000
REMARK INTER + INTRA:         -11.297
REMARK INTER:                  -7.038
REMARK INTRA:                  -4.259
REMARK UNBOUND:                -4.259
REMARK SMILES CCCCCCCCCCCCCCCCCCCCCCCCCCCC(=O)[O-]
REMARK SMILES IDX 15 1 16 2 17 3 18 4 19 5 20 6 21 7 22 8 23 9 24 10 25 11
REMARK SMILES IDX 26 12 27 13 28 14 29 15 30 16 14 17 13 18 12 19 11 20 10 21
REMARK SMILES IDX 9 22 8 23 7 24 6 25 5 26 4 27 3 28 2 29 1 30
REMARK H PARENT
REMARK Flexibility Score: inf
ROOT
ATOM      1  C   UNL     1       1.249   0.219  11.299  1.00  0.00     0.000 C 
ENDROOT
BRANCH   1   2
ATOM      2  C   UNL     1      -0.117   0.209  12.002  1.00  0.00     0.000 C 
BRANCH   2   3
ATOM      3  C   UNL     1      -0.476  -1.164  12.599  1.00  0.00     0.000 C 
BRANCH   3   4
ATOM      4  C   UNL     1      -1.948  -1.585  12.431  1.00  0.00     0.000 C 
BRANCH   4   5
ATOM      5  C   UNL     1      -2.933  -0.424  12.642  1.00  0.00     0.000 C 
BRANCH   5   6
ATOM      6  C   UNL     1      -4.299  -0.743  12.015  1.00  0.00     0.000 C 
BRANCH   6   7
ATOM      7  C   UNL     1      -4.348  -2.138  11.373  1.00  0.00     0.000 C 
BRANCH   7   8
ATOM      8  C   UNL     1      -5.356  -2.225  10.219  1.00  0.00     0.000 C 
BRANCH   8   9
ATOM      9  C   UNL     1      -5.164  -3.519   9.418  1.00  0.00     0.000 C 
BRANCH   9  10
ATOM     10  C   UNL     1      -4.025  -4.365  10.006  1.00  0.00     0.000 C 
BRANCH  10  11
ATOM     11  C   UNL     1      -3.368  -5.282   8.961  1.00  0.00     0.000 C 
BRANCH  11  12
ATOM     12  C   UNL     1      -1.848  -5.068   8.862  1.00  0.00     0.006 C 
BRANCH  12  13
ATOM     13  C   UNL     1      -1.354  -3.966   9.808  1.00  0.00     0.053 C 
BRANCH  13  14
ATOM     14  C   UNL     1       0.137  -3.828   9.775  1.00  0.00     0.041 C 
ATOM     15  O   UNL     1       0.665  -2.695   9.618  1.00  0.00    -0.550 OA
ATOM     16  O   UNL     1       0.944  -4.943   9.962  1.00  0.00    -0.550 OA
ENDBRANCH  13  14
ENDBRANCH  12  13
ENDBRANCH  11  12
ENDBRANCH  10  11
ENDBRANCH   9  10
ENDBRANCH   8   9
ENDBRANCH   7   8
ENDBRANCH   6   7
ENDBRANCH   5   6
ENDBRANCH   4   5
ENDBRANCH   3   4
ENDBRANCH   2   3
ENDBRANCH   1   2
BRANCH   1  17
ATOM     17  C   UNL     1       1.168   0.965   9.959  1.00  0.00     0.000 C 
BRANCH  17  18
ATOM     18  C   UNL     1       0.463   2.325  10.082  1.00  0.00     0.000 C 
BRANCH  18  19
ATOM     19  C   UNL     1       1.420   3.511   9.857  1.00  0.00     0.000 C 
BRANCH  19  20
ATOM     20  C   UNL     1       1.457   4.475  11.052  1.00  0.00     0.000 C 
BRANCH  20  21
ATOM     21  C   UNL     1       1.480   3.741  12.403  1.00  0.00     0.000 C 
BRANCH  21  22
ATOM     22  C   UNL     1       0.648   4.455  13.480  1.00  0.00    -0.000 C 
BRANCH  22  23
ATOM     23  C   UNL     1      -0.819   4.644  13.064  1.00  0.00    -0.000 C 
BRANCH  23  24
ATOM     24  C   UNL     1      -1.563   3.303  13.046  1.00  0.00    -0.000 C 
BRANCH  24  25
ATOM     25  C   UNL     1      -2.636   3.286  11.948  1.00  0.00    -0.000 C 
BRANCH  25  26
ATOM     26  C   UNL     1      -2.816   4.652  11.261  1.00  0.00    -0.000 C 
BRANCH  26  27
ATOM     27  C   UNL     1      -3.296   4.588   9.800  1.00  0.00    -0.000 C 
BRANCH  27  28
ATOM     28  C   UNL     1      -2.142   4.601   8.786  1.00  0.00    -0.000 C 
BRANCH  28  29
ATOM     29  C   UNL     1      -1.260   5.841   8.974  1.00  0.00    -0.003 C 
ATOM     30  C   UNL     1      -1.790   7.023   8.168  1.00  0.00     0.004 C 
ENDBRANCH  28  29
ENDBRANCH  27  28
ENDBRANCH  26  27
ENDBRANCH  25  26
ENDBRANCH  24  25
ENDBRANCH  23  24
ENDBRANCH  22  23
ENDBRANCH  21  22
ENDBRANCH  20  21
ENDBRANCH  19  20
ENDBRANCH  18  19
ENDBRANCH  17  18
ENDBRANCH   1  17
TORSDOF 26
ENDMDL
MODEL 2
REMARK VINA RESULT:    -2.776      3.358      5.257
REMARK INTER + INTRA:         -11.255
REMARK INTER:                  -7.273
REMARK INTRA:                  -3.982
REMARK UNBOUND:                -4.259
REMARK SMILES CCCCCCCCCCCCCCCCCCCCCCCCCCCC(=O)[O-]
REMARK SMILES IDX 15 1 16 2 17 3 18 4 19 5 20 6 21 7 22 8 23 9 24 10 25 11
REMARK SMILES IDX 26 12 27 13 28 14 29 15 30 16 14 17 13 18 12 19 11 20 10 21
REMARK SMILES IDX 9 22 8 23 7 24 6 25 5 26 4 27 3 28 2 29 1 30
REMARK H PARENT
REMARK Flexibility Score: inf
ROOT
ATOM      1  C   UNL     1       1.949  -0.304  10.421  1.00  0.00     0.000 C 
ENDROOT
BRANCH   1   2
ATOM      2  C   UNL     1       1.503  -1.611   9.748  1.00  0.00     0.000 C 
BRANCH   2   3
ATOM      3  C   UNL     1       0.570  -2.457  10.633  1.00  0.00     0.000 C 
BRANCH   3   4
ATOM      4  C   UNL     1      -0.302  -3.476   9.876  1.00  0.00     0.000 C 
BRANCH   4   5
ATOM      5  C   UNL     1      -1.748  -3.533  10.393  1.00  0.00     0.000 C 
BRANCH   5   6
ATOM      6  C   UNL     1      -1.996  -2.444  11.449  1.00  0.00     0.000 C 
BRANCH   6   7
ATOM      7  C   UNL     1      -3.474  -2.035  11.545  1.00  0.00     0.000 C 
BRANCH   7   8
ATOM      8  C   UNL     1      -4.331  -2.644  10.427  1.00  0.00     0.000 C 
BRANCH   8   9
ATOM      9  C   UNL     1      -5.816  -2.317  10.634  1.00  0.00     0.000 C 
BRANCH   9  10
ATOM     10  C   UNL     1      -5.997  -0.879  11.140  1.00  0.00     0.000 C 
BRANCH  10  11
ATOM     11  C   UNL     1      -7.306  -0.239  10.651  1.00  0.00     0.000 C 
BRANCH  11  12
ATOM     12  C   UNL     1      -7.247   1.298  10.652  1.00  0.00     0.006 C 
BRANCH  12  13
ATOM     13  C   UNL     1      -7.900   1.905   9.403  1.00  0.00     0.053 C 
BRANCH  13  14
ATOM     14  C   UNL     1      -7.544   3.350   9.232  1.00  0.00     0.041 C 
ATOM     15  O   UNL     1      -6.475   3.801   9.724  1.00  0.00    -0.550 OA
ATOM     16  O   UNL     1      -8.369   4.188   8.493  1.00  0.00    -0.550 OA
ENDBRANCH  13  14
ENDBRANCH  12  13
ENDBRANCH  11  12
ENDBRANCH  10  11
ENDBRANCH   9  10
ENDBRANCH   8   9
ENDBRANCH   7   8
ENDBRANCH   6   7
ENDBRANCH   5   6
ENDBRANCH   4   5
ENDBRANCH   3   4
ENDBRANCH   2   3
ENDBRANCH   1   2
BRANCH   1  17
ATOM     17  C   UNL     1       0.754   0.639  10.626  1.00  0.00     0.000 C 
BRANCH  17  18
ATOM     18  C   UNL     1       0.401   0.833  12.108  1.00  0.00     0.000 C 
BRANCH  18  19
ATOM     19  C   UNL     1      -1.064   1.259  12.318  1.00  0.00     0.000 C 
BRANCH  19  20
ATOM     20  C   UNL     1      -1.681   0.647  13.585  1.00  0.00     0.000 C 
BRANCH  20  21
ATOM     21  C   UNL     1      -3.179   0.968  13.726  1.00  0.00     0.000 C 
BRANCH  21  22
ATOM     22  C   UNL     1      -3.760   1.646  12.476  1.00  0.00    -0.000 C 
BRANCH  22  23
ATOM     23  C   UNL     1      -4.641   2.857  12.815  1.00  0.00    -0.000 C 
BRANCH  23  24
ATOM     24  C   UNL     1      -4.031   4.153  12.265  1.00  0.00    -0.000 C 
BRANCH  24  25
ATOM     25  C   UNL     1      -3.206   3.876  10.999  1.00  0.00    -0.000 C 
BRANCH  25  26
ATOM     26  C   UNL     1      -2.965   5.138  10.151  1.00  0.00    -0.000 C 
BRANCH  26  27
ATOM     27  C   UNL     1      -1.574   5.228   9.498  1.00  0.00    -0.000 C 
BRANCH  27  28
ATOM     28  C   UNL     1      -0.722   3.969   9.718  1.00  0.00    -0.000 C 
BRANCH  28  29
ATOM     29  C   UNL     1       0.491   4.276  10.605  1.00  0.00    -0.003 C 
ATOM     30  C   UNL     1       1.746   4.497   9.766  1.00  0.00     0.004 C 
ENDBRANCH  28  29
ENDBRANCH  27  28
ENDBRANCH  26  27
ENDBRANCH  25  26
ENDBRANCH  24  25
ENDBRANCH  23  24
ENDBRANCH  22  23
ENDBRANCH  21  22
ENDBRANCH  20  21
ENDBRANCH  19  20
ENDBRANCH  18  19
ENDBRANCH  17  18
ENDBRANCH   1  17
TORSDOF 26
ENDMDL
MODEL 3
REMARK VINA RESULT:    -2.693      1.544      4.193
REMARK INTER + INTRA:         -11.045
REMARK INTER:                  -7.413
REMARK INTRA:                  -3.632
REMARK UNBOUND:                -4.259
REMARK SMILES CCCCCCCCCCCCCCCCCCCCCCCCCCCC(=O)[O-]
REMARK SMILES IDX 15 1 16 2 17 3 18 4 19 5 20 6 21 7 22 8 23 9 24 10 25 11
REMARK SMILES IDX 26 12 27 13 28 14 29 15 30 16 14 17 13 18 12 19 11 20 10 21
REMARK SMILES IDX 9 22 8 23 7 24 6 25 5 26 4 27 3 28 2 29 1 30
REMARK H PARENT
REMARK Flexibility Score: inf
ROOT
ATOM      1  C   UNL     1      -2.042   4.795   8.863  1.00  0.00     0.000 C 
ENDROOT
BRANCH   1   2
ATOM      2  C   UNL     1      -3.205   4.542   9.835  1.00  0.00     0.000 C 
BRANCH   2   3
ATOM      3  C   UNL     1      -2.791   4.663  11.313  1.00  0.00     0.000 C 
BRANCH   3   4
ATOM      4  C   UNL     1      -3.858   4.213  12.329  1.00  0.00     0.000 C 
BRANCH   4   5
ATOM      5  C   UNL     1      -4.263   2.740  12.163  1.00  0.00     0.000 C 
BRANCH   5   6
ATOM      6  C   UNL     1      -3.294   1.815  12.915  1.00  0.00     0.000 C 
BRANCH   6   7
ATOM      7  C   UNL     1      -3.535   0.329  12.612  1.00  0.00     0.000 C 
BRANCH   7   8
ATOM      8  C   UNL     1      -4.985   0.035  12.198  1.00  0.00     0.000 C 
BRANCH   8   9
ATOM      9  C   UNL     1      -5.218  -1.474  12.048  1.00  0.00     0.000 C 
BRANCH   9  10
ATOM     10  C   UNL     1      -4.267  -2.076  11.004  1.00  0.00     0.000 C 
BRANCH  10  11
ATOM     11  C   UNL     1      -4.990  -2.992  10.004  1.00  0.00     0.000 C 
BRANCH  11  12
ATOM     12  C   UNL     1      -4.020  -3.906   9.234  1.00  0.00     0.006 C 
BRANCH  12  13
ATOM     13  C   UNL     1      -2.987  -4.564  10.158  1.00  0.00     0.053 C 
BRANCH  13  14
ATOM     14  C   UNL     1      -1.585  -4.329   9.685  1.00  0.00     0.041 C 
ATOM     15  O   UNL     1      -1.029  -5.159   8.916  1.00  0.00    -0.550 OA
ATOM     16  O   UNL     1      -0.908  -3.174  10.056  1.00  0.00    -0.550 OA
ENDBRANCH  13  14
ENDBRANCH  12  13
ENDBRANCH  11  12
ENDBRANCH  10  11
ENDBRANCH   9  10
ENDBRANCH   8   9
ENDBRANCH   7   8
ENDBRANCH   6   7
ENDBRANCH   5   6
ENDBRANCH   4   5
ENDBRANCH   3   4
ENDBRANCH   2   3
ENDBRANCH   1   2
BRANCH   1  17
ATOM     17  C   UNL     1      -1.858   6.298   8.612  1.00  0.00     0.000 C 
BRANCH  17  18
ATOM     18  C   UNL     1      -0.412   6.764   8.847  1.00  0.00     0.000 C 
BRANCH  18  19
ATOM     19  C   UNL     1       0.414   5.746   9.655  1.00  0.00     0.000 C 
BRANCH  19  20
ATOM     20  C   UNL     1       1.146   6.389  10.843  1.00  0.00     0.000 C 
BRANCH  20  21
ATOM     21  C   UNL     1       0.713   5.797  12.195  1.00  0.00     0.000 C 
BRANCH  21  22
ATOM     22  C   UNL     1       1.248   4.373  12.415  1.00  0.00    -0.000 C 
BRANCH  22  23
ATOM     23  C   UNL     1       0.151   3.389  12.847  1.00  0.00    -0.000 C 
BRANCH  23  24
ATOM     24  C   UNL     1       0.256   2.072  12.069  1.00  0.00    -0.000 C 
BRANCH  24  25
ATOM     25  C   UNL     1       0.222   2.324  10.554  1.00  0.00    -0.000 C 
BRANCH  25  26
ATOM     26  C   UNL     1       1.101   1.341   9.761  1.00  0.00    -0.000 C 
BRANCH  26  27
ATOM     27  C   UNL     1       2.566   1.778   9.577  1.00  0.00    -0.000 C 
BRANCH  27  28
ATOM     28  C   UNL     1       2.707   3.252   9.169  1.00  0.00    -0.000 C 
BRANCH  28  29
ATOM     29  C   UNL     1       3.905   3.449   8.232  1.00  0.00    -0.003 C 
ATOM     30  C   UNL     1       4.177   2.191   7.412  1.00  0.00     0.004 C 
ENDBRANCH  28  29
ENDBRANCH  27  28
ENDBRANCH  26  27
ENDBRANCH  25  26
ENDBRANCH  24  25
ENDBRANCH  23  24
ENDBRANCH  22  23
ENDBRANCH  21  22
ENDBRANCH  20  21
ENDBRANCH  19  20
ENDBRANCH  18  19
ENDBRANCH  17  18
ENDBRANCH   1  17
TORSDOF 26
ENDMDL
MODEL 4
REMARK VINA RESULT:    -2.682      3.538      8.399
REMARK INTER + INTRA:         -11.016
REMARK INTER:                  -7.345
REMARK INTRA:                  -3.672
REMARK UNBOUND:                -4.259
REMARK SMILES CCCCCCCCCCCCCCCCCCCCCCCCCCCC(=O)[O-]
REMARK SMILES IDX 15 1 16 2 17 3 18 4 19 5 20 6 21 7 22 8 23 9 24 10 25 11
REMARK SMILES IDX 26 12 27 13 28 14 29 15 30 16 14 17 13 18 12 19 11 20 10 21
REMARK SMILES IDX 9 22 8 23 7 24 6 25 5 26 4 27 3 28 2 29 1 30
REMARK H PARENT
REMARK Flexibility Score: inf
ROOT
ATOM      1  C   UNL     1      -4.048   0.986  12.489  1.00  0.00     0.000 C 
ENDROOT
BRANCH   1   2
ATOM      2  C   UNL     1      -5.160   1.374  13.475  1.00  0.00     0.000 C 
BRANCH   2   3
ATOM      3  C   UNL     1      -6.219   2.303  12.854  1.00  0.00     0.000 C 
BRANCH   3   4
ATOM      4  C   UNL     1      -6.322   2.242  11.318  1.00  0.00     0.000 C 
BRANCH   4   5
ATOM      5  C   UNL     1      -6.256   3.627  10.656  1.00  0.00     0.000 C 
BRANCH   5   6
ATOM      6  C   UNL     1      -5.276   4.546  11.401  1.00  0.00     0.000 C 
BRANCH   6   7
ATOM      7  C   UNL     1      -4.207   5.149  10.477  1.00  0.00     0.000 C 
BRANCH   7   8
ATOM      8  C   UNL     1      -2.990   4.231  10.300  1.00  0.00     0.000 C 
BRANCH   8   9
ATOM      9  C   UNL     1      -2.233   4.565   9.008  1.00  0.00     0.000 C 
BRANCH   9  10
ATOM     10  C   UNL     1      -0.887   5.235   9.317  1.00  0.00     0.000 C 
BRANCH  10  11
ATOM     11  C   UNL     1      -0.972   6.770   9.303  1.00  0.00     0.000 C 
BRANCH  11  12
ATOM     12  C   UNL     1      -1.537   7.317   7.981  1.00  0.00     0.006 C 
BRANCH  12  13
ATOM     13  C   UNL     1      -2.794   8.170   8.196  1.00  0.00     0.053 C 
BRANCH  13  14
ATOM     14  C   UNL     1      -3.976   7.618   7.461  1.00  0.00     0.041 C 
ATOM     15  O   UNL     1      -3.849   7.208   6.276  1.00  0.00    -0.550 OA
ATOM     16  O   UNL     1      -5.207   7.514   8.097  1.00  0.00    -0.550 OA
ENDBRANCH  13  14
ENDBRANCH  12  13
ENDBRANCH  11  12
ENDBRANCH  10  11
ENDBRANCH   9  10
ENDBRANCH   8   9
ENDBRANCH   7   8
ENDBRANCH   6   7
ENDBRANCH   5   6
ENDBRANCH   4   5
ENDBRANCH   3   4
ENDBRANCH   2   3
ENDBRANCH   1   2
BRANCH   1  17
ATOM     17  C   UNL     1      -3.682  -0.498  12.635  1.00  0.00     0.000 C 
BRANCH  17  18
ATOM     18  C   UNL     1      -4.841  -1.433  12.257  1.00  0.00     0.000 C 
BRANCH  18  19
ATOM     19  C   UNL     1      -4.806  -1.850  10.775  1.00  0.00     0.000 C 
BRANCH  19  20
ATOM     20  C   UNL     1      -4.466  -3.337  10.587  1.00  0.00     0.000 C 
BRANCH  20  21
ATOM     21  C   UNL     1      -3.034  -3.555  10.071  1.00  0.00     0.000 C 
BRANCH  21  22
ATOM     22  C   UNL     1      -1.997  -3.597  11.205  1.00  0.00    -0.000 C 
BRANCH  22  23
ATOM     23  C   UNL     1      -0.955  -2.474  11.094  1.00  0.00    -0.000 C 
BRANCH  23  24
ATOM     24  C   UNL     1       0.113  -2.815  10.047  1.00  0.00    -0.000 C 
BRANCH  24  25
ATOM     25  C   UNL     1       1.099  -1.651   9.869  1.00  0.00    -0.000 C 
BRANCH  25  26
ATOM     26  C   UNL     1       0.728  -0.415  10.709  1.00  0.00    -0.000 C 
BRANCH  26  27
ATOM     27  C   UNL     1       0.932   0.937  10.002  1.00  0.00    -0.000 C 
BRANCH  27  28
ATOM     28  C   UNL     1       0.627   2.141  10.907  1.00  0.00    -0.000 C 
BRANCH  28  29
ATOM     29  C   UNL     1      -0.216   1.719  12.115  1.00  0.00    -0.003 C 
ATOM     30  C   UNL     1      -0.874   2.927  12.778  1.00  0.00     0.004 C 
ENDBRANCH  28  29
ENDBRANCH  27  28
ENDBRANCH  26  27
ENDBRANCH  25  26
ENDBRANCH  24  25
ENDBRANCH  23  24
ENDBRANCH  22  23
ENDBRANCH  21  22
ENDBRANCH  20  21
ENDBRANCH  19  20
ENDBRANCH  18  19
ENDBRANCH  17  18
ENDBRANCH   1  17
TORSDOF 26
ENDMDL
MODEL 5
REMARK VINA RESULT:    -2.659      5.491      8.770
REMARK INTER + INTRA:         -10.958
REMARK INTER:                  -5.431
REMARK INTRA:                  -5.528
REMARK UNBOUND:                -4.259
REMARK SMILES CCCCCCCCCCCCCCCCCCCCCCCCCCCC(=O)[O-]
REMARK SMILES IDX 15 1 16 2 17 3 18 4 19 5 20 6 21 7 22 8 23 9 24 10 25 11
REMARK SMILES IDX 26 12 27 13 28 14 29 15 30 16 14 17 13 18 12 19 11 20 10 21
REMARK SMILES IDX 9 22 8 23 7 24 6 25 5 26 4 27 3 28 2 29 1 30
REMARK H PARENT
REMARK Flexibility Score: inf
ROOT
ATOM      1  C   UNL     1      -0.609   8.357   8.113  1.00  0.00     0.000 C 
ENDROOT
BRANCH   1   2
ATOM      2  C   UNL     1      -0.844   6.886   8.489  1.00  0.00     0.000 C 
BRANCH   2   3
ATOM      3  C   UNL     1      -2.280   6.413   8.200  1.00  0.00     0.000 C 
BRANCH   3   4
ATOM      4  C   UNL     1      -2.640   5.030   8.774  1.00  0.00     0.000 C 
BRANCH   4   5
ATOM      5  C   UNL     1      -1.432   4.295   9.374  1.00  0.00     0.000 C 
BRANCH   5   6
ATOM      6  C   UNL     1      -1.715   3.864  10.822  1.00  0.00     0.000 C 
BRANCH   6   7
ATOM      7  C   UNL     1      -2.412   4.960  11.643  1.00  0.00     0.000 C 
BRANCH   7   8
ATOM      8  C   UNL     1      -1.464   5.654  12.632  1.00  0.00     0.000 C 
BRANCH   8   9
ATOM      9  C   UNL     1      -1.030   7.027  12.104  1.00  0.00     0.000 C 
BRANCH   9  10
ATOM     10  C   UNL     1      -2.086   8.097  12.420  1.00  0.00     0.000 C 
BRANCH  10  11
ATOM     11  C   UNL     1      -2.474   8.928  11.187  1.00  0.00     0.000 C 
BRANCH  11  12
ATOM     12  C   UNL     1      -3.989   9.176  11.096  1.00  0.00     0.006 C 
BRANCH  12  13
ATOM     13  C   UNL     1      -4.641   8.372   9.964  1.00  0.00     0.053 C 
BRANCH  13  14
ATOM     14  C   UNL     1      -5.309   7.132  10.472  1.00  0.00     0.041 C 
ATOM     15  O   UNL     1      -5.409   6.929  11.712  1.00  0.00    -0.550 OA
ATOM     16  O   UNL     1      -5.861   6.221   9.580  1.00  0.00    -0.550 OA
ENDBRANCH  13  14
ENDBRANCH  12  13
ENDBRANCH  11  12
ENDBRANCH  10  11
ENDBRANCH   9  10
ENDBRANCH   8   9
ENDBRANCH   7   8
ENDBRANCH   6   7
ENDBRANCH   5   6
ENDBRANCH   4   5
ENDBRANCH   3   4
ENDBRANCH   2   3
ENDBRANCH   1   2
BRANCH   1  17
ATOM     17  C   UNL     1       0.842   8.770   8.404  1.00  0.00     0.000 C 
BRANCH  17  18
ATOM     18  C   UNL     1       0.974   9.596   9.693  1.00  0.00     0.000 C 
BRANCH  18  19
ATOM     19  C   UNL     1       1.794   8.874  10.778  1.00  0.00     0.000 C 
BRANCH  19  20
ATOM     20  C   UNL     1       3.240   8.595  10.338  1.00  0.00     0.000 C 
BRANCH  20  21
ATOM     21  C   UNL     1       3.671   7.144  10.613  1.00  0.00     0.000 C 
BRANCH  21  22
ATOM     22  C   UNL     1       3.373   6.204   9.434  1.00  0.00    -0.000 C 
BRANCH  22  23
ATOM     23  C   UNL     1       2.069   5.416   9.622  1.00  0.00    -0.000 C 
BRANCH  23  24
ATOM     24  C   UNL     1       1.906   4.961  11.078  1.00  0.00    -0.000 C 
BRANCH  24  25
ATOM     25  C   UNL     1       2.094   3.441  11.202  1.00  0.00    -0.000 C 
BRANCH  25  26
ATOM     26  C   UNL     1       1.752   2.684   9.907  1.00  0.00    -0.000 C 
BRANCH  26  27
ATOM     27  C   UNL     1       2.551   1.389   9.678  1.00  0.00    -0.000 C 
BRANCH  27  28
ATOM     28  C   UNL     1       3.875   1.621   8.936  1.00  0.00    -0.000 C 
BRANCH  28  29
ATOM     29  C   UNL     1       3.714   2.689   7.848  1.00  0.00    -0.003 C 
ATOM     30  C   UNL     1       4.400   2.264   6.552  1.00  0.00     0.004 C 
ENDBRANCH  28  29
ENDBRANCH  27  28
ENDBRANCH  26  27
ENDBRANCH  25  26
ENDBRANCH  24  25
ENDBRANCH  23  24
ENDBRANCH  22  23
ENDBRANCH  21  22
ENDBRANCH  20  21
ENDBRANCH  19  20
ENDBRANCH  18  19
ENDBRANCH  17  18
ENDBRANCH   1  17
TORSDOF 26
ENDMDL
MODEL 6
REMARK VINA RESULT:    -2.626      3.116      6.677
REMARK INTER + INTRA:         -10.877
REMARK INTER:                  -6.416
REMARK INTRA:                  -4.461
REMARK UNBOUND:                -4.259
REMARK SMILES CCCCCCCCCCCCCCCCCCCCCCCCCCCC(=O)[O-]
REMARK SMILES IDX 15 1 16 2 17 3 18 4 19 5 20 6 21 7 22 8 23 9 24 10 25 11
REMARK SMILES IDX 26 12 27 13 28 14 29 15 30 16 14 17 13 18 12 19 11 20 10 21
REMARK SMILES IDX 9 22 8 23 7 24 6 25 5 26 4 27 3 28 2 29 1 30
REMARK H PARENT
REMARK Flexibility Score: inf
ROOT
ATOM      1  C   UNL     1      -4.842  -2.687  11.508  1.00  0.00     0.000 C 
ENDROOT
BRANCH   1   2
ATOM      2  C   UNL     1      -5.398  -1.255  11.513  1.00  0.00     0.000 C 
BRANCH   2   3
ATOM      3  C   UNL     1      -4.460  -0.247  12.203  1.00  0.00     0.000 C 
BRANCH   3   4
ATOM      4  C   UNL     1      -3.869  -0.718  13.545  1.00  0.00     0.000 C 
BRANCH   4   5
ATOM      5  C   UNL     1      -2.347  -0.525  13.633  1.00  0.00     0.000 C 
BRANCH   5   6
ATOM      6  C   UNL     1      -1.834   0.335  12.467  1.00  0.00     0.000 C 
BRANCH   6   7
ATOM      7  C   UNL     1      -1.530   1.782  12.885  1.00  0.00     0.000 C 
BRANCH   7   8
ATOM      8  C   UNL     1      -2.472   2.799  12.225  1.00  0.00     0.000 C 
BRANCH   8   9
ATOM      9  C   UNL     1      -3.041   3.774  13.265  1.00  0.00     0.000 C 
BRANCH   9  10
ATOM     10  C   UNL     1      -4.471   4.197  12.897  1.00  0.00     0.000 C 
BRANCH  10  11
ATOM     11  C   UNL     1      -5.511   3.112  13.219  1.00  0.00     0.000 C 
BRANCH  11  12
ATOM     12  C   UNL     1      -6.734   3.173  12.289  1.00  0.00     0.006 C 
BRANCH  12  13
ATOM     13  C   UNL     1      -6.334   3.244  10.809  1.00  0.00     0.053 C 
BRANCH  13  14
ATOM     14  C   UNL     1      -7.278   2.473   9.938  1.00  0.00     0.041 C 
ATOM     15  O   UNL     1      -8.034   1.599  10.442  1.00  0.00    -0.550 OA
ATOM     16  O   UNL     1      -7.355   2.748   8.578  1.00  0.00    -0.550 OA
ENDBRANCH  13  14
ENDBRANCH  12  13
ENDBRANCH  11  12
ENDBRANCH  10  11
ENDBRANCH   9  10
ENDBRANCH   8   9
ENDBRANCH   7   8
ENDBRANCH   6   7
ENDBRANCH   5   6
ENDBRANCH   4   5
ENDBRANCH   3   4
ENDBRANCH   2   3
ENDBRANCH   1   2
BRANCH   1  17
ATOM     17  C   UNL     1      -3.832  -2.876  10.366  1.00  0.00     0.000 C 
BRANCH  17  18
ATOM     18  C   UNL     1      -2.615  -3.714  10.786  1.00  0.00     0.000 C 
BRANCH  18  19
ATOM     19  C   UNL     1      -1.314  -2.891  10.826  1.00  0.00     0.000 C 
BRANCH  19  20
ATOM     20  C   UNL     1      -0.196  -3.511   9.973  1.00  0.00     0.000 C 
BRANCH  20  21
ATOM     21  C   UNL     1       1.019  -2.579   9.823  1.00  0.00     0.000 C 
BRANCH  21  22
ATOM     22  C   UNL     1       0.692  -1.120  10.175  1.00  0.00    -0.000 C 
BRANCH  22  23
ATOM     23  C   UNL     1       1.638  -0.542  11.238  1.00  0.00    -0.000 C 
BRANCH  23  24
ATOM     24  C   UNL     1       1.651   0.990  11.189  1.00  0.00    -0.000 C 
BRANCH  24  25
ATOM     25  C   UNL     1       1.029   1.503   9.881  1.00  0.00    -0.000 C 
BRANCH  25  26
ATOM     26  C   UNL     1       1.308   2.995   9.627  1.00  0.00    -0.000 C 
BRANCH  26  27
ATOM     27  C   UNL     1       0.526   3.967  10.529  1.00  0.00    -0.000 C 
BRANCH  27  28
ATOM     28  C   UNL     1      -0.334   4.963   9.737  1.00  0.00    -0.000 C 
BRANCH  28  29
ATOM     29  C   UNL     1      -1.600   4.286   9.197  1.00  0.00    -0.003 C 
ATOM     30  C   UNL     1      -2.793   5.237   9.233  1.00  0.00     0.004 C 
ENDBRANCH  28  29
ENDBRANCH  27  28
ENDBRANCH  26  27
ENDBRANCH  25  26
ENDBRANCH  24  25
ENDBRANCH  23  24
ENDBRANCH  22  23
ENDBRANCH  21  22
ENDBRANCH  20  21
ENDBRANCH  19  20
ENDBRANCH  18  19
ENDBRANCH  17  18
ENDBRANCH   1  17
TORSDOF 26
ENDMDL
MODEL 7
REMARK VINA RESULT:    -2.614      4.968      8.345
REMARK INTER + INTRA:         -10.845
REMARK INTER:                  -5.261
REMARK INTRA:                  -5.584
REMARK UNBOUND:                -4.259
REMARK SMILES CCCCCCCCCCCCCCCCCCCCCCCCCCCC(=O)[O-]
REMARK SMILES IDX 15 1 16 2 17 3 18 4 19 5 20 6 21 7 22 8 23 9 24 10 25 11
REMARK SMILES IDX 26 12 27 13 28 14 29 15 30 16 14 17 13 18 12 19 11 20 10 21
REMARK SMILES IDX 9 22 8 23 7 24 6 25 5 26 4 27 3 28 2 29 1 30
REMARK H PARENT
REMARK Flexibility Score: inf
ROOT
ATOM      1  C   UNL     1      -0.815   7.966  12.838  1.00  0.00     0.000 C 
ENDROOT
BRANCH   1   2
ATOM      2  C   UNL     1      -0.684   9.376  12.242  1.00  0.00     0.000 C 
BRANCH   2   3
ATOM      3  C   UNL     1      -1.589   9.599  11.017  1.00  0.00     0.000 C 
BRANCH   3   4
ATOM      4  C   UNL     1      -0.912   9.364   9.653  1.00  0.00     0.000 C 
BRANCH   4   5
ATOM      5  C   UNL     1      -1.875   8.814   8.590  1.00  0.00     0.000 C 
BRANCH   5   6
ATOM      6  C   UNL     1      -1.433   7.421   8.116  1.00  0.00     0.000 C 
BRANCH   6   7
ATOM      7  C   UNL     1      -0.245   6.869   8.919  1.00  0.00     0.000 C 
BRANCH   7   8
ATOM      8  C   UNL     1      -0.500   5.455   9.460  1.00  0.00     0.000 C 
BRANCH   8   9
ATOM      9  C   UNL     1      -1.848   4.914   8.966  1.00  0.00     0.000 C 
BRANCH   9  10
ATOM     10  C   UNL     1      -2.679   4.358  10.132  1.00  0.00     0.000 C 
BRANCH  10  11
ATOM     11  C   UNL     1      -2.779   5.342  11.309  1.00  0.00     0.000 C 
BRANCH  11  12
ATOM     12  C   UNL     1      -3.708   6.530  11.007  1.00  0.00     0.006 C 
BRANCH  12  13
ATOM     13  C   UNL     1      -4.737   6.200   9.918  1.00  0.00     0.053 C 
BRANCH  13  14
ATOM     14  C   UNL     1      -5.995   5.625  10.494  1.00  0.00     0.041 C 
ATOM     15  O   UNL     1      -6.771   4.948   9.769  1.00  0.00    -0.550 OA
ATOM     16  O   UNL     1      -6.287   5.799  11.841  1.00  0.00    -0.550 OA
ENDBRANCH  13  14
ENDBRANCH  12  13
ENDBRANCH  11  12
ENDBRANCH  10  11
ENDBRANCH   9  10
ENDBRANCH   8   9
ENDBRANCH   7   8
ENDBRANCH   6   7
ENDBRANCH   5   6
ENDBRANCH   4   5
ENDBRANCH   3   4
ENDBRANCH   2   3
ENDBRANCH   1   2
BRANCH   1  17
ATOM     17  C   UNL     1       0.449   7.138  12.563  1.00  0.00     0.000 C 
BRANCH  17  18
ATOM     18  C   UNL     1       0.360   5.716  13.138  1.00  0.00     0.000 C 
BRANCH  18  19
ATOM     19  C   UNL     1       1.548   4.831  12.717  1.00  0.00     0.000 C 
BRANCH  19  20
ATOM     20  C   UNL     1       1.280   3.335  12.944  1.00  0.00     0.000 C 
BRANCH  20  21
ATOM     21  C   UNL     1      -0.098   2.896  12.421  1.00  0.00     0.000 C 
BRANCH  21  22
ATOM     22  C   UNL     1      -0.011   1.700  11.459  1.00  0.00    -0.000 C 
BRANCH  22  23
ATOM     23  C   UNL     1       0.538   2.090  10.079  1.00  0.00    -0.000 C 
BRANCH  23  24
ATOM     24  C   UNL     1       1.826   1.319   9.762  1.00  0.00    -0.000 C 
BRANCH  24  25
ATOM     25  C   UNL     1       2.903   2.258   9.199  1.00  0.00    -0.000 C 
BRANCH  25  26
ATOM     26  C   UNL     1       2.537   3.746   9.340  1.00  0.00    -0.000 C 
BRANCH  26  27
ATOM     27  C   UNL     1       3.725   4.686   9.615  1.00  0.00    -0.000 C 
BRANCH  27  28
ATOM     28  C   UNL     1       3.304   6.152   9.798  1.00  0.00    -0.000 C 
BRANCH  28  29
ATOM     29  C   UNL     1       3.531   6.953   8.511  1.00  0.00    -0.003 C 
ATOM     30  C   UNL     1       4.616   6.314   7.647  1.00  0.00     0.004 C 
ENDBRANCH  28  29
ENDBRANCH  27  28
ENDBRANCH  26  27
ENDBRANCH  25  26
ENDBRANCH  24  25
ENDBRANCH  23  24
ENDBRANCH  22  23
ENDBRANCH  21  22
ENDBRANCH  20  21
ENDBRANCH  19  20
ENDBRANCH  18  19
ENDBRANCH  17  18
ENDBRANCH   1  17
TORSDOF 26
ENDMDL
MODEL 8
REMARK VINA RESULT:    -2.611      2.834      8.600
REMARK INTER + INTRA:         -10.838
REMARK INTER:                  -6.429
REMARK INTRA:                  -4.409
REMARK UNBOUND:                -4.259
REMARK SMILES CCCCCCCCCCCCCCCCCCCCCCCCCCCC(=O)[O-]
REMARK SMILES IDX 15 1 16 2 17 3 18 4 19 5 20 6 21 7 22 8 23 9 24 10 25 11
REMARK SMILES IDX 26 12 27 13 28 14 29 15 30 16 14 17 13 18 12 19 11 20 10 21
REMARK SMILES IDX 9 22 8 23 7 24 6 25 5 26 4 27 3 28 2 29 1 30
REMARK H PARENT
REMARK Flexibility Score: inf
ROOT
ATOM      1  C   UNL     1      -2.300  -1.672  13.170  1.00  0.00     0.000 C 
ENDROOT
BRANCH   1   2
ATOM      2  C   UNL     1      -1.471  -0.459  13.619  1.00  0.00     0.000 C 
BRANCH   2   3
ATOM      3  C   UNL     1      -1.741   0.800  12.776  1.00  0.00     0.000 C 
BRANCH   3   4
ATOM      4  C   UNL     1      -0.498   1.655  12.462  1.00  0.00     0.000 C 
BRANCH   4   5
ATOM      5  C   UNL     1       0.244   1.193  11.198  1.00  0.00     0.000 C 
BRANCH   5   6
ATOM      6  C   UNL     1       1.766   1.245  11.405  1.00  0.00     0.000 C 
BRANCH   6   7
ATOM      7  C   UNL     1       2.550   1.105  10.091  1.00  0.00     0.000 C 
BRANCH   7   8
ATOM      8  C   UNL     1       2.378   2.317   9.166  1.00  0.00     0.000 C 
BRANCH   8   9
ATOM      9  C   UNL     1       3.139   3.534   9.708  1.00  0.00     0.000 C 
BRANCH   9  10
ATOM     10  C   UNL     1       2.313   4.818   9.544  1.00  0.00     0.000 C 
BRANCH  10  11
ATOM     11  C   UNL     1       1.042   4.819  10.409  1.00  0.00     0.000 C 
BRANCH  11  12
ATOM     12  C   UNL     1      -0.202   5.274   9.628  1.00  0.00     0.006 C 
BRANCH  12  13
ATOM     13  C   UNL     1      -1.249   4.158   9.503  1.00  0.00     0.053 C 
BRANCH  13  14
ATOM     14  C   UNL     1      -2.525   4.655   8.898  1.00  0.00     0.041 C 
ATOM     15  O   UNL     1      -3.167   5.588   9.451  1.00  0.00    -0.550 OA
ATOM     16  O   UNL     1      -2.984   4.120   7.701  1.00  0.00    -0.550 OA
ENDBRANCH  13  14
ENDBRANCH  12  13
ENDBRANCH  11  12
ENDBRANCH  10  11
ENDBRANCH   9  10
ENDBRANCH   8   9
ENDBRANCH   7   8
ENDBRANCH   6   7
ENDBRANCH   5   6
ENDBRANCH   4   5
ENDBRANCH   3   4
ENDBRANCH   2   3
ENDBRANCH   1   2
BRANCH   1  17
ATOM     17  C   UNL     1      -3.117  -1.339  11.913  1.00  0.00     0.000 C 
BRANCH  17  18
ATOM     18  C   UNL     1      -4.511  -1.987  11.925  1.00  0.00     0.000 C 
BRANCH  18  19
ATOM     19  C   UNL     1      -5.134  -2.078  10.520  1.00  0.00     0.000 C 
BRANCH  19  20
ATOM     20  C   UNL     1      -5.566  -3.507  10.157  1.00  0.00     0.000 C 
BRANCH  20  21
ATOM     21  C   UNL     1      -5.094  -3.929   8.755  1.00  0.00     0.000 C 
BRANCH  21  22
ATOM     22  C   UNL     1      -3.716  -4.609   8.774  1.00  0.00    -0.000 C 
BRANCH  22  23
ATOM     23  C   UNL     1      -3.416  -5.299  10.113  1.00  0.00    -0.000 C 
BRANCH  23  24
ATOM     24  C   UNL     1      -2.002  -4.962  10.600  1.00  0.00    -0.000 C 
BRANCH  24  25
ATOM     25  C   UNL     1      -1.525  -3.623  10.018  1.00  0.00    -0.000 C 
BRANCH  25  26
ATOM     26  C   UNL     1      -0.021  -3.610   9.692  1.00  0.00    -0.000 C 
BRANCH  26  27
ATOM     27  C   UNL     1       0.756  -2.402  10.245  1.00  0.00    -0.000 C 
BRANCH  27  28
ATOM     28  C   UNL     1       1.001  -2.486  11.759  1.00  0.00    -0.000 C 
BRANCH  28  29
ATOM     29  C   UNL     1       2.486  -2.291  12.086  1.00  0.00    -0.003 C 
ATOM     30  C   UNL     1       3.356  -2.495  10.848  1.00  0.00     0.004 C 
ENDBRANCH  28  29
ENDBRANCH  27  28
ENDBRANCH  26  27
ENDBRANCH  25  26
ENDBRANCH  24  25
ENDBRANCH  23  24
ENDBRANCH  22  23
ENDBRANCH  21  22
ENDBRANCH  20  21
ENDBRANCH  19  20
ENDBRANCH  18  19
ENDBRANCH  17  18
ENDBRANCH   1  17
TORSDOF 26
ENDMDL
MODEL 9
REMARK VINA RESULT:    -2.581      2.957      5.867
REMARK INTER + INTRA:         -10.763
REMARK INTER:                  -5.964
REMARK INTRA:                  -4.799
REMARK UNBOUND:                -4.259
REMARK SMILES CCCCCCCCCCCCCCCCCCCCCCCCCCCC(=O)[O-]
REMARK SMILES IDX 15 1 16 2 17 3 18 4 19 5 20 6 21 7 22 8 23 9 24 10 25 11
REMARK SMILES IDX 26 12 27 13 28 14 29 15 30 16 14 17 13 18 12 19 11 20 10 21
REMARK SMILES IDX 9 22 8 23 7 24 6 25 5 26 4 27 3 28 2 29 1 30
REMARK H PARENT
REMARK Flexibility Score: inf
ROOT
ATOM      1  C   UNL     1      -2.264   6.475   8.515  1.00  0.00     0.000 C 
ENDROOT
BRANCH   1   2
ATOM      2  C   UNL     1      -2.410   4.946   8.541  1.00  0.00     0.000 C 
BRANCH   2   3
ATOM      3  C   UNL     1      -1.555   4.278   9.634  1.00  0.00     0.000 C 
BRANCH   3   4
ATOM      4  C   UNL     1      -2.156   4.320  11.051  1.00  0.00     0.000 C 
BRANCH   4   5
ATOM      5  C   UNL     1      -1.178   4.865  12.104  1.00  0.00     0.000 C 
BRANCH   5   6
ATOM      6  C   UNL     1      -0.346   3.729  12.720  1.00  0.00     0.000 C 
BRANCH   6   7
ATOM      7  C   UNL     1      -1.085   2.382  12.717  1.00  0.00     0.000 C 
BRANCH   7   8
ATOM      8  C   UNL     1      -0.338   1.298  11.927  1.00  0.00     0.000 C 
BRANCH   8   9
ATOM      9  C   UNL     1       0.023   0.111  12.831  1.00  0.00     0.000 C 
BRANCH   9  10
ATOM     10  C   UNL     1       1.530  -0.181  12.779  1.00  0.00     0.000 C 
BRANCH  10  11
ATOM     11  C   UNL     1       1.849  -1.529  12.113  1.00  0.00     0.000 C 
BRANCH  11  12
ATOM     12  C   UNL     1       0.670  -2.074  11.289  1.00  0.00     0.006 C 
BRANCH  12  13
ATOM     13  C   UNL     1       0.929  -1.991   9.779  1.00  0.00     0.053 C 
BRANCH  13  14
ATOM     14  C   UNL     1       1.993  -2.950   9.342  1.00  0.00     0.041 C 
ATOM     15  O   UNL     1       3.031  -2.526   8.768  1.00  0.00    -0.550 OA
ATOM     16  O   UNL     1       1.860  -4.307   9.607  1.00  0.00    -0.550 OA
ENDBRANCH  13  14
ENDBRANCH  12  13
ENDBRANCH  11  12
ENDBRANCH  10  11
ENDBRANCH   9  10
ENDBRANCH   8   9
ENDBRANCH   7   8
ENDBRANCH   6   7
ENDBRANCH   5   6
ENDBRANCH   4   5
ENDBRANCH   3   4
ENDBRANCH   2   3
ENDBRANCH   1   2
BRANCH   1  17
ATOM     17  C   UNL     1      -0.784   6.881   8.459  1.00  0.00     0.000 C 
BRANCH  17  18
ATOM     18  C   UNL     1      -0.373   7.783   9.634  1.00  0.00     0.000 C 
BRANCH  18  19
ATOM     19  C   UNL     1       0.954   7.345  10.281  1.00  0.00     0.000 C 
BRANCH  19  20
ATOM     20  C   UNL     1       1.661   6.236   9.487  1.00  0.00     0.000 C 
BRANCH  20  21
ATOM     21  C   UNL     1       2.165   5.094  10.385  1.00  0.00     0.000 C 
BRANCH  21  22
ATOM     22  C   UNL     1       1.906   3.706   9.780  1.00  0.00    -0.000 C 
BRANCH  22  23
ATOM     23  C   UNL     1       2.757   2.607  10.433  1.00  0.00    -0.000 C 
BRANCH  23  24
ATOM     24  C   UNL     1       2.660   1.295   9.646  1.00  0.00    -0.000 C 
BRANCH  24  25
ATOM     25  C   UNL     1       4.048   0.831   9.178  1.00  0.00    -0.000 C 
BRANCH  25  26
ATOM     26  C   UNL     1       4.830   1.929   8.435  1.00  0.00    -0.000 C 
BRANCH  26  27
ATOM     27  C   UNL     1       4.207   2.385   7.104  1.00  0.00    -0.000 C 
BRANCH  27  28
ATOM     28  C   UNL     1       4.820   3.688   6.568  1.00  0.00    -0.000 C 
BRANCH  28  29
ATOM     29  C   UNL     1       4.663   4.826   7.583  1.00  0.00    -0.003 C 
ATOM     30  C   UNL     1       5.135   6.155   7.000  1.00  0.00     0.004 C 
ENDBRANCH  28  29
ENDBRANCH  27  28
ENDBRANCH  26  27
ENDBRANCH  25  26
ENDBRANCH  24  25
ENDBRANCH  23  24
ENDBRANCH  22  23
ENDBRANCH  21  22
ENDBRANCH  20  21
ENDBRANCH  19  20
ENDBRANCH  18  19
ENDBRANCH  17  18
ENDBRANCH   1  17
TORSDOF 26
ENDMDL
