MODEL 1
REMARK VINA RESULT:    -4.082      0.000      0.000
REMARK INTER + INTRA:          -4.082
REMARK INTER:                  -4.082
REMARK INTRA:                   0.000
REMARK UNBOUND:                 0.000
REMARK SMILES O=c1ccc2ccccc2o1
REMARK SMILES IDX 7 1 8 2 9 3 10 4 5 5 6 6 4 7 3 8 2 9 1 10 11 11
REMARK H PARENT
REMARK Flexibility Score: inf
ROOT
ATOM      1  C   UNL     1      18.968  15.354   0.621  1.00  0.00     0.001 A 
ATOM      2  C   UNL     1      18.947  14.954   1.962  1.00  0.00     0.004 A 
ATOM      3  C   UNL     1      20.132  14.576   2.602  1.00  0.00     0.048 A 
ATOM      4  C   UNL     1      21.344  14.596   1.903  1.00  0.00     0.138 A 
ATOM      5  C   UNL     1      21.365  14.999   0.548  1.00  0.00     0.018 A 
ATOM      6  C   UNL     1      20.173  15.376  -0.088  1.00  0.00     0.012 A 
ATOM      7  C   UNL     1      22.590  15.008  -0.125  1.00  0.00     0.019 A 
ATOM      8  C   UNL     1      23.747  14.623   0.553  1.00  0.00     0.094 A 
ATOM      9  C   UNL     1      23.649  14.236   1.895  1.00  0.00     0.336 A 
ATOM     10  O   UNL     1      24.682  13.886   2.523  1.00  0.00    -0.246 OA
ATOM     11  O   UNL     1      22.470  14.237   2.512  1.00  0.00    -0.423 OA
ENDROOT
TORSDOF 0
ENDMDL
MODEL 2
REMARK VINA RESULT:    -3.850      1.025      2.168
REMARK INTER + INTRA:          -3.850
REMARK INTER:                  -3.850
REMARK INTRA:                   0.000
REMARK UNBOUND:                 0.000
REMARK SMILES O=c1ccc2ccccc2o1
REMARK SMILES IDX 7 1 8 2 9 3 10 4 5 5 6 6 4 7 3 8 2 9 1 10 11 11
REMARK H PARENT
REMARK Flexibility Score: inf
ROOT
ATOM      1  C   UNL     1      18.526  15.006   1.110  1.00  0.00     0.001 A 
ATOM      2  C   UNL     1      19.238  15.166  -0.084  1.00  0.00     0.004 A 
ATOM      3  C   UNL     1      20.622  14.962  -0.111  1.00  0.00     0.048 A 
ATOM      4  C   UNL     1      21.299  14.595   1.058  1.00  0.00     0.138 A 
ATOM      5  C   UNL     1      20.579  14.434   2.264  1.00  0.00     0.018 A 
ATOM      6  C   UNL     1      19.192  14.641   2.284  1.00  0.00     0.012 A 
ATOM      7  C   UNL     1      21.283  14.069   3.416  1.00  0.00     0.019 A 
ATOM      8  C   UNL     1      22.662  13.875   3.343  1.00  0.00     0.094 A 
ATOM      9  C   UNL     1      23.308  14.053   2.114  1.00  0.00     0.336 A 
ATOM     10  O   UNL     1      24.552  13.882   2.028  1.00  0.00    -0.246 OA
ATOM     11  O   UNL     1      22.615  14.401   1.032  1.00  0.00    -0.423 OA
ENDROOT
TORSDOF 0
ENDMDL
MODEL 3
REMARK VINA RESULT:    -3.417      1.919      4.286
REMARK INTER + INTRA:          -3.417
REMARK INTER:                  -3.417
REMARK INTRA:                   0.000
REMARK UNBOUND:                 0.000
REMARK SMILES O=c1ccc2ccccc2o1
REMARK SMILES IDX 7 1 8 2 9 3 10 4 5 5 6 6 4 7 3 8 2 9 1 10 11 11
REMARK H PARENT
REMARK Flexibility Score: inf
ROOT
ATOM      1  C   UNL     1      24.244  14.455   1.371  1.00  0.00     0.001 A 
ATOM      2  C   UNL     1      23.810  14.993   0.153  1.00  0.00     0.004 A 
ATOM      3  C   UNL     1      22.445  15.177  -0.088  1.00  0.00     0.048 A 
ATOM      4  C   UNL     1      21.506  14.824   0.889  1.00  0.00     0.138 A 
ATOM      5  C   UNL     1      21.945  14.281   2.118  1.00  0.00     0.018 A 
ATOM      6  C   UNL     1      23.315  14.098   2.353  1.00  0.00     0.012 A 
ATOM      7  C   UNL     1      20.984  13.936   3.074  1.00  0.00     0.019 A 
ATOM      8  C   UNL     1      19.634  14.138   2.791  1.00  0.00     0.094 A 
ATOM      9  C   UNL     1      19.274  14.681   1.552  1.00  0.00     0.336 A 
ATOM     10  O   UNL     1      18.060  14.870   1.278  1.00  0.00    -0.246 OA
ATOM     11  O   UNL     1      20.208  15.000   0.660  1.00  0.00    -0.423 OA
ENDROOT
TORSDOF 0
ENDMDL
MODEL 4
REMARK VINA RESULT:    -2.826      1.721      3.820
REMARK INTER + INTRA:          -2.826
REMARK INTER:                  -2.826
REMARK INTRA:                   0.000
REMARK UNBOUND:                 0.000
REMARK SMILES O=c1ccc2ccccc2o1
REMARK SMILES IDX 7 1 8 2 9 3 10 4 5 5 6 6 4 7 3 8 2 9 1 10 11 11
REMARK H PARENT
REMARK Flexibility Score: inf
ROOT
ATOM      1  C   UNL     1      24.364  14.307   1.909  1.00  0.00     0.001 A 
ATOM      2  C   UNL     1      23.741  13.875   3.086  1.00  0.00     0.004 A 
ATOM      3  C   UNL     1      22.347  13.896   3.192  1.00  0.00     0.048 A 
ATOM      4  C   UNL     1      21.569  14.350   2.121  1.00  0.00     0.138 A 
ATOM      5  C   UNL     1      22.198  14.787   0.933  1.00  0.00     0.018 A 
ATOM      6  C   UNL     1      23.597  14.763   0.833  1.00  0.00     0.012 A 
ATOM      7  C   UNL     1      21.395  15.236  -0.119  1.00  0.00     0.019 A 
ATOM      8  C   UNL     1      20.009  15.239   0.030  1.00  0.00     0.094 A 
ATOM      9  C   UNL     1      19.455  14.793   1.236  1.00  0.00     0.336 A 
ATOM     10  O   UNL     1      18.206  14.789   1.390  1.00  0.00    -0.246 OA
ATOM     11  O   UNL     1      20.243  14.370   2.223  1.00  0.00    -0.423 OA
ENDROOT
TORSDOF 0
ENDMDL
