MODEL 1
REMARK VINA RESULT:    -6.947      0.000      0.000
REMARK INTER + INTRA:         -10.835
REMARK INTER:                  -9.180
REMARK INTRA:                  -1.655
REMARK UNBOUND:                -1.655
REMARK SMILES CC[C@@H](C=C[C@H](C)[C@H]1CC[C@H]2C3=CC[C@@H]4C[C@H](O)CC[C@]4(C)[C@H]3CC[C@@]12C)C(C)C
REMARK SMILES IDX 6 1 7 2 5 3 4 4 3 5 2 6 1 7 28 8 29 9 30 10 8 11 9 12 26 13
REMARK SMILES IDX 10 14 11 15 25 16 27 17 12 18 24 19 23 20 13 21 21 22 14 23
REMARK SMILES IDX 15 24 20 25 22 26 16 27 19 28 17 29 18 30
REMARK H PARENT 18 31
REMARK Flexibility Score: inf
ROOT
ATOM      1  C   UNL     1     118.252 123.420 130.548  1.00  0.00     0.012 C 
ATOM      2  C   UNL     1     119.004 124.548 131.268  1.00  0.00     0.012 C 
ENDROOT
BRANCH   1   3
ATOM      3  C   UNL     1     116.759 123.611 130.748  1.00  0.00    -0.028 C 
ATOM      4  C   UNL     1     115.897 122.710 131.265  1.00  0.00    -0.027 C 
BRANCH   4   5
ATOM      5  C   UNL     1     116.242 121.325 131.794  1.00  0.00     0.014 C 
BRANCH   5   6
ATOM      6  C   UNL     1     115.158 120.331 131.303  1.00  0.00     0.004 C 
ATOM      7  C   UNL     1     115.683 119.313 130.287  1.00  0.00     0.004 C 
ENDBRANCH   5   6
BRANCH   5   8
ATOM      8  C   UNL     1     116.420 121.332 133.347  1.00  0.00    -0.011 C 
ATOM      9  C   UNL     1     117.816 120.879 133.814  1.00  0.00     0.008 C 
ATOM     10  C   UNL     1     115.340 120.486 134.042  1.00  0.00     0.008 C 
ENDBRANCH   5   8
ENDBRANCH   4   5
ENDBRANCH   1   3
BRANCH   1  11
ATOM     11  C   UNL     1     118.725 123.226 129.063  1.00  0.00     0.002 C 
ATOM     12  C   UNL     1     120.111 123.812 128.772  1.00  0.00     0.005 C 
ATOM     13  C   UNL     1     118.737 121.828 128.361  1.00  0.00    -0.023 C 
ATOM     14  C   UNL     1     120.559 123.197 127.443  1.00  0.00     0.009 C 
ATOM     15  C   UNL     1     119.469 122.192 127.046  1.00  0.00     0.021 C 
ATOM     16  C   UNL     1     119.523 120.742 129.181  1.00  0.00     0.008 C 
ATOM     17  C   UNL     1     117.299 121.343 128.032  1.00  0.00     0.012 C 
ATOM     18  C   UNL     1     120.018 121.015 126.256  1.00  0.00    -0.067 C 
ATOM     19  C   UNL     1     120.487 119.838 128.386  1.00  0.00     0.009 C 
ATOM     20  C   UNL     1     120.084 119.644 126.913  1.00  0.00     0.021 C 
ATOM     21  C   UNL     1     120.311 121.201 124.952  1.00  0.00    -0.027 C 
ATOM     22  C   UNL     1     120.994 118.618 126.128  1.00  0.00    -0.023 C 
ATOM     23  C   UNL     1     120.897 120.139 124.064  1.00  0.00     0.031 C 
ATOM     24  C   UNL     1     120.688 118.710 124.598  1.00  0.00     0.002 C 
ATOM     25  C   UNL     1     120.746 117.147 126.590  1.00  0.00     0.010 C 
ATOM     26  C   UNL     1     122.500 118.925 126.361  1.00  0.00     0.012 C 
ATOM     27  C   UNL     1     119.272 118.196 124.248  1.00  0.00     0.036 C 
ATOM     28  C   UNL     1     119.357 116.599 126.220  1.00  0.00     0.032 C 
ATOM     29  C   UNL     1     119.083 116.743 124.716  1.00  0.00     0.114 C 
BRANCH  29  30
ATOM     30  O   UNL     1     117.793 116.283 124.401  1.00  0.00    -0.393 OA
ATOM     31  H   UNL     1     117.396 115.906 125.230  1.00  0.00     0.210 HD
ENDBRANCH  29  30
ENDBRANCH   1  11
TORSDOF 6
ENDMDL
MODEL 2
REMARK VINA RESULT:    -6.705      4.280      7.580
REMARK INTER + INTRA:         -10.516
REMARK INTER:                  -9.214
REMARK INTRA:                  -1.302
REMARK UNBOUND:                -1.655
REMARK SMILES CC[C@@H](C=C[C@H](C)[C@H]1CC[C@H]2C3=CC[C@@H]4C[C@H](O)CC[C@]4(C)[C@H]3CC[C@@]12C)C(C)C
REMARK SMILES IDX 6 1 7 2 5 3 4 4 3 5 2 6 1 7 28 8 29 9 30 10 8 11 9 12 26 13
REMARK SMILES IDX 10 14 11 15 25 16 27 17 12 18 24 19 23 20 13 21 21 22 14 23
REMARK SMILES IDX 15 24 20 25 22 26 16 27 19 28 17 29 18 30
REMARK H PARENT 18 31
REMARK Flexibility Score: inf
ROOT
ATOM      1  C   UNL     1     115.711 122.829 128.264  1.00  0.00     0.012 C 
ATOM      2  C   UNL     1     114.802 121.930 127.414  1.00  0.00     0.012 C 
ENDROOT
BRANCH   1   3
ATOM      3  C   UNL     1     115.357 124.282 128.002  1.00  0.00    -0.028 C 
ATOM      4  C   UNL     1     116.214 125.325 127.979  1.00  0.00    -0.027 C 
BRANCH   4   5
ATOM      5  C   UNL     1     117.723 125.263 128.170  1.00  0.00     0.014 C 
BRANCH   5   6
ATOM      6  C   UNL     1     118.183 126.579 128.850  1.00  0.00     0.004 C 
ATOM      7  C   UNL     1     117.069 127.283 129.629  1.00  0.00     0.004 C 
ENDBRANCH   5   6
BRANCH   5   8
ATOM      8  C   UNL     1     118.461 124.968 126.824  1.00  0.00    -0.011 C 
ATOM      9  C   UNL     1     118.509 123.473 126.457  1.00  0.00     0.008 C 
ATOM     10  C   UNL     1     119.883 125.551 126.822  1.00  0.00     0.008 C 
ENDBRANCH   5   8
ENDBRANCH   4   5
ENDBRANCH   1   3
BRANCH   1  11
ATOM     11  C   UNL     1     115.755 122.395 129.772  1.00  0.00     0.002 C 
ATOM     12  C   UNL     1     115.172 121.002 130.035  1.00  0.00     0.005 C 
ATOM     13  C   UNL     1     117.070 122.433 130.619  1.00  0.00    -0.023 C 
ATOM     14  C   UNL     1     115.652 120.600 131.432  1.00  0.00     0.009 C 
ATOM     15  C   UNL     1     116.584 121.723 131.906  1.00  0.00     0.021 C 
ATOM     16  C   UNL     1     118.254 121.656 129.939  1.00  0.00     0.008 C 
ATOM     17  C   UNL     1     117.486 123.890 130.961  1.00  0.00     0.012 C 
ATOM     18  C   UNL     1     117.682 121.221 132.831  1.00  0.00    -0.067 C 
ATOM     19  C   UNL     1     119.089 120.732 130.850  1.00  0.00     0.009 C 
ATOM     20  C   UNL     1     119.116 121.173 132.325  1.00  0.00     0.021 C 
ATOM     21  C   UNL     1     117.363 120.953 134.115  1.00  0.00    -0.027 C 
ATOM     22  C   UNL     1     120.071 120.307 133.237  1.00  0.00    -0.023 C 
ATOM     23  C   UNL     1     118.337 120.414 135.125  1.00  0.00     0.031 C 
ATOM     24  C   UNL     1     119.810 120.646 134.740  1.00  0.00     0.002 C 
ATOM     25  C   UNL     1     121.578 120.580 132.928  1.00  0.00     0.010 C 
ATOM     26  C   UNL     1     119.824 118.789 133.011  1.00  0.00     0.012 C 
ATOM     27  C   UNL     1     120.253 122.081 135.107  1.00  0.00     0.036 C 
ATOM     28  C   UNL     1     122.053 121.990 133.319  1.00  0.00     0.032 C 
ATOM     29  C   UNL     1     121.743 122.295 134.792  1.00  0.00     0.114 C 
BRANCH  29  30
ATOM     30  O   UNL     1     122.138 123.603 135.121  1.00  0.00    -0.393 OA
ATOM     31  H   UNL     1     122.459 123.593 136.062  1.00  0.00     0.210 HD
ENDBRANCH  29  30
ENDBRANCH   1  11
TORSDOF 6
ENDMDL
MODEL 3
REMARK VINA RESULT:    -6.597      1.878      3.414
REMARK INTER + INTRA:         -10.373
REMARK INTER:                  -8.562
REMARK INTRA:                  -1.810
REMARK UNBOUND:                -1.655
REMARK SMILES CC[C@@H](C=C[C@H](C)[C@H]1CC[C@H]2C3=CC[C@@H]4C[C@H](O)CC[C@]4(C)[C@H]3CC[C@@]12C)C(C)C
REMARK SMILES IDX 6 1 7 2 5 3 4 4 3 5 2 6 1 7 28 8 29 9 30 10 8 11 9 12 26 13
REMARK SMILES IDX 10 14 11 15 25 16 27 17 12 18 24 19 23 20 13 21 21 22 14 23
REMARK SMILES IDX 15 24 20 25 22 26 16 27 19 28 17 29 18 30
REMARK H PARENT 18 31
REMARK Flexibility Score: inf
ROOT
ATOM      1  C   UNL     1     119.053 123.397 130.596  1.00  0.00     0.012 C 
ATOM      2  C   UNL     1     120.058 124.336 131.277  1.00  0.00     0.012 C 
ENDROOT
BRANCH   1   3
ATOM      3  C   UNL     1     117.644 123.826 130.963  1.00  0.00    -0.028 C 
ATOM      4  C   UNL     1     117.009 124.940 130.542  1.00  0.00    -0.027 C 
BRANCH   4   5
ATOM      5  C   UNL     1     117.553 125.985 129.579  1.00  0.00     0.014 C 
BRANCH   5   6
ATOM      6  C   UNL     1     117.332 127.387 130.202  1.00  0.00     0.004 C 
ATOM      7  C   UNL     1     117.357 127.383 131.733  1.00  0.00     0.004 C 
ENDBRANCH   5   6
BRANCH   5   8
ATOM      8  C   UNL     1     116.928 125.833 128.154  1.00  0.00    -0.011 C 
ATOM      9  C   UNL     1     116.048 124.580 127.992  1.00  0.00     0.008 C 
ATOM     10  C   UNL     1     118.008 125.855 127.060  1.00  0.00     0.008 C 
ENDBRANCH   5   8
ENDBRANCH   4   5
ENDBRANCH   1   3
BRANCH   1  11
ATOM     11  C   UNL     1     119.336 123.215 129.062  1.00  0.00     0.002 C 
ATOM     12  C   UNL     1     120.683 123.787 128.607  1.00  0.00     0.005 C 
ATOM     13  C   UNL     1     119.244 121.824 128.351  1.00  0.00    -0.023 C 
ATOM     14  C   UNL     1     120.955 123.182 127.227  1.00  0.00     0.009 C 
ATOM     15  C   UNL     1     119.812 122.194 126.958  1.00  0.00     0.021 C 
ATOM     16  C   UNL     1     120.111 120.720 129.057  1.00  0.00     0.008 C 
ATOM     17  C   UNL     1     117.770 121.359 128.198  1.00  0.00     0.012 C 
ATOM     18  C   UNL     1     120.244 121.020 126.095  1.00  0.00    -0.067 C 
ATOM     19  C   UNL     1     120.958 119.814 128.139  1.00  0.00     0.009 C 
ATOM     20  C   UNL     1     120.374 119.641 126.726  1.00  0.00     0.021 C 
ATOM     21  C   UNL     1     120.376 121.217 124.767  1.00  0.00    -0.027 C 
ATOM     22  C   UNL     1     121.166 118.614 125.825  1.00  0.00    -0.023 C 
ATOM     23  C   UNL     1     120.834 120.159 123.803  1.00  0.00     0.031 C 
ATOM     24  C   UNL     1     120.674 118.727 124.345  1.00  0.00     0.002 C 
ATOM     25  C   UNL     1     120.959 117.140 126.300  1.00  0.00     0.010 C 
ATOM     26  C   UNL     1     122.693 118.901 125.873  1.00  0.00     0.012 C 
ATOM     27  C   UNL     1     119.220 118.232 124.168  1.00  0.00     0.036 C 
ATOM     28  C   UNL     1     119.528 116.612 126.099  1.00  0.00     0.032 C 
ATOM     29  C   UNL     1     119.072 116.776 124.641  1.00  0.00     0.114 C 
BRANCH  29  30
ATOM     30  O   UNL     1     117.747 116.335 124.484  1.00  0.00    -0.393 OA
ATOM     31  H   UNL     1     117.489 116.486 123.536  1.00  0.00     0.210 HD
ENDBRANCH  29  30
ENDBRANCH   1  11
TORSDOF 6
ENDMDL
MODEL 4
REMARK VINA RESULT:    -6.264      2.484      8.131
REMARK INTER + INTRA:          -9.933
REMARK INTER:                  -8.397
REMARK INTRA:                  -1.536
REMARK UNBOUND:                -1.655
REMARK SMILES CC[C@@H](C=C[C@H](C)[C@H]1CC[C@H]2C3=CC[C@@H]4C[C@H](O)CC[C@]4(C)[C@H]3CC[C@@]12C)C(C)C
REMARK SMILES IDX 6 1 7 2 5 3 4 4 3 5 2 6 1 7 28 8 29 9 30 10 8 11 9 12 26 13
REMARK SMILES IDX 10 14 11 15 25 16 27 17 12 18 24 19 23 20 13 21 21 22 14 23
REMARK SMILES IDX 15 24 20 25 22 26 16 27 19 28 17 29 18 30
REMARK H PARENT 18 31
REMARK Flexibility Score: inf
ROOT
ATOM      1  C   UNL     1     122.659 119.641 125.693  1.00  0.00     0.012 C 
ATOM      2  C   UNL     1     123.848 120.478 126.186  1.00  0.00     0.012 C 
ENDROOT
BRANCH   1   3
ATOM      3  C   UNL     1     123.180 118.469 124.880  1.00  0.00    -0.028 C 
ATOM      4  C   UNL     1     123.253 118.395 123.534  1.00  0.00    -0.027 C 
BRANCH   4   5
ATOM      5  C   UNL     1     122.867 119.484 122.544  1.00  0.00     0.014 C 
BRANCH   5   6
ATOM      6  C   UNL     1     121.330 119.439 122.343  1.00  0.00     0.004 C 
ATOM      7  C   UNL     1     120.616 120.706 122.820  1.00  0.00     0.004 C 
ENDBRANCH   5   6
BRANCH   5   8
ATOM      8  C   UNL     1     123.672 119.359 121.210  1.00  0.00    -0.011 C 
ATOM      9  C   UNL     1     123.228 118.179 120.325  1.00  0.00     0.008 C 
ATOM     10  C   UNL     1     125.184 119.275 121.470  1.00  0.00     0.008 C 
ENDBRANCH   5   8
ENDBRANCH   4   5
ENDBRANCH   1   3
BRANCH   1  11
ATOM     11  C   UNL     1     121.651 119.283 126.842  1.00  0.00     0.002 C 
ATOM     12  C   UNL     1     122.155 119.643 128.245  1.00  0.00     0.005 C 
ATOM     13  C   UNL     1     120.161 119.759 126.830  1.00  0.00    -0.023 C 
ATOM     14  C   UNL     1     120.927 119.601 129.158  1.00  0.00     0.009 C 
ATOM     15  C   UNL     1     119.724 119.319 128.249  1.00  0.00     0.021 C 
ATOM     16  C   UNL     1     120.020 121.312 126.635  1.00  0.00     0.008 C 
ATOM     17  C   UNL     1     119.325 118.989 125.772  1.00  0.00     0.012 C 
ATOM     18  C   UNL     1     118.440 119.951 128.764  1.00  0.00    -0.067 C 
ATOM     19  C   UNL     1     119.012 122.036 127.553  1.00  0.00     0.009 C 
ATOM     20  C   UNL     1     117.851 121.143 128.026  1.00  0.00     0.021 C 
ATOM     21  C   UNL     1     117.798 119.349 129.787  1.00  0.00    -0.027 C 
ATOM     22  C   UNL     1     116.750 121.911 128.859  1.00  0.00    -0.023 C 
ATOM     23  C   UNL     1     116.545 119.885 130.420  1.00  0.00     0.031 C 
ATOM     24  C   UNL     1     115.783 120.879 129.525  1.00  0.00     0.002 C 
ATOM     25  C   UNL     1     115.902 122.869 127.963  1.00  0.00     0.010 C 
ATOM     26  C   UNL     1     117.403 122.780 129.970  1.00  0.00     0.012 C 
ATOM     27  C   UNL     1     114.916 120.129 128.488  1.00  0.00     0.036 C 
ATOM     28  C   UNL     1     115.002 122.145 126.947  1.00  0.00     0.032 C 
ATOM     29  C   UNL     1     114.096 121.115 127.639  1.00  0.00     0.114 C 
BRANCH  29  30
ATOM     30  O   UNL     1     113.315 120.428 126.693  1.00  0.00    -0.393 OA
ATOM     31  H   UNL     1     113.702 119.519 126.586  1.00  0.00     0.210 HD
ENDBRANCH  29  30
ENDBRANCH   1  11
TORSDOF 6
ENDMDL
MODEL 5
REMARK VINA RESULT:    -6.155      2.433      4.418
REMARK INTER + INTRA:          -9.789
REMARK INTER:                  -8.473
REMARK INTRA:                  -1.316
REMARK UNBOUND:                -1.655
REMARK SMILES CC[C@@H](C=C[C@H](C)[C@H]1CC[C@H]2C3=CC[C@@H]4C[C@H](O)CC[C@]4(C)[C@H]3CC[C@@]12C)C(C)C
REMARK SMILES IDX 6 1 7 2 5 3 4 4 3 5 2 6 1 7 28 8 29 9 30 10 8 11 9 12 26 13
REMARK SMILES IDX 10 14 11 15 25 16 27 17 12 18 24 19 23 20 13 21 21 22 14 23
REMARK SMILES IDX 15 24 20 25 22 26 16 27 19 28 17 29 18 30
REMARK H PARENT 18 31
REMARK Flexibility Score: inf
ROOT
ATOM      1  C   UNL     1     117.067 124.362 129.359  1.00  0.00     0.012 C 
ATOM      2  C   UNL     1     117.000 124.535 130.883  1.00  0.00     0.012 C 
ENDROOT
BRANCH   1   3
ATOM      3  C   UNL     1     116.430 125.570 128.694  1.00  0.00    -0.028 C 
ATOM      4  C   UNL     1     116.758 126.863 128.898  1.00  0.00    -0.027 C 
BRANCH   4   5
ATOM      5  C   UNL     1     117.861 127.388 129.807  1.00  0.00     0.014 C 
BRANCH   5   6
ATOM      6  C   UNL     1     117.230 128.377 130.820  1.00  0.00     0.004 C 
ATOM      7  C   UNL     1     117.383 127.935 132.278  1.00  0.00     0.004 C 
ENDBRANCH   5   6
BRANCH   5   8
ATOM      8  C   UNL     1     119.037 128.007 128.984  1.00  0.00    -0.011 C 
ATOM      9  C   UNL     1     119.670 127.031 127.975  1.00  0.00     0.008 C 
ATOM     10  C   UNL     1     120.125 128.584 129.904  1.00  0.00     0.008 C 
ENDBRANCH   5   8
ENDBRANCH   4   5
ENDBRANCH   1   3
BRANCH   1  11
ATOM     11  C   UNL     1     118.502 123.979 128.853  1.00  0.00     0.002 C 
ATOM     12  C   UNL     1     119.465 123.566 129.973  1.00  0.00     0.005 C 
ATOM     13  C   UNL     1     118.741 122.922 127.725  1.00  0.00    -0.023 C 
ATOM     14  C   UNL     1     120.639 122.866 129.283  1.00  0.00     0.009 C 
ATOM     15  C   UNL     1     120.283 122.798 127.792  1.00  0.00     0.021 C 
ATOM     16  C   UNL     1     118.035 121.549 128.017  1.00  0.00     0.008 C 
ATOM     17  C   UNL     1     118.330 123.472 126.332  1.00  0.00     0.012 C 
ATOM     18  C   UNL     1     120.871 121.575 127.105  1.00  0.00    -0.067 C 
ATOM     19  C   UNL     1     118.866 120.275 127.761  1.00  0.00     0.009 C 
ATOM     20  C   UNL     1     119.946 120.446 126.678  1.00  0.00     0.021 C 
ATOM     21  C   UNL     1     122.182 121.591 126.784  1.00  0.00    -0.027 C 
ATOM     22  C   UNL     1     120.713 119.111 126.321  1.00  0.00    -0.023 C 
ATOM     23  C   UNL     1     122.902 120.439 126.141  1.00  0.00     0.031 C 
ATOM     24  C   UNL     1     121.960 119.444 125.438  1.00  0.00     0.002 C 
ATOM     25  C   UNL     1     119.808 118.111 125.533  1.00  0.00     0.010 C 
ATOM     26  C   UNL     1     121.186 118.384 127.610  1.00  0.00     0.012 C 
ATOM     27  C   UNL     1     121.568 119.958 124.034  1.00  0.00     0.036 C 
ATOM     28  C   UNL     1     119.435 118.584 124.117  1.00  0.00     0.032 C 
ATOM     29  C   UNL     1     120.687 118.935 123.299  1.00  0.00     0.114 C 
BRANCH  29  30
ATOM     30  O   UNL     1     120.329 119.411 122.026  1.00  0.00    -0.393 OA
ATOM     31  H   UNL     1     120.966 120.134 121.783  1.00  0.00     0.210 HD
ENDBRANCH  29  30
ENDBRANCH   1  11
TORSDOF 6
ENDMDL
MODEL 6
REMARK VINA RESULT:    -6.130      1.886      4.068
REMARK INTER + INTRA:          -9.756
REMARK INTER:                  -7.985
REMARK INTRA:                  -1.771
REMARK UNBOUND:                -1.655
REMARK SMILES CC[C@@H](C=C[C@H](C)[C@H]1CC[C@H]2C3=CC[C@@H]4C[C@H](O)CC[C@]4(C)[C@H]3CC[C@@]12C)C(C)C
REMARK SMILES IDX 6 1 7 2 5 3 4 4 3 5 2 6 1 7 28 8 29 9 30 10 8 11 9 12 26 13
REMARK SMILES IDX 10 14 11 15 25 16 27 17 12 18 24 19 23 20 13 21 21 22 14 23
REMARK SMILES IDX 15 24 20 25 22 26 16 27 19 28 17 29 18 30
REMARK H PARENT 18 31
REMARK Flexibility Score: inf
ROOT
ATOM      1  C   UNL     1     116.490 122.355 130.220  1.00  0.00     0.012 C 
ATOM      2  C   UNL     1     115.573 121.215 130.685  1.00  0.00     0.012 C 
ENDROOT
BRANCH   1   3
ATOM      3  C   UNL     1     116.329 123.537 131.160  1.00  0.00    -0.028 C 
ATOM      4  C   UNL     1     117.011 124.701 131.109  1.00  0.00    -0.027 C 
BRANCH   4   5
ATOM      5  C   UNL     1     118.058 125.095 130.078  1.00  0.00     0.014 C 
BRANCH   5   6
ATOM      6  C   UNL     1     119.417 125.273 130.803  1.00  0.00     0.004 C 
ATOM      7  C   UNL     1     120.552 124.461 130.174  1.00  0.00     0.004 C 
ENDBRANCH   5   6
BRANCH   5   8
ATOM      8  C   UNL     1     117.618 126.357 129.266  1.00  0.00    -0.011 C 
ATOM      9  C   UNL     1     117.033 127.484 130.138  1.00  0.00     0.008 C 
ATOM     10  C   UNL     1     116.624 125.992 128.152  1.00  0.00     0.008 C 
ENDBRANCH   5   8
ENDBRANCH   4   5
ENDBRANCH   1   3
BRANCH   1  11
ATOM     11  C   UNL     1     117.964 121.881 129.962  1.00  0.00     0.002 C 
ATOM     12  C   UNL     1     118.440 120.782 130.919  1.00  0.00     0.005 C 
ATOM     13  C   UNL     1     118.462 121.414 128.554  1.00  0.00    -0.023 C 
ATOM     14  C   UNL     1     119.699 120.185 130.284  1.00  0.00     0.009 C 
ATOM     15  C   UNL     1     119.867 120.880 128.927  1.00  0.00     0.021 C 
ATOM     16  C   UNL     1     117.559 120.288 127.932  1.00  0.00     0.008 C 
ATOM     17  C   UNL     1     118.610 122.611 127.575  1.00  0.00     0.012 C 
ATOM     18  C   UNL     1     120.523 119.984 127.888  1.00  0.00    -0.067 C 
ATOM     19  C   UNL     1     118.291 119.094 127.284  1.00  0.00     0.009 C 
ATOM     20  C   UNL     1     119.687 119.443 126.738  1.00  0.00     0.021 C 
ATOM     21  C   UNL     1     121.859 119.803 127.952  1.00  0.00    -0.027 C 
ATOM     22  C   UNL     1     120.386 118.259 125.960  1.00  0.00    -0.023 C 
ATOM     23  C   UNL     1     122.631 118.915 127.017  1.00  0.00     0.031 C 
ATOM     24  C   UNL     1     121.886 118.616 125.703  1.00  0.00     0.002 C 
ATOM     25  C   UNL     1     119.705 117.984 124.582  1.00  0.00     0.010 C 
ATOM     26  C   UNL     1     120.313 116.941 126.780  1.00  0.00     0.012 C 
ATOM     27  C   UNL     1     122.052 119.782 124.701  1.00  0.00     0.036 C 
ATOM     28  C   UNL     1     119.888 119.115 123.554  1.00  0.00     0.032 C 
ATOM     29  C   UNL     1     121.373 119.457 123.361  1.00  0.00     0.114 C 
BRANCH  29  30
ATOM     30  O   UNL     1     121.521 120.523 122.457  1.00  0.00    -0.393 OA
ATOM     31  H   UNL     1     120.938 120.338 121.674  1.00  0.00     0.210 HD
ENDBRANCH  29  30
ENDBRANCH   1  11
TORSDOF 6
ENDMDL
MODEL 7
REMARK VINA RESULT:    -6.061      3.684      6.209
REMARK INTER + INTRA:          -9.665
REMARK INTER:                  -7.947
REMARK INTRA:                  -1.718
REMARK UNBOUND:                -1.655
REMARK SMILES CC[C@@H](C=C[C@H](C)[C@H]1CC[C@H]2C3=CC[C@@H]4C[C@H](O)CC[C@]4(C)[C@H]3CC[C@@]12C)C(C)C
REMARK SMILES IDX 6 1 7 2 5 3 4 4 3 5 2 6 1 7 28 8 29 9 30 10 8 11 9 12 26 13
REMARK SMILES IDX 10 14 11 15 25 16 27 17 12 18 24 19 23 20 13 21 21 22 14 23
REMARK SMILES IDX 15 24 20 25 22 26 16 27 19 28 17 29 18 30
REMARK H PARENT 18 31
REMARK Flexibility Score: inf
ROOT
ATOM      1  C   UNL     1     116.697 124.587 128.522  1.00  0.00     0.012 C 
ATOM      2  C   UNL     1     116.324 125.984 128.005  1.00  0.00     0.012 C 
ENDROOT
BRANCH   1   3
ATOM      3  C   UNL     1     116.682 123.608 127.362  1.00  0.00    -0.028 C 
ATOM      4  C   UNL     1     115.908 122.508 127.249  1.00  0.00    -0.027 C 
BRANCH   4   5
ATOM      5  C   UNL     1     114.856 122.034 128.242  1.00  0.00     0.014 C 
BRANCH   5   6
ATOM      6  C   UNL     1     115.269 120.633 128.761  1.00  0.00     0.004 C 
ATOM      7  C   UNL     1     116.506 120.066 128.060  1.00  0.00     0.004 C 
ENDBRANCH   5   6
BRANCH   5   8
ATOM      8  C   UNL     1     113.422 122.068 127.619  1.00  0.00    -0.011 C 
ATOM      9  C   UNL     1     113.331 121.399 126.235  1.00  0.00     0.008 C 
ATOM     10  C   UNL     1     112.876 123.503 127.540  1.00  0.00     0.008 C 
ENDBRANCH   5   8
ENDBRANCH   4   5
ENDBRANCH   1   3
BRANCH   1  11
ATOM     11  C   UNL     1     117.999 124.592 129.398  1.00  0.00     0.002 C 
ATOM     12  C   UNL     1     117.940 125.549 130.594  1.00  0.00     0.005 C 
ATOM     13  C   UNL     1     118.624 123.281 129.980  1.00  0.00    -0.023 C 
ATOM     14  C   UNL     1     119.084 125.135 131.524  1.00  0.00     0.009 C 
ATOM     15  C   UNL     1     119.716 123.885 130.898  1.00  0.00     0.021 C 
ATOM     16  C   UNL     1     117.590 122.423 130.796  1.00  0.00     0.008 C 
ATOM     17  C   UNL     1     119.299 122.430 128.871  1.00  0.00     0.012 C 
ATOM     18  C   UNL     1     120.293 122.938 131.938  1.00  0.00    -0.067 C 
ATOM     19  C   UNL     1     118.075 121.853 132.145  1.00  0.00     0.009 C 
ATOM     20  C   UNL     1     119.594 121.614 132.209  1.00  0.00     0.021 C 
ATOM     21  C   UNL     1     121.482 123.250 132.497  1.00  0.00    -0.027 C 
ATOM     22  C   UNL     1     120.078 120.913 133.539  1.00  0.00    -0.023 C 
ATOM     23  C   UNL     1     122.149 122.428 133.564  1.00  0.00     0.031 C 
ATOM     24  C   UNL     1     121.637 120.977 133.628  1.00  0.00     0.002 C 
ATOM     25  C   UNL     1     119.645 119.413 133.598  1.00  0.00     0.010 C 
ATOM     26  C   UNL     1     119.472 121.615 134.786  1.00  0.00     0.012 C 
ATOM     27  C   UNL     1     122.326 120.105 132.552  1.00  0.00     0.036 C 
ATOM     28  C   UNL     1     120.345 118.517 132.562  1.00  0.00     0.032 C 
ATOM     29  C   UNL     1     121.873 118.640 132.659  1.00  0.00     0.114 C 
BRANCH  29  30
ATOM     30  O   UNL     1     122.497 117.853 131.676  1.00  0.00    -0.393 OA
ATOM     31  H   UNL     1     122.630 118.424 130.873  1.00  0.00     0.210 HD
ENDBRANCH  29  30
ENDBRANCH   1  11
TORSDOF 6
ENDMDL
MODEL 8
REMARK VINA RESULT:    -6.047      2.687      4.629
REMARK INTER + INTRA:          -9.646
REMARK INTER:                  -8.238
REMARK INTRA:                  -1.408
REMARK UNBOUND:                -1.655
REMARK SMILES CC[C@@H](C=C[C@H](C)[C@H]1CC[C@H]2C3=CC[C@@H]4C[C@H](O)CC[C@]4(C)[C@H]3CC[C@@]12C)C(C)C
REMARK SMILES IDX 6 1 7 2 5 3 4 4 3 5 2 6 1 7 28 8 29 9 30 10 8 11 9 12 26 13
REMARK SMILES IDX 10 14 11 15 25 16 27 17 12 18 24 19 23 20 13 21 21 22 14 23
REMARK SMILES IDX 15 24 20 25 22 26 16 27 19 28 17 29 18 30
REMARK H PARENT 18 31
REMARK Flexibility Score: inf
ROOT
ATOM      1  C   UNL     1     118.038 125.641 127.463  1.00  0.00     0.012 C 
ATOM      2  C   UNL     1     116.589 126.150 127.467  1.00  0.00     0.012 C 
ENDROOT
BRANCH   1   3
ATOM      3  C   UNL     1     118.912 126.625 128.220  1.00  0.00    -0.028 C 
ATOM      4  C   UNL     1     118.674 127.130 129.449  1.00  0.00    -0.027 C 
BRANCH   4   5
ATOM      5  C   UNL     1     117.499 126.793 130.356  1.00  0.00     0.014 C 
BRANCH   5   6
ATOM      6  C   UNL     1     117.020 128.098 131.040  1.00  0.00     0.004 C 
ATOM      7  C   UNL     1     117.399 128.183 132.521  1.00  0.00     0.004 C 
ENDBRANCH   5   6
BRANCH   5   8
ATOM      8  C   UNL     1     117.862 125.658 131.368  1.00  0.00    -0.011 C 
ATOM      9  C   UNL     1     119.351 125.263 131.350  1.00  0.00     0.008 C 
ATOM     10  C   UNL     1     116.991 124.410 131.152  1.00  0.00     0.008 C 
ENDBRANCH   5   8
ENDBRANCH   4   5
ENDBRANCH   1   3
BRANCH   1  11
ATOM     11  C   UNL     1     118.155 124.140 127.905  1.00  0.00     0.002 C 
ATOM     12  C   UNL     1     116.931 123.289 127.544  1.00  0.00     0.005 C 
ATOM     13  C   UNL     1     119.379 123.244 127.521  1.00  0.00    -0.023 C 
ATOM     14  C   UNL     1     117.376 121.830 127.680  1.00  0.00     0.009 C 
ATOM     15  C   UNL     1     118.873 121.866 128.016  1.00  0.00     0.021 C 
ATOM     16  C   UNL     1     119.665 123.235 125.975  1.00  0.00     0.008 C 
ATOM     17  C   UNL     1     120.649 123.642 128.319  1.00  0.00     0.012 C 
ATOM     18  C   UNL     1     119.624 120.660 127.475  1.00  0.00    -0.067 C 
ATOM     19  C   UNL     1     119.958 121.863 125.334  1.00  0.00     0.009 C 
ATOM     20  C   UNL     1     120.579 120.843 126.305  1.00  0.00     0.021 C 
ATOM     21  C   UNL     1     119.511 119.488 128.135  1.00  0.00    -0.027 C 
ATOM     22  C   UNL     1     121.000 119.481 125.624  1.00  0.00    -0.023 C 
ATOM     23  C   UNL     1     120.164 118.210 127.691  1.00  0.00     0.031 C 
ATOM     24  C   UNL     1     121.345 118.428 126.727  1.00  0.00     0.002 C 
ATOM     25  C   UNL     1     122.249 119.652 124.701  1.00  0.00     0.010 C 
ATOM     26  C   UNL     1     119.848 118.927 124.740  1.00  0.00     0.012 C 
ATOM     27  C   UNL     1     122.630 118.791 127.507  1.00  0.00     0.036 C 
ATOM     28  C   UNL     1     123.548 119.976 125.458  1.00  0.00     0.032 C 
ATOM     29  C   UNL     1     123.829 118.939 126.555  1.00  0.00     0.114 C 
BRANCH  29  30
ATOM     30  O   UNL     1     124.992 119.275 127.269  1.00  0.00    -0.393 OA
ATOM     31  H   UNL     1     125.037 120.266 127.324  1.00  0.00     0.210 HD
ENDBRANCH  29  30
ENDBRANCH   1  11
TORSDOF 6
ENDMDL
MODEL 9
REMARK VINA RESULT:    -5.986      3.969      6.371
REMARK INTER + INTRA:          -9.566
REMARK INTER:                  -7.798
REMARK INTRA:                  -1.768
REMARK UNBOUND:                -1.655
REMARK SMILES CC[C@@H](C=C[C@H](C)[C@H]1CC[C@H]2C3=CC[C@@H]4C[C@H](O)CC[C@]4(C)[C@H]3CC[C@@]12C)C(C)C
REMARK SMILES IDX 6 1 7 2 5 3 4 4 3 5 2 6 1 7 28 8 29 9 30 10 8 11 9 12 26 13
REMARK SMILES IDX 10 14 11 15 25 16 27 17 12 18 24 19 23 20 13 21 21 22 14 23
REMARK SMILES IDX 15 24 20 25 22 26 16 27 19 28 17 29 18 30
REMARK H PARENT 18 31
REMARK Flexibility Score: inf
ROOT
ATOM      1  C   UNL     1     115.669 120.922 132.376  1.00  0.00     0.012 C 
ATOM      2  C   UNL     1     114.785 120.064 133.293  1.00  0.00     0.012 C 
ENDROOT
BRANCH   1   3
ATOM      3  C   UNL     1     114.827 122.030 131.769  1.00  0.00    -0.028 C 
ATOM      4  C   UNL     1     114.828 122.422 130.477  1.00  0.00    -0.027 C 
BRANCH   4   5
ATOM      5  C   UNL     1     115.642 121.813 129.344  1.00  0.00     0.014 C 
BRANCH   5   6
ATOM      6  C   UNL     1     115.670 122.820 128.166  1.00  0.00     0.004 C 
ATOM      7  C   UNL     1     117.050 122.961 127.520  1.00  0.00     0.004 C 
ENDBRANCH   5   6
BRANCH   5   8
ATOM      8  C   UNL     1     115.101 120.402 128.943  1.00  0.00    -0.011 C 
ATOM      9  C   UNL     1     116.198 119.328 128.818  1.00  0.00     0.008 C 
ATOM     10  C   UNL     1     114.281 120.462 127.644  1.00  0.00     0.008 C 
ENDBRANCH   5   8
ENDBRANCH   4   5
ENDBRANCH   1   3
BRANCH   1  11
ATOM     11  C   UNL     1     117.002 121.376 133.070  1.00  0.00     0.002 C 
ATOM     12  C   UNL     1     117.354 120.571 134.326  1.00  0.00     0.005 C 
ATOM     13  C   UNL     1     118.355 121.495 132.293  1.00  0.00    -0.023 C 
ATOM     14  C   UNL     1     118.826 120.869 134.621  1.00  0.00     0.009 C 
ATOM     15  C   UNL     1     119.323 121.758 133.473  1.00  0.00     0.021 C 
ATOM     16  C   UNL     1     118.729 120.181 131.517  1.00  0.00     0.008 C 
ATOM     17  C   UNL     1     118.359 122.722 131.341  1.00  0.00     0.012 C 
ATOM     18  C   UNL     1     120.798 121.550 133.168  1.00  0.00    -0.067 C 
ATOM     19  C   UNL     1     120.192 119.704 131.630  1.00  0.00     0.009 C 
ATOM     20  C   UNL     1     121.198 120.841 131.883  1.00  0.00     0.021 C 
ATOM     21  C   UNL     1     121.706 122.116 133.990  1.00  0.00    -0.027 C 
ATOM     22  C   UNL     1     122.708 120.376 131.871  1.00  0.00    -0.023 C 
ATOM     23  C   UNL     1     123.193 121.960 133.831  1.00  0.00     0.031 C 
ATOM     24  C   UNL     1     123.615 121.527 132.415  1.00  0.00     0.002 C 
ATOM     25  C   UNL     1     123.194 120.007 130.433  1.00  0.00     0.010 C 
ATOM     26  C   UNL     1     122.905 119.115 132.759  1.00  0.00     0.012 C 
ATOM     27  C   UNL     1     123.660 122.743 131.461  1.00  0.00     0.036 C 
ATOM     28  C   UNL     1     123.283 121.207 129.474  1.00  0.00     0.032 C 
ATOM     29  C   UNL     1     124.152 122.329 130.064  1.00  0.00     0.114 C 
BRANCH  29  30
ATOM     30  O   UNL     1     124.185 123.437 129.200  1.00  0.00    -0.393 OA
ATOM     31  H   UNL     1     123.851 124.224 129.705  1.00  0.00     0.210 HD
ENDBRANCH  29  30
ENDBRANCH   1  11
TORSDOF 6
ENDMDL
