MODEL 1
REMARK VINA RESULT:    -3.744      0.000      0.000
REMARK INTER + INTRA:          -4.191
REMARK INTER:                  -4.182
REMARK INTRA:                  -0.009
REMARK UNBOUND:                -0.009
REMARK SMILES CCCC(=O)[O-]
REMARK SMILES IDX 3 1 4 2 5 3 6 4 2 5 1 6
REMARK H PARENT
REMARK Flexibility Score: inf
ROOT
ATOM      1  C   UNL     1     -12.967   2.269  -9.371  1.00  0.00     0.052 C 
ENDROOT
BRANCH   1   2
ATOM      2  C   UNL     1     -12.649   3.538  -8.648  1.00  0.00     0.041 C 
ATOM      3  O   UNL     1     -11.486   3.744  -8.210  1.00  0.00    -0.550 OA
ATOM      4  O   UNL     1     -13.624   4.516  -8.498  1.00  0.00    -0.550 OA
ENDBRANCH   1   2
BRANCH   1   5
ATOM      5  C   UNL     1     -14.478   2.023  -9.384  1.00  0.00     0.003 C 
ATOM      6  C   UNL     1     -14.810   0.663  -9.992  1.00  0.00     0.004 C 
ENDBRANCH   1   5
TORSDOF 2
ENDMDL
MODEL 2
REMARK VINA RESULT:    -3.353      4.780      5.423
REMARK INTER + INTRA:          -3.754
REMARK INTER:                  -3.730
REMARK INTRA:                  -0.024
REMARK UNBOUND:                -0.009
REMARK SMILES CCCC(=O)[O-]
REMARK SMILES IDX 3 1 4 2 5 3 6 4 2 5 1 6
REMARK H PARENT
REMARK Flexibility Score: inf
ROOT
ATOM      1  C   UNL     1     -10.939  -1.023 -10.162  1.00  0.00     0.052 C 
ENDROOT
BRANCH   1   2
ATOM      2  C   UNL     1     -10.903  -2.212  -9.256  1.00  0.00     0.041 C 
ATOM      3  O   UNL     1     -11.428  -3.299  -9.616  1.00  0.00    -0.550 OA
ATOM      4  O   UNL     1     -10.249  -2.136  -8.033  1.00  0.00    -0.550 OA
ENDBRANCH   1   2
BRANCH   1   5
ATOM      5  C   UNL     1     -12.371  -0.502 -10.307  1.00  0.00     0.003 C 
ATOM      6  C   UNL     1     -12.554   0.821  -9.569  1.00  0.00     0.004 C 
ENDBRANCH   1   5
TORSDOF 2
ENDMDL
MODEL 3
REMARK VINA RESULT:    -3.333      2.657      3.439
REMARK INTER + INTRA:          -3.732
REMARK INTER:                  -3.715
REMARK INTRA:                  -0.017
REMARK UNBOUND:                -0.009
REMARK SMILES CCCC(=O)[O-]
REMARK SMILES IDX 3 1 4 2 5 3 6 4 2 5 1 6
REMARK H PARENT
REMARK Flexibility Score: inf
ROOT
ATOM      1  C   UNL     1     -13.635   1.969  -9.487  1.00  0.00     0.052 C 
ENDROOT
BRANCH   1   2
ATOM      2  C   UNL     1     -12.929   0.670  -9.716  1.00  0.00     0.041 C 
ATOM      3  O   UNL     1     -11.759   0.500  -9.284  1.00  0.00    -0.550 OA
ATOM      4  O   UNL     1     -13.582  -0.370 -10.366  1.00  0.00    -0.550 OA
ENDBRANCH   1   2
BRANCH   1   5
ATOM      5  C   UNL     1     -12.643   3.046  -9.038  1.00  0.00     0.003 C 
ATOM      6  C   UNL     1     -13.334   4.114  -8.196  1.00  0.00     0.004 C 
ENDBRANCH   1   5
TORSDOF 2
ENDMDL
MODEL 4
REMARK VINA RESULT:    -3.284      4.962      5.509
REMARK INTER + INTRA:          -3.677
REMARK INTER:                  -3.621
REMARK INTRA:                  -0.056
REMARK UNBOUND:                -0.009
REMARK SMILES CCCC(=O)[O-]
REMARK SMILES IDX 3 1 4 2 5 3 6 4 2 5 1 6
REMARK H PARENT
REMARK Flexibility Score: inf
ROOT
ATOM      1  C   UNL     1     -10.743  -1.195 -10.279  1.00  0.00     0.052 C 
ENDROOT
BRANCH   1   2
ATOM      2  C   UNL     1     -10.678  -2.307  -9.282  1.00  0.00     0.041 C 
ATOM      3  O   UNL     1     -10.344  -2.071  -8.090  1.00  0.00    -0.550 OA
ATOM      4  O   UNL     1     -11.033  -3.598  -9.654  1.00  0.00    -0.550 OA
ENDBRANCH   1   2
BRANCH   1   5
ATOM      5  C   UNL     1     -11.875  -0.226  -9.928  1.00  0.00     0.003 C 
ATOM      6  C   UNL     1     -13.211  -0.714 -10.480  1.00  0.00     0.004 C 
ENDBRANCH   1   5
TORSDOF 2
ENDMDL
MODEL 5
REMARK VINA RESULT:    -3.217      5.899      6.552
REMARK INTER + INTRA:          -3.602
REMARK INTER:                  -3.583
REMARK INTRA:                  -0.019
REMARK UNBOUND:                -0.009
REMARK SMILES CCCC(=O)[O-]
REMARK SMILES IDX 3 1 4 2 5 3 6 4 2 5 1 6
REMARK H PARENT
REMARK Flexibility Score: inf
ROOT
ATOM      1  C   UNL     1     -10.626  -1.901  -8.933  1.00  0.00     0.052 C 
ENDROOT
BRANCH   1   2
ATOM      2  C   UNL     1      -9.843  -3.125  -9.284  1.00  0.00     0.041 C 
ATOM      3  O   UNL     1     -10.060  -3.727 -10.369  1.00  0.00    -0.550 OA
ATOM      4  O   UNL     1      -8.841  -3.577  -8.435  1.00  0.00    -0.550 OA
ENDBRANCH   1   2
BRANCH   1   5
ATOM      5  C   UNL     1     -10.856  -1.038 -10.177  1.00  0.00     0.003 C 
ATOM      6  C   UNL     1     -12.179  -0.283 -10.087  1.00  0.00     0.004 C 
ENDBRANCH   1   5
TORSDOF 2
ENDMDL
MODEL 6
REMARK VINA RESULT:    -3.186      2.037      2.579
REMARK INTER + INTRA:          -3.568
REMARK INTER:                  -3.556
REMARK INTRA:                  -0.012
REMARK UNBOUND:                -0.009
REMARK SMILES CCCC(=O)[O-]
REMARK SMILES IDX 3 1 4 2 5 3 6 4 2 5 1 6
REMARK H PARENT
REMARK Flexibility Score: inf
ROOT
ATOM      1  C   UNL     1     -12.702   1.785  -9.369  1.00  0.00     0.052 C 
ENDROOT
BRANCH   1   2
ATOM      2  C   UNL     1     -14.023   2.459  -9.182  1.00  0.00     0.041 C 
ATOM      3  O   UNL     1     -15.079   1.912  -9.596  1.00  0.00    -0.550 OA
ATOM      4  O   UNL     1     -14.095   3.671  -8.505  1.00  0.00    -0.550 OA
ENDBRANCH   1   2
BRANCH   1   5
ATOM      5  C   UNL     1     -12.897   0.365  -9.908  1.00  0.00     0.003 C 
ATOM      6  C   UNL     1     -11.562  -0.364 -10.038  1.00  0.00     0.004 C 
ENDBRANCH   1   5
TORSDOF 2
ENDMDL
MODEL 7
REMARK VINA RESULT:    -3.079      8.336      8.975
REMARK INTER + INTRA:          -3.448
REMARK INTER:                  -3.427
REMARK INTRA:                  -0.021
REMARK UNBOUND:                -0.009
REMARK SMILES CCCC(=O)[O-]
REMARK SMILES IDX 3 1 4 2 5 3 6 4 2 5 1 6
REMARK H PARENT
REMARK Flexibility Score: inf
ROOT
ATOM      1  C   UNL     1     -10.692  -4.625  -6.797  1.00  0.00     0.052 C 
ENDROOT
BRANCH   1   2
ATOM      2  C   UNL     1      -9.903  -4.891  -8.039  1.00  0.00     0.041 C 
ATOM      3  O   UNL     1     -10.200  -5.862  -8.784  1.00  0.00    -0.550 OA
ATOM      4  O   UNL     1      -8.869  -4.037  -8.402  1.00  0.00    -0.550 OA
ENDBRANCH   1   2
BRANCH   1   5
ATOM      5  C   UNL     1     -11.719  -5.737  -6.567  1.00  0.00     0.003 C 
ATOM      6  C   UNL     1     -11.793  -6.122  -5.092  1.00  0.00     0.004 C 
ENDBRANCH   1   5
TORSDOF 2
ENDMDL
MODEL 8
REMARK VINA RESULT:    -3.057      3.631      4.150
REMARK INTER + INTRA:          -3.424
REMARK INTER:                  -3.413
REMARK INTRA:                  -0.010
REMARK UNBOUND:                -0.009
REMARK SMILES CCCC(=O)[O-]
REMARK SMILES IDX 3 1 4 2 5 3 6 4 2 5 1 6
REMARK H PARENT
REMARK Flexibility Score: inf
ROOT
ATOM      1  C   UNL     1     -12.827   0.555  -9.776  1.00  0.00     0.052 C 
ENDROOT
BRANCH   1   2
ATOM      2  C   UNL     1     -12.135  -0.699 -10.204  1.00  0.00     0.041 C 
ATOM      3  O   UNL     1     -12.730  -1.807 -10.133  1.00  0.00    -0.550 OA
ATOM      4  O   UNL     1     -10.850  -0.640 -10.729  1.00  0.00    -0.550 OA
ENDBRANCH   1   2
BRANCH   1   5
ATOM      5  C   UNL     1     -14.331   0.456 -10.044  1.00  0.00     0.003 C 
ATOM      6  C   UNL     1     -15.055   1.725  -9.603  1.00  0.00     0.004 C 
ENDBRANCH   1   5
TORSDOF 2
ENDMDL
MODEL 9
REMARK VINA RESULT:    -2.819     15.424     16.192
REMARK INTER + INTRA:          -3.158
REMARK INTER:                  -3.124
REMARK INTRA:                  -0.034
REMARK UNBOUND:                -0.009
REMARK SMILES CCCC(=O)[O-]
REMARK SMILES IDX 3 1 4 2 5 3 6 4 2 5 1 6
REMARK H PARENT
REMARK Flexibility Score: inf
ROOT
ATOM      1  C   UNL     1     -10.260   4.990   7.356  1.00  0.00     0.052 C 
ENDROOT
BRANCH   1   2
ATOM      2  C   UNL     1     -10.365   5.304   5.898  1.00  0.00     0.041 C 
ATOM      3  O   UNL     1      -9.589   6.147   5.374  1.00  0.00    -0.550 OA
ATOM      4  O   UNL     1     -11.286   4.631   5.106  1.00  0.00    -0.550 OA
ENDBRANCH   1   2
BRANCH   1   5
ATOM      5  C   UNL     1     -10.936   3.652   7.666  1.00  0.00     0.003 C 
ATOM      6  C   UNL     1     -12.016   3.813   8.731  1.00  0.00     0.004 C 
ENDBRANCH   1   5
TORSDOF 2
ENDMDL
