MODEL 1
REMARK VINA RESULT:    -3.897      0.000      0.000
REMARK INTER + INTRA:          -5.582
REMARK INTER:                  -5.263
REMARK INTRA:                  -0.319
REMARK UNBOUND:                -0.319
REMARK SMILES C=C1CCC=C(C)CC[C@@H]2[C@@H]1CC2(C)C
REMARK SMILES IDX 11 1 12 2 13 3 10 4 14 5 15 6 9 7 8 8 6 9 7 10 5 11 2 13
REMARK SMILES IDX 1 14 3 15 4 16
REMARK H PARENT
REMARK Flexibility Score: 70.00
ROOT
ATOM      1  C   UNL     1       2.882 -36.245  41.415  1.00  0.00     0.018 C 
ATOM      2  C   UNL     1       4.020 -35.681  40.556  1.00  0.00     0.015 C 
ATOM      3  C   UNL     1       3.390 -36.322  39.305  1.00  0.00    -0.031 C 
ATOM      4  C   UNL     1       2.331 -37.012  40.206  1.00  0.00     0.002 C 
ATOM      5  C   UNL     1       2.859 -35.259  38.319  1.00  0.00     0.011 C 
ATOM      6  C   UNL     1       4.321 -37.317  38.591  1.00  0.00     0.011 C 
ENDROOT
BRANCH   4   7
ATOM      7  C   UNL     1       0.843 -36.742  39.907  1.00  0.00     0.009 C 
BRANCH   7   8
ATOM      8  C   UNL     1      -0.056 -37.919  40.335  1.00  0.00     0.030 C 
BRANCH   8   9
ATOM      9  C   UNL     1      -0.710 -37.677  41.685  1.00  0.00    -0.077 C 
ATOM     10  C   UNL     1      -2.087 -37.060  41.697  1.00  0.00     0.039 C 
ATOM     11  C   UNL     1      -0.136 -37.951  42.881  1.00  0.00    -0.028 CG0
ATOM     12  G   UNL     1       1.240 -38.529  43.119  1.00  0.00     0.000 G0
ENDBRANCH   8   9
ENDBRANCH   7   8
ENDBRANCH   4   7
BRANCH   1  13
ATOM     13  C   UNL     1       3.275 -37.127  42.591  1.00  0.00    -0.074 C 
ATOM     14  C   UNL     1       4.484 -37.710  42.680  1.00  0.00     0.008 C 
BRANCH  13  15
ATOM     15  C   UNL     1       2.224 -37.443  43.630  1.00  0.00     0.035 C 
BRANCH  15  16
ATOM     16  C   UNL     1       1.253 -38.528  43.138  1.00  0.00     0.032 CG0
ATOM     17  G   UNL     1      -0.124 -37.964  42.874  1.00  0.00     0.000 G0
ENDBRANCH  15  16
ENDBRANCH  13  15
ENDBRANCH   1  13
TORSDOF 0
ENDMDL
MODEL 2
REMARK VINA RESULT:    -3.804      2.457      4.656
REMARK INTER + INTRA:          -5.457
REMARK INTER:                  -5.145
REMARK INTRA:                  -0.312
REMARK UNBOUND:                -0.319
REMARK SMILES C=C1CCC=C(C)CC[C@@H]2[C@@H]1CC2(C)C
REMARK SMILES IDX 11 1 12 2 13 3 10 4 14 5 15 6 9 7 8 8 6 9 7 10 5 11 2 13
REMARK SMILES IDX 1 14 3 15 4 16
REMARK H PARENT
REMARK Flexibility Score: 70.00
ROOT
ATOM      1  C   UNL     1       3.017 -37.761  42.610  1.00  0.00     0.018 C 
ATOM      2  C   UNL     1       2.357 -38.512  41.448  1.00  0.00     0.015 C 
ATOM      3  C   UNL     1       2.824 -37.413  40.475  1.00  0.00    -0.031 C 
ATOM      4  C   UNL     1       3.354 -36.589  41.679  1.00  0.00     0.002 C 
ATOM      5  C   UNL     1       3.886 -37.935  39.484  1.00  0.00     0.011 C 
ATOM      6  C   UNL     1       1.668 -36.724  39.729  1.00  0.00     0.011 C 
ENDROOT
BRANCH   4   7
ATOM      7  C   UNL     1       4.842 -36.186  41.678  1.00  0.00     0.009 C 
BRANCH   7   8
ATOM      8  C   UNL     1       5.098 -34.916  42.513  1.00  0.00     0.030 C 
BRANCH   8   9
ATOM      9  C   UNL     1       5.630 -35.241  43.899  1.00  0.00    -0.077 C 
ATOM     10  C   UNL     1       7.127 -35.293  44.082  1.00  0.00     0.039 C 
ATOM     11  C   UNL     1       4.856 -35.513  44.978  1.00  0.00    -0.028 CG0
ATOM     12  G   UNL     1       3.347 -35.560  45.026  1.00  0.00     0.000 G0
ENDBRANCH   8   9
ENDBRANCH   7   8
ENDBRANCH   4   7
BRANCH   1  13
ATOM     13  C   UNL     1       2.129 -37.390  43.788  1.00  0.00    -0.074 C 
ATOM     14  C   UNL     1       0.790 -37.312  43.683  1.00  0.00     0.008 C 
BRANCH  13  15
ATOM     15  C   UNL     1       2.793 -36.988  45.085  1.00  0.00     0.035 C 
BRANCH  15  16
ATOM     16  C   UNL     1       3.328 -35.549  45.021  1.00  0.00     0.032 CG0
ATOM     17  G   UNL     1       4.838 -35.519  44.979  1.00  0.00     0.000 G0
ENDBRANCH  15  16
ENDBRANCH  13  15
ENDBRANCH   1  13
TORSDOF 0
ENDMDL
MODEL 3
REMARK VINA RESULT:    -3.780      1.222      3.555
REMARK INTER + INTRA:          -5.425
REMARK INTER:                  -5.135
REMARK INTRA:                  -0.290
REMARK UNBOUND:                -0.319
REMARK SMILES C=C1CCC=C(C)CC[C@@H]2[C@@H]1CC2(C)C
REMARK SMILES IDX 11 1 12 2 13 3 10 4 14 5 15 6 9 7 8 8 6 9 7 10 5 11 2 13
REMARK SMILES IDX 1 14 3 15 4 16
REMARK H PARENT
REMARK Flexibility Score: 70.00
ROOT
ATOM      1  C   UNL     1       1.727 -37.924  40.606  1.00  0.00     0.018 C 
ATOM      2  C   UNL     1       1.704 -37.802  39.078  1.00  0.00     0.015 C 
ATOM      3  C   UNL     1       2.780 -36.702  39.151  1.00  0.00    -0.031 C 
ATOM      4  C   UNL     1       2.683 -36.727  40.700  1.00  0.00     0.002 C 
ATOM      5  C   UNL     1       4.120 -37.166  38.543  1.00  0.00     0.011 C 
ATOM      6  C   UNL     1       2.331 -35.364  38.536  1.00  0.00     0.011 C 
ENDROOT
BRANCH   4   7
ATOM      7  C   UNL     1       3.973 -37.006  41.499  1.00  0.00     0.009 C 
BRANCH   7   8
ATOM      8  C   UNL     1       3.970 -36.295  42.867  1.00  0.00     0.030 C 
BRANCH   8   9
ATOM      9  C   UNL     1       3.563 -37.228  43.995  1.00  0.00    -0.077 C 
ATOM     10  C   UNL     1       4.661 -37.895  44.786  1.00  0.00     0.039 C 
ATOM     11  C   UNL     1       2.283 -37.526  44.325  1.00  0.00    -0.028 CG0
ATOM     12  G   UNL     1       1.028 -37.015  43.656  1.00  0.00     0.000 G0
ENDBRANCH   8   9
ENDBRANCH   7   8
ENDBRANCH   4   7
BRANCH   1  13
ATOM     13  C   UNL     1       0.407 -37.729  41.336  1.00  0.00    -0.074 C 
ATOM     14  C   UNL     1      -0.663 -37.164  40.749  1.00  0.00     0.008 C 
BRANCH  13  15
ATOM     15  C   UNL     1       0.342 -38.085  42.804  1.00  0.00     0.035 C 
BRANCH  15  16
ATOM     16  C   UNL     1       1.011 -37.009  43.674  1.00  0.00     0.032 CG0
ATOM     17  G   UNL     1       2.274 -37.525  44.323  1.00  0.00     0.000 G0
ENDBRANCH  15  16
ENDBRANCH  13  15
ENDBRANCH   1  13
TORSDOF 0
ENDMDL
MODEL 4
REMARK VINA RESULT:    -3.709      2.032      4.776
REMARK INTER + INTRA:          -5.329
REMARK INTER:                  -5.012
REMARK INTRA:                  -0.316
REMARK UNBOUND:                -0.319
REMARK SMILES C=C1CCC=C(C)CC[C@@H]2[C@@H]1CC2(C)C
REMARK SMILES IDX 11 1 12 2 13 3 10 4 14 5 15 6 9 7 8 8 6 9 7 10 5 11 2 13
REMARK SMILES IDX 1 14 3 15 4 16
REMARK H PARENT
REMARK Flexibility Score: 70.00
ROOT
ATOM      1  C   UNL     1       2.613 -36.413  43.110  1.00  0.00     0.018 C 
ATOM      2  C   UNL     1       2.767 -36.476  44.634  1.00  0.00     0.015 C 
ATOM      3  C   UNL     1       4.244 -36.878  44.467  1.00  0.00    -0.031 C 
ATOM      4  C   UNL     1       4.036 -36.960  42.931  1.00  0.00     0.002 C 
ATOM      5  C   UNL     1       5.201 -35.775  44.969  1.00  0.00     0.011 C 
ATOM      6  C   UNL     1       4.586 -38.235  45.107  1.00  0.00     0.011 C 
ENDROOT
BRANCH   4   7
ATOM      7  C   UNL     1       4.942 -36.092  42.033  1.00  0.00     0.009 C 
BRANCH   7   8
ATOM      8  C   UNL     1       5.119 -36.703  40.629  1.00  0.00     0.030 C 
BRANCH   8   9
ATOM      9  C   UNL     1       4.199 -36.059  39.605  1.00  0.00    -0.077 C 
ATOM     10  C   UNL     1       4.739 -34.895  38.810  1.00  0.00     0.039 C 
ATOM     11  C   UNL     1       2.919 -36.437  39.372  1.00  0.00    -0.028 CG0
ATOM     12  G   UNL     1       2.156 -37.541  40.068  1.00  0.00     0.000 G0
ENDBRANCH   8   9
ENDBRANCH   7   8
ENDBRANCH   4   7
BRANCH   1  13
ATOM     13  C   UNL     1       1.528 -37.278  42.487  1.00  0.00    -0.074 C 
ATOM     14  C   UNL     1       1.000 -38.339  43.124  1.00  0.00     0.008 C 
BRANCH  13  15
ATOM     15  C   UNL     1       1.117 -36.993  41.060  1.00  0.00     0.035 C 
BRANCH  15  16
ATOM     16  C   UNL     1       2.143 -37.546  40.059  1.00  0.00     0.032 CG0
ATOM     17  G   UNL     1       2.915 -36.436  39.383  1.00  0.00     0.000 G0
ENDBRANCH  15  16
ENDBRANCH  13  15
ENDBRANCH   1  13
TORSDOF 0
ENDMDL
MODEL 5
REMARK VINA RESULT:    -3.645      2.509      4.396
REMARK INTER + INTRA:          -5.242
REMARK INTER:                  -4.964
REMARK INTRA:                  -0.278
REMARK UNBOUND:                -0.319
REMARK SMILES C=C1CCC=C(C)CC[C@@H]2[C@@H]1CC2(C)C
REMARK SMILES IDX 11 1 12 2 13 3 10 4 14 5 15 6 9 7 8 8 6 9 7 10 5 11 2 13
REMARK SMILES IDX 1 14 3 15 4 16
REMARK H PARENT
REMARK Flexibility Score: 70.00
ROOT
ATOM      1  C   UNL     1       3.040 -38.674  41.465  1.00  0.00     0.018 C 
ATOM      2  C   UNL     1       2.914 -38.911  42.975  1.00  0.00     0.015 C 
ATOM      3  C   UNL     1       1.978 -37.691  43.085  1.00  0.00    -0.031 C 
ATOM      4  C   UNL     1       2.236 -37.373  41.588  1.00  0.00     0.002 C 
ATOM      5  C   UNL     1       0.538 -38.103  43.458  1.00  0.00     0.011 C 
ATOM      6  C   UNL     1       2.503 -36.601  44.037  1.00  0.00     0.011 C 
ENDROOT
BRANCH   4   7
ATOM      7  C   UNL     1       1.016 -37.289  40.648  1.00  0.00     0.009 C 
BRANCH   7   8
ATOM      8  C   UNL     1       1.367 -36.624  39.303  1.00  0.00     0.030 C 
BRANCH   8   9
ATOM      9  C   UNL     1       1.635 -37.647  38.211  1.00  0.00    -0.077 C 
ATOM     10  C   UNL     1       0.449 -38.197  37.459  1.00  0.00     0.039 C 
ATOM     11  C   UNL     1       2.861 -38.121  37.883  1.00  0.00    -0.028 CG0
ATOM     12  G   UNL     1       4.181 -37.751  38.519  1.00  0.00     0.000 G0
ENDBRANCH   8   9
ENDBRANCH   7   8
ENDBRANCH   4   7
BRANCH   1  13
ATOM     13  C   UNL     1       4.444 -38.492  40.908  1.00  0.00    -0.074 C 
ATOM     14  C   UNL     1       5.435 -37.931  41.624  1.00  0.00     0.008 C 
BRANCH  13  15
ATOM     15  C   UNL     1       4.692 -38.856  39.462  1.00  0.00     0.035 C 
BRANCH  15  16
ATOM     16  C   UNL     1       4.198 -37.755  38.512  1.00  0.00     0.032 CG0
ATOM     17  G   UNL     1       2.873 -38.116  37.882  1.00  0.00     0.000 G0
ENDBRANCH  15  16
ENDBRANCH  13  15
ENDBRANCH   1  13
TORSDOF 0
ENDMDL
MODEL 6
REMARK VINA RESULT:    -3.639      2.082      3.729
REMARK INTER + INTRA:          -5.234
REMARK INTER:                  -4.906
REMARK INTRA:                  -0.329
REMARK UNBOUND:                -0.319
REMARK SMILES C=C1CCC=C(C)CC[C@@H]2[C@@H]1CC2(C)C
REMARK SMILES IDX 11 1 12 2 13 3 10 4 14 5 15 6 9 7 8 8 6 9 7 10 5 11 2 13
REMARK SMILES IDX 1 14 3 15 4 16
REMARK H PARENT
REMARK Flexibility Score: 70.00
ROOT
ATOM      1  C   UNL     1       3.699 -35.548  43.824  1.00  0.00     0.018 C 
ATOM      2  C   UNL     1       4.765 -34.847  44.675  1.00  0.00     0.015 C 
ATOM      3  C   UNL     1       5.838 -35.222  43.636  1.00  0.00    -0.031 C 
ATOM      4  C   UNL     1       4.782 -36.057  42.864  1.00  0.00     0.002 C 
ATOM      5  C   UNL     1       6.394 -33.980  42.908  1.00  0.00     0.011 C 
ATOM      6  C   UNL     1       6.981 -36.075  44.217  1.00  0.00     0.011 C 
ENDROOT
BRANCH   4   7
ATOM      7  C   UNL     1       4.531 -35.710  41.382  1.00  0.00     0.009 C 
BRANCH   7   8
ATOM      8  C   UNL     1       3.925 -36.894  40.605  1.00  0.00     0.030 C 
BRANCH   8   9
ATOM      9  C   UNL     1       2.417 -36.771  40.460  1.00  0.00    -0.077 C 
ATOM     10  C   UNL     1       1.885 -36.039  39.253  1.00  0.00     0.039 C 
ATOM     11  C   UNL     1       1.515 -37.248  41.352  1.00  0.00    -0.028 CG0
ATOM     12  G   UNL     1       1.809 -37.973  42.645  1.00  0.00     0.000 G0
ENDBRANCH   8   9
ENDBRANCH   7   8
ENDBRANCH   4   7
BRANCH   1  13
ATOM     13  C   UNL     1       2.891 -36.648  44.495  1.00  0.00    -0.074 C 
ATOM     14  C   UNL     1       3.350 -37.330  45.560  1.00  0.00     0.008 C 
BRANCH  13  15
ATOM     15  C   UNL     1       1.577 -37.055  43.868  1.00  0.00     0.035 C 
BRANCH  15  16
ATOM     16  C   UNL     1       1.794 -37.972  42.654  1.00  0.00     0.032 CG0
ATOM     17  G   UNL     1       1.518 -37.250  41.355  1.00  0.00     0.000 G0
ENDBRANCH  15  16
ENDBRANCH  13  15
ENDBRANCH   1  13
TORSDOF 0
ENDMDL
MODEL 7
REMARK VINA RESULT:    -3.526      3.046      5.514
REMARK INTER + INTRA:          -5.081
REMARK INTER:                  -4.769
REMARK INTRA:                  -0.313
REMARK UNBOUND:                -0.319
REMARK SMILES C=C1CCC=C(C)CC[C@@H]2[C@@H]1CC2(C)C
REMARK SMILES IDX 11 1 12 2 13 3 10 4 14 5 15 6 9 7 8 8 6 9 7 10 5 11 2 13
REMARK SMILES IDX 1 14 3 15 4 16
REMARK H PARENT
REMARK Flexibility Score: 70.00
ROOT
ATOM      1  C   UNL     1       4.608 -38.010  42.980  1.00  0.00     0.018 C 
ATOM      2  C   UNL     1       3.484 -39.017  42.711  1.00  0.00     0.015 C 
ATOM      3  C   UNL     1       2.625 -37.893  42.100  1.00  0.00    -0.031 C 
ATOM      4  C   UNL     1       3.705 -36.859  42.515  1.00  0.00     0.002 C 
ATOM      5  C   UNL     1       2.414 -38.090  40.583  1.00  0.00     0.011 C 
ATOM      6  C   UNL     1       1.280 -37.689  42.820  1.00  0.00     0.011 C 
ENDROOT
BRANCH   4   7
ATOM      7  C   UNL     1       4.320 -35.976  41.411  1.00  0.00     0.009 C 
BRANCH   7   8
ATOM      8  C   UNL     1       4.925 -34.677  41.979  1.00  0.00     0.030 C 
BRANCH   8   9
ATOM      9  C   UNL     1       6.431 -34.777  42.157  1.00  0.00    -0.077 C 
ATOM     10  C   UNL     1       7.304 -34.374  40.994  1.00  0.00     0.039 C 
ATOM     11  C   UNL     1       7.046 -35.227  43.277  1.00  0.00    -0.028 CG0
ATOM     12  G   UNL     1       6.386 -35.719  44.544  1.00  0.00     0.000 G0
ENDBRANCH   8   9
ENDBRANCH   7   8
ENDBRANCH   4   7
BRANCH   1  13
ATOM     13  C   UNL     1       5.095 -37.883  44.415  1.00  0.00    -0.074 C 
ATOM     14  C   UNL     1       4.326 -38.215  45.468  1.00  0.00     0.008 C 
BRANCH  13  15
ATOM     15  C   UNL     1       6.449 -37.256  44.658  1.00  0.00     0.035 C 
BRANCH  15  16
ATOM     16  C   UNL     1       6.388 -35.725  44.547  1.00  0.00     0.032 CG0
ATOM     17  G   UNL     1       7.049 -35.233  43.280  1.00  0.00     0.000 G0
ENDBRANCH  15  16
ENDBRANCH  13  15
ENDBRANCH   1  13
TORSDOF 0
ENDMDL
MODEL 8
REMARK VINA RESULT:    -3.516      1.922      3.976
REMARK INTER + INTRA:          -5.068
REMARK INTER:                  -4.829
REMARK INTRA:                  -0.239
REMARK UNBOUND:                -0.319
REMARK SMILES C=C1CCC=C(C)CC[C@@H]2[C@@H]1CC2(C)C
REMARK SMILES IDX 11 1 12 2 13 3 10 4 14 5 15 6 9 7 8 8 6 9 7 10 5 11 2 13
REMARK SMILES IDX 1 14 3 15 4 16
REMARK H PARENT
REMARK Flexibility Score: 70.00
ROOT
ATOM      1  C   UNL     1       2.638 -36.520  40.281  1.00  0.00     0.018 C 
ATOM      2  C   UNL     1       1.583 -36.056  39.270  1.00  0.00     0.015 C 
ATOM      3  C   UNL     1       0.637 -37.175  39.747  1.00  0.00    -0.031 C 
ATOM      4  C   UNL     1       1.767 -37.727  40.656  1.00  0.00     0.002 C 
ATOM      5  C   UNL     1      -0.605 -36.609  40.469  1.00  0.00     0.011 C 
ATOM      6  C   UNL     1       0.226 -38.148  38.628  1.00  0.00     0.011 C 
ENDROOT
BRANCH   4   7
ATOM      7  C   UNL     1       1.480 -37.859  42.165  1.00  0.00     0.009 C 
BRANCH   7   8
ATOM      8  C   UNL     1       2.567 -38.676  42.891  1.00  0.00     0.030 C 
BRANCH   8   9
ATOM      9  C   UNL     1       3.599 -37.785  43.563  1.00  0.00    -0.077 C 
ATOM     10  C   UNL     1       3.261 -37.217  44.919  1.00  0.00     0.039 C 
ATOM     11  C   UNL     1       4.792 -37.441  43.019  1.00  0.00    -0.028 CG0
ATOM     12  G   UNL     1       5.328 -37.851  41.667  1.00  0.00     0.000 G0
ENDBRANCH   8   9
ENDBRANCH   7   8
ENDBRANCH   4   7
BRANCH   1  13
ATOM     13  C   UNL     1       4.009 -36.884  39.733  1.00  0.00    -0.074 C 
ATOM     14  C   UNL     1       4.173 -37.454  38.525  1.00  0.00     0.008 C 
BRANCH  13  15
ATOM     15  C   UNL     1       5.211 -36.697  40.630  1.00  0.00     0.035 C 
BRANCH  15  16
ATOM     16  C   UNL     1       5.335 -37.839  41.651  1.00  0.00     0.032 CG0
ATOM     17  G   UNL     1       4.793 -37.437  43.003  1.00  0.00     0.000 G0
ENDBRANCH  15  16
ENDBRANCH  13  15
ENDBRANCH   1  13
TORSDOF 0
ENDMDL
MODEL 9
REMARK VINA RESULT:    -3.450      1.596      3.819
REMARK INTER + INTRA:          -4.979
REMARK INTER:                  -5.050
REMARK INTRA:                   0.070
REMARK UNBOUND:                -0.319
REMARK SMILES C=C1CCC=C(C)CC[C@@H]2[C@@H]1CC2(C)C
REMARK SMILES IDX 11 1 12 2 13 3 10 4 14 5 15 6 9 7 8 8 6 9 7 10 5 11 2 13
REMARK SMILES IDX 1 14 3 15 4 16
REMARK H PARENT
REMARK Flexibility Score: 70.00
ROOT
ATOM      1  C   UNL     1       1.081 -38.093  40.628  1.00  0.00     0.018 C 
ATOM      2  C   UNL     1       0.451 -37.213  39.542  1.00  0.00     0.015 C 
ATOM      3  C   UNL     1       1.850 -36.928  38.963  1.00  0.00    -0.031 C 
ATOM      4  C   UNL     1       2.485 -37.694  40.154  1.00  0.00     0.002 C 
ATOM      5  C   UNL     1       2.036 -37.560  37.567  1.00  0.00     0.011 C 
ATOM      6  C   UNL     1       2.211 -35.432  38.942  1.00  0.00     0.011 C 
ENDROOT
BRANCH   4   7
ATOM      7  C   UNL     1       3.410 -38.886  39.835  1.00  0.00     0.009 C 
BRANCH   7   8
ATOM      8  C   UNL     1       4.001 -39.518  41.110  1.00  0.00     0.030 C 
BRANCH   8   9
ATOM      9  C   UNL     1       4.743 -38.500  41.962  1.00  0.00    -0.077 C 
ATOM     10  C   UNL     1       6.190 -38.230  41.632  1.00  0.00     0.039 C 
ATOM     11  C   UNL     1       4.204 -37.836  43.013  1.00  0.00    -0.028 CG0
ATOM     12  G   UNL     1       2.799 -37.970  43.551  1.00  0.00     0.000 G0
ENDBRANCH   8   9
ENDBRANCH   7   8
ENDBRANCH   4   7
BRANCH   1  13
ATOM     13  C   UNL     1       0.781 -37.730  42.074  1.00  0.00    -0.074 C 
ATOM     14  C   UNL     1      -0.419 -37.956  42.638  1.00  0.00     0.008 C 
BRANCH  13  15
ATOM     15  C   UNL     1       1.839 -36.989  42.859  1.00  0.00     0.035 C 
BRANCH  15  16
ATOM     16  C   UNL     1       2.802 -37.959  43.561  1.00  0.00     0.032 CG0
ATOM     17  G   UNL     1       4.207 -37.836  43.020  1.00  0.00     0.000 G0
ENDBRANCH  15  16
ENDBRANCH  13  15
ENDBRANCH   1  13
TORSDOF 0
ENDMDL
