MODEL 1
REMARK VINA RESULT:    -4.700      0.000      0.000
REMARK INTER + INTRA:          -3.917
REMARK INTER:                  -5.112
REMARK INTRA:                   1.195
REMARK UNBOUND:                 1.195
REMARK SMILES C[C@H]1[C@H]2C3=CC[C@H]4[C@@]5(C)CC[C@H](O)C(C)(C)[C@H]5CC[C@@]4(C)[C@@]3(C)CC[C@]2(C(=O)[O-])CC[C@@H]1C
REMARK SMILES IDX 26 1 30 2 25 3 3 4 31 5 24 6 4 7 2 8 32 9 22 10 5 11 1 12
REMARK SMILES IDX 33 13 23 14 20 15 6 16 7 17 19 18 21 19 8 20 18 21 17 22
REMARK SMILES IDX 10 23 9 24 14 25 11 26 12 27 15 28 16 29 27 30 28 31 29 32
REMARK SMILES IDX 13 33
REMARK H PARENT 13 34
REMARK Flexibility Score: inf
ROOT
ATOM      1  C   UNL     1      21.244  40.034   2.382  1.00  0.00     0.017 C 
ATOM      2  C   UNL     1      22.282  40.062   1.225  1.00  0.00     0.014 C 
ATOM      3  C   UNL     1      21.800  39.104   3.480  1.00  0.00     0.014 C 
ATOM      4  C   UNL     1      21.107  41.477   2.976  1.00  0.00     0.030 C 
ATOM      5  C   UNL     1      21.907  41.059   0.124  1.00  0.00     0.004 C 
ATOM      6  C   UNL     1      20.890  39.052   4.713  1.00  0.00     0.013 C 
ATOM      7  C   UNL     1      20.294  41.498   4.299  1.00  0.00    -0.063 C 
ATOM      8  C   UNL     1      20.779  42.565   1.879  1.00  0.00    -0.003 C 
ATOM      9  C   UNL     1      21.755  42.494   0.665  1.00  0.00    -0.011 C 
ATOM     10  C   UNL     1      20.606  40.446   5.386  1.00  0.00    -0.006 C 
ATOM     11  C   UNL     1      19.649  42.621   4.672  1.00  0.00    -0.027 C 
ATOM     12  C   UNL     1      19.318  42.572   1.381  1.00  0.00     0.008 C 
ATOM     13  C   UNL     1      23.125  43.125   0.982  1.00  0.00     0.008 C 
ATOM     14  C   UNL     1      21.934  40.912   6.069  1.00  0.00     0.017 C 
ATOM     15  C   UNL     1      19.415  40.325   6.483  1.00  0.00    -0.020 C 
ATOM     16  C   UNL     1      18.704  42.698   5.826  1.00  0.00     0.032 C 
ATOM     17  C   UNL     1      18.989  41.743   7.021  1.00  0.00     0.006 C 
ATOM     18  C   UNL     1      18.142  39.654   5.864  1.00  0.00     0.008 C 
ATOM     19  C   UNL     1      19.939  39.441   7.669  1.00  0.00     0.012 C 
ATOM     20  C   UNL     1      17.805  41.724   8.135  1.00  0.00    -0.025 C 
ATOM     21  C   UNL     1      16.767  40.085   6.436  1.00  0.00     0.005 C 
ATOM     22  C   UNL     1      16.804  40.494   7.930  1.00  0.00     0.003 C 
ATOM     23  C   UNL     1      17.021  43.089   8.117  1.00  0.00     0.010 C 
ATOM     24  C   UNL     1      18.485  41.621   9.541  1.00  0.00     0.012 C 
ATOM     25  C   UNL     1      15.364  40.609   8.626  1.00  0.00    -0.006 C 
ATOM     26  C   UNL     1      15.751  43.124   8.959  1.00  0.00     0.033 C 
ATOM     27  C   UNL     1      14.776  42.043   8.480  1.00  0.00     0.120 C 
ATOM     28  C   UNL     1      14.339  39.620   8.005  1.00  0.00     0.014 C 
ATOM     29  C   UNL     1      15.462  40.197  10.125  1.00  0.00     0.014 C 
ENDROOT
BRANCH   1  30
ATOM     30  C   UNL     1      19.928  39.441   1.881  1.00  0.00     0.048 C 
ATOM     31  O   UNL     1      19.560  39.630   0.691  1.00  0.00    -0.550 OA
ATOM     32  O   UNL     1      19.169  38.598   2.680  1.00  0.00    -0.550 OA
ENDBRANCH   1  30
BRANCH  27  33
ATOM     33  O   UNL     1      13.529  42.171   9.122  1.00  0.00    -0.393 OA
ATOM     34  H   UNL     1      12.827  42.285   8.428  1.00  0.00     0.210 HD
ENDBRANCH  27  33
TORSDOF 2
ENDMDL
MODEL 2
REMARK VINA RESULT:    -2.466      2.106      7.847
REMARK INTER + INTRA:          -1.486
REMARK INTER:                  -1.910
REMARK INTRA:                   0.424
REMARK UNBOUND:                 1.195
REMARK SMILES C[C@H]1[C@H]2C3=CC[C@H]4[C@@]5(C)CC[C@H](O)C(C)(C)[C@H]5CC[C@@]4(C)[C@@]3(C)CC[C@]2(C(=O)[O-])CC[C@@H]1C
REMARK SMILES IDX 26 1 30 2 25 3 3 4 31 5 24 6 4 7 2 8 32 9 22 10 5 11 1 12
REMARK SMILES IDX 33 13 23 14 20 15 6 16 7 17 19 18 21 19 8 20 18 21 17 22
REMARK SMILES IDX 10 23 9 24 14 25 11 26 12 27 15 28 16 29 27 30 28 31 29 32
REMARK SMILES IDX 13 33
REMARK H PARENT 13 34
REMARK Flexibility Score: inf
ROOT
ATOM      1  C   UNL     1      18.768  40.972   8.693  1.00  0.00     0.017 C 
ATOM      2  C   UNL     1      18.036  40.839  10.058  1.00  0.00     0.014 C 
ATOM      3  C   UNL     1      19.947  39.978   8.701  1.00  0.00     0.014 C 
ATOM      4  C   UNL     1      17.782  40.564   7.546  1.00  0.00     0.030 C 
ATOM      5  C   UNL     1      16.760  41.685  10.124  1.00  0.00     0.004 C 
ATOM      6  C   UNL     1      20.707  39.967   7.370  1.00  0.00     0.013 C 
ATOM      7  C   UNL     1      18.497  40.414   6.176  1.00  0.00    -0.063 C 
ATOM      8  C   UNL     1      16.419  41.360   7.595  1.00  0.00    -0.003 C 
ATOM      9  C   UNL     1      15.761  41.321   9.008  1.00  0.00    -0.011 C 
ATOM     10  C   UNL     1      19.828  39.633   6.107  1.00  0.00    -0.006 C 
ATOM     11  C   UNL     1      17.800  40.576   5.034  1.00  0.00    -0.027 C 
ATOM     12  C   UNL     1      16.493  42.816   7.088  1.00  0.00     0.008 C 
ATOM     13  C   UNL     1      15.067  39.975   9.290  1.00  0.00     0.008 C 
ATOM     14  C   UNL     1      19.445  38.118   6.195  1.00  0.00     0.017 C 
ATOM     15  C   UNL     1      20.646  39.933   4.738  1.00  0.00    -0.020 C 
ATOM     16  C   UNL     1      18.420  40.625   3.676  1.00  0.00     0.032 C 
ATOM     17  C   UNL     1      19.717  39.790   3.474  1.00  0.00     0.006 C 
ATOM     18  C   UNL     1      21.227  41.388   4.734  1.00  0.00     0.008 C 
ATOM     19  C   UNL     1      21.829  38.906   4.647  1.00  0.00     0.012 C 
ATOM     20  C   UNL     1      20.452  40.063   2.050  1.00  0.00    -0.025 C 
ATOM     21  C   UNL     1      21.372  42.088   3.358  1.00  0.00     0.005 C 
ATOM     22  C   UNL     1      21.648  41.118   2.182  1.00  0.00     0.003 C 
ATOM     23  C   UNL     1      19.401  40.544   0.981  1.00  0.00     0.010 C 
ATOM     24  C   UNL     1      21.011  38.694   1.540  1.00  0.00     0.012 C 
ATOM     25  C   UNL     1      22.137  41.829   0.831  1.00  0.00    -0.006 C 
ATOM     26  C   UNL     1      19.989  41.043  -0.334  1.00  0.00     0.033 C 
ATOM     27  C   UNL     1      20.931  42.223  -0.071  1.00  0.00     0.120 C 
ATOM     28  C   UNL     1      22.946  43.125   1.117  1.00  0.00     0.014 C 
ATOM     29  C   UNL     1      23.125  40.900   0.066  1.00  0.00     0.014 C 
ENDROOT
BRANCH   1  30
ATOM     30  C   UNL     1      19.339  42.382   8.548  1.00  0.00     0.048 C 
ATOM     31  O   UNL     1      19.759  43.003   9.560  1.00  0.00    -0.550 OA
ATOM     32  O   UNL     1      19.512  42.963   7.299  1.00  0.00    -0.550 OA
ENDBRANCH   1  30
BRANCH  27  33
ATOM     33  O   UNL     1      21.346  42.813  -1.282  1.00  0.00    -0.393 OA
ATOM     34  H   UNL     1      22.317  42.639  -1.400  1.00  0.00     0.210 HD
ENDBRANCH  27  33
TORSDOF 2
ENDMDL
