MODEL 1
REMARK VINA RESULT:    -3.257      0.000      0.000
REMARK INTER + INTRA:          -4.135
REMARK INTER:                  -3.923
REMARK INTRA:                  -0.211
REMARK UNBOUND:                -0.211
REMARK SMILES OCC(O)CO
REMARK SMILES IDX 3 1 5 2 6 3 2 5 1 6 4 8
REMARK H PARENT 6 4 1 7 4 9
REMARK Flexibility Score: inf
ROOT
ATOM      1  C   UNL     1      -3.270  -7.863  21.043  1.00  0.00     0.165 C 
ENDROOT
BRANCH   1   2
ATOM      2  C   UNL     1      -4.036  -6.553  20.785  1.00  0.00     0.190 C 
BRANCH   2   3
ATOM      3  O   UNL     1      -3.399  -5.460  21.395  1.00  0.00    -0.394 OA
ATOM      4  H   UNL     1      -3.271  -5.696  22.350  1.00  0.00     0.210 HD
ENDBRANCH   2   3
ENDBRANCH   1   2
BRANCH   1   5
ATOM      5  C   UNL     1      -2.079  -8.038  20.088  1.00  0.00     0.190 C 
BRANCH   5   6
ATOM      6  O   UNL     1      -1.636  -6.782  19.653  1.00  0.00    -0.394 OA
ATOM      7  H   UNL     1      -0.937  -6.497  20.298  1.00  0.00     0.210 HD
ENDBRANCH   5   6
ENDBRANCH   1   5
BRANCH   1   8
ATOM      8  O   UNL     1      -2.859  -7.946  22.386  1.00  0.00    -0.388 OA
ATOM      9  H   UNL     1      -1.888  -8.149  22.393  1.00  0.00     0.211 HD
ENDBRANCH   1   8
TORSDOF 5
ENDMDL
MODEL 2
REMARK VINA RESULT:    -3.207     22.986     23.790
REMARK INTER + INTRA:          -4.075
REMARK INTER:                  -3.852
REMARK INTRA:                  -0.223
REMARK UNBOUND:                -0.211
REMARK SMILES OCC(O)CO
REMARK SMILES IDX 3 1 5 2 6 3 2 5 1 6 4 8
REMARK H PARENT 6 4 1 7 4 9
REMARK Flexibility Score: inf
ROOT
ATOM      1  C   UNL     1      -2.350  10.139   5.123  1.00  0.00     0.165 C 
ENDROOT
BRANCH   1   2
ATOM      2  C   UNL     1      -2.589  11.179   4.014  1.00  0.00     0.190 C 
BRANCH   2   3
ATOM      3  O   UNL     1      -1.811  10.903   2.878  1.00  0.00    -0.394 OA
ATOM      4  H   UNL     1      -1.051  11.541   2.887  1.00  0.00     0.210 HD
ENDBRANCH   2   3
ENDBRANCH   1   2
BRANCH   1   5
ATOM      5  C   UNL     1      -3.023   8.792   4.812  1.00  0.00     0.190 C 
BRANCH   5   6
ATOM      6  O   UNL     1      -2.317   8.138   3.794  1.00  0.00    -0.394 OA
ATOM      7  H   UNL     1      -3.002   7.745   3.193  1.00  0.00     0.210 HD
ENDBRANCH   5   6
ENDBRANCH   1   5
BRANCH   1   8
ATOM      8  O   UNL     1      -0.974   9.973   5.365  1.00  0.00    -0.388 OA
ATOM      9  H   UNL     1      -0.857   9.799   6.335  1.00  0.00     0.211 HD
ENDBRANCH   1   8
TORSDOF 5
ENDMDL
MODEL 3
REMARK VINA RESULT:    -3.191     23.040     23.838
REMARK INTER + INTRA:          -4.056
REMARK INTER:                  -3.847
REMARK INTRA:                  -0.209
REMARK UNBOUND:                -0.211
REMARK SMILES OCC(O)CO
REMARK SMILES IDX 3 1 5 2 6 3 2 5 1 6 4 8
REMARK H PARENT 6 4 1 7 4 9
REMARK Flexibility Score: inf
ROOT
ATOM      1  C   UNL     1      -2.978   9.250   4.183  1.00  0.00     0.165 C 
ENDROOT
BRANCH   1   2
ATOM      2  C   UNL     1      -2.366   9.868   5.453  1.00  0.00     0.190 C 
BRANCH   2   3
ATOM      3  O   UNL     1      -0.968   9.947   5.360  1.00  0.00    -0.394 OA
ATOM      4  H   UNL     1      -0.695  10.789   5.810  1.00  0.00     0.210 HD
ENDBRANCH   2   3
ENDBRANCH   1   2
BRANCH   1   5
ATOM      5  C   UNL     1      -3.062  10.260   3.027  1.00  0.00     0.190 C 
BRANCH   5   6
ATOM      6  O   UNL     1      -1.829  10.909   2.881  1.00  0.00    -0.394 OA
ATOM      7  H   UNL     1      -1.138  10.197   2.904  1.00  0.00     0.210 HD
ENDBRANCH   5   6
ENDBRANCH   1   5
BRANCH   1   8
ATOM      8  O   UNL     1      -2.271   8.096   3.797  1.00  0.00    -0.388 OA
ATOM      9  H   UNL     1      -1.785   7.759   4.594  1.00  0.00     0.211 HD
ENDBRANCH   1   8
TORSDOF 5
ENDMDL
MODEL 4
REMARK VINA RESULT:    -3.183     22.563     23.348
REMARK INTER + INTRA:          -4.046
REMARK INTER:                  -3.822
REMARK INTRA:                  -0.223
REMARK UNBOUND:                -0.211
REMARK SMILES OCC(O)CO
REMARK SMILES IDX 3 1 5 2 6 3 2 5 1 6 4 8
REMARK H PARENT 6 4 1 7 4 9
REMARK Flexibility Score: inf
ROOT
ATOM      1  C   UNL     1      -1.958   9.843   5.636  1.00  0.00     0.165 C 
ENDROOT
BRANCH   1   2
ATOM      2  C   UNL     1      -2.954   8.902   4.937  1.00  0.00     0.190 C 
BRANCH   2   3
ATOM      3  O   UNL     1      -2.332   8.166   3.916  1.00  0.00    -0.394 OA
ATOM      4  H   UNL     1      -1.601   8.732   3.556  1.00  0.00     0.210 HD
ENDBRANCH   2   3
ENDBRANCH   1   2
BRANCH   1   5
ATOM      5  C   UNL     1      -1.870  11.214   4.946  1.00  0.00     0.190 C 
BRANCH   5   6
ATOM      6  O   UNL     1      -1.720  11.036   3.564  1.00  0.00    -0.394 OA
ATOM      7  H   UNL     1      -2.584  11.304   3.156  1.00  0.00     0.210 HD
ENDBRANCH   5   6
ENDBRANCH   1   5
BRANCH   1   8
ATOM      8  O   UNL     1      -2.273   9.982   7.000  1.00  0.00    -0.388 OA
ATOM      9  H   UNL     1      -2.089  10.923   7.259  1.00  0.00     0.211 HD
ENDBRANCH   1   8
TORSDOF 5
ENDMDL
MODEL 5
REMARK VINA RESULT:    -3.140      1.545      2.149
REMARK INTER + INTRA:          -3.993
REMARK INTER:                  -3.794
REMARK INTRA:                  -0.200
REMARK UNBOUND:                -0.211
REMARK SMILES OCC(O)CO
REMARK SMILES IDX 3 1 5 2 6 3 2 5 1 6 4 8
REMARK H PARENT 6 4 1 7 4 9
REMARK Flexibility Score: inf
ROOT
ATOM      1  C   UNL     1      -3.828  -7.615  21.229  1.00  0.00     0.165 C 
ENDROOT
BRANCH   1   2
ATOM      2  C   UNL     1      -5.283  -7.676  21.726  1.00  0.00     0.190 C 
BRANCH   2   3
ATOM      3  O   UNL     1      -6.127  -6.881  20.934  1.00  0.00    -0.394 OA
ATOM      4  H   UNL     1      -6.503  -6.180  21.528  1.00  0.00     0.210 HD
ENDBRANCH   2   3
ENDBRANCH   1   2
BRANCH   1   5
ATOM      5  C   UNL     1      -3.536  -6.328  20.440  1.00  0.00     0.190 C 
BRANCH   5   6
ATOM      6  O   UNL     1      -3.521  -5.234  21.314  1.00  0.00    -0.394 OA
ATOM      7  H   UNL     1      -2.707  -4.713  21.090  1.00  0.00     0.210 HD
ENDBRANCH   5   6
ENDBRANCH   1   5
BRANCH   1   8
ATOM      8  O   UNL     1      -2.927  -7.767  22.299  1.00  0.00    -0.388 OA
ATOM      9  H   UNL     1      -3.406  -8.233  23.034  1.00  0.00     0.211 HD
ENDBRANCH   1   8
TORSDOF 5
ENDMDL
MODEL 6
REMARK VINA RESULT:    -3.093     22.733     23.596
REMARK INTER + INTRA:          -3.938
REMARK INTER:                  -3.715
REMARK INTRA:                  -0.223
REMARK UNBOUND:                -0.211
REMARK SMILES OCC(O)CO
REMARK SMILES IDX 3 1 5 2 6 3 2 5 1 6 4 8
REMARK H PARENT 6 4 1 7 4 9
REMARK Flexibility Score: inf
ROOT
ATOM      1  C   UNL     1      -2.395  10.551   4.513  1.00  0.00     0.165 C 
ENDROOT
BRANCH   1   2
ATOM      2  C   UNL     1      -3.191   9.269   4.208  1.00  0.00     0.190 C 
BRANCH   2   3
ATOM      3  O   UNL     1      -2.349   8.240   3.757  1.00  0.00    -0.394 OA
ATOM      4  H   UNL     1      -1.416   8.542   3.908  1.00  0.00     0.210 HD
ENDBRANCH   2   3
ENDBRANCH   1   2
BRANCH   1   5
ATOM      5  C   UNL     1      -1.391  10.354   5.660  1.00  0.00     0.190 C 
BRANCH   5   6
ATOM      6  O   UNL     1      -1.753   9.230   6.414  1.00  0.00    -0.394 OA
ATOM      7  H   UNL     1      -2.746   9.203   6.408  1.00  0.00     0.210 HD
ENDBRANCH   5   6
ENDBRANCH   1   5
BRANCH   1   8
ATOM      8  O   UNL     1      -1.754  11.029   3.355  1.00  0.00    -0.388 OA
ATOM      9  H   UNL     1      -1.629  10.260   2.739  1.00  0.00     0.211 HD
ENDBRANCH   1   8
TORSDOF 5
ENDMDL
MODEL 7
REMARK VINA RESULT:    -3.093      8.801      9.857
REMARK INTER + INTRA:          -3.938
REMARK INTER:                  -3.715
REMARK INTRA:                  -0.223
REMARK UNBOUND:                -0.211
REMARK SMILES OCC(O)CO
REMARK SMILES IDX 3 1 5 2 6 3 2 5 1 6 4 8
REMARK H PARENT 6 4 1 7 4 9
REMARK Flexibility Score: inf
ROOT
ATOM      1  C   UNL     1       2.168  -0.757  14.841  1.00  0.00     0.165 C 
ENDROOT
BRANCH   1   2
ATOM      2  C   UNL     1       3.207  -1.786  14.363  1.00  0.00     0.190 C 
BRANCH   2   3
ATOM      3  O   UNL     1       2.589  -2.926  13.826  1.00  0.00    -0.394 OA
ATOM      4  H   UNL     1       3.305  -3.479  13.420  1.00  0.00     0.210 HD
ENDBRANCH   2   3
ENDBRANCH   1   2
BRANCH   1   5
ATOM      5  C   UNL     1       0.725  -1.236  14.610  1.00  0.00     0.190 C 
BRANCH   5   6
ATOM      6  O   UNL     1       0.364  -2.141  15.617  1.00  0.00    -0.394 OA
ATOM      7  H   UNL     1       0.839  -2.987  15.411  1.00  0.00     0.210 HD
ENDBRANCH   5   6
ENDBRANCH   1   5
BRANCH   1   8
ATOM      8  O   UNL     1       2.379  -0.422  16.191  1.00  0.00    -0.388 OA
ATOM      9  H   UNL     1       1.611   0.130  16.490  1.00  0.00     0.211 HD
ENDBRANCH   1   8
TORSDOF 5
ENDMDL
MODEL 8
REMARK VINA RESULT:    -3.018      8.073      9.099
REMARK INTER + INTRA:          -3.847
REMARK INTER:                  -3.656
REMARK INTRA:                  -0.191
REMARK UNBOUND:                -0.211
REMARK SMILES OCC(O)CO
REMARK SMILES IDX 3 1 5 2 6 3 2 5 1 6 4 8
REMARK H PARENT 6 4 1 7 4 9
REMARK Flexibility Score: inf
ROOT
ATOM      1  C   UNL     1       2.085  -2.706  15.724  1.00  0.00     0.165 C 
ENDROOT
BRANCH   1   2
ATOM      2  C   UNL     1       2.353  -4.221  15.696  1.00  0.00     0.190 C 
BRANCH   2   3
ATOM      3  O   UNL     1       2.332  -4.719  14.384  1.00  0.00    -0.394 OA
ATOM      4  H   UNL     1       1.603  -5.391  14.341  1.00  0.00     0.210 HD
ENDBRANCH   2   3
ENDBRANCH   1   2
BRANCH   1   5
ATOM      5  C   UNL     1       2.946  -1.944  14.703  1.00  0.00     0.190 C 
BRANCH   5   6
ATOM      6  O   UNL     1       2.455  -2.173  13.411  1.00  0.00    -0.394 OA
ATOM      7  H   UNL     1       2.581  -1.323  12.914  1.00  0.00     0.210 HD
ENDBRANCH   5   6
ENDBRANCH   1   5
BRANCH   1   8
ATOM      8  O   UNL     1       0.717  -2.435  15.535  1.00  0.00    -0.388 OA
ATOM      9  H   UNL     1       0.228  -2.784  16.325  1.00  0.00     0.211 HD
ENDBRANCH   1   8
TORSDOF 5
ENDMDL
MODEL 9
REMARK VINA RESULT:    -2.974      8.639      9.231
REMARK INTER + INTRA:          -3.794
REMARK INTER:                  -3.792
REMARK INTRA:                  -0.003
REMARK UNBOUND:                -0.211
REMARK SMILES OCC(O)CO
REMARK SMILES IDX 3 1 5 2 6 3 2 5 1 6 4 8
REMARK H PARENT 6 4 1 7 4 9
REMARK Flexibility Score: inf
ROOT
ATOM      1  C   UNL     1       2.505  -2.418  15.001  1.00  0.00     0.165 C 
ENDROOT
BRANCH   1   2
ATOM      2  C   UNL     1       1.449  -1.501  15.644  1.00  0.00     0.190 C 
BRANCH   2   3
ATOM      3  O   UNL     1       1.991  -0.248  15.970  1.00  0.00    -0.394 OA
ATOM      4  H   UNL     1       1.321   0.219  16.534  1.00  0.00     0.210 HD
ENDBRANCH   2   3
ENDBRANCH   1   2
BRANCH   1   5
ATOM      5  C   UNL     1       2.362  -3.879  15.457  1.00  0.00     0.190 C 
BRANCH   5   6
ATOM      6  O   UNL     1       2.346  -4.721  14.337  1.00  0.00    -0.394 OA
ATOM      7  H   UNL     1       1.521  -4.494  13.834  1.00  0.00     0.210 HD
ENDBRANCH   5   6
ENDBRANCH   1   5
BRANCH   1   8
ATOM      8  O   UNL     1       2.465  -2.319  13.598  1.00  0.00    -0.388 OA
ATOM      9  H   UNL     1       3.102  -1.607  13.327  1.00  0.00     0.211 HD
ENDBRANCH   1   8
TORSDOF 5
ENDMDL
