MODEL 1
REMARK VINA RESULT:    -5.633      0.000      0.000
REMARK INTER + INTRA:         -10.091
REMARK INTER:                  -8.761
REMARK INTRA:                  -1.330
REMARK UNBOUND:                -1.330
REMARK SMILES COc1cc(CNC(=O)CCCCC=CC(C)C)ccc1O
REMARK SMILES IDX 11 1 12 2 13 3 14 4 15 5 16 6 17 7 18 8 10 9 8 10 9 11 7 12
REMARK SMILES IDX 6 14 5 15 4 16 19 17 3 18 20 19 21 20 2 21 1 22 22 23
REMARK H PARENT 7 13 22 24
REMARK Flexibility Score: inf
ROOT
ATOM      1  C   UNL     1     -10.780   5.075 -10.659  1.00  0.00     0.010 C 
ENDROOT
BRANCH   1   2
ATOM      2  C   UNL     1     -10.923   4.124 -11.856  1.00  0.00     0.005 C 
BRANCH   2   3
ATOM      3  C   UNL     1     -12.386   3.963 -12.296  1.00  0.00     0.027 C 
BRANCH   3   4
ATOM      4  C   UNL     1     -12.517   3.776 -13.790  1.00  0.00    -0.031 C 
ATOM      5  C   UNL     1     -12.513   4.772 -14.697  1.00  0.00    -0.028 C 
BRANCH   5   6
ATOM      6  C   UNL     1     -12.307   6.236 -14.366  1.00  0.00     0.005 C 
ATOM      7  C   UNL     1     -13.520   7.054 -14.833  1.00  0.00     0.012 C 
ATOM      8  C   UNL     1     -11.026   6.755 -15.034  1.00  0.00     0.012 C 
ENDBRANCH   5   6
ENDBRANCH   3   4
ENDBRANCH   2   3
ENDBRANCH   1   2
BRANCH   1   9
ATOM      9  C   UNL     1     -10.531   6.514 -11.116  1.00  0.00     0.100 C 
BRANCH   9  10
ATOM     10  C   UNL     1     -10.913   7.462 -10.022  1.00  0.00     0.220 C 
ATOM     11  O   UNL     1     -10.220   8.499  -9.832  1.00  0.00    -0.275 OA
ATOM     12  N   UNL     1     -11.997   7.142  -9.138  1.00  0.00    -0.352 N 
ATOM     13  H   UNL     1     -12.614   6.332  -9.379  1.00  0.00     0.163 HD
BRANCH  12  14
ATOM     14  C   UNL     1     -12.054   7.654  -7.773  1.00  0.00     0.151 C 
BRANCH  14  15
ATOM     15  C   UNL     1     -11.411   6.662  -6.843  1.00  0.00    -0.025 A 
ATOM     16  C   UNL     1     -10.512   7.093  -5.854  1.00  0.00     0.056 A 
ATOM     17  C   UNL     1     -11.635   5.289  -7.022  1.00  0.00     0.009 A 
ATOM     18  C   UNL     1      -9.856   6.158  -5.027  1.00  0.00     0.160 A 
ATOM     19  C   UNL     1     -10.983   4.358  -6.209  1.00  0.00     0.050 A 
ATOM     20  C   UNL     1     -10.096   4.789  -5.212  1.00  0.00     0.157 A 
BRANCH  18  21
ATOM     21  O   UNL     1      -8.961   6.550  -4.019  1.00  0.00    -0.493 OA
ATOM     22  C   UNL     1      -8.040   7.628  -4.134  1.00  0.00     0.278 C 
ENDBRANCH  18  21
BRANCH  20  23
ATOM     23  O   UNL     1      -9.447   3.860  -4.401  1.00  0.00    -0.504 OA
ATOM     24  H   UNL     1      -8.548   4.061  -3.981  1.00  0.00     0.293 HD
ENDBRANCH  20  23
ENDBRANCH  14  15
ENDBRANCH  12  14
ENDBRANCH   9  10
ENDBRANCH   1   9
TORSDOF 10
ENDMDL
MODEL 2
REMARK VINA RESULT:    -5.608      3.791      8.538
REMARK INTER + INTRA:         -10.052
REMARK INTER:                  -9.460
REMARK INTRA:                  -0.592
REMARK UNBOUND:                -1.330
REMARK SMILES COc1cc(CNC(=O)CCCCC=CC(C)C)ccc1O
REMARK SMILES IDX 11 1 12 2 13 3 14 4 15 5 16 6 17 7 18 8 10 9 8 10 9 11 7 12
REMARK SMILES IDX 6 14 5 15 4 16 19 17 3 18 20 19 21 20 2 21 1 22 22 23
REMARK H PARENT 7 13 22 24
REMARK Flexibility Score: inf
ROOT
ATOM      1  C   UNL     1     -13.397   4.792  -6.021  1.00  0.00     0.010 C 
ENDROOT
BRANCH   1   2
ATOM      2  C   UNL     1     -14.923   4.902  -5.902  1.00  0.00     0.005 C 
BRANCH   2   3
ATOM      3  C   UNL     1     -15.488   3.969  -4.820  1.00  0.00     0.027 C 
BRANCH   3   4
ATOM      4  C   UNL     1     -14.504   2.893  -4.421  1.00  0.00    -0.031 C 
ATOM      5  C   UNL     1     -14.753   1.569  -4.448  1.00  0.00    -0.028 C 
BRANCH   5   6
ATOM      6  C   UNL     1     -16.040   0.945  -4.948  1.00  0.00     0.005 C 
ATOM      7  C   UNL     1     -17.009   0.733  -3.776  1.00  0.00     0.012 C 
ATOM      8  C   UNL     1     -15.745  -0.391  -5.644  1.00  0.00     0.012 C 
ENDBRANCH   5   6
ENDBRANCH   3   4
ENDBRANCH   2   3
ENDBRANCH   1   2
BRANCH   1   9
ATOM      9  C   UNL     1     -12.871   5.596  -7.212  1.00  0.00     0.100 C 
BRANCH   9  10
ATOM     10  C   UNL     1     -11.952   4.740  -8.029  1.00  0.00     0.220 C 
ATOM     11  O   UNL     1     -11.035   4.094  -7.455  1.00  0.00    -0.275 OA
ATOM     12  N   UNL     1     -12.057   4.736  -9.460  1.00  0.00    -0.352 N 
ATOM     13  H   UNL     1     -12.886   5.198  -9.902  1.00  0.00     0.163 HD
BRANCH  12  14
ATOM     14  C   UNL     1     -10.912   4.443 -10.315  1.00  0.00     0.151 C 
BRANCH  14  15
ATOM     15  C   UNL     1     -11.241   4.816 -11.734  1.00  0.00    -0.025 A 
ATOM     16  C   UNL     1     -10.646   5.939 -12.331  1.00  0.00     0.056 A 
ATOM     17  C   UNL     1     -12.220   4.098 -12.437  1.00  0.00     0.009 A 
ATOM     18  C   UNL     1     -11.006   6.330 -13.637  1.00  0.00     0.160 A 
ATOM     19  C   UNL     1     -12.584   4.484 -13.729  1.00  0.00     0.050 A 
ATOM     20  C   UNL     1     -11.980   5.596 -14.330  1.00  0.00     0.157 A 
BRANCH  18  21
ATOM     21  O   UNL     1     -10.424   7.438 -14.274  1.00  0.00    -0.493 OA
ATOM     22  C   UNL     1      -9.343   7.361 -15.195  1.00  0.00     0.278 C 
ENDBRANCH  18  21
BRANCH  20  23
ATOM     23  O   UNL     1     -12.343   5.981 -15.620  1.00  0.00    -0.504 OA
ATOM     24  H   UNL     1     -11.753   6.584 -16.179  1.00  0.00     0.293 HD
ENDBRANCH  20  23
ENDBRANCH  14  15
ENDBRANCH  12  14
ENDBRANCH   9  10
ENDBRANCH   1   9
TORSDOF 10
ENDMDL
MODEL 3
REMARK VINA RESULT:    -5.582      3.094      4.916
REMARK INTER + INTRA:         -10.013
REMARK INTER:                  -8.535
REMARK INTRA:                  -1.478
REMARK UNBOUND:                -1.330
REMARK SMILES COc1cc(CNC(=O)CCCCC=CC(C)C)ccc1O
REMARK SMILES IDX 11 1 12 2 13 3 14 4 15 5 16 6 17 7 18 8 10 9 8 10 9 11 7 12
REMARK SMILES IDX 6 14 5 15 4 16 19 17 3 18 20 19 21 20 2 21 1 22 22 23
REMARK H PARENT 7 13 22 24
REMARK Flexibility Score: inf
ROOT
ATOM      1  C   UNL     1      -9.981   7.229 -11.240  1.00  0.00     0.010 C 
ENDROOT
BRANCH   1   2
ATOM      2  C   UNL     1     -10.629   5.899 -10.830  1.00  0.00     0.005 C 
BRANCH   2   3
ATOM      3  C   UNL     1     -10.622   4.875 -11.975  1.00  0.00     0.027 C 
BRANCH   3   4
ATOM      4  C   UNL     1     -11.968   4.209 -12.156  1.00  0.00    -0.031 C 
ATOM      5  C   UNL     1     -12.725   4.287 -13.267  1.00  0.00    -0.028 C 
BRANCH   5   6
ATOM      6  C   UNL     1     -12.316   4.999 -14.539  1.00  0.00     0.005 C 
ATOM      7  C   UNL     1     -13.134   6.288 -14.704  1.00  0.00     0.012 C 
ATOM      8  C   UNL     1     -12.521   4.079 -15.751  1.00  0.00     0.012 C 
ENDBRANCH   5   6
ENDBRANCH   3   4
ENDBRANCH   2   3
ENDBRANCH   1   2
BRANCH   1   9
ATOM      9  C   UNL     1     -10.111   7.471 -12.745  1.00  0.00     0.100 C 
BRANCH   9  10
ATOM     10  C   UNL     1     -10.581   8.873 -12.990  1.00  0.00     0.220 C 
ATOM     11  O   UNL     1      -9.747   9.754 -13.333  1.00  0.00    -0.275 OA
ATOM     12  N   UNL     1     -11.949   9.226 -12.740  1.00  0.00    -0.352 N 
ATOM     13  H   UNL     1     -12.637   8.460 -12.555  1.00  0.00     0.163 HD
BRANCH  12  14
ATOM     14  C   UNL     1     -12.340  10.586 -12.384  1.00  0.00     0.151 C 
BRANCH  14  15
ATOM     15  C   UNL     1     -12.981  10.578 -11.023  1.00  0.00    -0.025 A 
ATOM     16  C   UNL     1     -12.345   9.950  -9.940  1.00  0.00     0.056 A 
ATOM     17  C   UNL     1     -14.265  11.117 -10.852  1.00  0.00     0.009 A 
ATOM     18  C   UNL     1     -12.977   9.882  -8.681  1.00  0.00     0.160 A 
ATOM     19  C   UNL     1     -14.897  11.047  -9.608  1.00  0.00     0.050 A 
ATOM     20  C   UNL     1     -14.257  10.433  -8.524  1.00  0.00     0.157 A 
BRANCH  18  21
ATOM     21  O   UNL     1     -12.368   9.276  -7.571  1.00  0.00    -0.493 OA
ATOM     22  C   UNL     1     -11.463   8.181  -7.647  1.00  0.00     0.278 C 
ENDBRANCH  18  21
BRANCH  20  23
ATOM     23  O   UNL     1     -14.888  10.365  -7.283  1.00  0.00    -0.504 OA
ATOM     24  H   UNL     1     -14.703  11.045  -6.556  1.00  0.00     0.293 HD
ENDBRANCH  20  23
ENDBRANCH  14  15
ENDBRANCH  12  14
ENDBRANCH   9  10
ENDBRANCH   1   9
TORSDOF 10
ENDMDL
MODEL 4
REMARK VINA RESULT:    -5.546      3.247      7.855
REMARK INTER + INTRA:          -9.956
REMARK INTER:                  -9.274
REMARK INTRA:                  -0.683
REMARK UNBOUND:                -1.330
REMARK SMILES COc1cc(CNC(=O)CCCCC=CC(C)C)ccc1O
REMARK SMILES IDX 11 1 12 2 13 3 14 4 15 5 16 6 17 7 18 8 10 9 8 10 9 11 7 12
REMARK SMILES IDX 6 14 5 15 4 16 19 17 3 18 20 19 21 20 2 21 1 22 22 23
REMARK H PARENT 7 13 22 24
REMARK Flexibility Score: inf
ROOT
ATOM      1  C   UNL     1     -14.010   5.103  -6.700  1.00  0.00     0.010 C 
ENDROOT
BRANCH   1   2
ATOM      2  C   UNL     1     -14.687   5.888  -5.568  1.00  0.00     0.005 C 
BRANCH   2   3
ATOM      3  C   UNL     1     -15.736   6.879  -6.097  1.00  0.00     0.027 C 
BRANCH   3   4
ATOM      4  C   UNL     1     -15.731   8.181  -5.330  1.00  0.00    -0.031 C 
ATOM      5  C   UNL     1     -15.741   9.407  -5.888  1.00  0.00    -0.028 C 
BRANCH   5   6
ATOM      6  C   UNL     1     -15.825   9.674  -7.377  1.00  0.00     0.005 C 
ATOM      7  C   UNL     1     -14.444  10.073  -7.916  1.00  0.00     0.012 C 
ATOM      8  C   UNL     1     -16.848  10.784  -7.659  1.00  0.00     0.012 C 
ENDBRANCH   5   6
ENDBRANCH   3   4
ENDBRANCH   2   3
ENDBRANCH   1   2
BRANCH   1   9
ATOM      9  C   UNL     1     -12.755   5.819  -7.203  1.00  0.00     0.100 C 
BRANCH   9  10
ATOM     10  C   UNL     1     -11.913   4.864  -7.991  1.00  0.00     0.220 C 
ATOM     11  O   UNL     1     -11.017   4.199  -7.403  1.00  0.00    -0.275 OA
ATOM     12  N   UNL     1     -12.061   4.782  -9.416  1.00  0.00    -0.352 N 
ATOM     13  H   UNL     1     -12.874   5.266  -9.862  1.00  0.00     0.163 HD
BRANCH  12  14
ATOM     14  C   UNL     1     -10.961   4.371 -10.281  1.00  0.00     0.151 C 
BRANCH  14  15
ATOM     15  C   UNL     1     -11.282   4.740 -11.703  1.00  0.00    -0.025 A 
ATOM     16  C   UNL     1     -10.714   5.884 -12.288  1.00  0.00     0.056 A 
ATOM     17  C   UNL     1     -12.228   3.995 -12.423  1.00  0.00     0.009 A 
ATOM     18  C   UNL     1     -11.069   6.269 -13.597  1.00  0.00     0.160 A 
ATOM     19  C   UNL     1     -12.587   4.375 -13.718  1.00  0.00     0.050 A 
ATOM     20  C   UNL     1     -12.009   5.508 -14.307  1.00  0.00     0.157 A 
BRANCH  18  21
ATOM     21  O   UNL     1     -10.513   7.397 -14.221  1.00  0.00    -0.493 OA
ATOM     22  C   UNL     1      -9.361   7.370 -15.056  1.00  0.00     0.278 C 
ENDBRANCH  18  21
BRANCH  20  23
ATOM     23  O   UNL     1     -12.367   5.888 -15.600  1.00  0.00    -0.504 OA
ATOM     24  H   UNL     1     -11.701   5.863 -16.362  1.00  0.00     0.293 HD
ENDBRANCH  20  23
ENDBRANCH  14  15
ENDBRANCH  12  14
ENDBRANCH   9  10
ENDBRANCH   1   9
TORSDOF 10
ENDMDL
MODEL 5
REMARK VINA RESULT:    -5.530      2.023      3.059
REMARK INTER + INTRA:          -9.930
REMARK INTER:                  -8.811
REMARK INTRA:                  -1.120
REMARK UNBOUND:                -1.330
REMARK SMILES COc1cc(CNC(=O)CCCCC=CC(C)C)ccc1O
REMARK SMILES IDX 11 1 12 2 13 3 14 4 15 5 16 6 17 7 18 8 10 9 8 10 9 11 7 12
REMARK SMILES IDX 6 14 5 15 4 16 19 17 3 18 20 19 21 20 2 21 1 22 22 23
REMARK H PARENT 7 13 22 24
REMARK Flexibility Score: inf
ROOT
ATOM      1  C   UNL     1     -11.363   3.814 -11.547  1.00  0.00     0.010 C 
ENDROOT
BRANCH   1   2
ATOM      2  C   UNL     1     -12.473   4.451 -12.394  1.00  0.00     0.005 C 
BRANCH   2   3
ATOM      3  C   UNL     1     -12.161   4.389 -13.897  1.00  0.00     0.027 C 
BRANCH   3   4
ATOM      4  C   UNL     1     -12.512   5.676 -14.608  1.00  0.00    -0.031 C 
ATOM      5  C   UNL     1     -11.695   6.741 -14.730  1.00  0.00    -0.028 C 
BRANCH   5   6
ATOM      6  C   UNL     1     -10.266   6.790 -14.229  1.00  0.00     0.005 C 
ATOM      7  C   UNL     1     -10.170   7.721 -13.012  1.00  0.00     0.012 C 
ATOM      8  C   UNL     1      -9.331   7.273 -15.346  1.00  0.00     0.012 C 
ENDBRANCH   5   6
ENDBRANCH   3   4
ENDBRANCH   2   3
ENDBRANCH   1   2
BRANCH   1   9
ATOM      9  C   UNL     1     -10.601   4.870 -10.743  1.00  0.00     0.100 C 
BRANCH   9  10
ATOM     10  C   UNL     1     -11.525   5.513  -9.755  1.00  0.00     0.220 C 
ATOM     11  O   UNL     1     -11.551   6.770  -9.660  1.00  0.00    -0.275 OA
ATOM     12  N   UNL     1     -12.299   4.701  -8.860  1.00  0.00    -0.352 N 
ATOM     13  H   UNL     1     -12.334   3.669  -9.027  1.00  0.00     0.163 HD
BRANCH  12  14
ATOM     14  C   UNL     1     -12.728   5.190  -7.555  1.00  0.00     0.151 C 
BRANCH  14  15
ATOM     15  C   UNL     1     -11.992   4.443  -6.477  1.00  0.00    -0.025 A 
ATOM     16  C   UNL     1     -12.696   3.815  -5.437  1.00  0.00     0.056 A 
ATOM     17  C   UNL     1     -10.589   4.452  -6.453  1.00  0.00     0.009 A 
ATOM     18  C   UNL     1     -12.004   3.174  -4.388  1.00  0.00     0.160 A 
ATOM     19  C   UNL     1      -9.899   3.823  -5.414  1.00  0.00     0.050 A 
ATOM     20  C   UNL     1     -10.602   3.184  -4.384  1.00  0.00     0.157 A 
BRANCH  18  21
ATOM     21  O   UNL     1     -12.672   2.524  -3.339  1.00  0.00    -0.493 OA
ATOM     22  C   UNL     1     -14.082   2.345  -3.270  1.00  0.00     0.278 C 
ENDBRANCH  18  21
BRANCH  20  23
ATOM     23  O   UNL     1      -9.913   2.557  -3.347  1.00  0.00    -0.504 OA
ATOM     24  H   UNL     1      -9.957   2.901  -2.397  1.00  0.00     0.293 HD
ENDBRANCH  20  23
ENDBRANCH  14  15
ENDBRANCH  12  14
ENDBRANCH   9  10
ENDBRANCH   1   9
TORSDOF 10
ENDMDL
MODEL 6
REMARK VINA RESULT:    -5.433      2.788      4.204
REMARK INTER + INTRA:          -9.781
REMARK INTER:                  -8.453
REMARK INTRA:                  -1.327
REMARK UNBOUND:                -1.330
REMARK SMILES COc1cc(CNC(=O)CCCCC=CC(C)C)ccc1O
REMARK SMILES IDX 11 1 12 2 13 3 14 4 15 5 16 6 17 7 18 8 10 9 8 10 9 11 7 12
REMARK SMILES IDX 6 14 5 15 4 16 19 17 3 18 20 19 21 20 2 21 1 22 22 23
REMARK H PARENT 7 13 22 24
REMARK Flexibility Score: inf
ROOT
ATOM      1  C   UNL     1     -12.238   4.419 -14.028  1.00  0.00     0.010 C 
ENDROOT
BRANCH   1   2
ATOM      2  C   UNL     1     -13.072   5.623 -14.488  1.00  0.00     0.005 C 
BRANCH   2   3
ATOM      3  C   UNL     1     -12.197   6.843 -14.812  1.00  0.00     0.027 C 
BRANCH   3   4
ATOM      4  C   UNL     1     -10.725   6.559 -14.620  1.00  0.00    -0.031 C 
ATOM      5  C   UNL     1      -9.935   7.158 -13.708  1.00  0.00    -0.028 C 
BRANCH   5   6
ATOM      6  C   UNL     1     -10.414   8.165 -12.683  1.00  0.00     0.005 C 
ATOM      7  C   UNL     1      -9.825   9.549 -12.992  1.00  0.00     0.012 C 
ATOM      8  C   UNL     1     -10.009   7.717 -11.271  1.00  0.00     0.012 C 
ENDBRANCH   5   6
ENDBRANCH   3   4
ENDBRANCH   2   3
ENDBRANCH   1   2
BRANCH   1   9
ATOM      9  C   UNL     1     -12.717   3.895 -12.672  1.00  0.00     0.100 C 
BRANCH   9  10
ATOM     10  C   UNL     1     -11.791   4.369 -11.594  1.00  0.00     0.220 C 
ATOM     11  O   UNL     1     -10.545   4.306 -11.778  1.00  0.00    -0.275 OA
ATOM     12  N   UNL     1     -12.318   4.798 -10.331  1.00  0.00    -0.352 N 
ATOM     13  H   UNL     1     -13.352   4.935 -10.242  1.00  0.00     0.163 HD
BRANCH  12  14
ATOM     14  C   UNL     1     -11.541   4.703  -9.101  1.00  0.00     0.151 C 
BRANCH  14  15
ATOM     15  C   UNL     1     -12.143   5.607  -8.060  1.00  0.00    -0.025 A 
ATOM     16  C   UNL     1     -13.102   5.115  -7.160  1.00  0.00     0.056 A 
ATOM     17  C   UNL     1     -11.819   6.971  -8.047  1.00  0.00     0.009 A 
ATOM     18  C   UNL     1     -13.718   5.977  -6.229  1.00  0.00     0.160 A 
ATOM     19  C   UNL     1     -12.431   7.831  -7.131  1.00  0.00     0.050 A 
ATOM     20  C   UNL     1     -13.377   7.338  -6.223  1.00  0.00     0.157 A 
BRANCH  18  21
ATOM     21  O   UNL     1     -14.671   5.522  -5.304  1.00  0.00    -0.493 OA
ATOM     22  C   UNL     1     -14.985   4.153  -5.080  1.00  0.00     0.278 C 
ENDBRANCH  18  21
BRANCH  20  23
ATOM     23  O   UNL     1     -13.987   8.196  -5.309  1.00  0.00    -0.504 OA
ATOM     24  H   UNL     1     -13.929   8.035  -4.311  1.00  0.00     0.293 HD
ENDBRANCH  20  23
ENDBRANCH  14  15
ENDBRANCH  12  14
ENDBRANCH   9  10
ENDBRANCH   1   9
TORSDOF 10
ENDMDL
MODEL 7
REMARK VINA RESULT:    -5.427      1.415      2.119
REMARK INTER + INTRA:          -9.771
REMARK INTER:                  -9.038
REMARK INTRA:                  -0.733
REMARK UNBOUND:                -1.330
REMARK SMILES COc1cc(CNC(=O)CCCCC=CC(C)C)ccc1O
REMARK SMILES IDX 11 1 12 2 13 3 14 4 15 5 16 6 17 7 18 8 10 9 8 10 9 11 7 12
REMARK SMILES IDX 6 14 5 15 4 16 19 17 3 18 20 19 21 20 2 21 1 22 22 23
REMARK H PARENT 7 13 22 24
REMARK Flexibility Score: inf
ROOT
ATOM      1  C   UNL     1     -11.420   5.260 -11.418  1.00  0.00     0.010 C 
ENDROOT
BRANCH   1   2
ATOM      2  C   UNL     1     -10.093   5.810 -11.961  1.00  0.00     0.005 C 
BRANCH   2   3
ATOM      3  C   UNL     1     -10.277   7.150 -12.690  1.00  0.00     0.027 C 
BRANCH   3   4
ATOM      4  C   UNL     1     -10.173   7.004 -14.191  1.00  0.00    -0.031 C 
ATOM      5  C   UNL     1     -11.082   6.389 -14.973  1.00  0.00    -0.028 C 
BRANCH   5   6
ATOM      6  C   UNL     1     -12.388   5.803 -14.477  1.00  0.00     0.005 C 
ATOM      7  C   UNL     1     -12.648   4.452 -15.157  1.00  0.00     0.012 C 
ATOM      8  C   UNL     1     -13.544   6.773 -14.759  1.00  0.00     0.012 C 
ENDBRANCH   5   6
ENDBRANCH   3   4
ENDBRANCH   2   3
ENDBRANCH   1   2
BRANCH   1   9
ATOM      9  C   UNL     1     -11.248   4.678 -10.014  1.00  0.00     0.100 C 
BRANCH   9  10
ATOM     10  C   UNL     1     -11.898   5.582  -9.011  1.00  0.00     0.220 C 
ATOM     11  O   UNL     1     -11.564   6.797  -8.967  1.00  0.00    -0.275 OA
ATOM     12  N   UNL     1     -12.819   5.046  -8.050  1.00  0.00    -0.352 N 
ATOM     13  H   UNL     1     -13.152   4.062  -8.173  1.00  0.00     0.163 HD
BRANCH  12  14
ATOM     14  C   UNL     1     -13.021   5.670  -6.747  1.00  0.00     0.151 C 
BRANCH  14  15
ATOM     15  C   UNL     1     -11.898   5.276  -5.828  1.00  0.00    -0.025 A 
ATOM     16  C   UNL     1     -10.928   6.217  -5.445  1.00  0.00     0.056 A 
ATOM     17  C   UNL     1     -11.760   3.940  -5.424  1.00  0.00     0.009 A 
ATOM     18  C   UNL     1      -9.837   5.833  -4.639  1.00  0.00     0.160 A 
ATOM     19  C   UNL     1     -10.678   3.553  -4.630  1.00  0.00     0.050 A 
ATOM     20  C   UNL     1      -9.718   4.495  -4.236  1.00  0.00     0.157 A 
BRANCH  18  21
ATOM     21  O   UNL     1      -8.855   6.746  -4.224  1.00  0.00    -0.493 OA
ATOM     22  C   UNL     1      -8.745   8.082  -4.700  1.00  0.00     0.278 C 
ENDBRANCH  18  21
BRANCH  20  23
ATOM     23  O   UNL     1      -8.638   4.108  -3.443  1.00  0.00    -0.504 OA
ATOM     24  H   UNL     1      -7.888   4.749  -3.221  1.00  0.00     0.293 HD
ENDBRANCH  20  23
ENDBRANCH  14  15
ENDBRANCH  12  14
ENDBRANCH   9  10
ENDBRANCH   1   9
TORSDOF 10
ENDMDL
MODEL 8
REMARK VINA RESULT:    -5.413      3.602      4.913
REMARK INTER + INTRA:          -9.749
REMARK INTER:                  -8.356
REMARK INTRA:                  -1.393
REMARK UNBOUND:                -1.330
REMARK SMILES COc1cc(CNC(=O)CCCCC=CC(C)C)ccc1O
REMARK SMILES IDX 11 1 12 2 13 3 14 4 15 5 16 6 17 7 18 8 10 9 8 10 9 11 7 12
REMARK SMILES IDX 6 14 5 15 4 16 19 17 3 18 20 19 21 20 2 21 1 22 22 23
REMARK H PARENT 7 13 22 24
REMARK Flexibility Score: inf
ROOT
ATOM      1  C   UNL     1      -9.786   7.560 -11.646  1.00  0.00     0.010 C 
ENDROOT
BRANCH   1   2
ATOM      2  C   UNL     1     -10.587   6.383 -11.072  1.00  0.00     0.005 C 
BRANCH   2   3
ATOM      3  C   UNL     1     -10.484   5.128 -11.952  1.00  0.00     0.027 C 
BRANCH   3   4
ATOM      4  C   UNL     1     -11.802   4.398 -12.065  1.00  0.00    -0.031 C 
ATOM      5  C   UNL     1     -12.589   4.388 -13.159  1.00  0.00    -0.028 C 
BRANCH   5   6
ATOM      6  C   UNL     1     -12.242   5.053 -14.475  1.00  0.00     0.005 C 
ATOM      7  C   UNL     1     -13.117   6.298 -14.678  1.00  0.00     0.012 C 
ATOM      8  C   UNL     1     -12.439   4.068 -15.635  1.00  0.00     0.012 C 
ENDBRANCH   5   6
ENDBRANCH   3   4
ENDBRANCH   2   3
ENDBRANCH   1   2
BRANCH   1   9
ATOM      9  C   UNL     1     -10.440   8.113 -12.914  1.00  0.00     0.100 C 
BRANCH   9  10
ATOM     10  C   UNL     1     -10.982   9.484 -12.644  1.00  0.00     0.220 C 
ATOM     11  O   UNL     1     -10.226  10.484 -12.776  1.00  0.00    -0.275 OA
ATOM     12  N   UNL     1     -12.318   9.643 -12.146  1.00  0.00    -0.352 N 
ATOM     13  H   UNL     1     -12.952   8.811 -12.143  1.00  0.00     0.163 HD
BRANCH  12  14
ATOM     14  C   UNL     1     -12.704  10.791 -11.333  1.00  0.00     0.151 C 
BRANCH  14  15
ATOM     15  C   UNL     1     -13.064  10.321  -9.950  1.00  0.00    -0.025 A 
ATOM     16  C   UNL     1     -14.204  10.824  -9.302  1.00  0.00     0.056 A 
ATOM     17  C   UNL     1     -12.207   9.450  -9.262  1.00  0.00     0.009 A 
ATOM     18  C   UNL     1     -14.504  10.438  -7.980  1.00  0.00     0.160 A 
ATOM     19  C   UNL     1     -12.497   9.068  -7.949  1.00  0.00     0.050 A 
ATOM     20  C   UNL     1     -13.643   9.558  -7.308  1.00  0.00     0.157 A 
BRANCH  18  21
ATOM     21  O   UNL     1     -15.642  10.907  -7.303  1.00  0.00    -0.493 OA
ATOM     22  C   UNL     1     -16.936  10.327  -7.407  1.00  0.00     0.278 C 
ENDBRANCH  18  21
BRANCH  20  23
ATOM     23  O   UNL     1     -13.932   9.177  -5.999  1.00  0.00    -0.504 OA
ATOM     24  H   UNL     1     -13.242   8.722  -5.415  1.00  0.00     0.293 HD
ENDBRANCH  20  23
ENDBRANCH  14  15
ENDBRANCH  12  14
ENDBRANCH   9  10
ENDBRANCH   1   9
TORSDOF 10
ENDMDL
MODEL 9
REMARK VINA RESULT:    -5.412      2.964      7.935
REMARK INTER + INTRA:          -9.748
REMARK INTER:                  -8.711
REMARK INTRA:                  -1.037
REMARK UNBOUND:                -1.330
REMARK SMILES COc1cc(CNC(=O)CCCCC=CC(C)C)ccc1O
REMARK SMILES IDX 11 1 12 2 13 3 14 4 15 5 16 6 17 7 18 8 10 9 8 10 9 11 7 12
REMARK SMILES IDX 6 14 5 15 4 16 19 17 3 18 20 19 21 20 2 21 1 22 22 23
REMARK H PARENT 7 13 22 24
REMARK Flexibility Score: inf
ROOT
ATOM      1  C   UNL     1     -11.671   4.536  -6.479  1.00  0.00     0.010 C 
ENDROOT
BRANCH   1   2
ATOM      2  C   UNL     1     -11.812   5.015  -5.027  1.00  0.00     0.005 C 
BRANCH   2   3
ATOM      3  C   UNL     1     -12.281   6.475  -4.942  1.00  0.00     0.027 C 
BRANCH   3   4
ATOM      4  C   UNL     1     -13.512   6.632  -4.079  1.00  0.00    -0.031 C 
ATOM      5  C   UNL     1     -14.759   6.845  -4.542  1.00  0.00    -0.028 C 
BRANCH   5   6
ATOM      6  C   UNL     1     -15.135   6.894  -6.009  1.00  0.00     0.005 C 
ATOM      7  C   UNL     1     -15.776   8.250  -6.340  1.00  0.00     0.012 C 
ATOM      8  C   UNL     1     -16.104   5.751  -6.346  1.00  0.00     0.012 C 
ENDBRANCH   5   6
ENDBRANCH   3   4
ENDBRANCH   2   3
ENDBRANCH   1   2
BRANCH   1   9
ATOM      9  C   UNL     1     -11.966   5.665  -7.469  1.00  0.00     0.100 C 
BRANCH   9  10
ATOM     10  C   UNL     1     -12.054   5.106  -8.856  1.00  0.00     0.220 C 
ATOM     11  O   UNL     1     -13.172   4.728  -9.300  1.00  0.00    -0.275 OA
ATOM     12  N   UNL     1     -10.862   4.915  -9.632  1.00  0.00    -0.352 N 
ATOM     13  H   UNL     1      -9.967   5.328  -9.281  1.00  0.00     0.163 HD
BRANCH  12  14
ATOM     14  C   UNL     1     -10.775   3.892 -10.668  1.00  0.00     0.151 C 
BRANCH  14  15
ATOM     15  C   UNL     1     -11.163   4.491 -11.992  1.00  0.00    -0.025 A 
ATOM     16  C   UNL     1     -10.556   5.676 -12.442  1.00  0.00     0.056 A 
ATOM     17  C   UNL     1     -12.202   3.921 -12.741  1.00  0.00     0.009 A 
ATOM     18  C   UNL     1     -10.968   6.276 -13.650  1.00  0.00     0.160 A 
ATOM     19  C   UNL     1     -12.618   4.514 -13.935  1.00  0.00     0.050 A 
ATOM     20  C   UNL     1     -12.003   5.688 -14.392  1.00  0.00     0.157 A 
BRANCH  18  21
ATOM     21  O   UNL     1     -10.377   7.451 -14.141  1.00  0.00    -0.493 OA
ATOM     22  C   UNL     1      -9.310   7.484 -15.081  1.00  0.00     0.278 C 
ENDBRANCH  18  21
BRANCH  20  23
ATOM     23  O   UNL     1     -12.418   6.280 -15.584  1.00  0.00    -0.504 OA
ATOM     24  H   UNL     1     -11.800   6.349 -16.383  1.00  0.00     0.293 HD
ENDBRANCH  20  23
ENDBRANCH  14  15
ENDBRANCH  12  14
ENDBRANCH   9  10
ENDBRANCH   1   9
TORSDOF 10
ENDMDL
