MODEL 1
REMARK VINA RESULT:    -1.602      0.000      0.000
REMARK INTER + INTRA:          -2.259
REMARK INTER:                  -2.070
REMARK INTRA:                  -0.189
REMARK UNBOUND:                -0.189
REMARK SMILES COc1cc(-c2[o+]c3cc(O)cc(O)c3cc2O)cc(OC)c1O
REMARK SMILES IDX 6 1 7 2 8 3 9 4 10 5 12 6 13 7 15 8 16 9 17 10 5 11 3 12
REMARK SMILES IDX 4 13 23 14 20 15 19 16 2 17 1 18 24 19 21 21 22 22 18 23
REMARK SMILES IDX 11 25 14 27
REMARK H PARENT 24 20 18 24 11 26 14 28
REMARK Flexibility Score: inf
ROOT
ATOM      1  C   UNL     1      -1.743  41.351  24.205  1.00  0.00     0.402 A 
ATOM      2  O   UNL     1      -1.213  42.294  23.430  1.00  0.00    -0.202 OA
ATOM      3  C   UNL     1      -1.340  43.595  23.673  1.00  0.00     0.368 A 
ATOM      4  C   UNL     1      -0.743  44.510  22.802  1.00  0.00     0.162 A 
ATOM      5  C   UNL     1      -0.859  45.884  23.035  1.00  0.00     0.128 A 
ATOM      6  C   UNL     1      -1.572  46.343  24.144  1.00  0.00     0.093 A 
ATOM      7  C   UNL     1      -2.178  45.446  25.033  1.00  0.00     0.136 A 
ATOM      8  C   UNL     1      -2.067  44.051  24.799  1.00  0.00     0.125 A 
ATOM      9  C   UNL     1      -2.652  43.080  25.628  1.00  0.00     0.078 A 
ATOM     10  C   UNL     1      -2.503  41.722  25.330  1.00  0.00     0.223 A 
ENDROOT
BRANCH   1  11
ATOM     11  C   UNL     1      -1.525  39.935  23.835  1.00  0.00     0.091 A 
ATOM     12  C   UNL     1      -0.873  37.675  24.492  1.00  0.00     0.165 A 
ATOM     13  C   UNL     1      -1.071  39.031  24.807  1.00  0.00     0.069 A 
ATOM     14  C   UNL     1      -1.149  37.222  23.188  1.00  0.00     0.200 A 
ATOM     15  C   UNL     1      -1.624  38.112  22.214  1.00  0.00     0.165 A 
ATOM     16  C   UNL     1      -1.818  39.465  22.545  1.00  0.00     0.069 A 
BRANCH  12  17
ATOM     17  O   UNL     1      -0.408  36.752  25.443  1.00  0.00    -0.493 OA
ATOM     18  C   UNL     1       0.940  36.670  25.898  1.00  0.00     0.278 C 
ENDBRANCH  12  17
BRANCH  14  19
ATOM     19  O   UNL     1      -0.958  35.884  22.843  1.00  0.00    -0.502 OA
ATOM     20  H   UNL     1      -0.852  35.155  23.539  1.00  0.00     0.293 HD
ENDBRANCH  14  19
BRANCH  15  21
ATOM     21  O   UNL     1      -1.895  37.610  20.931  1.00  0.00    -0.493 OA
ATOM     22  C   UNL     1      -0.962  37.596  19.855  1.00  0.00     0.278 C 
ENDBRANCH  15  21
ENDBRANCH   1  11
BRANCH  10  23
ATOM     23  O   UNL     1      -3.125  40.759  26.125  1.00  0.00    -0.500 OA
ATOM     24  H   UNL     1      -4.109  40.816  26.358  1.00  0.00     0.294 HD
ENDBRANCH  10  23
BRANCH   5  25
ATOM     25  O   UNL     1      -0.267  46.802  22.171  1.00  0.00    -0.507 OA
ATOM     26  H   UNL     1       0.024  47.718  22.489  1.00  0.00     0.293 HD
ENDBRANCH   5  25
BRANCH   7  27
ATOM     27  O   UNL     1      -2.870  45.986  26.121  1.00  0.00    -0.507 OA
ATOM     28  H   UNL     1      -2.980  46.975  26.292  1.00  0.00     0.293 HD
ENDBRANCH   7  27
TORSDOF 7
ENDMDL
MODEL 2
REMARK VINA RESULT:    -1.517      0.224      2.490
REMARK INTER + INTRA:          -2.150
REMARK INTER:                  -2.519
REMARK INTRA:                   0.369
REMARK UNBOUND:                -0.189
REMARK SMILES COc1cc(-c2[o+]c3cc(O)cc(O)c3cc2O)cc(OC)c1O
REMARK SMILES IDX 6 1 7 2 8 3 9 4 10 5 12 6 13 7 15 8 16 9 17 10 5 11 3 12
REMARK SMILES IDX 4 13 23 14 20 15 19 16 2 17 1 18 24 19 21 21 22 22 18 23
REMARK SMILES IDX 11 25 14 27
REMARK H PARENT 24 20 18 24 11 26 14 28
REMARK Flexibility Score: inf
ROOT
ATOM      1  C   UNL     1      -1.764  41.343  24.183  1.00  0.00     0.402 A 
ATOM      2  O   UNL     1      -1.232  42.279  23.402  1.00  0.00    -0.202 OA
ATOM      3  C   UNL     1      -1.333  43.581  23.649  1.00  0.00     0.368 A 
ATOM      4  C   UNL     1      -0.736  44.488  22.770  1.00  0.00     0.162 A 
ATOM      5  C   UNL     1      -0.825  45.863  23.007  1.00  0.00     0.128 A 
ATOM      6  C   UNL     1      -1.513  46.332  24.128  1.00  0.00     0.093 A 
ATOM      7  C   UNL     1      -2.119  45.443  25.025  1.00  0.00     0.136 A 
ATOM      8  C   UNL     1      -2.034  44.047  24.787  1.00  0.00     0.125 A 
ATOM      9  C   UNL     1      -2.621  43.084  25.624  1.00  0.00     0.078 A 
ATOM     10  C   UNL     1      -2.499  41.724  25.322  1.00  0.00     0.223 A 
ENDROOT
BRANCH   1  11
ATOM     11  C   UNL     1      -1.575  39.924  23.807  1.00  0.00     0.091 A 
ATOM     12  C   UNL     1      -1.509  38.208  22.070  1.00  0.00     0.165 A 
ATOM     13  C   UNL     1      -1.701  39.545  22.463  1.00  0.00     0.069 A 
ATOM     14  C   UNL     1      -1.171  37.247  23.042  1.00  0.00     0.200 A 
ATOM     15  C   UNL     1      -1.020  37.618  24.385  1.00  0.00     0.165 A 
ATOM     16  C   UNL     1      -1.216  38.959  24.761  1.00  0.00     0.069 A 
BRANCH  12  17
ATOM     17  O   UNL     1      -1.641  37.800  20.734  1.00  0.00    -0.493 OA
ATOM     18  C   UNL     1      -0.747  36.915  20.066  1.00  0.00     0.278 C 
ENDBRANCH  12  17
BRANCH  14  19
ATOM     19  O   UNL     1      -0.978  35.912  22.685  1.00  0.00    -0.502 OA
ATOM     20  H   UNL     1      -1.476  35.153  23.136  1.00  0.00     0.293 HD
ENDBRANCH  14  19
BRANCH  15  21
ATOM     21  O   UNL     1      -0.672  36.625  25.315  1.00  0.00    -0.493 OA
ATOM     22  C   UNL     1       0.539  36.609  26.064  1.00  0.00     0.278 C 
ENDBRANCH  15  21
ENDBRANCH   1  11
BRANCH  10  23
ATOM     23  O   UNL     1      -3.124  40.769  26.125  1.00  0.00    -0.500 OA
ATOM     24  H   UNL     1      -3.216  40.894  27.126  1.00  0.00     0.294 HD
ENDBRANCH  10  23
BRANCH   5  25
ATOM     25  O   UNL     1      -0.233  46.773  22.134  1.00  0.00    -0.507 OA
ATOM     26  H   UNL     1       0.724  47.081  22.260  1.00  0.00     0.293 HD
ENDBRANCH   5  25
BRANCH   7  27
ATOM     27  O   UNL     1      -2.784  45.992  26.125  1.00  0.00    -0.507 OA
ATOM     28  H   UNL     1      -2.544  46.874  26.555  1.00  0.00     0.293 HD
ENDBRANCH   7  27
TORSDOF 7
ENDMDL
MODEL 3
REMARK VINA RESULT:     0.062     15.332     18.719
REMARK INTER + INTRA:          -0.110
REMARK INTER:                   0.083
REMARK INTRA:                  -0.192
REMARK UNBOUND:                -0.189
REMARK SMILES COc1cc(-c2[o+]c3cc(O)cc(O)c3cc2O)cc(OC)c1O
REMARK SMILES IDX 6 1 7 2 8 3 9 4 10 5 12 6 13 7 15 8 16 9 17 10 5 11 3 12
REMARK SMILES IDX 4 13 23 14 20 15 19 16 2 17 1 18 24 19 21 21 22 22 18 23
REMARK SMILES IDX 11 25 14 27
REMARK H PARENT 24 20 18 24 11 26 14 28
REMARK Flexibility Score: inf
ROOT
ATOM      1  C   UNL     1      11.528  35.014  13.887  1.00  0.00     0.402 A 
ATOM      2  O   UNL     1      10.624  34.083  13.596  1.00  0.00    -0.202 OA
ATOM      3  C   UNL     1       9.403  34.062  14.120  1.00  0.00     0.368 A 
ATOM      4  C   UNL     1       8.521  33.043  13.749  1.00  0.00     0.162 A 
ATOM      5  C   UNL     1       7.230  32.999  14.284  1.00  0.00     0.128 A 
ATOM      6  C   UNL     1       6.819  33.977  15.191  1.00  0.00     0.093 A 
ATOM      7  C   UNL     1       7.683  35.009  15.578  1.00  0.00     0.136 A 
ATOM      8  C   UNL     1       8.996  35.057  15.041  1.00  0.00     0.125 A 
ATOM      9  C   UNL     1       9.933  36.046  15.382  1.00  0.00     0.078 A 
ATOM     10  C   UNL     1      11.211  36.025  14.814  1.00  0.00     0.223 A 
ENDROOT
BRANCH   1  11
ATOM     11  C   UNL     1      12.853  34.935  13.231  1.00  0.00     0.091 A 
ATOM     12  C   UNL     1      14.604  36.013  11.913  1.00  0.00     0.165 A 
ATOM     13  C   UNL     1      13.341  36.048  12.531  1.00  0.00     0.069 A 
ATOM     14  C   UNL     1      15.388  34.848  12.015  1.00  0.00     0.200 A 
ATOM     15  C   UNL     1      14.920  33.737  12.730  1.00  0.00     0.165 A 
ATOM     16  C   UNL     1      13.654  33.789  13.343  1.00  0.00     0.069 A 
BRANCH  12  17
ATOM     17  O   UNL     1      15.112  37.108  11.196  1.00  0.00    -0.493 OA
ATOM     18  C   UNL     1      15.737  38.243  11.789  1.00  0.00     0.278 C 
ENDBRANCH  12  17
BRANCH  14  19
ATOM     19  O   UNL     1      16.644  34.779  11.409  1.00  0.00    -0.502 OA
ATOM     20  H   UNL     1      17.485  34.562  11.930  1.00  0.00     0.293 HD
ENDBRANCH  14  19
BRANCH  15  21
ATOM     21  O   UNL     1      15.743  32.603  12.812  1.00  0.00    -0.493 OA
ATOM     22  C   UNL     1      16.801  32.438  13.752  1.00  0.00     0.278 C 
ENDBRANCH  15  21
ENDBRANCH   1  11
BRANCH  10  23
ATOM     23  O   UNL     1      12.159  36.977  15.189  1.00  0.00    -0.500 OA
ATOM     24  H   UNL     1      11.974  37.654  15.920  1.00  0.00     0.294 HD
ENDBRANCH  10  23
BRANCH   5  25
ATOM     25  O   UNL     1       6.346  31.986  13.918  1.00  0.00    -0.507 OA
ATOM     26  H   UNL     1       6.456  31.474  13.051  1.00  0.00     0.293 HD
ENDBRANCH   5  25
BRANCH   7  27
ATOM     27  O   UNL     1       7.194  35.951  16.487  1.00  0.00    -0.507 OA
ATOM     28  H   UNL     1       7.584  36.117  17.403  1.00  0.00     0.293 HD
ENDBRANCH   7  27
TORSDOF 7
ENDMDL
MODEL 4
REMARK VINA RESULT:     0.144     15.500     18.806
REMARK INTER + INTRA:          -0.003
REMARK INTER:                   0.051
REMARK INTRA:                  -0.054
REMARK UNBOUND:                -0.189
REMARK SMILES COc1cc(-c2[o+]c3cc(O)cc(O)c3cc2O)cc(OC)c1O
REMARK SMILES IDX 6 1 7 2 8 3 9 4 10 5 12 6 13 7 15 8 16 9 17 10 5 11 3 12
REMARK SMILES IDX 4 13 23 14 20 15 19 16 2 17 1 18 24 19 21 21 22 22 18 23
REMARK SMILES IDX 11 25 14 27
REMARK H PARENT 24 20 18 24 11 26 14 28
REMARK Flexibility Score: inf
ROOT
ATOM      1  C   UNL     1      12.349  35.060  13.523  1.00  0.00     0.402 A 
ATOM      2  O   UNL     1      13.109  36.146  13.408  1.00  0.00    -0.202 OA
ATOM      3  C   UNL     1      14.153  36.222  12.589  1.00  0.00     0.368 A 
ATOM      4  C   UNL     1      14.889  37.408  12.536  1.00  0.00     0.162 A 
ATOM      5  C   UNL     1      15.991  37.516  11.681  1.00  0.00     0.128 A 
ATOM      6  C   UNL     1      16.356  36.435  10.877  1.00  0.00     0.093 A 
ATOM      7  C   UNL     1      15.633  35.236  10.911  1.00  0.00     0.136 A 
ATOM      8  C   UNL     1      14.517  35.119  11.778  1.00  0.00     0.125 A 
ATOM      9  C   UNL     1      13.742  33.953  11.888  1.00  0.00     0.078 A 
ATOM     10  C   UNL     1      12.658  33.912  12.770  1.00  0.00     0.223 A 
ENDROOT
BRANCH   1  11
ATOM     11  C   UNL     1      11.206  35.100  14.463  1.00  0.00     0.091 A 
ATOM     12  C   UNL     1       8.803  34.894  14.850  1.00  0.00     0.165 A 
ATOM     13  C   UNL     1       9.908  34.883  13.979  1.00  0.00     0.069 A 
ATOM     14  C   UNL     1       9.012  35.113  16.225  1.00  0.00     0.200 A 
ATOM     15  C   UNL     1      10.308  35.310  16.723  1.00  0.00     0.165 A 
ATOM     16  C   UNL     1      11.402  35.294  15.839  1.00  0.00     0.069 A 
BRANCH  12  17
ATOM     17  O   UNL     1       7.492  34.692  14.390  1.00  0.00    -0.493 OA
ATOM     18  C   UNL     1       6.647  33.621  14.801  1.00  0.00     0.278 C 
ENDBRANCH  12  17
BRANCH  14  19
ATOM     19  O   UNL     1       7.937  35.136  17.114  1.00  0.00    -0.502 OA
ATOM     20  H   UNL     1       8.048  35.374  18.093  1.00  0.00     0.293 HD
ENDBRANCH  14  19
BRANCH  15  21
ATOM     21  O   UNL     1      10.466  35.513  18.104  1.00  0.00    -0.493 OA
ATOM     22  C   UNL     1      11.128  36.632  18.685  1.00  0.00     0.278 C 
ENDBRANCH  15  21
ENDBRANCH   1  11
BRANCH  10  23
ATOM     23  O   UNL     1      11.919  32.737  12.916  1.00  0.00    -0.500 OA
ATOM     24  H   UNL     1      11.895  32.029  12.192  1.00  0.00     0.294 HD
ENDBRANCH  10  23
BRANCH   5  25
ATOM     25  O   UNL     1      16.730  38.696  11.624  1.00  0.00    -0.507 OA
ATOM     26  H   UNL     1      16.290  39.588  11.434  1.00  0.00     0.293 HD
ENDBRANCH   5  25
BRANCH   7  27
ATOM     27  O   UNL     1      16.060  34.203  10.071  1.00  0.00    -0.507 OA
ATOM     28  H   UNL     1      16.894  34.238   9.503  1.00  0.00     0.293 HD
ENDBRANCH   7  27
TORSDOF 7
ENDMDL
MODEL 5
REMARK VINA RESULT:     0.230     15.313     18.612
REMARK INTER + INTRA:           0.108
REMARK INTER:                   0.336
REMARK INTRA:                  -0.228
REMARK UNBOUND:                -0.189
REMARK SMILES COc1cc(-c2[o+]c3cc(O)cc(O)c3cc2O)cc(OC)c1O
REMARK SMILES IDX 6 1 7 2 8 3 9 4 10 5 12 6 13 7 15 8 16 9 17 10 5 11 3 12
REMARK SMILES IDX 4 13 23 14 20 15 19 16 2 17 1 18 24 19 21 21 22 22 18 23
REMARK SMILES IDX 11 25 14 27
REMARK H PARENT 24 20 18 24 11 26 14 28
REMARK Flexibility Score: inf
ROOT
ATOM      1  C   UNL     1      11.537  35.094  13.954  1.00  0.00     0.402 A 
ATOM      2  O   UNL     1      10.658  34.146  13.644  1.00  0.00    -0.202 OA
ATOM      3  C   UNL     1       9.431  34.094  14.154  1.00  0.00     0.368 A 
ATOM      4  C   UNL     1       8.578  33.058  13.763  1.00  0.00     0.162 A 
ATOM      5  C   UNL     1       7.281  32.980  14.282  1.00  0.00     0.128 A 
ATOM      6  C   UNL     1       6.838  33.942  15.192  1.00  0.00     0.093 A 
ATOM      7  C   UNL     1       7.674  34.990  15.598  1.00  0.00     0.136 A 
ATOM      8  C   UNL     1       8.991  35.071  15.078  1.00  0.00     0.125 A 
ATOM      9  C   UNL     1       9.902  36.078  15.437  1.00  0.00     0.078 A 
ATOM     10  C   UNL     1      11.187  36.090  14.885  1.00  0.00     0.223 A 
ENDROOT
BRANCH   1  11
ATOM     11  C   UNL     1      12.871  35.051  13.313  1.00  0.00     0.091 A 
ATOM     12  C   UNL     1      14.875  33.782  12.731  1.00  0.00     0.165 A 
ATOM     13  C   UNL     1      13.613  33.861  13.347  1.00  0.00     0.069 A 
ATOM     14  C   UNL     1      15.387  34.909  12.062  1.00  0.00     0.200 A 
ATOM     15  C   UNL     1      14.645  36.097  12.002  1.00  0.00     0.165 A 
ATOM     16  C   UNL     1      13.384  36.160  12.623  1.00  0.00     0.069 A 
BRANCH  12  17
ATOM     17  O   UNL     1      15.643  32.607  12.760  1.00  0.00    -0.493 OA
ATOM     18  C   UNL     1      16.724  32.369  13.658  1.00  0.00     0.278 C 
ENDBRANCH  12  17
BRANCH  14  19
ATOM     19  O   UNL     1      16.638  34.864  11.444  1.00  0.00    -0.502 OA
ATOM     20  H   UNL     1      16.824  34.276  10.641  1.00  0.00     0.293 HD
ENDBRANCH  14  19
BRANCH  15  21
ATOM     21  O   UNL     1      15.194  37.191  11.314  1.00  0.00    -0.493 OA
ATOM     22  C   UNL     1      15.824  38.305  11.938  1.00  0.00     0.278 C 
ENDBRANCH  15  21
ENDBRANCH   1  11
BRANCH  10  23
ATOM     23  O   UNL     1      12.109  37.060  15.280  1.00  0.00    -0.500 OA
ATOM     24  H   UNL     1      11.943  37.658  16.081  1.00  0.00     0.294 HD
ENDBRANCH  10  23
BRANCH   5  25
ATOM     25  O   UNL     1       6.425  31.951  13.897  1.00  0.00    -0.507 OA
ATOM     26  H   UNL     1       6.629  30.983  14.114  1.00  0.00     0.293 HD
ENDBRANCH   5  25
BRANCH   7  27
ATOM     27  O   UNL     1       7.153  35.913  16.509  1.00  0.00    -0.507 OA
ATOM     28  H   UNL     1       6.481  35.688  17.228  1.00  0.00     0.293 HD
ENDBRANCH   7  27
TORSDOF 7
ENDMDL
MODEL 6
REMARK VINA RESULT:     0.299     15.478     18.643
REMARK INTER + INTRA:           0.198
REMARK INTER:                   0.337
REMARK INTRA:                  -0.139
REMARK UNBOUND:                -0.189
REMARK SMILES COc1cc(-c2[o+]c3cc(O)cc(O)c3cc2O)cc(OC)c1O
REMARK SMILES IDX 6 1 7 2 8 3 9 4 10 5 12 6 13 7 15 8 16 9 17 10 5 11 3 12
REMARK SMILES IDX 4 13 23 14 20 15 19 16 2 17 1 18 24 19 21 21 22 22 18 23
REMARK SMILES IDX 11 25 14 27
REMARK H PARENT 24 20 18 24 11 26 14 28
REMARK Flexibility Score: inf
ROOT
ATOM      1  C   UNL     1      12.336  35.035  13.526  1.00  0.00     0.402 A 
ATOM      2  O   UNL     1      13.075  36.138  13.432  1.00  0.00    -0.202 OA
ATOM      3  C   UNL     1      14.122  36.247  12.622  1.00  0.00     0.368 A 
ATOM      4  C   UNL     1      14.835  37.449  12.592  1.00  0.00     0.162 A 
ATOM      5  C   UNL     1      15.940  37.592  11.747  1.00  0.00     0.128 A 
ATOM      6  C   UNL     1      16.332  36.530  10.929  1.00  0.00     0.093 A 
ATOM      7  C   UNL     1      15.635  35.316  10.941  1.00  0.00     0.136 A 
ATOM      8  C   UNL     1      14.514  35.164  11.799  1.00  0.00     0.125 A 
ATOM      9  C   UNL     1      13.764  33.981  11.886  1.00  0.00     0.078 A 
ATOM     10  C   UNL     1      12.674  33.905  12.760  1.00  0.00     0.223 A 
ENDROOT
BRANCH   1  11
ATOM     11  C   UNL     1      11.186  35.038  14.459  1.00  0.00     0.091 A 
ATOM     12  C   UNL     1      10.339  35.264  16.739  1.00  0.00     0.165 A 
ATOM     13  C   UNL     1      11.412  35.237  15.829  1.00  0.00     0.069 A 
ATOM     14  C   UNL     1       9.025  35.105  16.260  1.00  0.00     0.200 A 
ATOM     15  C   UNL     1       8.786  34.928  14.890  1.00  0.00     0.165 A 
ATOM     16  C   UNL     1       9.869  34.904  13.993  1.00  0.00     0.069 A 
BRANCH  12  17
ATOM     17  O   UNL     1      10.538  35.449  18.116  1.00  0.00    -0.493 OA
ATOM     18  C   UNL     1      11.110  36.615  18.702  1.00  0.00     0.278 C 
ENDBRANCH  12  17
BRANCH  14  19
ATOM     19  O   UNL     1       7.940  35.123  17.137  1.00  0.00    -0.502 OA
ATOM     20  H   UNL     1       7.657  34.306  17.665  1.00  0.00     0.293 HD
ENDBRANCH  14  19
BRANCH  15  21
ATOM     21  O   UNL     1       7.457  34.784  14.459  1.00  0.00    -0.493 OA
ATOM     22  C   UNL     1       6.616  33.682  14.787  1.00  0.00     0.278 C 
ENDBRANCH  15  21
ENDBRANCH   1  11
BRANCH  10  23
ATOM     23  O   UNL     1      11.959  32.713  12.884  1.00  0.00    -0.500 OA
ATOM     24  H   UNL     1      11.044  32.684  13.319  1.00  0.00     0.294 HD
ENDBRANCH  10  23
BRANCH   5  25
ATOM     25  O   UNL     1      16.655  38.787  11.711  1.00  0.00    -0.507 OA
ATOM     26  H   UNL     1      16.601  39.413  10.916  1.00  0.00     0.293 HD
ENDBRANCH   5  25
BRANCH   7  27
ATOM     27  O   UNL     1      16.089  34.305  10.090  1.00  0.00    -0.507 OA
ATOM     28  H   UNL     1      15.999  33.317  10.279  1.00  0.00     0.293 HD
ENDBRANCH   7  27
TORSDOF 7
ENDMDL
MODEL 7
REMARK VINA RESULT:     0.866     15.519     18.807
REMARK INTER + INTRA:           0.930
REMARK INTER:                   1.192
REMARK INTRA:                  -0.262
REMARK UNBOUND:                -0.189
REMARK SMILES COc1cc(-c2[o+]c3cc(O)cc(O)c3cc2O)cc(OC)c1O
REMARK SMILES IDX 6 1 7 2 8 3 9 4 10 5 12 6 13 7 15 8 16 9 17 10 5 11 3 12
REMARK SMILES IDX 4 13 23 14 20 15 19 16 2 17 1 18 24 19 21 21 22 22 18 23
REMARK SMILES IDX 11 25 14 27
REMARK H PARENT 24 20 18 24 11 26 14 28
REMARK Flexibility Score: inf
ROOT
ATOM      1  C   UNL     1      11.759  34.512  13.653  1.00  0.00     0.402 A 
ATOM      2  O   UNL     1      10.955  35.351  14.300  1.00  0.00    -0.202 OA
ATOM      3  C   UNL     1       9.697  35.059  14.616  1.00  0.00     0.368 A 
ATOM      4  C   UNL     1       8.932  36.006  15.301  1.00  0.00     0.162 A 
ATOM      5  C   UNL     1       7.606  35.725  15.647  1.00  0.00     0.128 A 
ATOM      6  C   UNL     1       7.046  34.491  15.308  1.00  0.00     0.093 A 
ATOM      7  C   UNL     1       7.793  33.525  14.622  1.00  0.00     0.136 A 
ATOM      8  C   UNL     1       9.137  33.807  14.266  1.00  0.00     0.125 A 
ATOM      9  C   UNL     1       9.956  32.905  13.567  1.00  0.00     0.078 A 
ATOM     10  C   UNL     1      11.271  33.256  13.246  1.00  0.00     0.223 A 
ENDROOT
BRANCH   1  11
ATOM     11  C   UNL     1      13.145  34.948  13.366  1.00  0.00     0.091 A 
ATOM     12  C   UNL     1      15.523  34.859  13.912  1.00  0.00     0.165 A 
ATOM     13  C   UNL     1      14.194  34.479  14.170  1.00  0.00     0.069 A 
ATOM     14  C   UNL     1      15.798  35.709  12.824  1.00  0.00     0.200 A 
ATOM     15  C   UNL     1      14.760  36.166  12.001  1.00  0.00     0.165 A 
ATOM     16  C   UNL     1      13.436  35.776  12.272  1.00  0.00     0.069 A 
BRANCH  12  17
ATOM     17  O   UNL     1      16.591  34.414  14.708  1.00  0.00    -0.493 OA
ATOM     18  C   UNL     1      17.018  33.058  14.804  1.00  0.00     0.278 C 
ENDBRANCH  12  17
BRANCH  14  19
ATOM     19  O   UNL     1      17.106  36.108  12.545  1.00  0.00    -0.502 OA
ATOM     20  H   UNL     1      17.716  36.500  13.252  1.00  0.00     0.293 HD
ENDBRANCH  14  19
BRANCH  15  21
ATOM     21  O   UNL     1      15.086  37.003  10.921  1.00  0.00    -0.493 OA
ATOM     22  C   UNL     1      15.835  36.595   9.780  1.00  0.00     0.278 C 
ENDBRANCH  15  21
ENDBRANCH   1  11
BRANCH  10  23
ATOM     23  O   UNL     1      12.069  32.380  12.509  1.00  0.00    -0.500 OA
ATOM     24  H   UNL     1      11.714  31.495  12.169  1.00  0.00     0.294 HD
ENDBRANCH  10  23
BRANCH   5  25
ATOM     25  O   UNL     1       6.837  36.664  16.330  1.00  0.00    -0.507 OA
ATOM     26  H   UNL     1       6.052  36.388  16.907  1.00  0.00     0.293 HD
ENDBRANCH   5  25
BRANCH   7  27
ATOM     27  O   UNL     1       7.160  32.315  14.324  1.00  0.00    -0.507 OA
ATOM     28  H   UNL     1       6.764  32.085  13.425  1.00  0.00     0.293 HD
ENDBRANCH   7  27
TORSDOF 7
ENDMDL
MODEL 8
REMARK VINA RESULT:     1.101     15.480     18.943
REMARK INTER + INTRA:           1.233
REMARK INTER:                   1.587
REMARK INTRA:                  -0.354
REMARK UNBOUND:                -0.189
REMARK SMILES COc1cc(-c2[o+]c3cc(O)cc(O)c3cc2O)cc(OC)c1O
REMARK SMILES IDX 6 1 7 2 8 3 9 4 10 5 12 6 13 7 15 8 16 9 17 10 5 11 3 12
REMARK SMILES IDX 4 13 23 14 20 15 19 16 2 17 1 18 24 19 21 21 22 22 18 23
REMARK SMILES IDX 11 25 14 27
REMARK H PARENT 24 20 18 24 11 26 14 28
REMARK Flexibility Score: inf
ROOT
ATOM      1  C   UNL     1      11.703  34.395  13.650  1.00  0.00     0.402 A 
ATOM      2  O   UNL     1      10.926  35.221  14.346  1.00  0.00    -0.202 OA
ATOM      3  C   UNL     1       9.665  34.945  14.660  1.00  0.00     0.368 A 
ATOM      4  C   UNL     1       8.930  35.876  15.399  1.00  0.00     0.162 A 
ATOM      5  C   UNL     1       7.601  35.611  15.745  1.00  0.00     0.128 A 
ATOM      6  C   UNL     1       7.007  34.410  15.352  1.00  0.00     0.093 A 
ATOM      7  C   UNL     1       7.723  33.460  14.612  1.00  0.00     0.136 A 
ATOM      8  C   UNL     1       9.070  33.726  14.255  1.00  0.00     0.125 A 
ATOM      9  C   UNL     1       9.860  32.839  13.505  1.00  0.00     0.078 A 
ATOM     10  C   UNL     1      11.180  33.173  13.188  1.00  0.00     0.223 A 
ENDROOT
BRANCH   1  11
ATOM     11  C   UNL     1      13.096  34.810  13.370  1.00  0.00     0.091 A 
ATOM     12  C   UNL     1      14.664  36.105  12.017  1.00  0.00     0.165 A 
ATOM     13  C   UNL     1      13.354  35.676  12.297  1.00  0.00     0.069 A 
ATOM     14  C   UNL     1      15.722  35.668  12.836  1.00  0.00     0.200 A 
ATOM     15  C   UNL     1      15.474  34.820  13.925  1.00  0.00     0.165 A 
ATOM     16  C   UNL     1      14.157  34.401  14.192  1.00  0.00     0.069 A 
BRANCH  12  17
ATOM     17  O   UNL     1      14.952  36.961  10.942  1.00  0.00    -0.493 OA
ATOM     18  C   UNL     1      15.680  36.582   9.778  1.00  0.00     0.278 C 
ENDBRANCH  12  17
BRANCH  14  19
ATOM     19  O   UNL     1      17.034  36.071  12.582  1.00  0.00    -0.502 OA
ATOM     20  H   UNL     1      17.680  36.310  13.325  1.00  0.00     0.293 HD
ENDBRANCH  14  19
BRANCH  15  21
ATOM     21  O   UNL     1      16.560  34.420  14.719  1.00  0.00    -0.493 OA
ATOM     22  C   UNL     1      17.124  33.112  14.717  1.00  0.00     0.278 C 
ENDBRANCH  15  21
ENDBRANCH   1  11
BRANCH  10  23
ATOM     23  O   UNL     1      11.949  32.315  12.400  1.00  0.00    -0.500 OA
ATOM     24  H   UNL     1      12.010  32.427  11.395  1.00  0.00     0.294 HD
ENDBRANCH  10  23
BRANCH   5  25
ATOM     25  O   UNL     1       6.862  36.534  16.481  1.00  0.00    -0.507 OA
ATOM     26  H   UNL     1       6.018  36.953  16.111  1.00  0.00     0.293 HD
ENDBRANCH   5  25
BRANCH   7  27
ATOM     27  O   UNL     1       7.057  32.282  14.262  1.00  0.00    -0.507 OA
ATOM     28  H   UNL     1       7.396  31.615  13.585  1.00  0.00     0.293 HD
ENDBRANCH   7  27
TORSDOF 7
ENDMDL
