MODEL 1
REMARK VINA RESULT:    -4.918      0.000      0.000
REMARK INTER + INTRA:          -5.527
REMARK INTER:                  -5.349
REMARK INTRA:                  -0.178
REMARK UNBOUND:                -0.178
REMARK SMILES C=C(C)[C@@H]1CC[C@H](C)C[C@H]1O
REMARK SMILES IDX 8 1 7 2 6 3 5 4 4 5 10 6 9 7 11 8 2 10 1 11 3 12
REMARK H PARENT 11 9
REMARK Flexibility Score: inf
ROOT
ATOM      1  C   UNL     1     123.666 119.693 112.510  1.00  0.00     0.008 C 
ATOM      2  C   UNL     1     124.641 120.708 111.892  1.00  0.00    -0.012 C 
ATOM      3  C   UNL     1     124.538 122.094 112.561  1.00  0.00     0.004 C 
ATOM      4  C   UNL     1     125.168 122.116 113.961  1.00  0.00     0.011 C 
ATOM      5  C   UNL     1     126.630 121.631 113.923  1.00  0.00     0.043 C 
ATOM      6  C   UNL     1     126.733 120.216 113.299  1.00  0.00     0.121 C 
ATOM      7  C   UNL     1     126.097 120.196 111.897  1.00  0.00     0.035 C 
ENDROOT
BRANCH   6   8
ATOM      8  O   UNL     1     128.083 119.843 113.178  1.00  0.00    -0.392 OA
ATOM      9  H   UNL     1     128.622 120.674 113.248  1.00  0.00     0.210 HD
ENDBRANCH   6   8
BRANCH   5  10
ATOM     10  C   UNL     1     127.254 121.684 115.313  1.00  0.00    -0.075 C 
ATOM     11  C   UNL     1     128.119 122.655 115.652  1.00  0.00     0.008 C 
ATOM     12  C   UNL     1     126.901 120.641 116.342  1.00  0.00     0.039 C 
ENDBRANCH   5  10
TORSDOF 2
ENDMDL
MODEL 2
REMARK VINA RESULT:    -4.697     13.011     13.886
REMARK INTER + INTRA:          -5.286
REMARK INTER:                  -5.125
REMARK INTRA:                  -0.161
REMARK UNBOUND:                -0.178
REMARK SMILES C=C(C)[C@@H]1CC[C@H](C)C[C@H]1O
REMARK SMILES IDX 8 1 7 2 6 3 5 4 4 5 10 6 9 7 11 8 2 10 1 11 3 12
REMARK H PARENT 11 9
REMARK Flexibility Score: inf
ROOT
ATOM      1  C   UNL     1     117.091 122.239 120.078  1.00  0.00     0.008 C 
ATOM      2  C   UNL     1     116.554 123.645 119.766  1.00  0.00    -0.012 C 
ATOM      3  C   UNL     1     115.021 123.728 119.910  1.00  0.00     0.004 C 
ATOM      4  C   UNL     1     114.569 123.718 121.377  1.00  0.00     0.011 C 
ATOM      5  C   UNL     1     115.258 124.838 122.180  1.00  0.00     0.043 C 
ATOM      6  C   UNL     1     116.801 124.730 122.081  1.00  0.00     0.121 C 
ATOM      7  C   UNL     1     117.250 124.734 120.609  1.00  0.00     0.035 C 
ENDROOT
BRANCH   6   8
ATOM      8  O   UNL     1     117.400 125.823 122.731  1.00  0.00    -0.392 OA
ATOM      9  H   UNL     1     117.079 126.645 122.277  1.00  0.00     0.210 HD
ENDBRANCH   6   8
BRANCH   5  10
ATOM     10  C   UNL     1     114.781 124.838 123.628  1.00  0.00    -0.075 C 
ATOM     11  C   UNL     1     114.709 123.699 124.339  1.00  0.00     0.008 C 
ATOM     12  C   UNL     1     114.382 126.130 124.294  1.00  0.00     0.039 C 
ENDBRANCH   5  10
TORSDOF 2
ENDMDL
MODEL 3
REMARK VINA RESULT:    -4.655     16.841     18.163
REMARK INTER + INTRA:          -5.241
REMARK INTER:                  -5.127
REMARK INTRA:                  -0.114
REMARK UNBOUND:                -0.178
REMARK SMILES C=C(C)[C@@H]1CC[C@H](C)C[C@H]1O
REMARK SMILES IDX 8 1 7 2 6 3 5 4 4 5 10 6 9 7 11 8 2 10 1 11 3 12
REMARK H PARENT 11 9
REMARK Flexibility Score: inf
ROOT
ATOM      1  C   UNL     1     116.310 116.936 127.378  1.00  0.00     0.008 C 
ATOM      2  C   UNL     1     116.217 118.441 127.676  1.00  0.00    -0.012 C 
ATOM      3  C   UNL     1     116.406 119.298 126.407  1.00  0.00     0.004 C 
ATOM      4  C   UNL     1     115.182 119.253 125.482  1.00  0.00     0.011 C 
ATOM      5  C   UNL     1     113.899 119.660 126.234  1.00  0.00     0.043 C 
ATOM      6  C   UNL     1     113.676 118.767 127.481  1.00  0.00     0.121 C 
ATOM      7  C   UNL     1     114.907 118.811 128.404  1.00  0.00     0.035 C 
ENDROOT
BRANCH   6   8
ATOM      8  O   UNL     1     112.562 119.228 128.205  1.00  0.00    -0.392 OA
ATOM      9  H   UNL     1     112.116 119.917 127.647  1.00  0.00     0.210 HD
ENDBRANCH   6   8
BRANCH   5  10
ATOM     10  C   UNL     1     112.695 119.640 125.299  1.00  0.00    -0.075 C 
ATOM     11  C   UNL     1     112.281 120.754 124.670  1.00  0.00     0.008 C 
ATOM     12  C   UNL     1     111.944 118.355 125.059  1.00  0.00     0.039 C 
ENDBRANCH   5  10
TORSDOF 2
ENDMDL
MODEL 4
REMARK VINA RESULT:    -4.585      2.736      5.047
REMARK INTER + INTRA:          -5.164
REMARK INTER:                  -4.967
REMARK INTRA:                  -0.197
REMARK UNBOUND:                -0.178
REMARK SMILES C=C(C)[C@@H]1CC[C@H](C)C[C@H]1O
REMARK SMILES IDX 8 1 7 2 6 3 5 4 4 5 10 6 9 7 11 8 2 10 1 11 3 12
REMARK H PARENT 11 9
REMARK Flexibility Score: inf
ROOT
ATOM      1  C   UNL     1     125.127 122.090 113.970  1.00  0.00     0.008 C 
ATOM      2  C   UNL     1     125.264 121.056 112.841  1.00  0.00    -0.012 C 
ATOM      3  C   UNL     1     125.457 119.625 113.382  1.00  0.00     0.004 C 
ATOM      4  C   UNL     1     124.162 119.040 113.964  1.00  0.00     0.011 C 
ATOM      5  C   UNL     1     123.016 119.089 112.934  1.00  0.00     0.043 C 
ATOM      6  C   UNL     1     122.783 120.534 112.425  1.00  0.00     0.121 C 
ATOM      7  C   UNL     1     124.084 121.119 111.847  1.00  0.00     0.035 C 
ENDROOT
BRANCH   6   8
ATOM      8  O   UNL     1     121.809 120.533 111.412  1.00  0.00    -0.392 OA
ATOM      9  H   UNL     1     121.196 119.774 111.597  1.00  0.00     0.210 HD
ENDBRANCH   6   8
BRANCH   5  10
ATOM     10  C   UNL     1     121.744 118.479 113.512  1.00  0.00    -0.075 C 
ATOM     11  C   UNL     1     121.207 117.362 112.991  1.00  0.00     0.008 C 
ATOM     12  C   UNL     1     121.063 119.123 114.692  1.00  0.00     0.039 C 
ENDBRANCH   5  10
TORSDOF 2
ENDMDL
MODEL 5
REMARK VINA RESULT:    -4.441      2.563      4.821
REMARK INTER + INTRA:          -5.008
REMARK INTER:                  -4.826
REMARK INTRA:                  -0.182
REMARK UNBOUND:                -0.178
REMARK SMILES C=C(C)[C@@H]1CC[C@H](C)C[C@H]1O
REMARK SMILES IDX 8 1 7 2 6 3 5 4 4 5 10 6 9 7 11 8 2 10 1 11 3 12
REMARK H PARENT 11 9
REMARK Flexibility Score: inf
ROOT
ATOM      1  C   UNL     1     126.065 120.624 111.968  1.00  0.00     0.008 C 
ATOM      2  C   UNL     1     124.979 121.386 112.744  1.00  0.00    -0.012 C 
ATOM      3  C   UNL     1     123.663 121.497 111.947  1.00  0.00     0.004 C 
ATOM      4  C   UNL     1     122.900 120.166 111.890  1.00  0.00     0.011 C 
ATOM      5  C   UNL     1     122.641 119.610 113.304  1.00  0.00     0.043 C 
ATOM      6  C   UNL     1     123.966 119.448 114.092  1.00  0.00     0.121 C 
ATOM      7  C   UNL     1     124.731 120.783 114.143  1.00  0.00     0.035 C 
ENDROOT
BRANCH   6   8
ATOM      8  O   UNL     1     123.692 119.043 115.410  1.00  0.00    -0.392 OA
ATOM      9  H   UNL     1     123.210 119.791 115.851  1.00  0.00     0.210 HD
ENDBRANCH   6   8
BRANCH   5  10
ATOM     10  C   UNL     1     121.857 118.304 113.237  1.00  0.00    -0.075 C 
ATOM     11  C   UNL     1     120.685 118.160 113.879  1.00  0.00     0.008 C 
ATOM     12  C   UNL     1     122.389 117.143 112.437  1.00  0.00     0.039 C 
ENDBRANCH   5  10
TORSDOF 2
ENDMDL
MODEL 6
REMARK VINA RESULT:    -4.315     16.342     17.690
REMARK INTER + INTRA:          -4.871
REMARK INTER:                  -4.821
REMARK INTRA:                  -0.050
REMARK UNBOUND:                -0.178
REMARK SMILES C=C(C)[C@@H]1CC[C@H](C)C[C@H]1O
REMARK SMILES IDX 8 1 7 2 6 3 5 4 4 5 10 6 9 7 11 8 2 10 1 11 3 12
REMARK H PARENT 11 9
REMARK Flexibility Score: inf
ROOT
ATOM      1  C   UNL     1     116.046 119.485 128.904  1.00  0.00     0.008 C 
ATOM      2  C   UNL     1     115.710 118.249 128.054  1.00  0.00    -0.012 C 
ATOM      3  C   UNL     1     114.202 117.922 128.073  1.00  0.00     0.004 C 
ATOM      4  C   UNL     1     113.379 118.909 127.234  1.00  0.00     0.011 C 
ATOM      5  C   UNL     1     113.906 118.987 125.788  1.00  0.00     0.043 C 
ATOM      6  C   UNL     1     115.409 119.366 125.760  1.00  0.00     0.121 C 
ATOM      7  C   UNL     1     116.231 118.378 126.607  1.00  0.00     0.035 C 
ENDROOT
BRANCH   6   8
ATOM      8  O   UNL     1     115.888 119.324 124.440  1.00  0.00    -0.392 OA
ATOM      9  H   UNL     1     115.147 119.622 123.850  1.00  0.00     0.210 HD
ENDBRANCH   6   8
BRANCH   5  10
ATOM     10  C   UNL     1     113.063 119.947 124.956  1.00  0.00    -0.075 C 
ATOM     11  C   UNL     1     113.348 121.259 124.903  1.00  0.00     0.008 C 
ATOM     12  C   UNL     1     111.887 119.432 124.166  1.00  0.00     0.039 C 
ENDBRANCH   5  10
TORSDOF 2
ENDMDL
MODEL 7
REMARK VINA RESULT:    -4.292      2.407      4.286
REMARK INTER + INTRA:          -4.846
REMARK INTER:                  -4.657
REMARK INTRA:                  -0.188
REMARK UNBOUND:                -0.178
REMARK SMILES C=C(C)[C@@H]1CC[C@H](C)C[C@H]1O
REMARK SMILES IDX 8 1 7 2 6 3 5 4 4 5 10 6 9 7 11 8 2 10 1 11 3 12
REMARK H PARENT 11 9
REMARK Flexibility Score: inf
ROOT
ATOM      1  C   UNL     1     127.367 118.769 114.982  1.00  0.00     0.008 C 
ATOM      2  C   UNL     1     126.116 117.925 114.692  1.00  0.00    -0.012 C 
ATOM      3  C   UNL     1     124.842 118.541 115.306  1.00  0.00     0.004 C 
ATOM      4  C   UNL     1     124.366 119.783 114.540  1.00  0.00     0.011 C 
ATOM      5  C   UNL     1     124.160 119.471 113.045  1.00  0.00     0.043 C 
ATOM      6  C   UNL     1     125.453 118.899 112.409  1.00  0.00     0.121 C 
ATOM      7  C   UNL     1     125.931 117.657 113.183  1.00  0.00     0.035 C 
ENDROOT
BRANCH   6   8
ATOM      8  O   UNL     1     125.206 118.524 111.078  1.00  0.00    -0.392 OA
ATOM      9  H   UNL     1     125.440 117.563 110.996  1.00  0.00     0.210 HD
ENDBRANCH   6   8
BRANCH   5  10
ATOM     10  C   UNL     1     123.659 120.703 112.299  1.00  0.00    -0.075 C 
ATOM     11  C   UNL     1     122.492 120.688 111.632  1.00  0.00     0.008 C 
ATOM     12  C   UNL     1     124.471 121.973 112.302  1.00  0.00     0.039 C 
ENDBRANCH   5  10
TORSDOF 2
ENDMDL
MODEL 8
REMARK VINA RESULT:    -4.289     13.468     14.387
REMARK INTER + INTRA:          -4.843
REMARK INTER:                  -4.688
REMARK INTRA:                  -0.155
REMARK UNBOUND:                -0.178
REMARK SMILES C=C(C)[C@@H]1CC[C@H](C)C[C@H]1O
REMARK SMILES IDX 8 1 7 2 6 3 5 4 4 5 10 6 9 7 11 8 2 10 1 11 3 12
REMARK H PARENT 11 9
REMARK Flexibility Score: inf
ROOT
ATOM      1  C   UNL     1     117.432 124.747 120.460  1.00  0.00     0.008 C 
ATOM      2  C   UNL     1     116.443 123.650 120.034  1.00  0.00    -0.012 C 
ATOM      3  C   UNL     1     116.696 122.319 120.772  1.00  0.00     0.004 C 
ATOM      4  C   UNL     1     116.244 122.368 122.238  1.00  0.00     0.011 C 
ATOM      5  C   UNL     1     114.766 122.787 122.352  1.00  0.00     0.043 C 
ATOM      6  C   UNL     1     114.515 124.149 121.657  1.00  0.00     0.121 C 
ATOM      7  C   UNL     1     114.974 124.099 120.189  1.00  0.00     0.035 C 
ENDROOT
BRANCH   6   8
ATOM      8  O   UNL     1     113.143 124.454 121.683  1.00  0.00    -0.392 OA
ATOM      9  H   UNL     1     112.691 123.723 122.177  1.00  0.00     0.210 HD
ENDBRANCH   6   8
BRANCH   5  10
ATOM     10  C   UNL     1     114.319 122.803 123.810  1.00  0.00    -0.075 C 
ATOM     11  C   UNL     1     113.619 121.783 124.337  1.00  0.00     0.008 C 
ATOM     12  C   UNL     1     114.663 123.974 124.694  1.00  0.00     0.039 C 
ENDBRANCH   5  10
TORSDOF 2
ENDMDL
MODEL 9
REMARK VINA RESULT:    -4.257      3.036      4.487
REMARK INTER + INTRA:          -4.808
REMARK INTER:                  -4.622
REMARK INTRA:                  -0.186
REMARK UNBOUND:                -0.178
REMARK SMILES C=C(C)[C@@H]1CC[C@H](C)C[C@H]1O
REMARK SMILES IDX 8 1 7 2 6 3 5 4 4 5 10 6 9 7 11 8 2 10 1 11 3 12
REMARK H PARENT 11 9
REMARK Flexibility Score: inf
ROOT
ATOM      1  C   UNL     1     122.464 116.524 113.729  1.00  0.00     0.008 C 
ATOM      2  C   UNL     1     121.934 117.841 114.317  1.00  0.00    -0.012 C 
ATOM      3  C   UNL     1     122.976 118.539 115.214  1.00  0.00     0.004 C 
ATOM      4  C   UNL     1     124.108 119.184 114.403  1.00  0.00     0.011 C 
ATOM      5  C   UNL     1     123.553 120.158 113.346  1.00  0.00     0.043 C 
ATOM      6  C   UNL     1     122.543 119.448 112.408  1.00  0.00     0.121 C 
ATOM      7  C   UNL     1     121.412 118.798 113.225  1.00  0.00     0.035 C 
ENDROOT
BRANCH   6   8
ATOM      8  O   UNL     1     121.973 120.381 111.525  1.00  0.00    -0.392 OA
ATOM      9  H   UNL     1     121.043 120.084 111.346  1.00  0.00     0.210 HD
ENDBRANCH   6   8
BRANCH   5  10
ATOM     10  C   UNL     1     124.687 120.814 112.566  1.00  0.00    -0.075 C 
ATOM     11  C   UNL     1     124.827 122.150 112.531  1.00  0.00     0.008 C 
ATOM     12  C   UNL     1     125.682 119.965 111.818  1.00  0.00     0.039 C 
ENDBRANCH   5  10
TORSDOF 2
ENDMDL
