MODEL 1
REMARK VINA RESULT:    -6.236      0.000      0.000
REMARK INTER + INTRA:          -6.846
REMARK INTER:                  -6.601
REMARK INTRA:                  -0.245
REMARK UNBOUND:                -0.245
REMARK SMILES CC1=CC[C@@H]2[C@H]3[C@H](C(C)C)CC[C@]2(C)[C@@H]13
REMARK SMILES IDX 1 1 2 2 3 3 4 4 5 5 6 6 15 7 13 8 12 9 11 10 7 11 14 12 8 13
REMARK SMILES IDX 9 14 10 15
REMARK H PARENT
REMARK Flexibility Score: inf
ROOT
ATOM      1  C   UNL     1     100.357 104.708 129.200  1.00  0.00     0.039 C 
ATOM      2  C   UNL     1     101.474 105.082 128.273  1.00  0.00    -0.073 C 
ATOM      3  C   UNL     1     101.238 105.697 127.085  1.00  0.00    -0.027 C 
ATOM      4  C   UNL     1     102.430 106.105 126.210  1.00  0.00     0.031 C 
ATOM      5  C   UNL     1     103.773 105.725 126.914  1.00  0.00     0.003 C 
ATOM      6  C   UNL     1     103.634 104.255 127.381  1.00  0.00     0.004 C 
ATOM      7  C   UNL     1     102.936 104.822 128.641  1.00  0.00     0.024 C 
ATOM      8  C   UNL     1     103.775 106.106 128.418  1.00  0.00    -0.022 C 
ATOM      9  C   UNL     1     105.209 105.923 128.999  1.00  0.00     0.008 C 
ATOM     10  C   UNL     1     105.723 104.464 128.871  1.00  0.00     0.005 C 
ATOM     11  C   UNL     1     105.048 103.683 127.698  1.00  0.00    -0.005 C 
ATOM     12  C   UNL     1     103.156 107.453 128.866  1.00  0.00     0.012 C 
ENDROOT
BRANCH  11  13
ATOM     13  C   UNL     1     105.034 102.134 127.884  1.00  0.00    -0.014 C 
ATOM     14  C   UNL     1     105.917 101.436 126.837  1.00  0.00     0.007 C 
ATOM     15  C   UNL     1     105.406 101.666 129.301  1.00  0.00     0.007 C 
ENDBRANCH  11  13
TORSDOF 1
ENDMDL
MODEL 2
REMARK VINA RESULT:    -6.224      3.117      5.543
REMARK INTER + INTRA:          -6.833
REMARK INTER:                  -6.573
REMARK INTRA:                  -0.259
REMARK UNBOUND:                -0.245
REMARK SMILES CC1=CC[C@@H]2[C@H]3[C@H](C(C)C)CC[C@]2(C)[C@@H]13
REMARK SMILES IDX 1 1 2 2 3 3 4 4 5 5 6 6 15 7 13 8 12 9 11 10 7 11 14 12 8 13
REMARK SMILES IDX 9 14 10 15
REMARK H PARENT
REMARK Flexibility Score: inf
ROOT
ATOM      1  C   UNL     1     107.841 100.380 129.267  1.00  0.00     0.039 C 
ATOM      2  C   UNL     1     107.503 101.440 128.262  1.00  0.00    -0.073 C 
ATOM      3  C   UNL     1     106.983 101.129 127.047  1.00  0.00    -0.027 C 
ATOM      4  C   UNL     1     106.605 102.264 126.087  1.00  0.00     0.031 C 
ATOM      5  C   UNL     1     106.894 103.650 126.750  1.00  0.00     0.003 C 
ATOM      6  C   UNL     1     108.329 103.582 127.326  1.00  0.00     0.004 C 
ATOM      7  C   UNL     1     107.692 102.926 128.576  1.00  0.00     0.024 C 
ATOM      8  C   UNL     1     106.405 103.710 128.221  1.00  0.00    -0.022 C 
ATOM      9  C   UNL     1     106.503 105.176 128.742  1.00  0.00     0.008 C 
ATOM     10  C   UNL     1     107.952 105.731 128.694  1.00  0.00     0.005 C 
ATOM     11  C   UNL     1     108.836 105.027 127.613  1.00  0.00    -0.005 C 
ATOM     12  C   UNL     1     105.048 103.070 128.602  1.00  0.00     0.012 C 
ENDROOT
BRANCH  11  13
ATOM     13  C   UNL     1     110.366 105.073 127.910  1.00  0.00    -0.014 C 
ATOM     14  C   UNL     1     111.076 106.118 127.034  1.00  0.00     0.007 C 
ATOM     15  C   UNL     1     110.715 105.286 129.393  1.00  0.00     0.007 C 
ENDBRANCH  11  13
TORSDOF 1
ENDMDL
MODEL 3
REMARK VINA RESULT:    -6.213      4.806      7.707
REMARK INTER + INTRA:          -6.821
REMARK INTER:                  -6.571
REMARK INTRA:                  -0.250
REMARK UNBOUND:                -0.245
REMARK SMILES CC1=CC[C@@H]2[C@H]3[C@H](C(C)C)CC[C@]2(C)[C@@H]13
REMARK SMILES IDX 1 1 2 2 3 3 4 4 5 5 6 6 15 7 13 8 12 9 11 10 7 11 14 12 8 13
REMARK SMILES IDX 9 14 10 15
REMARK H PARENT
REMARK Flexibility Score: inf
ROOT
ATOM      1  C   UNL     1     112.031 107.823 129.280  1.00  0.00     0.039 C 
ATOM      2  C   UNL     1     110.922 107.447 128.344  1.00  0.00    -0.073 C 
ATOM      3  C   UNL     1     111.167 106.805 127.173  1.00  0.00    -0.027 C 
ATOM      4  C   UNL     1     109.981 106.397 126.288  1.00  0.00     0.031 C 
ATOM      5  C   UNL     1     108.634 106.812 126.964  1.00  0.00     0.003 C 
ATOM      6  C   UNL     1     108.788 108.288 127.403  1.00  0.00     0.004 C 
ATOM      7  C   UNL     1     109.459 107.736 128.685  1.00  0.00     0.024 C 
ATOM      8  C   UNL     1     108.604 106.461 128.475  1.00  0.00    -0.022 C 
ATOM      9  C   UNL     1     107.165 106.677 129.031  1.00  0.00     0.008 C 
ATOM     10  C   UNL     1     106.674 108.141 128.866  1.00  0.00     0.005 C 
ATOM     11  C   UNL     1     107.379 108.888 127.687  1.00  0.00    -0.005 C 
ATOM     12  C   UNL     1     109.196 105.114 128.959  1.00  0.00     0.012 C 
ENDROOT
BRANCH  11  13
ATOM     13  C   UNL     1     107.413 110.439 127.843  1.00  0.00    -0.014 C 
ATOM     14  C   UNL     1     106.489 111.125 126.823  1.00  0.00     0.007 C 
ATOM     15  C   UNL     1     107.110 110.938 129.266  1.00  0.00     0.007 C 
ENDBRANCH  11  13
TORSDOF 1
ENDMDL
MODEL 4
REMARK VINA RESULT:    -6.198      3.118      5.456
REMARK INTER + INTRA:          -6.805
REMARK INTER:                  -6.560
REMARK INTRA:                  -0.245
REMARK UNBOUND:                -0.245
REMARK SMILES CC1=CC[C@@H]2[C@H]3[C@H](C(C)C)CC[C@]2(C)[C@@H]13
REMARK SMILES IDX 1 1 2 2 3 3 4 4 5 5 6 6 15 7 13 8 12 9 11 10 7 11 14 12 8 13
REMARK SMILES IDX 9 14 10 15
REMARK H PARENT
REMARK Flexibility Score: inf
ROOT
ATOM      1  C   UNL     1     104.827 112.052 129.263  1.00  0.00     0.039 C 
ATOM      2  C   UNL     1     105.146 110.950 128.297  1.00  0.00    -0.073 C 
ATOM      3  C   UNL     1     105.728 111.202 127.097  1.00  0.00    -0.027 C 
ATOM      4  C   UNL     1     106.080 110.024 126.180  1.00  0.00     0.031 C 
ATOM      5  C   UNL     1     105.691 108.672 126.863  1.00  0.00     0.003 C 
ATOM      6  C   UNL     1     104.241 108.832 127.380  1.00  0.00     0.004 C 
ATOM      7  C   UNL     1     104.864 109.485 128.638  1.00  0.00     0.024 C 
ATOM      8  C   UNL     1     106.120 108.624 128.353  1.00  0.00    -0.022 C 
ATOM      9  C   UNL     1     105.923 107.180 128.905  1.00  0.00     0.008 C 
ATOM     10  C   UNL     1     104.449 106.701 128.811  1.00  0.00     0.005 C 
ATOM     11  C   UNL     1     103.647 107.424 127.681  1.00  0.00    -0.005 C 
ATOM     12  C   UNL     1     107.494 109.201 128.772  1.00  0.00     0.012 C 
ENDROOT
BRANCH  11  13
ATOM     13  C   UNL     1     102.106 107.467 127.918  1.00  0.00    -0.014 C 
ATOM     14  C   UNL     1     101.355 106.620 126.877  1.00  0.00     0.007 C 
ATOM     15  C   UNL     1     101.675 107.077 129.342  1.00  0.00     0.007 C 
ENDBRANCH  11  13
TORSDOF 1
ENDMDL
MODEL 5
REMARK VINA RESULT:    -6.188      1.043      4.742
REMARK INTER + INTRA:          -6.794
REMARK INTER:                  -6.557
REMARK INTRA:                  -0.237
REMARK UNBOUND:                -0.245
REMARK SMILES CC1=CC[C@@H]2[C@H]3[C@H](C(C)C)CC[C@]2(C)[C@@H]13
REMARK SMILES IDX 1 1 2 2 3 3 4 4 5 5 6 6 15 7 13 8 12 9 11 10 7 11 14 12 8 13
REMARK SMILES IDX 9 14 10 15
REMARK H PARENT
REMARK Flexibility Score: inf
ROOT
ATOM      1  C   UNL     1     105.570 101.562 125.412  1.00  0.00     0.039 C 
ATOM      2  C   UNL     1     105.423 101.943 126.855  1.00  0.00    -0.073 C 
ATOM      3  C   UNL     1     105.622 101.043 127.852  1.00  0.00    -0.027 C 
ATOM      4  C   UNL     1     105.514 101.511 129.309  1.00  0.00     0.031 C 
ATOM      5  C   UNL     1     105.193 103.040 129.362  1.00  0.00     0.003 C 
ATOM      6  C   UNL     1     104.014 103.286 128.390  1.00  0.00     0.004 C 
ATOM      7  C   UNL     1     105.081 103.375 127.271  1.00  0.00     0.024 C 
ATOM      8  C   UNL     1     106.062 103.856 128.369  1.00  0.00    -0.022 C 
ATOM      9  C   UNL     1     105.869 105.379 128.638  1.00  0.00     0.008 C 
ATOM     10  C   UNL     1     104.393 105.832 128.471  1.00  0.00     0.005 C 
ATOM     11  C   UNL     1     103.372 104.671 128.702  1.00  0.00    -0.005 C 
ATOM     12  C   UNL     1     107.560 103.504 128.196  1.00  0.00     0.012 C 
ENDROOT
BRANCH  11  13
ATOM     13  C   UNL     1     102.004 104.869 127.979  1.00  0.00    -0.014 C 
ATOM     14  C   UNL     1     100.838 104.883 128.981  1.00  0.00     0.007 C 
ATOM     15  C   UNL     1     101.945 106.106 127.067  1.00  0.00     0.007 C 
ENDBRANCH  11  13
TORSDOF 1
ENDMDL
MODEL 6
REMARK VINA RESULT:    -6.183      2.394      5.177
REMARK INTER + INTRA:          -6.790
REMARK INTER:                  -6.553
REMARK INTRA:                  -0.236
REMARK UNBOUND:                -0.245
REMARK SMILES CC1=CC[C@@H]2[C@H]3[C@H](C(C)C)CC[C@]2(C)[C@@H]13
REMARK SMILES IDX 1 1 2 2 3 3 4 4 5 5 6 6 15 7 13 8 12 9 11 10 7 11 14 12 8 13
REMARK SMILES IDX 9 14 10 15
REMARK H PARENT
REMARK Flexibility Score: inf
ROOT
ATOM      1  C   UNL     1     101.638 106.924 125.384  1.00  0.00     0.039 C 
ATOM      2  C   UNL     1     102.030 107.118 126.818  1.00  0.00    -0.073 C 
ATOM      3  C   UNL     1     101.138 106.950 127.828  1.00  0.00    -0.027 C 
ATOM      4  C   UNL     1     101.619 107.106 129.277  1.00  0.00     0.031 C 
ATOM      5  C   UNL     1     103.148 107.431 129.307  1.00  0.00     0.003 C 
ATOM      6  C   UNL     1     103.383 108.578 128.295  1.00  0.00     0.004 C 
ATOM      7  C   UNL     1     103.465 107.476 127.211  1.00  0.00     0.024 C 
ATOM      8  C   UNL     1     103.957 106.532 128.336  1.00  0.00    -0.022 C 
ATOM      9  C   UNL     1     105.482 106.737 128.586  1.00  0.00     0.008 C 
ATOM     10  C   UNL     1     105.930 108.207 128.368  1.00  0.00     0.005 C 
ATOM     11  C   UNL     1     104.769 109.233 128.575  1.00  0.00    -0.005 C 
ATOM     12  C   UNL     1     103.607 105.028 128.214  1.00  0.00     0.012 C 
ENDROOT
BRANCH  11  13
ATOM     13  C   UNL     1     104.958 110.577 127.807  1.00  0.00    -0.014 C 
ATOM     14  C   UNL     1     104.942 111.778 128.767  1.00  0.00     0.007 C 
ATOM     15  C   UNL     1     106.206 110.621 126.910  1.00  0.00     0.007 C 
ENDBRANCH  11  13
TORSDOF 1
ENDMDL
MODEL 7
REMARK VINA RESULT:    -6.181      4.737      6.604
REMARK INTER + INTRA:          -6.788
REMARK INTER:                  -6.550
REMARK INTRA:                  -0.238
REMARK UNBOUND:                -0.245
REMARK SMILES CC1=CC[C@@H]2[C@H]3[C@H](C(C)C)CC[C@]2(C)[C@@H]13
REMARK SMILES IDX 1 1 2 2 3 3 4 4 5 5 6 6 15 7 13 8 12 9 11 10 7 11 14 12 8 13
REMARK SMILES IDX 9 14 10 15
REMARK H PARENT
REMARK Flexibility Score: inf
ROOT
ATOM      1  C   UNL     1     106.935 110.792 125.412  1.00  0.00     0.039 C 
ATOM      2  C   UNL     1     107.123 110.414 126.850  1.00  0.00    -0.073 C 
ATOM      3  C   UNL     1     106.943 111.313 127.852  1.00  0.00    -0.027 C 
ATOM      4  C   UNL     1     107.094 110.846 129.305  1.00  0.00     0.031 C 
ATOM      5  C   UNL     1     107.428 109.320 129.351  1.00  0.00     0.003 C 
ATOM      6  C   UNL     1     108.583 109.083 128.348  1.00  0.00     0.004 C 
ATOM      7  C   UNL     1     107.488 108.985 127.258  1.00  0.00     0.024 C 
ATOM      8  C   UNL     1     106.540 108.496 128.382  1.00  0.00    -0.022 C 
ATOM      9  C   UNL     1     106.753 106.975 128.646  1.00  0.00     0.008 C 
ATOM     10  C   UNL     1     108.228 106.535 128.441  1.00  0.00     0.005 C 
ATOM     11  C   UNL     1     109.245 107.704 128.644  1.00  0.00    -0.005 C 
ATOM     12  C   UNL     1     105.035 108.836 128.248  1.00  0.00     0.012 C 
ENDROOT
BRANCH  11  13
ATOM     13  C   UNL     1     110.595 107.517 127.886  1.00  0.00    -0.014 C 
ATOM     14  C   UNL     1     111.787 107.509 128.857  1.00  0.00     0.007 C 
ATOM     15  C   UNL     1     110.638 106.283 126.969  1.00  0.00     0.007 C 
ENDBRANCH  11  13
TORSDOF 1
ENDMDL
MODEL 8
REMARK VINA RESULT:    -6.147      3.734      6.217
REMARK INTER + INTRA:          -6.751
REMARK INTER:                  -6.515
REMARK INTRA:                  -0.236
REMARK UNBOUND:                -0.245
REMARK SMILES CC1=CC[C@@H]2[C@H]3[C@H](C(C)C)CC[C@]2(C)[C@@H]13
REMARK SMILES IDX 1 1 2 2 3 3 4 4 5 5 6 6 15 7 13 8 12 9 11 10 7 11 14 12 8 13
REMARK SMILES IDX 9 14 10 15
REMARK H PARENT
REMARK Flexibility Score: inf
ROOT
ATOM      1  C   UNL     1     110.733 105.475 125.373  1.00  0.00     0.039 C 
ATOM      2  C   UNL     1     110.375 105.292 126.818  1.00  0.00    -0.073 C 
ATOM      3  C   UNL     1     111.279 105.507 127.808  1.00  0.00    -0.027 C 
ATOM      4  C   UNL     1     110.832 105.359 129.268  1.00  0.00     0.031 C 
ATOM      5  C   UNL     1     109.316 104.983 129.333  1.00  0.00     0.003 C 
ATOM      6  C   UNL     1     109.100 103.812 128.344  1.00  0.00     0.004 C 
ATOM      7  C   UNL     1     108.961 104.893 127.244  1.00  0.00     0.024 C 
ATOM      8  C   UNL     1     108.458 105.839 128.363  1.00  0.00    -0.022 C 
ATOM      9  C   UNL     1     106.946 105.587 128.646  1.00  0.00     0.008 C 
ATOM     10  C   UNL     1     106.544 104.099 128.460  1.00  0.00     0.005 C 
ATOM     11  C   UNL     1     107.743 103.116 128.662  1.00  0.00    -0.005 C 
ATOM     12  C   UNL     1     108.755 107.351 128.211  1.00  0.00     0.012 C 
ENDROOT
BRANCH  11  13
ATOM     13  C   UNL     1     107.585 101.754 127.919  1.00  0.00    -0.014 C 
ATOM     14  C   UNL     1     107.654 100.571 128.898  1.00  0.00     0.007 C 
ATOM     15  C   UNL     1     106.325 101.655 127.043  1.00  0.00     0.007 C 
ENDBRANCH  11  13
TORSDOF 1
ENDMDL
MODEL 9
REMARK VINA RESULT:    -6.090      1.190      2.785
REMARK INTER + INTRA:          -6.691
REMARK INTER:                  -6.426
REMARK INTRA:                  -0.266
REMARK UNBOUND:                -0.245
REMARK SMILES CC1=CC[C@@H]2[C@H]3[C@H](C(C)C)CC[C@]2(C)[C@@H]13
REMARK SMILES IDX 1 1 2 2 3 3 4 4 5 5 6 6 15 7 13 8 12 9 11 10 7 11 14 12 8 13
REMARK SMILES IDX 9 14 10 15
REMARK H PARENT
REMARK Flexibility Score: inf
ROOT
ATOM      1  C   UNL     1     103.745 108.561 128.865  1.00  0.00     0.039 C 
ATOM      2  C   UNL     1     102.980 107.285 128.680  1.00  0.00    -0.073 C 
ATOM      3  C   UNL     1     101.740 107.115 129.206  1.00  0.00    -0.027 C 
ATOM      4  C   UNL     1     100.989 105.806 128.930  1.00  0.00     0.031 C 
ATOM      5  C   UNL     1     101.849 104.870 128.021  1.00  0.00     0.003 C 
ATOM      6  C   UNL     1     103.267 104.823 128.640  1.00  0.00     0.004 C 
ATOM      7  C   UNL     1     103.549 106.127 127.855  1.00  0.00     0.024 C 
ATOM      8  C   UNL     1     102.493 105.635 126.835  1.00  0.00    -0.022 C 
ATOM      9  C   UNL     1     103.132 104.617 125.843  1.00  0.00     0.008 C 
ATOM     10  C   UNL     1     104.232 103.746 126.509  1.00  0.00     0.005 C 
ATOM     11  C   UNL     1     104.042 103.605 128.054  1.00  0.00    -0.005 C 
ATOM     12  C   UNL     1     101.670 106.710 126.081  1.00  0.00     0.012 C 
ENDROOT
BRANCH  11  13
ATOM     13  C   UNL     1     105.358 103.305 128.835  1.00  0.00    -0.014 C 
ATOM     14  C   UNL     1     105.496 101.805 129.145  1.00  0.00     0.007 C 
ATOM     15  C   UNL     1     106.631 103.833 128.154  1.00  0.00     0.007 C 
ENDBRANCH  11  13
TORSDOF 1
ENDMDL
