MODEL 1
REMARK VINA RESULT:    -4.500      0.000      0.000
REMARK INTER + INTRA:         -11.116
REMARK INTER:                  -8.709
REMARK INTRA:                  -2.406
REMARK UNBOUND:                -2.406
REMARK SMILES CCCCCCCCCCCCCCCCCC(=O)[O-]
REMARK SMILES IDX 10 1 11 2 12 3 13 4 14 5 15 6 16 7 17 8 18 9 19 10 20 11
REMARK SMILES IDX 9 12 8 13 7 14 6 15 5 16 4 17 3 18 2 19 1 20
REMARK H PARENT
REMARK Flexibility Score: inf
ROOT
ATOM      1  C   UNL     1      12.239  56.614  33.480  1.00  0.00     0.000 C 
ENDROOT
BRANCH   1   2
ATOM      2  C   UNL     1      11.646  55.208  33.284  1.00  0.00     0.000 C 
BRANCH   2   3
ATOM      3  C   UNL     1      11.053  54.624  34.577  1.00  0.00     0.000 C 
BRANCH   3   4
ATOM      4  C   UNL     1      12.049  54.658  35.748  1.00  0.00     0.000 C 
BRANCH   4   5
ATOM      5  C   UNL     1      13.200  53.657  35.575  1.00  0.00     0.000 C 
BRANCH   5   6
ATOM      6  C   UNL     1      14.537  54.389  35.388  1.00  0.00     0.000 C 
BRANCH   6   7
ATOM      7  C   UNL     1      15.328  53.875  34.174  1.00  0.00     0.006 C 
BRANCH   7   8
ATOM      8  C   UNL     1      14.550  52.830  33.363  1.00  0.00     0.053 C 
BRANCH   8   9
ATOM      9  C   UNL     1      15.393  51.617  33.129  1.00  0.00     0.041 C 
ATOM     10  O   UNL     1      16.538  51.530  33.648  1.00  0.00    -0.550 OA
ATOM     11  O   UNL     1      14.934  50.600  32.300  1.00  0.00    -0.550 OA
ENDBRANCH   8   9
ENDBRANCH   7   8
ENDBRANCH   6   7
ENDBRANCH   5   6
ENDBRANCH   4   5
ENDBRANCH   3   4
ENDBRANCH   2   3
ENDBRANCH   1   2
BRANCH   1  12
ATOM     12  C   UNL     1      13.587  56.864  32.772  1.00  0.00     0.000 C 
BRANCH  12  13
ATOM     13  C   UNL     1      13.729  56.203  31.389  1.00  0.00    -0.000 C 
BRANCH  13  14
ATOM     14  C   UNL     1      15.189  55.909  31.015  1.00  0.00    -0.000 C 
BRANCH  14  15
ATOM     15  C   UNL     1      16.154  56.581  32.005  1.00  0.00    -0.000 C 
BRANCH  15  16
ATOM     16  C   UNL     1      17.031  57.656  31.345  1.00  0.00    -0.000 C 
BRANCH  16  17
ATOM     17  C   UNL     1      17.646  58.626  32.369  1.00  0.00    -0.000 C 
BRANCH  17  18
ATOM     18  C   UNL     1      16.614  59.177  33.367  1.00  0.00    -0.000 C 
BRANCH  18  19
ATOM     19  C   UNL     1      16.018  60.546  32.997  1.00  0.00    -0.003 C 
ATOM     20  C   UNL     1      16.807  61.269  31.906  1.00  0.00     0.004 C 
ENDBRANCH  18  19
ENDBRANCH  17  18
ENDBRANCH  16  17
ENDBRANCH  15  16
ENDBRANCH  14  15
ENDBRANCH  13  14
ENDBRANCH  12  13
ENDBRANCH   1  12
TORSDOF 16
ENDMDL
MODEL 2
REMARK VINA RESULT:    -4.462      1.739      3.294
REMARK INTER + INTRA:         -11.042
REMARK INTER:                  -8.319
REMARK INTRA:                  -2.723
REMARK UNBOUND:                -2.406
REMARK SMILES CCCCCCCCCCCCCCCCCC(=O)[O-]
REMARK SMILES IDX 10 1 11 2 12 3 13 4 14 5 15 6 16 7 17 8 18 9 19 10 20 11
REMARK SMILES IDX 9 12 8 13 7 14 6 15 5 16 4 17 3 18 2 19 1 20
REMARK H PARENT
REMARK Flexibility Score: inf
ROOT
ATOM      1  C   UNL     1      11.562  53.909  35.236  1.00  0.00     0.000 C 
ENDROOT
BRANCH   1   2
ATOM      2  C   UNL     1      12.885  53.355  35.795  1.00  0.00     0.000 C 
BRANCH   2   3
ATOM      3  C   UNL     1      14.089  54.263  35.493  1.00  0.00     0.000 C 
BRANCH   3   4
ATOM      4  C   UNL     1      15.223  53.514  34.774  1.00  0.00     0.000 C 
BRANCH   4   5
ATOM      5  C   UNL     1      14.771  52.161  34.205  1.00  0.00     0.000 C 
BRANCH   5   6
ATOM      6  C   UNL     1      15.709  51.702  33.080  1.00  0.00     0.000 C 
BRANCH   6   7
ATOM      7  C   UNL     1      14.949  51.259  31.819  1.00  0.00     0.006 C 
BRANCH   7   8
ATOM      8  C   UNL     1      14.997  49.741  31.605  1.00  0.00     0.053 C 
BRANCH   8   9
ATOM      9  C   UNL     1      15.979  49.395  30.530  1.00  0.00     0.041 C 
ATOM     10  O   UNL     1      16.820  48.476  30.712  1.00  0.00    -0.550 OA
ATOM     11  O   UNL     1      15.996  50.119  29.344  1.00  0.00    -0.550 OA
ENDBRANCH   8   9
ENDBRANCH   7   8
ENDBRANCH   6   7
ENDBRANCH   5   6
ENDBRANCH   4   5
ENDBRANCH   3   4
ENDBRANCH   2   3
ENDBRANCH   1   2
BRANCH   1  12
ATOM     12  C   UNL     1      11.677  54.641  33.883  1.00  0.00     0.000 C 
BRANCH  12  13
ATOM     13  C   UNL     1      11.443  53.760  32.643  1.00  0.00    -0.000 C 
BRANCH  13  14
ATOM     14  C   UNL     1      12.520  53.947  31.565  1.00  0.00    -0.000 C 
BRANCH  14  15
ATOM     15  C   UNL     1      13.461  55.107  31.927  1.00  0.00    -0.000 C 
BRANCH  15  16
ATOM     16  C   UNL     1      14.863  54.949  31.317  1.00  0.00    -0.000 C 
BRANCH  16  17
ATOM     17  C   UNL     1      15.903  55.865  31.984  1.00  0.00    -0.000 C 
BRANCH  17  18
ATOM     18  C   UNL     1      15.285  56.816  33.024  1.00  0.00    -0.000 C 
BRANCH  18  19
ATOM     19  C   UNL     1      15.543  58.312  32.773  1.00  0.00    -0.003 C 
ATOM     20  C   UNL     1      17.030  58.665  32.733  1.00  0.00     0.004 C 
ENDBRANCH  18  19
ENDBRANCH  17  18
ENDBRANCH  16  17
ENDBRANCH  15  16
ENDBRANCH  14  15
ENDBRANCH  13  14
ENDBRANCH  12  13
ENDBRANCH   1  12
TORSDOF 16
ENDMDL
MODEL 3
REMARK VINA RESULT:    -4.435      3.268      6.630
REMARK INTER + INTRA:         -10.990
REMARK INTER:                  -8.821
REMARK INTRA:                  -2.169
REMARK UNBOUND:                -2.406
REMARK SMILES CCCCCCCCCCCCCCCCCC(=O)[O-]
REMARK SMILES IDX 10 1 11 2 12 3 13 4 14 5 15 6 16 7 17 8 18 9 19 10 20 11
REMARK SMILES IDX 9 12 8 13 7 14 6 15 5 16 4 17 3 18 2 19 1 20
REMARK H PARENT
REMARK Flexibility Score: inf
ROOT
ATOM      1  C   UNL     1      11.966  53.847  32.506  1.00  0.00     0.000 C 
ENDROOT
BRANCH   1   2
ATOM      2  C   UNL     1      13.134  53.967  31.512  1.00  0.00     0.000 C 
BRANCH   2   3
ATOM      3  C   UNL     1      13.597  55.419  31.306  1.00  0.00     0.000 C 
BRANCH   3   4
ATOM      4  C   UNL     1      15.097  55.517  30.980  1.00  0.00     0.000 C 
BRANCH   4   5
ATOM      5  C   UNL     1      15.864  56.393  31.981  1.00  0.00     0.000 C 
BRANCH   5   6
ATOM      6  C   UNL     1      16.984  57.173  31.277  1.00  0.00     0.000 C 
BRANCH   6   7
ATOM      7  C   UNL     1      17.473  58.378  32.099  1.00  0.00     0.006 C 
BRANCH   7   8
ATOM      8  C   UNL     1      16.408  58.896  33.074  1.00  0.00     0.053 C 
BRANCH   8   9
ATOM      9  C   UNL     1      16.211  60.368  32.899  1.00  0.00     0.041 C 
ATOM     10  O   UNL     1      15.125  60.907  33.237  1.00  0.00    -0.550 OA
ATOM     11  O   UNL     1      17.212  61.140  32.319  1.00  0.00    -0.550 OA
ENDBRANCH   8   9
ENDBRANCH   7   8
ENDBRANCH   6   7
ENDBRANCH   5   6
ENDBRANCH   4   5
ENDBRANCH   3   4
ENDBRANCH   2   3
ENDBRANCH   1   2
BRANCH   1  12
ATOM     12  C   UNL     1      11.512  55.174  33.150  1.00  0.00     0.000 C 
BRANCH  12  13
ATOM     13  C   UNL     1      10.956  55.047  34.580  1.00  0.00    -0.000 C 
BRANCH  13  14
ATOM     14  C   UNL     1      11.492  53.814  35.322  1.00  0.00    -0.000 C 
BRANCH  14  15
ATOM     15  C   UNL     1      12.865  54.106  35.947  1.00  0.00    -0.000 C 
BRANCH  15  16
ATOM     16  C   UNL     1      13.974  53.193  35.398  1.00  0.00    -0.000 C 
BRANCH  16  17
ATOM     17  C   UNL     1      15.096  53.982  34.701  1.00  0.00    -0.000 C 
BRANCH  17  18
ATOM     18  C   UNL     1      15.903  53.126  33.710  1.00  0.00    -0.000 C 
BRANCH  18  19
ATOM     19  C   UNL     1      15.667  51.609  33.818  1.00  0.00    -0.003 C 
ATOM     20  C   UNL     1      15.153  50.988  32.520  1.00  0.00     0.004 C 
ENDBRANCH  18  19
ENDBRANCH  17  18
ENDBRANCH  16  17
ENDBRANCH  15  16
ENDBRANCH  14  15
ENDBRANCH  13  14
ENDBRANCH  12  13
ENDBRANCH   1  12
TORSDOF 16
ENDMDL
MODEL 4
REMARK VINA RESULT:    -4.429      3.717      6.503
REMARK INTER + INTRA:         -10.979
REMARK INTER:                  -9.332
REMARK INTRA:                  -1.646
REMARK UNBOUND:                -2.406
REMARK SMILES CCCCCCCCCCCCCCCCCC(=O)[O-]
REMARK SMILES IDX 10 1 11 2 12 3 13 4 14 5 15 6 16 7 17 8 18 9 19 10 20 11
REMARK SMILES IDX 9 12 8 13 7 14 6 15 5 16 4 17 3 18 2 19 1 20
REMARK H PARENT
REMARK Flexibility Score: inf
ROOT
ATOM      1  C   UNL     1      14.277  53.194  34.671  1.00  0.00     0.000 C 
ENDROOT
BRANCH   1   2
ATOM      2  C   UNL     1      14.967  54.562  34.524  1.00  0.00     0.000 C 
BRANCH   2   3
ATOM      3  C   UNL     1      14.848  55.142  33.104  1.00  0.00     0.000 C 
BRANCH   3   4
ATOM      4  C   UNL     1      13.979  56.409  33.059  1.00  0.00     0.000 C 
BRANCH   4   5
ATOM      5  C   UNL     1      14.809  57.690  32.892  1.00  0.00     0.000 C 
BRANCH   5   6
ATOM      6  C   UNL     1      16.211  57.366  32.357  1.00  0.00     0.000 C 
BRANCH   6   7
ATOM      7  C   UNL     1      17.213  58.510  32.592  1.00  0.00     0.006 C 
BRANCH   7   8
ATOM      8  C   UNL     1      16.526  59.873  32.744  1.00  0.00     0.053 C 
BRANCH   8   9
ATOM      9  C   UNL     1      16.566  60.625  31.452  1.00  0.00     0.041 C 
ATOM     10  O   UNL     1      16.971  61.817  31.424  1.00  0.00    -0.550 OA
ATOM     11  O   UNL     1      16.112  60.025  30.283  1.00  0.00    -0.550 OA
ENDBRANCH   8   9
ENDBRANCH   7   8
ENDBRANCH   6   7
ENDBRANCH   5   6
ENDBRANCH   4   5
ENDBRANCH   3   4
ENDBRANCH   2   3
ENDBRANCH   1   2
BRANCH   1  12
ATOM     12  C   UNL     1      13.164  53.131  35.738  1.00  0.00     0.000 C 
BRANCH  12  13
ATOM     13  C   UNL     1      12.278  54.386  35.830  1.00  0.00    -0.000 C 
BRANCH  13  14
ATOM     14  C   UNL     1      11.229  54.460  34.712  1.00  0.00    -0.000 C 
BRANCH  14  15
ATOM     15  C   UNL     1      10.545  55.836  34.694  1.00  0.00    -0.000 C 
BRANCH  15  16
ATOM     16  C   UNL     1      10.652  56.571  36.040  1.00  0.00    -0.000 C 
BRANCH  16  17
ATOM     17  C   UNL     1      10.278  58.060  35.929  1.00  0.00    -0.000 C 
BRANCH  17  18
ATOM     18  C   UNL     1      10.939  58.756  34.727  1.00  0.00    -0.000 C 
BRANCH  18  19
ATOM     19  C   UNL     1      11.294  60.237  34.947  1.00  0.00    -0.003 C 
ATOM     20  C   UNL     1      10.816  60.774  36.295  1.00  0.00     0.004 C 
ENDBRANCH  18  19
ENDBRANCH  17  18
ENDBRANCH  16  17
ENDBRANCH  15  16
ENDBRANCH  14  15
ENDBRANCH  13  14
ENDBRANCH  12  13
ENDBRANCH   1  12
TORSDOF 16
ENDMDL
MODEL 5
REMARK VINA RESULT:    -4.409      2.617      5.763
REMARK INTER + INTRA:         -10.940
REMARK INTER:                  -8.000
REMARK INTRA:                  -2.940
REMARK UNBOUND:                -2.406
REMARK SMILES CCCCCCCCCCCCCCCCCC(=O)[O-]
REMARK SMILES IDX 10 1 11 2 12 3 13 4 14 5 15 6 16 7 17 8 18 9 19 10 20 11
REMARK SMILES IDX 9 12 8 13 7 14 6 15 5 16 4 17 3 18 2 19 1 20
REMARK H PARENT
REMARK Flexibility Score: inf
ROOT
ATOM      1  C   UNL     1      12.293  53.421  35.761  1.00  0.00     0.000 C 
ENDROOT
BRANCH   1   2
ATOM      2  C   UNL     1      12.114  54.931  35.521  1.00  0.00     0.000 C 
BRANCH   2   3
ATOM      3  C   UNL     1      10.935  55.252  34.586  1.00  0.00     0.000 C 
BRANCH   3   4
ATOM      4  C   UNL     1      11.267  56.372  33.586  1.00  0.00     0.000 C 
BRANCH   4   5
ATOM      5  C   UNL     1      12.776  56.633  33.470  1.00  0.00     0.000 C 
BRANCH   5   6
ATOM      6  C   UNL     1      13.216  56.642  31.999  1.00  0.00     0.000 C 
BRANCH   6   7
ATOM      7  C   UNL     1      14.725  56.395  31.831  1.00  0.00     0.006 C 
BRANCH   7   8
ATOM      8  C   UNL     1      15.548  56.971  32.990  1.00  0.00     0.053 C 
BRANCH   8   9
ATOM      9  C   UNL     1      16.568  57.937  32.477  1.00  0.00     0.041 C 
ATOM     10  O   UNL     1      17.301  57.626  31.501  1.00  0.00    -0.550 OA
ATOM     11  O   UNL     1      16.741  59.165  33.104  1.00  0.00    -0.550 OA
ENDBRANCH   8   9
ENDBRANCH   7   8
ENDBRANCH   6   7
ENDBRANCH   5   6
ENDBRANCH   4   5
ENDBRANCH   3   4
ENDBRANCH   2   3
ENDBRANCH   1   2
BRANCH   1  12
ATOM     12  C   UNL     1      13.664  52.848  35.346  1.00  0.00     0.000 C 
BRANCH  12  13
ATOM     13  C   UNL     1      14.674  53.886  34.825  1.00  0.00    -0.000 C 
BRANCH  13  14
ATOM     14  C   UNL     1      15.662  53.300  33.806  1.00  0.00    -0.000 C 
BRANCH  14  15
ATOM     15  C   UNL     1      15.653  51.765  33.857  1.00  0.00    -0.000 C 
BRANCH  15  16
ATOM     16  C   UNL     1      15.122  51.130  32.561  1.00  0.00    -0.000 C 
BRANCH  16  17
ATOM     17  C   UNL     1      14.605  52.178  31.560  1.00  0.00    -0.000 C 
BRANCH  17  18
ATOM     18  C   UNL     1      13.102  52.032  31.264  1.00  0.00    -0.000 C 
BRANCH  18  19
ATOM     19  C   UNL     1      12.200  53.078  31.944  1.00  0.00    -0.003 C 
ATOM     20  C   UNL     1      11.165  53.684  30.997  1.00  0.00     0.004 C 
ENDBRANCH  18  19
ENDBRANCH  17  18
ENDBRANCH  16  17
ENDBRANCH  15  16
ENDBRANCH  14  15
ENDBRANCH  13  14
ENDBRANCH  12  13
ENDBRANCH   1  12
TORSDOF 16
ENDMDL
MODEL 6
REMARK VINA RESULT:    -4.403      3.179      6.365
REMARK INTER + INTRA:         -10.927
REMARK INTER:                  -8.723
REMARK INTRA:                  -2.204
REMARK UNBOUND:                -2.406
REMARK SMILES CCCCCCCCCCCCCCCCCC(=O)[O-]
REMARK SMILES IDX 10 1 11 2 12 3 13 4 14 5 15 6 16 7 17 8 18 9 19 10 20 11
REMARK SMILES IDX 9 12 8 13 7 14 6 15 5 16 4 17 3 18 2 19 1 20
REMARK H PARENT
REMARK Flexibility Score: inf
ROOT
ATOM      1  C   UNL     1      11.735  54.214  34.814  1.00  0.00     0.000 C 
ENDROOT
BRANCH   1   2
ATOM      2  C   UNL     1      11.318  55.612  35.302  1.00  0.00     0.000 C 
BRANCH   2   3
ATOM      3  C   UNL     1      11.602  56.716  34.269  1.00  0.00     0.000 C 
BRANCH   3   4
ATOM      4  C   UNL     1      12.574  56.255  33.170  1.00  0.00     0.000 C 
BRANCH   4   5
ATOM      5  C   UNL     1      13.625  57.321  32.825  1.00  0.00     0.000 C 
BRANCH   5   6
ATOM      6  C   UNL     1      15.005  56.680  32.618  1.00  0.00     0.000 C 
BRANCH   6   7
ATOM      7  C   UNL     1      16.156  57.685  32.789  1.00  0.00     0.006 C 
BRANCH   7   8
ATOM      8  C   UNL     1      15.671  59.140  32.801  1.00  0.00     0.053 C 
BRANCH   8   9
ATOM      9  C   UNL     1      16.353  59.927  31.727  1.00  0.00     0.041 C 
ATOM     10  O   UNL     1      16.330  59.524  30.534  1.00  0.00    -0.550 OA
ATOM     11  O   UNL     1      17.054  61.083  32.050  1.00  0.00    -0.550 OA
ENDBRANCH   8   9
ENDBRANCH   7   8
ENDBRANCH   6   7
ENDBRANCH   5   6
ENDBRANCH   4   5
ENDBRANCH   3   4
ENDBRANCH   2   3
ENDBRANCH   1   2
BRANCH   1  12
ATOM     12  C   UNL     1      12.466  53.344  35.857  1.00  0.00     0.000 C 
BRANCH  12  13
ATOM     13  C   UNL     1      13.803  52.746  35.386  1.00  0.00    -0.000 C 
BRANCH  13  14
ATOM     14  C   UNL     1      14.735  53.790  34.754  1.00  0.00    -0.000 C 
BRANCH  14  15
ATOM     15  C   UNL     1      15.714  53.127  33.772  1.00  0.00    -0.000 C 
BRANCH  15  16
ATOM     16  C   UNL     1      15.694  51.593  33.858  1.00  0.00    -0.000 C 
BRANCH  16  17
ATOM     17  C   UNL     1      15.380  50.931  32.505  1.00  0.00    -0.000 C 
BRANCH  17  18
ATOM     18  C   UNL     1      14.741  51.903  31.497  1.00  0.00    -0.000 C 
BRANCH  18  19
ATOM     19  C   UNL     1      13.233  51.703  31.266  1.00  0.00    -0.003 C 
ATOM     20  C   UNL     1      12.423  52.986  31.444  1.00  0.00     0.004 C 
ENDBRANCH  18  19
ENDBRANCH  17  18
ENDBRANCH  16  17
ENDBRANCH  15  16
ENDBRANCH  14  15
ENDBRANCH  13  14
ENDBRANCH  12  13
ENDBRANCH   1  12
TORSDOF 16
ENDMDL
MODEL 7
REMARK VINA RESULT:    -4.304      3.429      6.578
REMARK INTER + INTRA:         -10.736
REMARK INTER:                  -8.089
REMARK INTRA:                  -2.647
REMARK UNBOUND:                -2.406
REMARK SMILES CCCCCCCCCCCCCCCCCC(=O)[O-]
REMARK SMILES IDX 10 1 11 2 12 3 13 4 14 5 15 6 16 7 17 8 18 9 19 10 20 11
REMARK SMILES IDX 9 12 8 13 7 14 6 15 5 16 4 17 3 18 2 19 1 20
REMARK H PARENT
REMARK Flexibility Score: inf
ROOT
ATOM      1  C   UNL     1      14.230  52.682  33.916  1.00  0.00     0.000 C 
ENDROOT
BRANCH   1   2
ATOM      2  C   UNL     1      15.603  53.312  33.623  1.00  0.00     0.000 C 
BRANCH   2   3
ATOM      3  C   UNL     1      15.509  54.569  32.742  1.00  0.00     0.000 C 
BRANCH   3   4
ATOM      4  C   UNL     1      14.933  55.776  33.501  1.00  0.00     0.000 C 
BRANCH   4   5
ATOM      5  C   UNL     1      15.202  57.108  32.785  1.00  0.00     0.000 C 
BRANCH   5   6
ATOM      6  C   UNL     1      16.619  57.135  32.195  1.00  0.00     0.000 C 
BRANCH   6   7
ATOM      7  C   UNL     1      17.205  58.556  32.126  1.00  0.00     0.006 C 
BRANCH   7   8
ATOM      8  C   UNL     1      16.774  59.428  33.313  1.00  0.00     0.053 C 
BRANCH   8   9
ATOM      9  C   UNL     1      16.242  60.740  32.830  1.00  0.00     0.041 C 
ATOM     10  O   UNL     1      16.918  61.444  32.035  1.00  0.00    -0.550 OA
ATOM     11  O   UNL     1      15.017  61.207  33.293  1.00  0.00    -0.550 OA
ENDBRANCH   8   9
ENDBRANCH   7   8
ENDBRANCH   6   7
ENDBRANCH   5   6
ENDBRANCH   4   5
ENDBRANCH   3   4
ENDBRANCH   2   3
ENDBRANCH   1   2
BRANCH   1  12
ATOM     12  C   UNL     1      13.878  52.540  35.411  1.00  0.00     0.000 C 
BRANCH  12  13
ATOM     13  C   UNL     1      13.032  53.685  35.993  1.00  0.00    -0.000 C 
BRANCH  13  14
ATOM     14  C   UNL     1      11.679  53.848  35.286  1.00  0.00    -0.000 C 
BRANCH  14  15
ATOM     15  C   UNL     1      11.388  55.329  34.995  1.00  0.00    -0.000 C 
BRANCH  15  16
ATOM     16  C   UNL     1      11.247  55.624  33.493  1.00  0.00    -0.000 C 
BRANCH  16  17
ATOM     17  C   UNL     1      11.070  54.345  32.656  1.00  0.00    -0.000 C 
BRANCH  17  18
ATOM     18  C   UNL     1      12.046  54.267  31.469  1.00  0.00    -0.000 C 
BRANCH  18  19
ATOM     19  C   UNL     1      12.257  55.590  30.712  1.00  0.00    -0.003 C 
ATOM     20  C   UNL     1      13.479  55.569  29.795  1.00  0.00     0.004 C 
ENDBRANCH  18  19
ENDBRANCH  17  18
ENDBRANCH  16  17
ENDBRANCH  15  16
ENDBRANCH  14  15
ENDBRANCH  13  14
ENDBRANCH  12  13
ENDBRANCH   1  12
TORSDOF 16
ENDMDL
MODEL 8
REMARK VINA RESULT:    -4.297      3.407      6.527
REMARK INTER + INTRA:         -10.722
REMARK INTER:                  -7.754
REMARK INTRA:                  -2.967
REMARK UNBOUND:                -2.406
REMARK SMILES CCCCCCCCCCCCCCCCCC(=O)[O-]
REMARK SMILES IDX 10 1 11 2 12 3 13 4 14 5 15 6 16 7 17 8 18 9 19 10 20 11
REMARK SMILES IDX 9 12 8 13 7 14 6 15 5 16 4 17 3 18 2 19 1 20
REMARK H PARENT
REMARK Flexibility Score: inf
ROOT
ATOM      1  C   UNL     1      12.446  55.974  32.683  1.00  0.00     0.000 C 
ENDROOT
BRANCH   1   2
ATOM      2  C   UNL     1      13.455  57.134  32.609  1.00  0.00     0.000 C 
BRANCH   2   3
ATOM      3  C   UNL     1      14.390  57.036  31.391  1.00  0.00     0.000 C 
BRANCH   3   4
ATOM      4  C   UNL     1      15.862  56.848  31.794  1.00  0.00     0.000 C 
BRANCH   4   5
ATOM      5  C   UNL     1      16.287  57.785  32.934  1.00  0.00     0.000 C 
BRANCH   5   6
ATOM      6  C   UNL     1      17.435  58.701  32.487  1.00  0.00     0.000 C 
BRANCH   6   7
ATOM      7  C   UNL     1      17.018  60.180  32.410  1.00  0.00     0.006 C 
BRANCH   7   8
ATOM      8  C   UNL     1      15.852  60.511  33.351  1.00  0.00     0.053 C 
BRANCH   8   9
ATOM      9  C   UNL     1      14.670  60.989  32.570  1.00  0.00     0.041 C 
ATOM     10  O   UNL     1      14.496  60.603  31.384  1.00  0.00    -0.550 OA
ATOM     11  O   UNL     1      13.783  61.898  33.135  1.00  0.00    -0.550 OA
ENDBRANCH   8   9
ENDBRANCH   7   8
ENDBRANCH   6   7
ENDBRANCH   5   6
ENDBRANCH   4   5
ENDBRANCH   3   4
ENDBRANCH   2   3
ENDBRANCH   1   2
BRANCH   1  12
ATOM     12  C   UNL     1      12.566  54.926  31.557  1.00  0.00     0.000 C 
BRANCH  12  13
ATOM     13  C   UNL     1      12.236  53.482  31.974  1.00  0.00    -0.000 C 
BRANCH  13  14
ATOM     14  C   UNL     1      13.416  52.519  31.778  1.00  0.00    -0.000 C 
BRANCH  14  15
ATOM     15  C   UNL     1      14.754  53.242  31.999  1.00  0.00    -0.000 C 
BRANCH  15  16
ATOM     16  C   UNL     1      15.375  52.938  33.372  1.00  0.00    -0.000 C 
BRANCH  16  17
ATOM     17  C   UNL     1      15.553  54.202  34.231  1.00  0.00    -0.000 C 
BRANCH  17  18
ATOM     18  C   UNL     1      14.453  54.362  35.296  1.00  0.00    -0.000 C 
BRANCH  18  19
ATOM     19  C   UNL     1      13.521  53.149  35.455  1.00  0.00    -0.003 C 
ATOM     20  C   UNL     1      12.061  53.540  35.682  1.00  0.00     0.004 C 
ENDBRANCH  18  19
ENDBRANCH  17  18
ENDBRANCH  16  17
ENDBRANCH  15  16
ENDBRANCH  14  15
ENDBRANCH  13  14
ENDBRANCH  12  13
ENDBRANCH   1  12
TORSDOF 16
ENDMDL
MODEL 9
REMARK VINA RESULT:    -4.247      3.403      6.730
REMARK INTER + INTRA:         -10.626
REMARK INTER:                  -8.099
REMARK INTRA:                  -2.527
REMARK UNBOUND:                -2.406
REMARK SMILES CCCCCCCCCCCCCCCCCC(=O)[O-]
REMARK SMILES IDX 10 1 11 2 12 3 13 4 14 5 15 6 16 7 17 8 18 9 19 10 20 11
REMARK SMILES IDX 9 12 8 13 7 14 6 15 5 16 4 17 3 18 2 19 1 20
REMARK H PARENT
REMARK Flexibility Score: inf
ROOT
ATOM      1  C   UNL     1      13.641  53.180  35.409  1.00  0.00     0.000 C 
ENDROOT
BRANCH   1   2
ATOM      2  C   UNL     1      14.563  54.408  35.310  1.00  0.00     0.000 C 
BRANCH   2   3
ATOM      3  C   UNL     1      15.233  54.544  33.932  1.00  0.00     0.000 C 
BRANCH   3   4
ATOM      4  C   UNL     1      15.069  55.951  33.335  1.00  0.00     0.000 C 
BRANCH   4   5
ATOM      5  C   UNL     1      15.809  56.117  32.000  1.00  0.00     0.000 C 
BRANCH   5   6
ATOM      6  C   UNL     1      16.441  57.512  31.895  1.00  0.00     0.000 C 
BRANCH   6   7
ATOM      7  C   UNL     1      16.204  58.366  33.153  1.00  0.00     0.006 C 
BRANCH   7   8
ATOM      8  C   UNL     1      16.780  59.781  33.021  1.00  0.00     0.053 C 
BRANCH   8   9
ATOM      9  C   UNL     1      15.744  60.719  32.488  1.00  0.00     0.041 C 
ATOM     10  O   UNL     1      14.908  61.249  33.266  1.00  0.00    -0.550 OA
ATOM     11  O   UNL     1      15.673  60.974  31.124  1.00  0.00    -0.550 OA
ENDBRANCH   8   9
ENDBRANCH   7   8
ENDBRANCH   6   7
ENDBRANCH   5   6
ENDBRANCH   4   5
ENDBRANCH   3   4
ENDBRANCH   2   3
ENDBRANCH   1   2
BRANCH   1  12
ATOM     12  C   UNL     1      12.177  53.487  35.787  1.00  0.00     0.000 C 
BRANCH  12  13
ATOM     13  C   UNL     1      11.773  54.968  35.682  1.00  0.00    -0.000 C 
BRANCH  13  14
ATOM     14  C   UNL     1      10.759  55.233  34.560  1.00  0.00    -0.000 C 
BRANCH  14  15
ATOM     15  C   UNL     1      11.466  55.355  33.201  1.00  0.00    -0.000 C 
BRANCH  15  16
ATOM     16  C   UNL     1      11.114  54.206  32.242  1.00  0.00    -0.000 C 
BRANCH  16  17
ATOM     17  C   UNL     1      12.278  53.217  32.056  1.00  0.00    -0.000 C 
BRANCH  17  18
ATOM     18  C   UNL     1      13.233  53.623  30.920  1.00  0.00    -0.000 C 
BRANCH  18  19
ATOM     19  C   UNL     1      14.507  52.768  30.804  1.00  0.00    -0.003 C 
ATOM     20  C   UNL     1      14.553  51.620  31.813  1.00  0.00     0.004 C 
ENDBRANCH  18  19
ENDBRANCH  17  18
ENDBRANCH  16  17
ENDBRANCH  15  16
ENDBRANCH  14  15
ENDBRANCH  13  14
ENDBRANCH  12  13
ENDBRANCH   1  12
TORSDOF 16
ENDMDL
