MODEL 1
REMARK VINA RESULT:     8.690      0.000      0.000
REMARK INTER + INTRA:           9.325
REMARK INTER:                   9.452
REMARK INTRA:                  -0.127
REMARK UNBOUND:                -0.127
REMARK SMILES Cc1ccc(C(C)C)cc1O
REMARK SMILES IDX 1 1 2 2 10 3 9 4 5 5 4 6 3 7 11 8 6 10 7 11 8 12
REMARK H PARENT 11 9
REMARK Flexibility Score: inf
ROOT
ATOM      1  C   UNL     1       9.585  10.347  31.338  1.00  0.00     0.048 C 
ATOM      2  C   UNL     1      10.530  11.293  30.652  1.00  0.00    -0.009 A 
ATOM      3  C   UNL     1      11.786  11.574  31.218  1.00  0.00     0.118 A 
ATOM      4  C   UNL     1      12.663  12.457  30.572  1.00  0.00     0.050 A 
ATOM      5  C   UNL     1      12.302  13.070  29.360  1.00  0.00    -0.042 A 
ATOM      6  C   UNL     1      11.043  12.782  28.801  1.00  0.00     0.004 A 
ATOM      7  C   UNL     1      10.167  11.902  29.441  1.00  0.00     0.007 A 
ENDROOT
BRANCH   3   8
ATOM      8  O   UNL     1      12.159  10.975  32.421  1.00  0.00    -0.508 OA
ATOM      9  H   UNL     1      11.646  11.141  33.278  1.00  0.00     0.293 HD
ENDBRANCH   3   8
BRANCH   5  10
ATOM     10  C   UNL     1      13.264  14.022  28.675  1.00  0.00     0.013 C 
ATOM     11  C   UNL     1      12.787  14.364  27.257  1.00  0.00     0.012 C 
ATOM     12  C   UNL     1      14.687  13.452  28.655  1.00  0.00     0.012 C 
ENDBRANCH   5  10
TORSDOF 2
ENDMDL
MODEL 2
REMARK VINA RESULT:     8.737      1.478      2.095
REMARK INTER + INTRA:           9.376
REMARK INTER:                   9.477
REMARK INTRA:                  -0.101
REMARK UNBOUND:                -0.127
REMARK SMILES Cc1ccc(C(C)C)cc1O
REMARK SMILES IDX 1 1 2 2 10 3 9 4 5 5 4 6 3 7 11 8 6 10 7 11 8 12
REMARK H PARENT 11 9
REMARK Flexibility Score: inf
ROOT
ATOM      1  C   UNL     1       9.992  10.282  31.428  1.00  0.00     0.048 C 
ATOM      2  C   UNL     1      10.915  11.182  30.656  1.00  0.00    -0.009 A 
ATOM      3  C   UNL     1      10.496  12.469  30.276  1.00  0.00     0.118 A 
ATOM      4  C   UNL     1      11.363  13.303  29.556  1.00  0.00     0.050 A 
ATOM      5  C   UNL     1      12.653  12.869  29.206  1.00  0.00    -0.042 A 
ATOM      6  C   UNL     1      13.064  11.579  29.592  1.00  0.00     0.004 A 
ATOM      7  C   UNL     1      12.203  10.745  30.309  1.00  0.00     0.007 A 
ENDROOT
BRANCH   3   8
ATOM      8  O   UNL     1       9.219  12.915  30.614  1.00  0.00    -0.508 OA
ATOM      9  H   UNL     1       8.830  13.763  30.219  1.00  0.00     0.293 HD
ENDBRANCH   3   8
BRANCH   5  10
ATOM     10  C   UNL     1      13.578  13.785  28.427  1.00  0.00     0.013 C 
ATOM     11  C   UNL     1      14.144  14.892  29.325  1.00  0.00     0.012 C 
ATOM     12  C   UNL     1      12.868  14.377  27.203  1.00  0.00     0.012 C 
ENDBRANCH   5  10
TORSDOF 2
ENDMDL
MODEL 3
REMARK VINA RESULT:     9.488      1.443      1.742
REMARK INTER + INTRA:          10.193
REMARK INTER:                  10.293
REMARK INTRA:                  -0.100
REMARK UNBOUND:                -0.127
REMARK SMILES Cc1ccc(C(C)C)cc1O
REMARK SMILES IDX 1 1 2 2 10 3 9 4 5 5 4 6 3 7 11 8 6 10 7 11 8 12
REMARK H PARENT 11 9
REMARK Flexibility Score: inf
ROOT
ATOM      1  C   UNL     1       9.732  10.583  31.531  1.00  0.00     0.048 C 
ATOM      2  C   UNL     1      10.778  11.436  30.870  1.00  0.00    -0.009 A 
ATOM      3  C   UNL     1      11.337  11.047  29.641  1.00  0.00     0.118 A 
ATOM      4  C   UNL     1      12.312  11.849  29.030  1.00  0.00     0.050 A 
ATOM      5  C   UNL     1      12.741  13.043  29.633  1.00  0.00    -0.042 A 
ATOM      6  C   UNL     1      12.175  13.424  30.864  1.00  0.00     0.004 A 
ATOM      7  C   UNL     1      11.203  12.629  31.475  1.00  0.00     0.007 A 
ENDROOT
BRANCH   3   8
ATOM      8  O   UNL     1      10.923   9.864  29.029  1.00  0.00    -0.508 OA
ATOM      9  H   UNL     1      11.463   9.011  29.102  1.00  0.00     0.293 HD
ENDBRANCH   3   8
BRANCH   5  10
ATOM     10  C   UNL     1      13.797  13.899  28.958  1.00  0.00     0.013 C 
ATOM     11  C   UNL     1      13.260  14.517  27.662  1.00  0.00     0.012 C 
ATOM     12  C   UNL     1      15.076  13.094  28.697  1.00  0.00     0.012 C 
ENDBRANCH   5  10
TORSDOF 2
ENDMDL
MODEL 4
REMARK VINA RESULT:    10.511      1.981      4.386
REMARK INTER + INTRA:          11.306
REMARK INTER:                  11.431
REMARK INTRA:                  -0.125
REMARK UNBOUND:                -0.127
REMARK SMILES Cc1ccc(C(C)C)cc1O
REMARK SMILES IDX 1 1 2 2 10 3 9 4 5 5 4 6 3 7 11 8 6 10 7 11 8 12
REMARK H PARENT 11 9
REMARK Flexibility Score: inf
ROOT
ATOM      1  C   UNL     1      12.738  14.876  26.319  1.00  0.00     0.048 C 
ATOM      2  C   UNL     1      12.404  14.011  27.502  1.00  0.00    -0.009 A 
ATOM      3  C   UNL     1      13.348  13.814  28.525  1.00  0.00     0.118 A 
ATOM      4  C   UNL     1      13.029  13.006  29.625  1.00  0.00     0.050 A 
ATOM      5  C   UNL     1      11.771  12.387  29.722  1.00  0.00    -0.042 A 
ATOM      6  C   UNL     1      10.833  12.591  28.694  1.00  0.00     0.004 A 
ATOM      7  C   UNL     1      11.146  13.395  27.596  1.00  0.00     0.007 A 
ENDROOT
BRANCH   3   8
ATOM      8  O   UNL     1      14.601  14.420  28.443  1.00  0.00    -0.508 OA
ATOM      9  H   UNL     1      15.117  14.461  27.572  1.00  0.00     0.293 HD
ENDBRANCH   3   8
BRANCH   5  10
ATOM     10  C   UNL     1      11.443  11.517  30.921  1.00  0.00     0.013 C 
ATOM     11  C   UNL     1      11.548  10.028  30.567  1.00  0.00     0.012 C 
ATOM     12  C   UNL     1      10.058  11.853  31.486  1.00  0.00     0.012 C 
ENDBRANCH   5  10
TORSDOF 2
ENDMDL
MODEL 5
REMARK VINA RESULT:    10.780      2.152      4.480
REMARK INTER + INTRA:          11.598
REMARK INTER:                  11.722
REMARK INTRA:                  -0.124
REMARK UNBOUND:                -0.127
REMARK SMILES Cc1ccc(C(C)C)cc1O
REMARK SMILES IDX 1 1 2 2 10 3 9 4 5 5 4 6 3 7 11 8 6 10 7 11 8 12
REMARK H PARENT 11 9
REMARK Flexibility Score: inf
ROOT
ATOM      1  C   UNL     1      16.125  12.649  28.635  1.00  0.00     0.048 C 
ATOM      2  C   UNL     1      14.705  12.364  29.037  1.00  0.00    -0.009 A 
ATOM      3  C   UNL     1      13.733  13.377  28.971  1.00  0.00     0.118 A 
ATOM      4  C   UNL     1      12.410  13.103  29.348  1.00  0.00     0.050 A 
ATOM      5  C   UNL     1      12.040  11.823  29.792  1.00  0.00    -0.042 A 
ATOM      6  C   UNL     1      13.021  10.815  29.854  1.00  0.00     0.004 A 
ATOM      7  C   UNL     1      14.339  11.084  29.480  1.00  0.00     0.007 A 
ENDROOT
BRANCH   3   8
ATOM      8  O   UNL     1      14.084  14.654  28.533  1.00  0.00    -0.508 OA
ATOM      9  H   UNL     1      14.332  14.834  27.568  1.00  0.00     0.293 HD
ENDBRANCH   3   8
BRANCH   5  10
ATOM     10  C   UNL     1      10.604  11.544  30.195  1.00  0.00     0.013 C 
ATOM     11  C   UNL     1       9.815  12.848  30.363  1.00  0.00     0.012 C 
ATOM     12  C   UNL     1      10.542  10.694  31.470  1.00  0.00     0.012 C 
ENDBRANCH   5  10
TORSDOF 2
ENDMDL
MODEL 6
REMARK VINA RESULT:    11.390      2.349      4.492
REMARK INTER + INTRA:          12.262
REMARK INTER:                  12.389
REMARK INTRA:                  -0.127
REMARK UNBOUND:                -0.127
REMARK SMILES Cc1ccc(C(C)C)cc1O
REMARK SMILES IDX 1 1 2 2 10 3 9 4 5 5 4 6 3 7 11 8 6 10 7 11 8 12
REMARK H PARENT 11 9
REMARK Flexibility Score: inf
ROOT
ATOM      1  C   UNL     1      14.233  16.076  30.414  1.00  0.00     0.048 C 
ATOM      2  C   UNL     1      13.359  14.859  30.296  1.00  0.00    -0.009 A 
ATOM      3  C   UNL     1      13.328  14.121  29.100  1.00  0.00     0.118 A 
ATOM      4  C   UNL     1      12.511  12.986  28.998  1.00  0.00     0.050 A 
ATOM      5  C   UNL     1      11.718  12.573  30.082  1.00  0.00    -0.042 A 
ATOM      6  C   UNL     1      11.756  13.318  31.276  1.00  0.00     0.004 A 
ATOM      7  C   UNL     1      12.569  14.448  31.381  1.00  0.00     0.007 A 
ENDROOT
BRANCH   3   8
ATOM      8  O   UNL     1      14.109  14.519  28.015  1.00  0.00    -0.508 OA
ATOM      9  H   UNL     1      15.037  14.141  27.862  1.00  0.00     0.293 HD
ENDBRANCH   3   8
BRANCH   5  10
ATOM     10  C   UNL     1      10.839  11.342  29.954  1.00  0.00     0.013 C 
ATOM     11  C   UNL     1      10.152  11.013  31.285  1.00  0.00     0.012 C 
ATOM     12  C   UNL     1      11.642  10.142  29.437  1.00  0.00     0.012 C 
ENDBRANCH   5  10
TORSDOF 2
ENDMDL
