MODEL 1
REMARK VINA RESULT:    -5.566      0.000      0.000
REMARK INTER + INTRA:          -7.235
REMARK INTER:                  -6.868
REMARK INTRA:                  -0.367
REMARK UNBOUND:                -0.367
REMARK SMILES Oc1cc(O)c2cc(O)c(-c3cc(O)c(O)c(O)c3)[o+]c2c1.[Cl-]
REMARK SMILES IDX 10 1 20 2 21 3 22 4 2 5 3 6 4 7 6 8 7 9 8 10 11 11 12 12
REMARK SMILES IDX 13 13 19 14 15 15 17 16 14 17 16 19 18 21 9 23 1 25 5 27
REMARK H PARENT 14 18 16 20 18 22 9 24 1 26 5 28
REMARK Flexibility Score: inf
ROOT
ATOM      1  C   UNL     1      18.910  22.110  15.430  1.00  0.00     0.402 A 
ATOM      2  O   UNL     1      19.770  22.105  16.445  1.00  0.00    -0.202 OA
ATOM      3  C   UNL     1      19.441  21.736  17.678  1.00  0.00     0.368 A 
ATOM      4  C   UNL     1      20.416  21.760  18.678  1.00  0.00     0.162 A 
ATOM      5  C   UNL     1      20.097  21.374  19.984  1.00  0.00     0.128 A 
ATOM      6  C   UNL     1      18.798  20.960  20.289  1.00  0.00     0.093 A 
ATOM      7  C   UNL     1      17.803  20.926  19.304  1.00  0.00     0.136 A 
ATOM      8  C   UNL     1      18.121  21.320  17.978  1.00  0.00     0.125 A 
ATOM      9  C   UNL     1      17.186  21.330  16.931  1.00  0.00     0.078 A 
ATOM     10  C   UNL     1      17.572  21.736  15.650  1.00  0.00     0.223 A 
ENDROOT
BRANCH   1  11
ATOM     11  C   UNL     1      19.401  22.534  14.098  1.00  0.00     0.091 A 
ATOM     12  C   UNL     1      19.730  21.596  13.107  1.00  0.00     0.068 A 
ATOM     13  C   UNL     1      20.213  22.017  11.862  1.00  0.00     0.162 A 
ATOM     14  C   UNL     1      19.596  23.898  13.837  1.00  0.00     0.068 A 
ATOM     15  C   UNL     1      20.386  23.383  11.595  1.00  0.00     0.200 A 
ATOM     16  C   UNL     1      20.078  24.333  12.597  1.00  0.00     0.162 A 
BRANCH  13  17
ATOM     17  O   UNL     1      20.531  21.079  10.881  1.00  0.00    -0.504 OA
ATOM     18  H   UNL     1      20.708  20.108  11.112  1.00  0.00     0.293 HD
ENDBRANCH  13  17
BRANCH  15  19
ATOM     19  O   UNL     1      20.864  23.749  10.334  1.00  0.00    -0.502 OA
ATOM     20  H   UNL     1      20.874  23.135   9.532  1.00  0.00     0.293 HD
ENDBRANCH  15  19
BRANCH  16  21
ATOM     21  O   UNL     1      20.235  25.708  12.406  1.00  0.00    -0.504 OA
ATOM     22  H   UNL     1      19.652  26.409  12.839  1.00  0.00     0.293 HD
ENDBRANCH  16  21
ENDBRANCH   1  11
BRANCH  10  23
ATOM     23  O   UNL     1      16.632  21.793  14.621  1.00  0.00    -0.500 OA
ATOM     24  H   UNL     1      16.130  20.969  14.311  1.00  0.00     0.294 HD
ENDBRANCH  10  23
BRANCH   5  25
ATOM     25  O   UNL     1      21.064  21.397  20.987  1.00  0.00    -0.507 OA
ATOM     26  H   UNL     1      21.240  20.589  21.571  1.00  0.00     0.293 HD
ENDBRANCH   5  25
BRANCH   7  27
ATOM     27  O   UNL     1      16.530  20.497  19.690  1.00  0.00    -0.507 OA
ATOM     28  H   UNL     1      16.317  19.567  20.021  1.00  0.00     0.293 HD
ENDBRANCH   7  27
TORSDOF 7
ENDMDL
MODEL 2
REMARK VINA RESULT:    -4.987      1.653      7.440
REMARK INTER + INTRA:          -6.520
REMARK INTER:                  -6.313
REMARK INTRA:                  -0.207
REMARK UNBOUND:                -0.367
REMARK SMILES Oc1cc(O)c2cc(O)c(-c3cc(O)c(O)c(O)c3)[o+]c2c1.[Cl-]
REMARK SMILES IDX 10 1 20 2 21 3 22 4 2 5 3 6 4 7 6 8 7 9 8 10 11 11 12 12
REMARK SMILES IDX 13 13 19 14 15 15 17 16 14 17 16 19 18 21 9 23 1 25 5 27
REMARK H PARENT 14 18 16 20 18 22 9 24 1 26 5 28
REMARK Flexibility Score: inf
ROOT
ATOM      1  C   UNL     1      18.970  22.010  14.345  1.00  0.00     0.402 A 
ATOM      2  O   UNL     1      18.904  21.117  13.361  1.00  0.00    -0.202 OA
ATOM      3  C   UNL     1      19.379  21.339  12.140  1.00  0.00     0.368 A 
ATOM      4  C   UNL     1      19.266  20.337  11.173  1.00  0.00     0.162 A 
ATOM      5  C   UNL     1      19.760  20.544   9.882  1.00  0.00     0.128 A 
ATOM      6  C   UNL     1      20.372  21.756   9.557  1.00  0.00     0.093 A 
ATOM      7  C   UNL     1      20.498  22.777  10.508  1.00  0.00     0.136 A 
ATOM      8  C   UNL     1      19.995  22.573  11.820  1.00  0.00     0.125 A 
ATOM      9  C   UNL     1      20.067  23.543  12.833  1.00  0.00     0.078 A 
ATOM     10  C   UNL     1      19.544  23.271  14.101  1.00  0.00     0.223 A 
ENDROOT
BRANCH   1  11
ATOM     11  C   UNL     1      18.413  21.640  15.666  1.00  0.00     0.091 A 
ATOM     12  C   UNL     1      19.213  21.626  16.819  1.00  0.00     0.068 A 
ATOM     13  C   UNL     1      18.672  21.251  18.055  1.00  0.00     0.162 A 
ATOM     14  C   UNL     1      17.072  21.240  15.762  1.00  0.00     0.068 A 
ATOM     15  C   UNL     1      17.324  20.874  18.153  1.00  0.00     0.200 A 
ATOM     16  C   UNL     1      16.518  20.864  16.991  1.00  0.00     0.162 A 
BRANCH  13  17
ATOM     17  O   UNL     1      19.471  21.246  19.197  1.00  0.00    -0.504 OA
ATOM     18  H   UNL     1      19.999  22.064  19.479  1.00  0.00     0.293 HD
ENDBRANCH  13  17
BRANCH  15  19
ATOM     19  O   UNL     1      16.833  20.517  19.411  1.00  0.00    -0.502 OA
ATOM     20  H   UNL     1      16.584  19.574  19.674  1.00  0.00     0.293 HD
ENDBRANCH  15  19
BRANCH  16  21
ATOM     21  O   UNL     1      15.172  20.490  17.009  1.00  0.00    -0.504 OA
ATOM     22  H   UNL     1      14.689  20.078  16.225  1.00  0.00     0.293 HD
ENDBRANCH  16  21
ENDBRANCH   1  11
BRANCH  10  23
ATOM     23  O   UNL     1      19.570  24.252  15.093  1.00  0.00    -0.500 OA
ATOM     24  H   UNL     1      18.839  24.323  15.791  1.00  0.00     0.294 HD
ENDBRANCH  10  23
BRANCH   5  25
ATOM     25  O   UNL     1      19.650  19.549   8.912  1.00  0.00    -0.507 OA
ATOM     26  H   UNL     1      19.056  19.664   8.100  1.00  0.00     0.293 HD
ENDBRANCH   5  25
BRANCH   7  27
ATOM     27  O   UNL     1      21.125  23.959  10.104  1.00  0.00    -0.507 OA
ATOM     28  H   UNL     1      20.921  24.449   9.246  1.00  0.00     0.293 HD
ENDBRANCH   7  27
TORSDOF 7
ENDMDL
MODEL 3
REMARK VINA RESULT:    -4.934      1.265      7.328
REMARK INTER + INTRA:          -6.455
REMARK INTER:                  -6.172
REMARK INTRA:                  -0.283
REMARK UNBOUND:                -0.367
REMARK SMILES Oc1cc(O)c2cc(O)c(-c3cc(O)c(O)c(O)c3)[o+]c2c1.[Cl-]
REMARK SMILES IDX 10 1 20 2 21 3 22 4 2 5 3 6 4 7 6 8 7 9 8 10 11 11 12 12
REMARK SMILES IDX 13 13 19 14 15 15 17 16 14 17 16 19 18 21 9 23 1 25 5 27
REMARK H PARENT 14 18 16 20 18 22 9 24 1 26 5 28
REMARK Flexibility Score: inf
ROOT
ATOM      1  C   UNL     1      19.735  22.348  16.641  1.00  0.00     0.402 A 
ATOM      2  O   UNL     1      19.526  21.519  15.623  1.00  0.00    -0.202 OA
ATOM      3  C   UNL     1      19.783  21.837  14.358  1.00  0.00     0.368 A 
ATOM      4  C   UNL     1      19.532  20.897  13.356  1.00  0.00     0.162 A 
ATOM      5  C   UNL     1      19.796  21.204  12.018  1.00  0.00     0.128 A 
ATOM      6  C   UNL     1      20.315  22.457  11.681  1.00  0.00     0.093 A 
ATOM      7  C   UNL     1      20.575  23.417  12.667  1.00  0.00     0.136 A 
ATOM      8  C   UNL     1      20.305  23.111  14.027  1.00  0.00     0.125 A 
ATOM      9  C   UNL     1      20.523  24.015  15.079  1.00  0.00     0.078 A 
ATOM     10  C   UNL     1      20.229  23.643  16.394  1.00  0.00     0.223 A 
ENDROOT
BRANCH   1  11
ATOM     11  C   UNL     1      19.418  21.874  18.008  1.00  0.00     0.091 A 
ATOM     12  C   UNL     1      20.426  21.665  18.962  1.00  0.00     0.068 A 
ATOM     13  C   UNL     1      20.107  21.194  20.241  1.00  0.00     0.162 A 
ATOM     14  C   UNL     1      18.090  21.571  18.342  1.00  0.00     0.068 A 
ATOM     15  C   UNL     1      18.775  20.915  20.581  1.00  0.00     0.200 A 
ATOM     16  C   UNL     1      17.756  21.101  19.618  1.00  0.00     0.162 A 
BRANCH  13  17
ATOM     17  O   UNL     1      21.113  20.995  21.185  1.00  0.00    -0.504 OA
ATOM     18  H   UNL     1      21.535  21.771  21.683  1.00  0.00     0.293 HD
ENDBRANCH  13  17
BRANCH  15  19
ATOM     19  O   UNL     1      18.511  20.454  21.874  1.00  0.00    -0.502 OA
ATOM     20  H   UNL     1      18.646  19.499  22.173  1.00  0.00     0.293 HD
ENDBRANCH  15  19
BRANCH  16  21
ATOM     21  O   UNL     1      16.411  20.833  19.880  1.00  0.00    -0.504 OA
ATOM     22  H   UNL     1      15.969  20.983  20.775  1.00  0.00     0.293 HD
ENDBRANCH  16  21
ENDBRANCH   1  11
BRANCH  10  23
ATOM     23  O   UNL     1      20.397  24.557  17.434  1.00  0.00    -0.500 OA
ATOM     24  H   UNL     1      20.775  25.484  17.273  1.00  0.00     0.294 HD
ENDBRANCH  10  23
BRANCH   5  25
ATOM     25  O   UNL     1      19.549  20.271  11.013  1.00  0.00    -0.507 OA
ATOM     26  H   UNL     1      19.468  20.547  10.042  1.00  0.00     0.293 HD
ENDBRANCH   5  25
BRANCH   7  27
ATOM     27  O   UNL     1      21.095  24.645  12.248  1.00  0.00    -0.507 OA
ATOM     28  H   UNL     1      22.079  24.840  12.138  1.00  0.00     0.293 HD
ENDBRANCH   7  27
TORSDOF 7
ENDMDL
MODEL 4
REMARK VINA RESULT:    -4.882      1.219      3.105
REMARK INTER + INTRA:          -6.390
REMARK INTER:                  -6.195
REMARK INTRA:                  -0.195
REMARK UNBOUND:                -0.367
REMARK SMILES Oc1cc(O)c2cc(O)c(-c3cc(O)c(O)c(O)c3)[o+]c2c1.[Cl-]
REMARK SMILES IDX 10 1 20 2 21 3 22 4 2 5 3 6 4 7 6 8 7 9 8 10 11 11 12 12
REMARK SMILES IDX 13 13 19 14 15 15 17 16 14 17 16 19 18 21 9 23 1 25 5 27
REMARK H PARENT 14 18 16 20 18 22 9 24 1 26 5 28
REMARK Flexibility Score: inf
ROOT
ATOM      1  C   UNL     1      19.414  22.568  15.499  1.00  0.00     0.402 A 
ATOM      2  O   UNL     1      18.451  21.674  15.707  1.00  0.00    -0.202 OA
ATOM      3  C   UNL     1      18.044  21.307  16.918  1.00  0.00     0.368 A 
ATOM      4  C   UNL     1      17.023  20.361  17.034  1.00  0.00     0.162 A 
ATOM      5  C   UNL     1      16.574  19.960  18.297  1.00  0.00     0.128 A 
ATOM      6  C   UNL     1      17.147  20.510  19.446  1.00  0.00     0.093 A 
ATOM      7  C   UNL     1      18.172  21.460  19.355  1.00  0.00     0.136 A 
ATOM      8  C   UNL     1      18.634  21.868  18.076  1.00  0.00     0.125 A 
ATOM      9  C   UNL     1      19.664  22.804  17.890  1.00  0.00     0.078 A 
ATOM     10  C   UNL     1      20.068  23.153  16.598  1.00  0.00     0.223 A 
ENDROOT
BRANCH   1  11
ATOM     11  C   UNL     1      19.772  22.900  14.100  1.00  0.00     0.091 A 
ATOM     12  C   UNL     1      19.686  24.214  13.616  1.00  0.00     0.068 A 
ATOM     13  C   UNL     1      20.008  24.503  12.284  1.00  0.00     0.162 A 
ATOM     14  C   UNL     1      20.151  21.873  13.223  1.00  0.00     0.068 A 
ATOM     15  C   UNL     1      20.409  23.478  11.415  1.00  0.00     0.200 A 
ATOM     16  C   UNL     1      20.476  22.148  11.890  1.00  0.00     0.162 A 
BRANCH  13  17
ATOM     17  O   UNL     1      19.926  25.813  11.812  1.00  0.00    -0.504 OA
ATOM     18  H   UNL     1      19.827  26.016  10.825  1.00  0.00     0.293 HD
ENDBRANCH  13  17
BRANCH  15  19
ATOM     19  O   UNL     1      20.726  23.823  10.098  1.00  0.00    -0.502 OA
ATOM     20  H   UNL     1      21.390  24.540   9.845  1.00  0.00     0.293 HD
ENDBRANCH  15  19
BRANCH  16  21
ATOM     21  O   UNL     1      20.856  21.075  11.079  1.00  0.00    -0.504 OA
ATOM     22  H   UNL     1      21.769  20.647  11.100  1.00  0.00     0.293 HD
ENDBRANCH  16  21
ENDBRANCH   1  11
BRANCH  10  23
ATOM     23  O   UNL     1      21.125  24.045  16.413  1.00  0.00    -0.500 OA
ATOM     24  H   UNL     1      20.966  25.019  16.183  1.00  0.00     0.294 HD
ENDBRANCH  10  23
BRANCH   5  25
ATOM     25  O   UNL     1      15.556  19.017  18.421  1.00  0.00    -0.507 OA
ATOM     26  H   UNL     1      15.058  18.665  17.611  1.00  0.00     0.293 HD
ENDBRANCH   5  25
BRANCH   7  27
ATOM     27  O   UNL     1      18.691  21.963  20.551  1.00  0.00    -0.507 OA
ATOM     28  H   UNL     1      19.671  22.135  20.721  1.00  0.00     0.293 HD
ENDBRANCH   7  27
TORSDOF 7
ENDMDL
MODEL 5
REMARK VINA RESULT:    -4.629      8.908     11.161
REMARK INTER + INTRA:          -6.079
REMARK INTER:                  -5.760
REMARK INTRA:                  -0.319
REMARK UNBOUND:                -0.367
REMARK SMILES Oc1cc(O)c2cc(O)c(-c3cc(O)c(O)c(O)c3)[o+]c2c1.[Cl-]
REMARK SMILES IDX 10 1 20 2 21 3 22 4 2 5 3 6 4 7 6 8 7 9 8 10 11 11 12 12
REMARK SMILES IDX 13 13 19 14 15 15 17 16 14 17 16 19 18 21 9 23 1 25 5 27
REMARK H PARENT 14 18 16 20 18 22 9 24 1 26 5 28
REMARK Flexibility Score: inf
ROOT
ATOM      1  C   UNL     1      16.633  19.045   6.309  1.00  0.00     0.402 A 
ATOM      2  O   UNL     1      16.706  17.789   5.878  1.00  0.00    -0.202 OA
ATOM      3  C   UNL     1      17.128  16.781   6.633  1.00  0.00     0.368 A 
ATOM      4  C   UNL     1      17.167  15.494   6.090  1.00  0.00     0.162 A 
ATOM      5  C   UNL     1      17.604  14.415   6.865  1.00  0.00     0.128 A 
ATOM      6  C   UNL     1      18.001  14.623   8.188  1.00  0.00     0.093 A 
ATOM      7  C   UNL     1      17.971  15.904   8.755  1.00  0.00     0.136 A 
ATOM      8  C   UNL     1      17.532  17.003   7.972  1.00  0.00     0.125 A 
ATOM      9  C   UNL     1      17.480  18.321   8.453  1.00  0.00     0.078 A 
ATOM     10  C   UNL     1      17.040  19.354   7.620  1.00  0.00     0.223 A 
ENDROOT
BRANCH   1  11
ATOM     11  C   UNL     1      16.137  20.080   5.374  1.00  0.00     0.091 A 
ATOM     12  C   UNL     1      14.775  20.178   5.047  1.00  0.00     0.068 A 
ATOM     13  C   UNL     1      14.330  21.150   4.142  1.00  0.00     0.162 A 
ATOM     14  C   UNL     1      17.050  20.946   4.755  1.00  0.00     0.068 A 
ATOM     15  C   UNL     1      15.243  22.031   3.543  1.00  0.00     0.200 A 
ATOM     16  C   UNL     1      16.619  21.923   3.850  1.00  0.00     0.162 A 
BRANCH  13  17
ATOM     17  O   UNL     1      12.975  21.245   3.827  1.00  0.00    -0.504 OA
ATOM     18  H   UNL     1      12.263  20.826   4.414  1.00  0.00     0.293 HD
ENDBRANCH  13  17
BRANCH  15  19
ATOM     19  O   UNL     1      14.744  22.986   2.653  1.00  0.00    -0.502 OA
ATOM     20  H   UNL     1      13.985  22.818   2.009  1.00  0.00     0.293 HD
ENDBRANCH  15  19
BRANCH  16  21
ATOM     21  O   UNL     1      17.586  22.757   3.284  1.00  0.00    -0.504 OA
ATOM     22  H   UNL     1      18.548  22.488   3.136  1.00  0.00     0.293 HD
ENDBRANCH  16  21
ENDBRANCH   1  11
BRANCH  10  23
ATOM     23  O   UNL     1      17.036  20.671   8.081  1.00  0.00    -0.500 OA
ATOM     24  H   UNL     1      17.737  21.341   7.786  1.00  0.00     0.294 HD
ENDBRANCH  10  23
BRANCH   5  25
ATOM     25  O   UNL     1      17.645  13.129   6.330  1.00  0.00    -0.507 OA
ATOM     26  H   UNL     1      17.645  12.971   5.329  1.00  0.00     0.293 HD
ENDBRANCH   5  25
BRANCH   7  27
ATOM     27  O   UNL     1      18.382  16.028  10.085  1.00  0.00    -0.507 OA
ATOM     28  H   UNL     1      18.060  16.745  10.718  1.00  0.00     0.293 HD
ENDBRANCH   7  27
TORSDOF 7
ENDMDL
MODEL 6
REMARK VINA RESULT:    -4.576     11.306     13.160
REMARK INTER + INTRA:          -6.013
REMARK INTER:                  -5.740
REMARK INTRA:                  -0.273
REMARK UNBOUND:                -0.367
REMARK SMILES Oc1cc(O)c2cc(O)c(-c3cc(O)c(O)c(O)c3)[o+]c2c1.[Cl-]
REMARK SMILES IDX 10 1 20 2 21 3 22 4 2 5 3 6 4 7 6 8 7 9 8 10 11 11 12 12
REMARK SMILES IDX 13 13 19 14 15 15 17 16 14 17 16 19 18 21 9 23 1 25 5 27
REMARK H PARENT 14 18 16 20 18 22 9 24 1 26 5 28
REMARK Flexibility Score: inf
ROOT
ATOM      1  C   UNL     1      15.307  18.060   4.946  1.00  0.00     0.402 A 
ATOM      2  O   UNL     1      15.770  17.173   4.070  1.00  0.00    -0.202 OA
ATOM      3  C   UNL     1      15.999  15.899   4.372  1.00  0.00     0.368 A 
ATOM      4  C   UNL     1      16.484  15.042   3.381  1.00  0.00     0.162 A 
ATOM      5  C   UNL     1      16.729  13.696   3.672  1.00  0.00     0.128 A 
ATOM      6  C   UNL     1      16.486  13.206   4.957  1.00  0.00     0.093 A 
ATOM      7  C   UNL     1      16.000  14.046   5.967  1.00  0.00     0.136 A 
ATOM      8  C   UNL     1      15.752  15.413   5.679  1.00  0.00     0.125 A 
ATOM      9  C   UNL     1      15.276  16.329   6.631  1.00  0.00     0.078 A 
ATOM     10  C   UNL     1      15.060  17.663   6.273  1.00  0.00     0.223 A 
ENDROOT
BRANCH   1  11
ATOM     11  C   UNL     1      15.084  19.450   4.485  1.00  0.00     0.091 A 
ATOM     12  C   UNL     1      14.057  19.766   3.583  1.00  0.00     0.068 A 
ATOM     13  C   UNL     1      13.878  21.083   3.142  1.00  0.00     0.162 A 
ATOM     14  C   UNL     1      15.952  20.466   4.913  1.00  0.00     0.068 A 
ATOM     15  C   UNL     1      14.732  22.101   3.590  1.00  0.00     0.200 A 
ATOM     16  C   UNL     1      15.784  21.787   4.481  1.00  0.00     0.162 A 
BRANCH  13  17
ATOM     17  O   UNL     1      12.851  21.390   2.251  1.00  0.00    -0.504 OA
ATOM     18  H   UNL     1      12.927  21.184   1.261  1.00  0.00     0.293 HD
ENDBRANCH  13  17
BRANCH  15  19
ATOM     19  O   UNL     1      14.505  23.399   3.125  1.00  0.00    -0.502 OA
ATOM     20  H   UNL     1      13.587  23.798   2.986  1.00  0.00     0.293 HD
ENDBRANCH  15  19
BRANCH  16  21
ATOM     21  O   UNL     1      16.680  22.745   4.960  1.00  0.00    -0.504 OA
ATOM     22  H   UNL     1      17.094  22.723   5.880  1.00  0.00     0.293 HD
ENDBRANCH  16  21
ENDBRANCH   1  11
BRANCH  10  23
ATOM     23  O   UNL     1      14.636  18.584   7.231  1.00  0.00    -0.500 OA
ATOM     24  H   UNL     1      14.133  19.426   6.974  1.00  0.00     0.294 HD
ENDBRANCH  10  23
BRANCH   5  25
ATOM     25  O   UNL     1      17.214  12.835   2.689  1.00  0.00    -0.507 OA
ATOM     26  H   UNL     1      16.687  12.024   2.389  1.00  0.00     0.293 HD
ENDBRANCH   5  25
BRANCH   7  27
ATOM     27  O   UNL     1      15.781  13.478   7.225  1.00  0.00    -0.507 OA
ATOM     28  H   UNL     1      14.897  13.102   7.536  1.00  0.00     0.293 HD
ENDBRANCH   7  27
TORSDOF 7
ENDMDL
MODEL 7
REMARK VINA RESULT:    -4.573      7.301     11.840
REMARK INTER + INTRA:          -6.009
REMARK INTER:                  -5.729
REMARK INTRA:                  -0.280
REMARK UNBOUND:                -0.367
REMARK SMILES Oc1cc(O)c2cc(O)c(-c3cc(O)c(O)c(O)c3)[o+]c2c1.[Cl-]
REMARK SMILES IDX 10 1 20 2 21 3 22 4 2 5 3 6 4 7 6 8 7 9 8 10 11 11 12 12
REMARK SMILES IDX 13 13 19 14 15 15 17 16 14 17 16 19 18 21 9 23 1 25 5 27
REMARK H PARENT 14 18 16 20 18 22 9 24 1 26 5 28
REMARK Flexibility Score: inf
ROOT
ATOM      1  C   UNL     1      17.059  21.110   6.471  1.00  0.00     0.402 A 
ATOM      2  O   UNL     1      16.174  20.302   5.893  1.00  0.00    -0.202 OA
ATOM      3  C   UNL     1      15.505  20.621   4.790  1.00  0.00     0.368 A 
ATOM      4  C   UNL     1      14.598  19.704   4.256  1.00  0.00     0.162 A 
ATOM      5  C   UNL     1      13.883  20.013   3.094  1.00  0.00     0.128 A 
ATOM      6  C   UNL     1      14.080  21.244   2.463  1.00  0.00     0.093 A 
ATOM      7  C   UNL     1      14.985  22.181   2.980  1.00  0.00     0.136 A 
ATOM      8  C   UNL     1      15.710  21.873   4.160  1.00  0.00     0.125 A 
ATOM      9  C   UNL     1      16.627  22.754   4.754  1.00  0.00     0.078 A 
ATOM     10  C   UNL     1      17.301  22.383   5.921  1.00  0.00     0.223 A 
ENDROOT
BRANCH   1  11
ATOM     11  C   UNL     1      17.748  20.636   7.693  1.00  0.00     0.091 A 
ATOM     12  C   UNL     1      19.126  20.374   7.701  1.00  0.00     0.068 A 
ATOM     13  C   UNL     1      19.754  19.904   8.862  1.00  0.00     0.162 A 
ATOM     14  C   UNL     1      17.000  20.388   8.854  1.00  0.00     0.068 A 
ATOM     15  C   UNL     1      19.008  19.680  10.028  1.00  0.00     0.200 A 
ATOM     16  C   UNL     1      17.614  19.920  10.021  1.00  0.00     0.162 A 
BRANCH  13  17
ATOM     17  O   UNL     1      21.125  19.653   8.863  1.00  0.00    -0.504 OA
ATOM     18  H   UNL     1      21.752  20.132   9.499  1.00  0.00     0.293 HD
ENDBRANCH  13  17
BRANCH  15  19
ATOM     19  O   UNL     1      19.685  19.218  11.161  1.00  0.00    -0.502 OA
ATOM     20  H   UNL     1      19.671  19.684  12.057  1.00  0.00     0.293 HD
ENDBRANCH  15  19
BRANCH  16  21
ATOM     21  O   UNL     1      16.806  19.709  11.141  1.00  0.00    -0.504 OA
ATOM     22  H   UNL     1      16.017  19.079  11.158  1.00  0.00     0.293 HD
ENDBRANCH  16  21
ENDBRANCH   1  11
BRANCH  10  23
ATOM     23  O   UNL     1      18.174  23.277   6.540  1.00  0.00    -0.500 OA
ATOM     24  H   UNL     1      19.112  23.435   6.190  1.00  0.00     0.294 HD
ENDBRANCH  10  23
BRANCH   5  25
ATOM     25  O   UNL     1      12.976  19.103   2.556  1.00  0.00    -0.507 OA
ATOM     26  H   UNL     1      12.491  18.431   3.139  1.00  0.00     0.293 HD
ENDBRANCH   5  25
BRANCH   7  27
ATOM     27  O   UNL     1      15.125  23.387   2.288  1.00  0.00    -0.507 OA
ATOM     28  H   UNL     1      14.555  23.665   1.503  1.00  0.00     0.293 HD
ENDBRANCH   7  27
TORSDOF 7
ENDMDL
MODEL 8
REMARK VINA RESULT:    -4.533      9.986     12.177
REMARK INTER + INTRA:          -5.960
REMARK INTER:                  -5.653
REMARK INTRA:                  -0.307
REMARK UNBOUND:                -0.367
REMARK SMILES Oc1cc(O)c2cc(O)c(-c3cc(O)c(O)c(O)c3)[o+]c2c1.[Cl-]
REMARK SMILES IDX 10 1 20 2 21 3 22 4 2 5 3 6 4 7 6 8 7 9 8 10 11 11 12 12
REMARK SMILES IDX 13 13 19 14 15 15 17 16 14 17 16 19 18 21 9 23 1 25 5 27
REMARK H PARENT 14 18 16 20 18 22 9 24 1 26 5 28
REMARK Flexibility Score: inf
ROOT
ATOM      1  C   UNL     1      15.210  18.940   4.767  1.00  0.00     0.402 A 
ATOM      2  O   UNL     1      15.882  18.800   5.906  1.00  0.00    -0.202 OA
ATOM      3  C   UNL     1      16.199  17.619   6.427  1.00  0.00     0.368 A 
ATOM      4  C   UNL     1      16.911  17.574   7.628  1.00  0.00     0.162 A 
ATOM      5  C   UNL     1      17.260  16.345   8.196  1.00  0.00     0.128 A 
ATOM      6  C   UNL     1      16.899  15.156   7.557  1.00  0.00     0.093 A 
ATOM      7  C   UNL     1      16.186  15.175   6.351  1.00  0.00     0.136 A 
ATOM      8  C   UNL     1      15.826  16.419   5.773  1.00  0.00     0.125 A 
ATOM      9  C   UNL     1      15.102  16.533   4.576  1.00  0.00     0.078 A 
ATOM     10  C   UNL     1      14.779  17.796   4.069  1.00  0.00     0.223 A 
ENDROOT
BRANCH   1  11
ATOM     11  C   UNL     1      14.924  20.311   4.286  1.00  0.00     0.091 A 
ATOM     12  C   UNL     1      13.635  20.861   4.368  1.00  0.00     0.068 A 
ATOM     13  C   UNL     1      13.381  22.151   3.886  1.00  0.00     0.162 A 
ATOM     14  C   UNL     1      15.946  21.057   3.683  1.00  0.00     0.068 A 
ATOM     15  C   UNL     1      14.411  22.905   3.305  1.00  0.00     0.200 A 
ATOM     16  C   UNL     1      15.707  22.348   3.198  1.00  0.00     0.162 A 
BRANCH  13  17
ATOM     17  O   UNL     1      12.100  22.692   3.977  1.00  0.00    -0.504 OA
ATOM     18  H   UNL     1      11.870  23.400   4.665  1.00  0.00     0.293 HD
ENDBRANCH  13  17
BRANCH  15  19
ATOM     19  O   UNL     1      14.105  24.189   2.847  1.00  0.00    -0.502 OA
ATOM     20  H   UNL     1      13.666  24.902   3.412  1.00  0.00     0.293 HD
ENDBRANCH  15  19
BRANCH  16  21
ATOM     21  O   UNL     1      16.778  23.035   2.621  1.00  0.00    -0.504 OA
ATOM     22  H   UNL     1      17.288  23.774   3.080  1.00  0.00     0.293 HD
ENDBRANCH  16  21
ENDBRANCH   1  11
BRANCH  10  23
ATOM     23  O   UNL     1      14.017  17.910   2.906  1.00  0.00    -0.500 OA
ATOM     24  H   UNL     1      13.473  18.740   2.705  1.00  0.00     0.294 HD
ENDBRANCH  10  23
BRANCH   5  25
ATOM     25  O   UNL     1      17.969  16.293   9.394  1.00  0.00    -0.507 OA
ATOM     26  H   UNL     1      18.854  16.772   9.507  1.00  0.00     0.293 HD
ENDBRANCH   5  25
BRANCH   7  27
ATOM     27  O   UNL     1      15.865  13.942   5.775  1.00  0.00    -0.507 OA
ATOM     28  H   UNL     1      14.968  13.718   5.370  1.00  0.00     0.293 HD
ENDBRANCH   7  27
TORSDOF 7
ENDMDL
MODEL 9
REMARK VINA RESULT:    -4.514      7.580     11.808
REMARK INTER + INTRA:          -5.937
REMARK INTER:                  -5.560
REMARK INTRA:                  -0.377
REMARK UNBOUND:                -0.367
REMARK SMILES Oc1cc(O)c2cc(O)c(-c3cc(O)c(O)c(O)c3)[o+]c2c1.[Cl-]
REMARK SMILES IDX 10 1 20 2 21 3 22 4 2 5 3 6 4 7 6 8 7 9 8 10 11 11 12 12
REMARK SMILES IDX 13 13 19 14 15 15 17 16 14 17 16 19 18 21 9 23 1 25 5 27
REMARK H PARENT 14 18 16 20 18 22 9 24 1 26 5 28
REMARK Flexibility Score: inf
ROOT
ATOM      1  C   UNL     1      16.438  19.705   6.550  1.00  0.00     0.402 A 
ATOM      2  O   UNL     1      16.319  20.876   5.931  1.00  0.00    -0.202 OA
ATOM      3  C   UNL     1      15.530  21.069   4.879  1.00  0.00     0.368 A 
ATOM      4  C   UNL     1      15.470  22.338   4.298  1.00  0.00     0.162 A 
ATOM      5  C   UNL     1      14.646  22.569   3.192  1.00  0.00     0.128 A 
ATOM      6  C   UNL     1      13.877  21.528   2.668  1.00  0.00     0.093 A 
ATOM      7  C   UNL     1      13.920  20.247   3.233  1.00  0.00     0.136 A 
ATOM      8  C   UNL     1      14.757  20.006   4.353  1.00  0.00     0.125 A 
ATOM      9  C   UNL     1      14.872  18.753   4.975  1.00  0.00     0.078 A 
ATOM     10  C   UNL     1      15.723  18.591   6.073  1.00  0.00     0.223 A 
ENDROOT
BRANCH   1  11
ATOM     11  C   UNL     1      17.344  19.618   7.718  1.00  0.00     0.091 A 
ATOM     12  C   UNL     1      18.711  19.341   7.564  1.00  0.00     0.068 A 
ATOM     13  C   UNL     1      19.547  19.241   8.684  1.00  0.00     0.162 A 
ATOM     14  C   UNL     1      16.818  19.759   9.011  1.00  0.00     0.068 A 
ATOM     15  C   UNL     1      19.023  19.406   9.975  1.00  0.00     0.200 A 
ATOM     16  C   UNL     1      17.642  19.663  10.139  1.00  0.00     0.162 A 
BRANCH  13  17
ATOM     17  O   UNL     1      20.905  18.972   8.522  1.00  0.00    -0.504 OA
ATOM     18  H   UNL     1      21.293  18.058   8.723  1.00  0.00     0.293 HD
ENDBRANCH  13  17
BRANCH  15  19
ATOM     19  O   UNL     1      19.902  19.303  11.057  1.00  0.00    -0.502 OA
ATOM     20  H   UNL     1      19.608  19.274  12.023  1.00  0.00     0.293 HD
ENDBRANCH  15  19
BRANCH  16  21
ATOM     21  O   UNL     1      17.048  19.826  11.392  1.00  0.00    -0.504 OA
ATOM     22  H   UNL     1      17.021  20.701  11.895  1.00  0.00     0.293 HD
ENDBRANCH  16  21
ENDBRANCH   1  11
BRANCH  10  23
ATOM     23  O   UNL     1      15.876  17.335   6.661  1.00  0.00    -0.500 OA
ATOM     24  H   UNL     1      15.165  16.617   6.578  1.00  0.00     0.294 HD
ENDBRANCH  10  23
BRANCH   5  25
ATOM     25  O   UNL     1      14.581  23.832   2.608  1.00  0.00    -0.507 OA
ATOM     26  H   UNL     1      14.277  24.644   3.132  1.00  0.00     0.293 HD
ENDBRANCH   5  25
BRANCH   7  27
ATOM     27  O   UNL     1      13.118  19.260   2.651  1.00  0.00    -0.507 OA
ATOM     28  H   UNL     1      13.285  18.852   1.743  1.00  0.00     0.293 HD
ENDBRANCH   7  27
TORSDOF 7
ENDMDL
