MODEL 1
REMARK VINA RESULT:    -5.359      0.000      0.000
REMARK INTER + INTRA:          -8.855
REMARK INTER:                  -8.335
REMARK INTRA:                  -0.520
REMARK UNBOUND:                -0.520
REMARK SMILES COc1cc(CNC(=O)CCCCC=CC(C)C)ccc1O
REMARK SMILES IDX 11 1 12 2 13 3 14 4 15 5 16 6 17 7 18 8 10 9 8 10 9 11 7 12
REMARK SMILES IDX 6 14 5 15 4 16 19 17 3 18 20 19 21 20 2 21 1 22 22 23
REMARK H PARENT 7 13 22 24
REMARK Flexibility Score: inf
ROOT
ATOM      1  C   UNL     1     115.214 256.926 346.777  1.00  0.00     0.010 C 
ENDROOT
BRANCH   1   2
ATOM      2  C   UNL     1     115.561 258.399 347.037  1.00  0.00     0.005 C 
BRANCH   2   3
ATOM      3  C   UNL     1     116.866 258.568 347.832  1.00  0.00     0.027 C 
BRANCH   3   4
ATOM      4  C   UNL     1     116.591 259.058 349.227  1.00  0.00    -0.031 C 
ATOM      5  C   UNL     1     116.442 258.207 350.257  1.00  0.00    -0.028 C 
BRANCH   5   6
ATOM      6  C   UNL     1     116.159 258.671 351.668  1.00  0.00     0.005 C 
ATOM      7  C   UNL     1     115.289 257.661 352.428  1.00  0.00     0.012 C 
ATOM      8  C   UNL     1     117.456 258.969 352.429  1.00  0.00     0.012 C 
ENDBRANCH   5   6
ENDBRANCH   3   4
ENDBRANCH   2   3
ENDBRANCH   1   2
BRANCH   1   9
ATOM      9  C   UNL     1     113.929 256.758 345.956  1.00  0.00     0.100 C 
BRANCH   9  10
ATOM     10  C   UNL     1     114.090 255.652 344.957  1.00  0.00     0.220 C 
ATOM     11  O   UNL     1     113.473 254.567 345.129  1.00  0.00    -0.275 OA
ATOM     12  N   UNL     1     114.904 255.846 343.792  1.00  0.00    -0.352 N 
ATOM     13  H   UNL     1     115.364 256.772 343.642  1.00  0.00     0.163 HD
BRANCH  12  14
ATOM     14  C   UNL     1     115.059 254.818 342.765  1.00  0.00     0.151 C 
BRANCH  14  15
ATOM     15  C   UNL     1     116.090 255.240 341.753  1.00  0.00    -0.025 A 
ATOM     16  C   UNL     1     115.717 255.983 340.621  1.00  0.00     0.056 A 
ATOM     17  C   UNL     1     117.432 254.873 341.926  1.00  0.00     0.009 A 
ATOM     18  C   UNL     1     116.681 256.365 339.666  1.00  0.00     0.160 A 
ATOM     19  C   UNL     1     118.391 255.248 340.982  1.00  0.00     0.050 A 
ATOM     20  C   UNL     1     118.020 255.992 339.855  1.00  0.00     0.157 A 
BRANCH  18  21
ATOM     21  O   UNL     1     116.348 257.108 338.522  1.00  0.00    -0.493 OA
ATOM     22  C   UNL     1     115.019 257.450 338.144  1.00  0.00     0.278 C 
ENDBRANCH  18  21
BRANCH  20  23
ATOM     23  O   UNL     1     118.978 256.367 338.914  1.00  0.00    -0.504 OA
ATOM     24  H   UNL     1     119.917 256.628 339.189  1.00  0.00     0.293 HD
ENDBRANCH  20  23
ENDBRANCH  14  15
ENDBRANCH  12  14
ENDBRANCH   9  10
ENDBRANCH   1   9
TORSDOF 10
ENDMDL
MODEL 2
REMARK VINA RESULT:    -5.125      2.786     10.397
REMARK INTER + INTRA:          -8.490
REMARK INTER:                  -7.915
REMARK INTRA:                  -0.575
REMARK UNBOUND:                -0.520
REMARK SMILES COc1cc(CNC(=O)CCCCC=CC(C)C)ccc1O
REMARK SMILES IDX 11 1 12 2 13 3 14 4 15 5 16 6 17 7 18 8 10 9 8 10 9 11 7 12
REMARK SMILES IDX 6 14 5 15 4 16 19 17 3 18 20 19 21 20 2 21 1 22 22 23
REMARK H PARENT 7 13 22 24
REMARK Flexibility Score: inf
ROOT
ATOM      1  C   UNL     1     115.142 256.921 338.461  1.00  0.00     0.010 C 
ENDROOT
BRANCH   1   2
ATOM      2  C   UNL     1     114.532 258.227 337.929  1.00  0.00     0.005 C 
BRANCH   2   3
ATOM      3  C   UNL     1     113.123 258.027 337.347  1.00  0.00     0.027 C 
BRANCH   3   4
ATOM      4  C   UNL     1     113.115 258.254 335.860  1.00  0.00    -0.031 C 
ATOM      5  C   UNL     1     113.196 257.232 334.990  1.00  0.00    -0.028 C 
BRANCH   5   6
ATOM      6  C   UNL     1     113.197 257.431 333.491  1.00  0.00     0.005 C 
ATOM      7  C   UNL     1     112.675 258.822 333.109  1.00  0.00     0.012 C 
ATOM      8  C   UNL     1     114.585 257.175 332.894  1.00  0.00     0.012 C 
ENDBRANCH   5   6
ENDBRANCH   3   4
ENDBRANCH   2   3
ENDBRANCH   1   2
BRANCH   1   9
ATOM      9  C   UNL     1     116.612 257.080 338.870  1.00  0.00     0.100 C 
BRANCH   9  10
ATOM     10  C   UNL     1     116.939 256.157 340.005  1.00  0.00     0.220 C 
ATOM     11  O   UNL     1     118.110 255.704 340.118  1.00  0.00    -0.275 OA
ATOM     12  N   UNL     1     115.939 255.830 340.979  1.00  0.00    -0.352 N 
ATOM     13  H   UNL     1     114.989 256.259 340.897  1.00  0.00     0.163 HD
BRANCH  12  14
ATOM     14  C   UNL     1     116.216 254.971 342.129  1.00  0.00     0.151 C 
BRANCH  14  15
ATOM     15  C   UNL     1     115.040 254.958 343.068  1.00  0.00    -0.025 A 
ATOM     16  C   UNL     1     115.052 255.733 344.239  1.00  0.00     0.056 A 
ATOM     17  C   UNL     1     113.930 254.150 342.787  1.00  0.00     0.009 A 
ATOM     18  C   UNL     1     113.956 255.708 345.126  1.00  0.00     0.160 A 
ATOM     19  C   UNL     1     112.842 254.120 343.663  1.00  0.00     0.050 A 
ATOM     20  C   UNL     1     112.851 254.897 344.829  1.00  0.00     0.157 A 
BRANCH  18  21
ATOM     21  O   UNL     1     113.930 256.468 346.305  1.00  0.00    -0.493 OA
ATOM     22  C   UNL     1     114.978 257.335 346.727  1.00  0.00     0.278 C 
ENDBRANCH  18  21
BRANCH  20  23
ATOM     23  O   UNL     1     111.764 254.867 345.701  1.00  0.00    -0.504 OA
ATOM     24  H   UNL     1     110.897 254.408 345.452  1.00  0.00     0.293 HD
ENDBRANCH  20  23
ENDBRANCH  14  15
ENDBRANCH  12  14
ENDBRANCH   9  10
ENDBRANCH   1   9
TORSDOF 10
ENDMDL
MODEL 3
REMARK VINA RESULT:    -4.620      4.075      7.215
REMARK INTER + INTRA:          -7.706
REMARK INTER:                  -7.389
REMARK INTRA:                  -0.316
REMARK UNBOUND:                -0.520
REMARK SMILES COc1cc(CNC(=O)CCCCC=CC(C)C)ccc1O
REMARK SMILES IDX 11 1 12 2 13 3 14 4 15 5 16 6 17 7 18 8 10 9 8 10 9 11 7 12
REMARK SMILES IDX 6 14 5 15 4 16 19 17 3 18 20 19 21 20 2 21 1 22 22 23
REMARK H PARENT 7 13 22 24
REMARK Flexibility Score: inf
ROOT
ATOM      1  C   UNL     1     117.985 255.397 340.806  1.00  0.00     0.010 C 
ENDROOT
BRANCH   1   2
ATOM      2  C   UNL     1     117.142 254.989 342.024  1.00  0.00     0.005 C 
BRANCH   2   3
ATOM      3  C   UNL     1     115.639 255.230 341.812  1.00  0.00     0.027 C 
BRANCH   3   4
ATOM      4  C   UNL     1     114.937 255.455 343.123  1.00  0.00    -0.031 C 
ATOM      5  C   UNL     1     113.884 254.706 343.496  1.00  0.00    -0.028 C 
BRANCH   5   6
ATOM      6  C   UNL     1     113.154 254.914 344.804  1.00  0.00     0.005 C 
ATOM      7  C   UNL     1     113.800 256.029 345.637  1.00  0.00     0.012 C 
ATOM      8  C   UNL     1     111.663 255.185 344.575  1.00  0.00     0.012 C 
ENDBRANCH   5   6
ENDBRANCH   3   4
ENDBRANCH   2   3
ENDBRANCH   1   2
BRANCH   1   9
ATOM      9  C   UNL     1     117.202 255.309 339.490  1.00  0.00     0.100 C 
BRANCH   9  10
ATOM     10  C   UNL     1     116.595 256.638 339.155  1.00  0.00     0.220 C 
ATOM     11  O   UNL     1     117.224 257.694 339.431  1.00  0.00    -0.275 OA
ATOM     12  N   UNL     1     115.329 256.702 338.483  1.00  0.00    -0.352 N 
ATOM     13  H   UNL     1     114.849 255.813 338.216  1.00  0.00     0.163 HD
BRANCH  12  14
ATOM     14  C   UNL     1     114.713 257.969 338.094  1.00  0.00     0.151 C 
BRANCH  14  15
ATOM     15  C   UNL     1     113.871 257.785 336.860  1.00  0.00    -0.025 A 
ATOM     16  C   UNL     1     114.391 258.081 335.589  1.00  0.00     0.056 A 
ATOM     17  C   UNL     1     112.549 257.334 336.977  1.00  0.00     0.009 A 
ATOM     18  C   UNL     1     113.595 257.922 334.436  1.00  0.00     0.160 A 
ATOM     19  C   UNL     1     111.756 257.175 335.837  1.00  0.00     0.050 A 
ATOM     20  C   UNL     1     112.276 257.467 334.569  1.00  0.00     0.157 A 
BRANCH  18  21
ATOM     21  O   UNL     1     114.078 258.206 333.149  1.00  0.00    -0.493 OA
ATOM     22  C   UNL     1     115.211 259.025 332.878  1.00  0.00     0.278 C 
ENDBRANCH  18  21
BRANCH  20  23
ATOM     23  O   UNL     1     111.484 257.307 333.433  1.00  0.00    -0.504 OA
ATOM     24  H   UNL     1     110.890 258.052 333.092  1.00  0.00     0.293 HD
ENDBRANCH  20  23
ENDBRANCH  14  15
ENDBRANCH  12  14
ENDBRANCH   9  10
ENDBRANCH   1   9
TORSDOF 10
ENDMDL
MODEL 4
REMARK VINA RESULT:    -4.414      2.848      9.164
REMARK INTER + INTRA:          -7.386
REMARK INTER:                  -6.953
REMARK INTRA:                  -0.433
REMARK UNBOUND:                -0.520
REMARK SMILES COc1cc(CNC(=O)CCCCC=CC(C)C)ccc1O
REMARK SMILES IDX 11 1 12 2 13 3 14 4 15 5 16 6 17 7 18 8 10 9 8 10 9 11 7 12
REMARK SMILES IDX 6 14 5 15 4 16 19 17 3 18 20 19 21 20 2 21 1 22 22 23
REMARK H PARENT 7 13 22 24
REMARK Flexibility Score: inf
ROOT
ATOM      1  C   UNL     1     113.671 254.376 343.929  1.00  0.00     0.010 C 
ENDROOT
BRANCH   1   2
ATOM      2  C   UNL     1     114.376 255.365 342.988  1.00  0.00     0.005 C 
BRANCH   2   3
ATOM      3  C   UNL     1     115.833 254.970 342.698  1.00  0.00     0.027 C 
BRANCH   3   4
ATOM      4  C   UNL     1     116.375 255.728 341.517  1.00  0.00    -0.031 C 
ATOM      5  C   UNL     1     117.464 255.308 340.850  1.00  0.00    -0.028 C 
BRANCH   5   6
ATOM      6  C   UNL     1     118.035 256.052 339.664  1.00  0.00     0.005 C 
ATOM      7  C   UNL     1     116.949 256.836 338.917  1.00  0.00     0.012 C 
ATOM      8  C   UNL     1     119.191 256.969 340.084  1.00  0.00     0.012 C 
ENDBRANCH   5   6
ENDBRANCH   3   4
ENDBRANCH   2   3
ENDBRANCH   1   2
BRANCH   1   9
ATOM      9  C   UNL     1     114.028 254.608 345.403  1.00  0.00     0.100 C 
BRANCH   9  10
ATOM     10  C   UNL     1     113.980 256.070 345.727  1.00  0.00     0.220 C 
ATOM     11  O   UNL     1     112.943 256.732 345.457  1.00  0.00    -0.275 OA
ATOM     12  N   UNL     1     115.091 256.699 346.382  1.00  0.00    -0.352 N 
ATOM     13  H   UNL     1     115.921 256.120 346.644  1.00  0.00     0.163 HD
BRANCH  12  14
ATOM     14  C   UNL     1     115.080 258.111 346.760  1.00  0.00     0.151 C 
BRANCH  14  15
ATOM     15  C   UNL     1     115.873 258.321 348.022  1.00  0.00    -0.025 A 
ATOM     16  C   UNL     1     115.221 258.530 349.249  1.00  0.00     0.056 A 
ATOM     17  C   UNL     1     117.274 258.329 347.975  1.00  0.00     0.009 A 
ATOM     18  C   UNL     1     115.965 258.742 350.428  1.00  0.00     0.160 A 
ATOM     19  C   UNL     1     118.016 258.539 349.140  1.00  0.00     0.050 A 
ATOM     20  C   UNL     1     117.366 258.745 350.364  1.00  0.00     0.157 A 
BRANCH  18  21
ATOM     21  O   UNL     1     115.351 258.954 351.672  1.00  0.00    -0.493 OA
ATOM     22  C   UNL     1     115.052 257.923 352.607  1.00  0.00     0.278 C 
ENDBRANCH  18  21
BRANCH  20  23
ATOM     23  O   UNL     1     118.108 258.953 351.526  1.00  0.00    -0.504 OA
ATOM     24  H   UNL     1     119.088 259.201 351.491  1.00  0.00     0.293 HD
ENDBRANCH  20  23
ENDBRANCH  14  15
ENDBRANCH  12  14
ENDBRANCH   9  10
ENDBRANCH   1   9
TORSDOF 10
ENDMDL
MODEL 5
REMARK VINA RESULT:    -3.372      3.934      6.824
REMARK INTER + INTRA:          -5.765
REMARK INTER:                  -5.385
REMARK INTRA:                  -0.379
REMARK UNBOUND:                -0.520
REMARK SMILES COc1cc(CNC(=O)CCCCC=CC(C)C)ccc1O
REMARK SMILES IDX 11 1 12 2 13 3 14 4 15 5 16 6 17 7 18 8 10 9 8 10 9 11 7 12
REMARK SMILES IDX 6 14 5 15 4 16 19 17 3 18 20 19 21 20 2 21 1 22 22 23
REMARK H PARENT 7 13 22 24
REMARK Flexibility Score: inf
ROOT
ATOM      1  C   UNL     1     117.737 254.900 341.198  1.00  0.00     0.010 C 
ENDROOT
BRANCH   1   2
ATOM      2  C   UNL     1     116.594 255.711 341.827  1.00  0.00     0.005 C 
BRANCH   2   3
ATOM      3  C   UNL     1     115.315 254.880 342.019  1.00  0.00     0.027 C 
BRANCH   3   4
ATOM      4  C   UNL     1     114.504 255.393 343.177  1.00  0.00    -0.031 C 
ATOM      5  C   UNL     1     113.966 254.560 344.085  1.00  0.00    -0.028 C 
BRANCH   5   6
ATOM      6  C   UNL     1     113.142 255.047 345.256  1.00  0.00     0.005 C 
ATOM      7  C   UNL     1     113.834 256.205 345.986  1.00  0.00     0.012 C 
ATOM      8  C   UNL     1     111.725 255.434 344.818  1.00  0.00     0.012 C 
ENDBRANCH   5   6
ENDBRANCH   3   4
ENDBRANCH   2   3
ENDBRANCH   1   2
BRANCH   1   9
ATOM      9  C   UNL     1     118.157 255.439 339.824  1.00  0.00     0.100 C 
BRANCH   9  10
ATOM     10  C   UNL     1     117.479 256.747 339.548  1.00  0.00     0.220 C 
ATOM     11  O   UNL     1     118.054 257.822 339.867  1.00  0.00    -0.275 OA
ATOM     12  N   UNL     1     116.208 256.774 338.884  1.00  0.00    -0.352 N 
ATOM     13  H   UNL     1     115.774 255.873 338.580  1.00  0.00     0.163 HD
BRANCH  12  14
ATOM     14  C   UNL     1     115.525 258.022 338.550  1.00  0.00     0.151 C 
BRANCH  14  15
ATOM     15  C   UNL     1     114.405 257.763 337.579  1.00  0.00    -0.025 A 
ATOM     16  C   UNL     1     113.943 256.456 337.354  1.00  0.00     0.056 A 
ATOM     17  C   UNL     1     113.829 258.829 336.874  1.00  0.00     0.009 A 
ATOM     18  C   UNL     1     112.904 256.213 336.432  1.00  0.00     0.160 A 
ATOM     19  C   UNL     1     112.800 258.594 335.959  1.00  0.00     0.050 A 
ATOM     20  C   UNL     1     112.336 257.291 335.737  1.00  0.00     0.157 A 
BRANCH  18  21
ATOM     21  O   UNL     1     112.414 254.922 336.180  1.00  0.00    -0.493 OA
ATOM     22  C   UNL     1     112.819 253.755 336.888  1.00  0.00     0.278 C 
ENDBRANCH  18  21
BRANCH  20  23
ATOM     23  O   UNL     1     111.308 257.057 334.825  1.00  0.00    -0.504 OA
ATOM     24  H   UNL     1     111.168 256.146 334.406  1.00  0.00     0.293 HD
ENDBRANCH  20  23
ENDBRANCH  14  15
ENDBRANCH  12  14
ENDBRANCH   9  10
ENDBRANCH   1   9
TORSDOF 10
ENDMDL
MODEL 6
REMARK VINA RESULT:    -3.269      2.855      9.325
REMARK INTER + INTRA:          -5.604
REMARK INTER:                  -4.945
REMARK INTRA:                  -0.659
REMARK UNBOUND:                -0.520
REMARK SMILES COc1cc(CNC(=O)CCCCC=CC(C)C)ccc1O
REMARK SMILES IDX 11 1 12 2 13 3 14 4 15 5 16 6 17 7 18 8 10 9 8 10 9 11 7 12
REMARK SMILES IDX 6 14 5 15 4 16 19 17 3 18 20 19 21 20 2 21 1 22 22 23
REMARK H PARENT 7 13 22 24
REMARK Flexibility Score: inf
ROOT
ATOM      1  C   UNL     1     117.959 256.774 339.242  1.00  0.00     0.010 C 
ENDROOT
BRANCH   1   2
ATOM      2  C   UNL     1     116.758 257.674 338.914  1.00  0.00     0.005 C 
BRANCH   2   3
ATOM      3  C   UNL     1     115.503 256.871 338.535  1.00  0.00     0.027 C 
BRANCH   3   4
ATOM      4  C   UNL     1     114.458 257.760 337.919  1.00  0.00    -0.031 C 
ATOM      5  C   UNL     1     113.699 257.345 336.889  1.00  0.00    -0.028 C 
BRANCH   5   6
ATOM      6  C   UNL     1     112.645 258.218 336.245  1.00  0.00     0.005 C 
ATOM      7  C   UNL     1     111.961 259.125 337.276  1.00  0.00     0.012 C 
ATOM      8  C   UNL     1     113.229 259.037 335.088  1.00  0.00     0.012 C 
ENDBRANCH   5   6
ENDBRANCH   3   4
ENDBRANCH   2   3
ENDBRANCH   1   2
BRANCH   1   9
ATOM      9  C   UNL     1     118.185 256.617 340.751  1.00  0.00     0.100 C 
BRANCH   9  10
ATOM     10  C   UNL     1     117.526 255.366 341.249  1.00  0.00     0.220 C 
ATOM     11  O   UNL     1     118.125 254.263 341.136  1.00  0.00    -0.275 OA
ATOM     12  N   UNL     1     116.245 255.432 341.890  1.00  0.00    -0.352 N 
ATOM     13  H   UNL     1     115.789 256.364 342.021  1.00  0.00     0.163 HD
BRANCH  12  14
ATOM     14  C   UNL     1     115.578 254.250 342.433  1.00  0.00     0.151 C 
BRANCH  14  15
ATOM     15  C   UNL     1     114.510 254.655 343.412  1.00  0.00    -0.025 A 
ATOM     16  C   UNL     1     114.771 255.623 344.395  1.00  0.00     0.056 A 
ATOM     17  C   UNL     1     113.247 254.048 343.361  1.00  0.00     0.009 A 
ATOM     18  C   UNL     1     113.774 255.990 345.322  1.00  0.00     0.160 A 
ATOM     19  C   UNL     1     112.256 254.408 344.278  1.00  0.00     0.050 A 
ATOM     20  C   UNL     1     112.515 255.376 345.256  1.00  0.00     0.157 A 
BRANCH  18  21
ATOM     21  O   UNL     1     113.997 256.954 346.318  1.00  0.00    -0.493 OA
ATOM     22  C   UNL     1     115.274 257.268 346.863  1.00  0.00     0.278 C 
ENDBRANCH  18  21
BRANCH  20  23
ATOM     23  O   UNL     1     111.525 255.735 346.169  1.00  0.00    -0.504 OA
ATOM     24  H   UNL     1     111.357 255.194 347.008  1.00  0.00     0.293 HD
ENDBRANCH  20  23
ENDBRANCH  14  15
ENDBRANCH  12  14
ENDBRANCH   9  10
ENDBRANCH   1   9
TORSDOF 10
ENDMDL
MODEL 7
REMARK VINA RESULT:    -2.764      2.617      5.436
REMARK INTER + INTRA:          -4.818
REMARK INTER:                  -4.295
REMARK INTRA:                  -0.523
REMARK UNBOUND:                -0.520
REMARK SMILES COc1cc(CNC(=O)CCCCC=CC(C)C)ccc1O
REMARK SMILES IDX 11 1 12 2 13 3 14 4 15 5 16 6 17 7 18 8 10 9 8 10 9 11 7 12
REMARK SMILES IDX 6 14 5 15 4 16 19 17 3 18 20 19 21 20 2 21 1 22 22 23
REMARK H PARENT 7 13 22 24
REMARK Flexibility Score: inf
ROOT
ATOM      1  C   UNL     1     115.470 256.078 342.887  1.00  0.00     0.010 C 
ENDROOT
BRANCH   1   2
ATOM      2  C   UNL     1     114.181 255.470 343.459  1.00  0.00     0.005 C 
BRANCH   2   3
ATOM      3  C   UNL     1     114.223 255.322 344.988  1.00  0.00     0.027 C 
BRANCH   3   4
ATOM      4  C   UNL     1     114.570 256.628 345.649  1.00  0.00    -0.031 C 
ATOM      5  C   UNL     1     115.109 256.673 346.880  1.00  0.00    -0.028 C 
BRANCH   5   6
ATOM      6  C   UNL     1     115.462 257.972 347.572  1.00  0.00     0.005 C 
ATOM      7  C   UNL     1     116.740 257.833 348.408  1.00  0.00     0.012 C 
ATOM      8  C   UNL     1     115.577 259.125 346.569  1.00  0.00     0.012 C 
ENDBRANCH   5   6
ENDBRANCH   3   4
ENDBRANCH   2   3
ENDBRANCH   1   2
BRANCH   1   9
ATOM      9  C   UNL     1     116.175 255.143 341.896  1.00  0.00     0.100 C 
BRANCH   9  10
ATOM     10  C   UNL     1     116.609 255.904 340.680  1.00  0.00     0.220 C 
ATOM     11  O   UNL     1     117.833 256.140 340.500  1.00  0.00    -0.275 OA
ATOM     12  N   UNL     1     115.640 256.320 339.707  1.00  0.00    -0.352 N 
ATOM     13  H   UNL     1     114.636 256.068 339.850  1.00  0.00     0.163 HD
BRANCH  12  14
ATOM     14  C   UNL     1     116.012 257.025 338.483  1.00  0.00     0.151 C 
BRANCH  14  15
ATOM     15  C   UNL     1     114.786 257.553 337.789  1.00  0.00    -0.025 A 
ATOM     16  C   UNL     1     114.361 257.000 336.569  1.00  0.00     0.056 A 
ATOM     17  C   UNL     1     114.069 258.620 338.349  1.00  0.00     0.009 A 
ATOM     18  C   UNL     1     113.220 257.506 335.912  1.00  0.00     0.160 A 
ATOM     19  C   UNL     1     112.939 259.125 337.702  1.00  0.00     0.050 A 
ATOM     20  C   UNL     1     112.513 258.571 336.488  1.00  0.00     0.157 A 
BRANCH  18  21
ATOM     21  O   UNL     1     112.764 256.980 334.694  1.00  0.00    -0.493 OA
ATOM     22  C   UNL     1     113.028 257.558 333.419  1.00  0.00     0.278 C 
ENDBRANCH  18  21
BRANCH  20  23
ATOM     23  O   UNL     1     111.384 259.075 335.844  1.00  0.00    -0.504 OA
ATOM     24  H   UNL     1     111.315 259.096 334.834  1.00  0.00     0.293 HD
ENDBRANCH  20  23
ENDBRANCH  14  15
ENDBRANCH  12  14
ENDBRANCH   9  10
ENDBRANCH   1   9
TORSDOF 10
ENDMDL
