MODEL 1
REMARK VINA RESULT:    -2.685      0.000      0.000
REMARK INTER + INTRA:          -5.741
REMARK INTER:                  -4.255
REMARK INTRA:                  -1.486
REMARK UNBOUND:                -1.486
REMARK SMILES CCCCCCCCCCCC(=O)[O-]
REMARK SMILES IDX 7 1 8 2 9 3 10 4 11 5 12 6 13 7 14 8 6 9 5 10 4 11 3 12 2 13
REMARK SMILES IDX 1 14
REMARK H PARENT
REMARK Flexibility Score: inf
ROOT
ATOM      1  C   UNL     1       1.122   8.320   4.688  1.00  0.00     0.000 C 
ENDROOT
BRANCH   1   2
ATOM      2  C   UNL     1       2.568   8.209   4.177  1.00  0.00     0.000 C 
BRANCH   2   3
ATOM      3  C   UNL     1       2.643   8.016   2.654  1.00  0.00     0.000 C 
BRANCH   3   4
ATOM      4  C   UNL     1       3.143   6.619   2.256  1.00  0.00     0.006 C 
BRANCH   4   5
ATOM      5  C   UNL     1       3.662   5.856   3.478  1.00  0.00     0.053 C 
BRANCH   5   6
ATOM      6  C   UNL     1       5.117   5.545   3.324  1.00  0.00     0.041 C 
ATOM      7  O   UNL     1       5.487   4.590   2.592  1.00  0.00    -0.550 OA
ATOM      8  O   UNL     1       6.064   6.278   4.028  1.00  0.00    -0.550 OA
ENDBRANCH   5   6
ENDBRANCH   4   5
ENDBRANCH   3   4
ENDBRANCH   2   3
ENDBRANCH   1   2
BRANCH   1   9
ATOM      9  C   UNL     1       0.132   8.755   3.591  1.00  0.00     0.000 C 
BRANCH   9  10
ATOM     10  C   UNL     1      -0.989   7.745   3.277  1.00  0.00    -0.000 C 
BRANCH  10  11
ATOM     11  C   UNL     1      -0.726   6.834   2.064  1.00  0.00    -0.000 C 
BRANCH  11  12
ATOM     12  C   UNL     1      -0.685   5.344   2.435  1.00  0.00    -0.000 C 
BRANCH  12  13
ATOM     13  C   UNL     1      -0.921   5.146   3.936  1.00  0.00    -0.003 C 
ATOM     14  C   UNL     1       0.347   4.667   4.636  1.00  0.00     0.004 C 
ENDBRANCH  12  13
ENDBRANCH  11  12
ENDBRANCH  10  11
ENDBRANCH   9  10
ENDBRANCH   1   9
TORSDOF 10
ENDMDL
MODEL 2
REMARK VINA RESULT:    -2.437      2.608      4.829
REMARK INTER + INTRA:          -5.347
REMARK INTER:                  -4.435
REMARK INTRA:                  -0.912
REMARK UNBOUND:                -1.486
REMARK SMILES CCCCCCCCCCCC(=O)[O-]
REMARK SMILES IDX 7 1 8 2 9 3 10 4 11 5 12 6 13 7 14 8 6 9 5 10 4 11 3 12 2 13
REMARK SMILES IDX 1 14
REMARK H PARENT
REMARK Flexibility Score: inf
ROOT
ATOM      1  C   UNL     1       2.191   9.020   5.249  1.00  0.00     0.000 C 
ENDROOT
BRANCH   1   2
ATOM      2  C   UNL     1       0.776   8.639   4.784  1.00  0.00     0.000 C 
BRANCH   2   3
ATOM      3  C   UNL     1       0.723   8.274   3.292  1.00  0.00     0.000 C 
BRANCH   3   4
ATOM      4  C   UNL     1       0.830   6.761   3.047  1.00  0.00     0.006 C 
BRANCH   4   5
ATOM      5  C   UNL     1      -0.448   6.043   3.492  1.00  0.00     0.053 C 
BRANCH   5   6
ATOM      6  C   UNL     1      -0.116   4.870   4.358  1.00  0.00     0.041 C 
ATOM      7  O   UNL     1       1.082   4.620   4.654  1.00  0.00    -0.550 OA
ATOM      8  O   UNL     1      -1.125   4.023   4.798  1.00  0.00    -0.550 OA
ENDBRANCH   5   6
ENDBRANCH   4   5
ENDBRANCH   3   4
ENDBRANCH   2   3
ENDBRANCH   1   2
BRANCH   1   9
ATOM      9  C   UNL     1       2.985   9.791   4.177  1.00  0.00     0.000 C 
BRANCH   9  10
ATOM     10  C   UNL     1       4.238   9.070   3.640  1.00  0.00    -0.000 C 
BRANCH  10  11
ATOM     11  C   UNL     1       4.716   7.876   4.486  1.00  0.00    -0.000 C 
BRANCH  11  12
ATOM     12  C   UNL     1       4.500   6.525   3.787  1.00  0.00    -0.000 C 
BRANCH  12  13
ATOM     13  C   UNL     1       5.836   5.915   3.348  1.00  0.00    -0.003 C 
ATOM     14  C   UNL     1       5.633   4.546   2.706  1.00  0.00     0.004 C 
ENDBRANCH  12  13
ENDBRANCH  11  12
ENDBRANCH  10  11
ENDBRANCH   9  10
ENDBRANCH   1   9
TORSDOF 10
ENDMDL
MODEL 3
REMARK VINA RESULT:    -2.301      1.324      2.935
REMARK INTER + INTRA:          -5.132
REMARK INTER:                  -3.831
REMARK INTRA:                  -1.301
REMARK UNBOUND:                -1.486
REMARK SMILES CCCCCCCCCCCC(=O)[O-]
REMARK SMILES IDX 7 1 8 2 9 3 10 4 11 5 12 6 13 7 14 8 6 9 5 10 4 11 3 12 2 13
REMARK SMILES IDX 1 14
REMARK H PARENT
REMARK Flexibility Score: inf
ROOT
ATOM      1  C   UNL     1       0.627   5.999   3.247  1.00  0.00     0.000 C 
ENDROOT
BRANCH   1   2
ATOM      2  C   UNL     1       1.341   6.738   2.103  1.00  0.00     0.000 C 
BRANCH   2   3
ATOM      3  C   UNL     1       2.872   6.670   2.221  1.00  0.00     0.000 C 
BRANCH   3   4
ATOM      4  C   UNL     1       3.338   5.876   3.451  1.00  0.00     0.006 C 
BRANCH   4   5
ATOM      5  C   UNL     1       4.782   5.397   3.277  1.00  0.00     0.053 C 
BRANCH   5   6
ATOM      6  C   UNL     1       5.743   6.487   3.632  1.00  0.00     0.041 C 
ATOM      7  O   UNL     1       5.495   7.260   4.594  1.00  0.00    -0.550 OA
ATOM      8  O   UNL     1       6.887   6.681   2.870  1.00  0.00    -0.550 OA
ENDBRANCH   5   6
ENDBRANCH   4   5
ENDBRANCH   3   4
ENDBRANCH   2   3
ENDBRANCH   1   2
BRANCH   1   9
ATOM      9  C   UNL     1      -0.819   6.483   3.461  1.00  0.00     0.000 C 
BRANCH   9  10
ATOM     10  C   UNL     1      -1.118   7.908   2.953  1.00  0.00    -0.000 C 
BRANCH  10  11
ATOM     11  C   UNL     1      -1.088   9.005   4.033  1.00  0.00    -0.000 C 
BRANCH  11  12
ATOM     12  C   UNL     1       0.281   9.692   4.148  1.00  0.00    -0.000 C 
BRANCH  12  13
ATOM     13  C   UNL     1       1.107   9.081   5.285  1.00  0.00    -0.003 C 
ATOM     14  C   UNL     1       2.602   9.174   4.992  1.00  0.00     0.004 C 
ENDBRANCH  12  13
ENDBRANCH  11  12
ENDBRANCH  10  11
ENDBRANCH   9  10
ENDBRANCH   1   9
TORSDOF 10
ENDMDL
MODEL 4
REMARK VINA RESULT:    -2.149      2.321      3.179
REMARK INTER + INTRA:          -4.890
REMARK INTER:                  -3.902
REMARK INTRA:                  -0.988
REMARK UNBOUND:                -1.486
REMARK SMILES CCCCCCCCCCCC(=O)[O-]
REMARK SMILES IDX 7 1 8 2 9 3 10 4 11 5 12 6 13 7 14 8 6 9 5 10 4 11 3 12 2 13
REMARK SMILES IDX 1 14
REMARK H PARENT
REMARK Flexibility Score: inf
ROOT
ATOM      1  C   UNL     1       3.492   5.669   3.369  1.00  0.00     0.000 C 
ENDROOT
BRANCH   1   2
ATOM      2  C   UNL     1       4.978   6.050   3.269  1.00  0.00     0.000 C 
BRANCH   2   3
ATOM      3  C   UNL     1       5.335   7.264   4.142  1.00  0.00     0.000 C 
BRANCH   3   4
ATOM      4  C   UNL     1       5.393   8.575   3.342  1.00  0.00     0.006 C 
BRANCH   4   5
ATOM      5  C   UNL     1       6.070   8.358   1.985  1.00  0.00     0.053 C 
BRANCH   5   6
ATOM      6  C   UNL     1       7.551   8.527   2.106  1.00  0.00     0.041 C 
ATOM      7  O   UNL     1       8.300   7.517   2.186  1.00  0.00    -0.550 OA
ATOM      8  O   UNL     1       8.103   9.799   2.180  1.00  0.00    -0.550 OA
ENDBRANCH   5   6
ENDBRANCH   4   5
ENDBRANCH   3   4
ENDBRANCH   2   3
ENDBRANCH   1   2
BRANCH   1   9
ATOM      9  C   UNL     1       2.595   6.511   2.442  1.00  0.00     0.000 C 
BRANCH   9  10
ATOM     10  C   UNL     1       1.743   7.585   3.147  1.00  0.00    -0.000 C 
BRANCH  10  11
ATOM     11  C   UNL     1       0.637   7.039   4.069  1.00  0.00    -0.000 C 
BRANCH  11  12
ATOM     12  C   UNL     1      -0.545   6.439   3.293  1.00  0.00    -0.000 C 
BRANCH  12  13
ATOM     13  C   UNL     1      -0.551   4.910   3.398  1.00  0.00    -0.003 C 
ATOM     14  C   UNL     1      -0.011   4.448   4.748  1.00  0.00     0.004 C 
ENDBRANCH  12  13
ENDBRANCH  11  12
ENDBRANCH  10  11
ENDBRANCH   9  10
ENDBRANCH   1   9
TORSDOF 10
ENDMDL
MODEL 5
REMARK VINA RESULT:    -2.104      2.905      5.190
REMARK INTER + INTRA:          -4.819
REMARK INTER:                  -3.749
REMARK INTRA:                  -1.070
REMARK UNBOUND:                -1.486
REMARK SMILES CCCCCCCCCCCC(=O)[O-]
REMARK SMILES IDX 7 1 8 2 9 3 10 4 11 5 12 6 13 7 14 8 6 9 5 10 4 11 3 12 2 13
REMARK SMILES IDX 1 14
REMARK H PARENT
REMARK Flexibility Score: inf
ROOT
ATOM      1  C   UNL     1       3.927   8.837   4.336  1.00  0.00     0.000 C 
ENDROOT
BRANCH   1   2
ATOM      2  C   UNL     1       2.422   8.524   4.322  1.00  0.00     0.000 C 
BRANCH   2   3
ATOM      3  C   UNL     1       1.929   8.060   2.942  1.00  0.00     0.000 C 
BRANCH   3   4
ATOM      4  C   UNL     1       0.594   7.303   3.012  1.00  0.00     0.006 C 
BRANCH   4   5
ATOM      5  C   UNL     1       0.591   6.304   4.172  1.00  0.00     0.053 C 
BRANCH   5   6
ATOM      6  C   UNL     1      -0.259   5.119   3.842  1.00  0.00     0.041 C 
ATOM      7  O   UNL     1      -0.639   4.922   2.658  1.00  0.00    -0.550 OA
ATOM      8  O   UNL     1      -0.673   4.257   4.850  1.00  0.00    -0.550 OA
ENDBRANCH   5   6
ENDBRANCH   4   5
ENDBRANCH   3   4
ENDBRANCH   2   3
ENDBRANCH   1   2
BRANCH   1   9
ATOM      9  C   UNL     1       4.441   9.363   2.983  1.00  0.00     0.000 C 
BRANCH   9  10
ATOM     10  C   UNL     1       5.891   8.974   2.633  1.00  0.00    -0.000 C 
BRANCH  10  11
ATOM     11  C   UNL     1       6.052   7.608   1.939  1.00  0.00    -0.000 C 
BRANCH  11  12
ATOM     12  C   UNL     1       6.540   6.508   2.892  1.00  0.00    -0.000 C 
BRANCH  12  13
ATOM     13  C   UNL     1       5.742   5.215   2.691  1.00  0.00    -0.003 C 
ATOM     14  C   UNL     1       4.466   5.219   3.529  1.00  0.00     0.004 C 
ENDBRANCH  12  13
ENDBRANCH  11  12
ENDBRANCH  10  11
ENDBRANCH   9  10
ENDBRANCH   1   9
TORSDOF 10
ENDMDL
MODEL 6
REMARK VINA RESULT:    -2.084      3.008      5.274
REMARK INTER + INTRA:          -4.788
REMARK INTER:                  -3.501
REMARK INTRA:                  -1.287
REMARK UNBOUND:                -1.486
REMARK SMILES CCCCCCCCCCCC(=O)[O-]
REMARK SMILES IDX 7 1 8 2 9 3 10 4 11 5 12 6 13 7 14 8 6 9 5 10 4 11 3 12 2 13
REMARK SMILES IDX 1 14
REMARK H PARENT
REMARK Flexibility Score: inf
ROOT
ATOM      1  C   UNL     1       5.535   6.227   3.141  1.00  0.00     0.000 C 
ENDROOT
BRANCH   1   2
ATOM      2  C   UNL     1       4.119   5.977   2.597  1.00  0.00     0.000 C 
BRANCH   2   3
ATOM      3  C   UNL     1       3.048   6.010   3.699  1.00  0.00     0.000 C 
BRANCH   3   4
ATOM      4  C   UNL     1       1.642   6.302   3.153  1.00  0.00     0.006 C 
BRANCH   4   5
ATOM      5  C   UNL     1       0.576   6.042   4.221  1.00  0.00     0.053 C 
BRANCH   5   6
ATOM      6  C   UNL     1      -0.387   4.997   3.757  1.00  0.00     0.041 C 
ATOM      7  O   UNL     1      -0.696   4.039   4.514  1.00  0.00    -0.550 OA
ATOM      8  O   UNL     1      -0.907   5.051   2.470  1.00  0.00    -0.550 OA
ENDBRANCH   5   6
ENDBRANCH   4   5
ENDBRANCH   3   4
ENDBRANCH   2   3
ENDBRANCH   1   2
BRANCH   1   9
ATOM      9  C   UNL     1       5.834   7.721   3.366  1.00  0.00     0.000 C 
BRANCH   9  10
ATOM     10  C   UNL     1       5.220   8.679   2.325  1.00  0.00    -0.000 C 
BRANCH  10  11
ATOM     11  C   UNL     1       4.417   9.854   2.912  1.00  0.00    -0.000 C 
BRANCH  11  12
ATOM     12  C   UNL     1       3.927   9.586   4.342  1.00  0.00    -0.000 C 
BRANCH  12  13
ATOM     13  C   UNL     1       2.400   9.690   4.428  1.00  0.00    -0.003 C 
ATOM     14  C   UNL     1       1.888   9.183   5.773  1.00  0.00     0.004 C 
ENDBRANCH  12  13
ENDBRANCH  11  12
ENDBRANCH  10  11
ENDBRANCH   9  10
ENDBRANCH   1   9
TORSDOF 10
ENDMDL
MODEL 7
REMARK VINA RESULT:    -1.558      4.058      7.203
REMARK INTER + INTRA:          -3.955
REMARK INTER:                  -3.475
REMARK INTRA:                  -0.480
REMARK UNBOUND:                -1.486
REMARK SMILES CCCCCCCCCCCC(=O)[O-]
REMARK SMILES IDX 7 1 8 2 9 3 10 4 11 5 12 6 13 7 14 8 6 9 5 10 4 11 3 12 2 13
REMARK SMILES IDX 1 14
REMARK H PARENT
REMARK Flexibility Score: inf
ROOT
ATOM      1  C   UNL     1       5.610   7.641   3.482  1.00  0.00     0.000 C 
ENDROOT
BRANCH   1   2
ATOM      2  C   UNL     1       4.451   7.999   2.537  1.00  0.00     0.000 C 
BRANCH   2   3
ATOM      3  C   UNL     1       3.577   6.784   2.189  1.00  0.00     0.000 C 
BRANCH   3   4
ATOM      4  C   UNL     1       2.088   7.017   2.490  1.00  0.00     0.006 C 
BRANCH   4   5
ATOM      5  C   UNL     1       1.696   6.393   3.833  1.00  0.00     0.053 C 
BRANCH   5   6
ATOM      6  C   UNL     1       0.482   5.535   3.678  1.00  0.00     0.041 C 
ATOM      7  O   UNL     1      -0.419   5.854   2.858  1.00  0.00    -0.550 OA
ATOM      8  O   UNL     1       0.319   4.409   4.475  1.00  0.00    -0.550 OA
ENDBRANCH   5   6
ENDBRANCH   4   5
ENDBRANCH   3   4
ENDBRANCH   2   3
ENDBRANCH   1   2
BRANCH   1   9
ATOM      9  C   UNL     1       6.508   6.519   2.927  1.00  0.00     0.000 C 
BRANCH   9  10
ATOM     10  C   UNL     1       7.674   6.989   2.035  1.00  0.00    -0.000 C 
BRANCH  10  11
ATOM     11  C   UNL     1       7.800   8.515   1.876  1.00  0.00    -0.000 C 
BRANCH  11  12
ATOM     12  C   UNL     1       9.145   9.059   2.379  1.00  0.00    -0.000 C 
BRANCH  12  13
ATOM     13  C   UNL     1      10.260   8.025   2.188  1.00  0.00    -0.003 C 
ATOM     14  C   UNL     1      11.637   8.681   2.245  1.00  0.00     0.004 C 
ENDBRANCH  12  13
ENDBRANCH  11  12
ENDBRANCH  10  11
ENDBRANCH   9  10
ENDBRANCH   1   9
TORSDOF 10
ENDMDL
MODEL 8
REMARK VINA RESULT:    -1.413      3.156      5.484
REMARK INTER + INTRA:          -3.725
REMARK INTER:                  -2.786
REMARK INTRA:                  -0.939
REMARK UNBOUND:                -1.486
REMARK SMILES CCCCCCCCCCCC(=O)[O-]
REMARK SMILES IDX 7 1 8 2 9 3 10 4 11 5 12 6 13 7 14 8 6 9 5 10 4 11 3 12 2 13
REMARK SMILES IDX 1 14
REMARK H PARENT
REMARK Flexibility Score: inf
ROOT
ATOM      1  C   UNL     1       5.538   9.366   3.143  1.00  0.00     0.000 C 
ENDROOT
BRANCH   1   2
ATOM      2  C   UNL     1       4.117   9.817   2.766  1.00  0.00     0.000 C 
BRANCH   2   3
ATOM      3  C   UNL     1       3.391   8.796   1.876  1.00  0.00     0.000 C 
BRANCH   3   4
ATOM      4  C   UNL     1       1.920   8.600   2.274  1.00  0.00     0.006 C 
BRANCH   4   5
ATOM      5  C   UNL     1       1.560   9.471   3.482  1.00  0.00     0.053 C 
BRANCH   5   6
ATOM      6  C   UNL     1       1.229   8.617   4.664  1.00  0.00     0.041 C 
ATOM      7  O   UNL     1       1.531   8.998   5.825  1.00  0.00    -0.550 OA
ATOM      8  O   UNL     1       0.632   7.376   4.481  1.00  0.00    -0.550 OA
ENDBRANCH   5   6
ENDBRANCH   4   5
ENDBRANCH   3   4
ENDBRANCH   2   3
ENDBRANCH   1   2
BRANCH   1   9
ATOM      9  C   UNL     1       6.371   8.934   1.922  1.00  0.00     0.000 C 
BRANCH   9  10
ATOM     10  C   UNL     1       7.400   7.817   2.189  1.00  0.00    -0.000 C 
BRANCH  10  11
ATOM     11  C   UNL     1       6.819   6.392   2.237  1.00  0.00    -0.000 C 
BRANCH  11  12
ATOM     12  C   UNL     1       6.008   6.121   3.512  1.00  0.00    -0.000 C 
BRANCH  12  13
ATOM     13  C   UNL     1       4.913   5.079   3.255  1.00  0.00    -0.003 C 
ATOM     14  C   UNL     1       3.541   5.606   3.666  1.00  0.00     0.004 C 
ENDBRANCH  12  13
ENDBRANCH  11  12
ENDBRANCH  10  11
ENDBRANCH   9  10
ENDBRANCH   1   9
TORSDOF 10
ENDMDL
MODEL 9
REMARK VINA RESULT:    -1.184      3.145      5.581
REMARK INTER + INTRA:          -3.362
REMARK INTER:                  -2.597
REMARK INTRA:                  -0.765
REMARK UNBOUND:                -1.486
REMARK SMILES CCCCCCCCCCCC(=O)[O-]
REMARK SMILES IDX 7 1 8 2 9 3 10 4 11 5 12 6 13 7 14 8 6 9 5 10 4 11 3 12 2 13
REMARK SMILES IDX 1 14
REMARK H PARENT
REMARK Flexibility Score: inf
ROOT
ATOM      1  C   UNL     1       1.427   5.959   4.229  1.00  0.00     0.000 C 
ENDROOT
BRANCH   1   2
ATOM      2  C   UNL     1       0.306   4.922   4.048  1.00  0.00     0.000 C 
BRANCH   2   3
ATOM      3  C   UNL     1      -0.931   5.507   3.347  1.00  0.00     0.000 C 
BRANCH   3   4
ATOM      4  C   UNL     1      -1.125   7.004   3.635  1.00  0.00     0.006 C 
BRANCH   4   5
ATOM      5  C   UNL     1      -0.841   7.842   2.385  1.00  0.00     0.053 C 
BRANCH   5   6
ATOM      6  C   UNL     1      -0.506   9.250   2.763  1.00  0.00     0.041 C 
ATOM      7  O   UNL     1      -0.194  10.086   1.875  1.00  0.00    -0.550 OA
ATOM      8  O   UNL     1      -0.489   9.626   4.099  1.00  0.00    -0.550 OA
ENDBRANCH   5   6
ENDBRANCH   4   5
ENDBRANCH   3   4
ENDBRANCH   2   3
ENDBRANCH   1   2
BRANCH   1   9
ATOM      9  C   UNL     1       2.402   5.998   3.038  1.00  0.00     0.000 C 
BRANCH   9  10
ATOM     10  C   UNL     1       3.888   6.179   3.409  1.00  0.00    -0.000 C 
BRANCH  10  11
ATOM     11  C   UNL     1       4.655   7.202   2.551  1.00  0.00    -0.000 C 
BRANCH  11  12
ATOM     12  C   UNL     1       5.166   8.399   3.364  1.00  0.00    -0.000 C 
BRANCH  12  13
ATOM     13  C   UNL     1       4.221   8.714   4.530  1.00  0.00    -0.003 C 
ATOM     14  C   UNL     1       3.144   9.711   4.113  1.00  0.00     0.004 C 
ENDBRANCH  12  13
ENDBRANCH  11  12
ENDBRANCH  10  11
ENDBRANCH   9  10
ENDBRANCH   1   9
TORSDOF 10
ENDMDL
