MODEL 1
REMARK VINA RESULT:    -4.031      0.000      0.000
REMARK INTER + INTRA:          -4.952
REMARK INTER:                  -4.620
REMARK INTRA:                  -0.332
REMARK UNBOUND:                -0.332
REMARK SMILES COc1ccc(C(C)=O)c(O)c1
REMARK SMILES IDX 6 1 10 2 12 3 3 4 4 5 5 6 7 7 8 8 9 9 11 10 2 12 1 13
REMARK H PARENT 11 11
REMARK Flexibility Score: inf
ROOT
ATOM      1  C   UNL     1     -13.097  82.164 -10.714  1.00  0.00     0.059 A 
ATOM      2  C   UNL     1     -13.009  81.678  -9.386  1.00  0.00     0.130 A 
ATOM      3  C   UNL     1     -13.460  82.472  -8.324  1.00  0.00     0.093 A 
ATOM      4  C   UNL     1     -14.030  83.736  -8.561  1.00  0.00     0.122 A 
ATOM      5  C   UNL     1     -14.141  84.197  -9.874  1.00  0.00     0.047 A 
ATOM      6  C   UNL     1     -13.681  83.423 -10.940  1.00  0.00     0.019 A 
ENDROOT
BRANCH   1   7
ATOM      7  C   UNL     1     -12.558  81.403 -11.866  1.00  0.00     0.163 C 
ATOM      8  C   UNL     1     -13.356  81.233 -13.123  1.00  0.00     0.093 C 
ATOM      9  O   UNL     1     -11.381  80.955 -11.830  1.00  0.00    -0.294 OA
ENDBRANCH   1   7
BRANCH   2  10
ATOM     10  O   UNL     1     -12.513  80.408  -9.086  1.00  0.00    -0.507 OA
ATOM     11  H   UNL     1     -13.067  79.565  -9.152  1.00  0.00     0.293 HD
ENDBRANCH   2  10
BRANCH   4  12
ATOM     12  O   UNL     1     -14.498  84.557  -7.523  1.00  0.00    -0.497 OA
ATOM     13  C   UNL     1     -15.873  84.743  -7.203  1.00  0.00     0.278 C 
ENDBRANCH   4  12
TORSDOF 3
ENDMDL
MODEL 2
REMARK VINA RESULT:    -3.937      2.550      3.463
REMARK INTER + INTRA:          -4.844
REMARK INTER:                  -4.510
REMARK INTRA:                  -0.334
REMARK UNBOUND:                -0.332
REMARK SMILES COc1ccc(C(C)=O)c(O)c1
REMARK SMILES IDX 6 1 10 2 12 3 3 4 4 5 5 6 7 7 8 8 9 9 11 10 2 12 1 13
REMARK H PARENT 11 11
REMARK Flexibility Score: inf
ROOT
ATOM      1  C   UNL     1     -12.614  82.970  -9.734  1.00  0.00     0.059 A 
ATOM      2  C   UNL     1     -13.501  83.779 -10.487  1.00  0.00     0.130 A 
ATOM      3  C   UNL     1     -13.398  85.174 -10.419  1.00  0.00     0.093 A 
ATOM      4  C   UNL     1     -12.402  85.785  -9.636  1.00  0.00     0.122 A 
ATOM      5  C   UNL     1     -11.512  84.982  -8.920  1.00  0.00     0.047 A 
ATOM      6  C   UNL     1     -11.614  83.591  -8.966  1.00  0.00     0.019 A 
ENDROOT
BRANCH   1   7
ATOM      7  C   UNL     1     -12.734  81.493  -9.704  1.00  0.00     0.163 C 
ATOM      8  C   UNL     1     -12.999  80.764  -8.421  1.00  0.00     0.093 C 
ATOM      9  O   UNL     1     -12.696  80.835 -10.778  1.00  0.00    -0.294 OA
ENDBRANCH   1   7
BRANCH   2  10
ATOM     10  O   UNL     1     -14.472  83.238 -11.333  1.00  0.00    -0.507 OA
ATOM     11  H   UNL     1     -15.055  82.451 -11.079  1.00  0.00     0.293 HD
ENDBRANCH   2  10
BRANCH   4  12
ATOM     12  O   UNL     1     -12.263  87.178  -9.548  1.00  0.00    -0.497 OA
ATOM     13  C   UNL     1     -12.116  88.045 -10.668  1.00  0.00     0.278 C 
ENDBRANCH   4  12
TORSDOF 3
ENDMDL
MODEL 3
REMARK VINA RESULT:    -3.817      2.599      3.819
REMARK INTER + INTRA:          -4.707
REMARK INTER:                  -4.573
REMARK INTRA:                  -0.134
REMARK UNBOUND:                -0.332
REMARK SMILES COc1ccc(C(C)=O)c(O)c1
REMARK SMILES IDX 6 1 10 2 12 3 3 4 4 5 5 6 7 7 8 8 9 9 11 10 2 12 1 13
REMARK H PARENT 11 11
REMARK Flexibility Score: inf
ROOT
ATOM      1  C   UNL     1     -12.298  81.555  -9.788  1.00  0.00     0.059 A 
ATOM      2  C   UNL     1     -10.924  81.726  -9.485  1.00  0.00     0.130 A 
ATOM      3  C   UNL     1     -10.454  81.437  -8.198  1.00  0.00     0.093 A 
ATOM      4  C   UNL     1     -11.325  80.948  -7.207  1.00  0.00     0.122 A 
ATOM      5  C   UNL     1     -12.672  80.754  -7.519  1.00  0.00     0.047 A 
ATOM      6  C   UNL     1     -13.156  81.054  -8.793  1.00  0.00     0.019 A 
ENDROOT
BRANCH   1   7
ATOM      7  C   UNL     1     -12.863  81.926 -11.107  1.00  0.00     0.163 C 
ATOM      8  C   UNL     1     -12.677  81.044 -12.304  1.00  0.00     0.093 C 
ATOM      9  O   UNL     1     -13.583  82.955 -11.218  1.00  0.00    -0.294 OA
ENDBRANCH   1   7
BRANCH   2  10
ATOM     10  O   UNL     1      -9.995  82.146 -10.439  1.00  0.00    -0.507 OA
ATOM     11  H   UNL     1      -9.530  81.516 -11.078  1.00  0.00     0.293 HD
ENDBRANCH   2  10
BRANCH   4  12
ATOM     12  O   UNL     1     -10.891  80.642  -5.908  1.00  0.00    -0.497 OA
ATOM     13  C   UNL     1     -10.818  79.324  -5.374  1.00  0.00     0.278 C 
ENDBRANCH   4  12
TORSDOF 3
ENDMDL
MODEL 4
REMARK VINA RESULT:    -3.810      2.591      3.780
REMARK INTER + INTRA:          -4.698
REMARK INTER:                  -4.395
REMARK INTRA:                  -0.303
REMARK UNBOUND:                -0.332
REMARK SMILES COc1ccc(C(C)=O)c(O)c1
REMARK SMILES IDX 6 1 10 2 12 3 3 4 4 5 5 6 7 7 8 8 9 9 11 10 2 12 1 13
REMARK H PARENT 11 11
REMARK Flexibility Score: inf
ROOT
ATOM      1  C   UNL     1     -12.316  81.803  -9.918  1.00  0.00     0.059 A 
ATOM      2  C   UNL     1     -13.014  81.364  -8.766  1.00  0.00     0.130 A 
ATOM      3  C   UNL     1     -12.303  81.026  -7.608  1.00  0.00     0.093 A 
ATOM      4  C   UNL     1     -10.903  81.148  -7.562  1.00  0.00     0.122 A 
ATOM      5  C   UNL     1     -10.223  81.609  -8.691  1.00  0.00     0.047 A 
ATOM      6  C   UNL     1     -10.918  81.933  -9.857  1.00  0.00     0.019 A 
ENDROOT
BRANCH   1   7
ATOM      7  C   UNL     1     -13.011  82.092 -11.195  1.00  0.00     0.163 C 
ATOM      8  C   UNL     1     -12.853  81.192 -12.383  1.00  0.00     0.093 C 
ATOM      9  O   UNL     1     -13.816  83.059 -11.270  1.00  0.00    -0.294 OA
ENDBRANCH   1   7
BRANCH   2  10
ATOM     10  O   UNL     1     -14.408  81.281  -8.723  1.00  0.00    -0.507 OA
ATOM     11  H   UNL     1     -15.008  81.609  -9.467  1.00  0.00     0.293 HD
ENDBRANCH   2  10
BRANCH   4  12
ATOM     12  O   UNL     1     -10.156  80.825  -6.419  1.00  0.00    -0.497 OA
ATOM     13  C   UNL     1     -10.081  79.524  -5.848  1.00  0.00     0.278 C 
ENDBRANCH   4  12
TORSDOF 3
ENDMDL
MODEL 5
REMARK VINA RESULT:    -3.670      9.961     10.422
REMARK INTER + INTRA:          -4.539
REMARK INTER:                  -4.210
REMARK INTRA:                  -0.328
REMARK UNBOUND:                -0.332
REMARK SMILES COc1ccc(C(C)=O)c(O)c1
REMARK SMILES IDX 6 1 10 2 12 3 3 4 4 5 5 6 7 7 8 8 9 9 11 10 2 12 1 13
REMARK H PARENT 11 11
REMARK Flexibility Score: inf
ROOT
ATOM      1  C   UNL     1      -3.695  83.968  -8.494  1.00  0.00     0.059 A 
ATOM      2  C   UNL     1      -4.177  85.196  -9.011  1.00  0.00     0.130 A 
ATOM      3  C   UNL     1      -4.058  86.366  -8.250  1.00  0.00     0.093 A 
ATOM      4  C   UNL     1      -3.436  86.343  -6.988  1.00  0.00     0.122 A 
ATOM      5  C   UNL     1      -2.937  85.136  -6.497  1.00  0.00     0.047 A 
ATOM      6  C   UNL     1      -3.063  83.960  -7.238  1.00  0.00     0.019 A 
ENDROOT
BRANCH   1   7
ATOM      7  C   UNL     1      -3.871  82.688  -9.220  1.00  0.00     0.163 C 
ATOM      8  C   UNL     1      -2.886  81.568  -9.066  1.00  0.00     0.093 C 
ATOM      9  O   UNL     1      -4.903  82.495  -9.917  1.00  0.00    -0.294 OA
ENDBRANCH   1   7
BRANCH   2  10
ATOM     10  O   UNL     1      -4.747  85.300 -10.281  1.00  0.00    -0.507 OA
ATOM     11  H   UNL     1      -5.061  84.502 -10.817  1.00  0.00     0.293 HD
ENDBRANCH   2  10
BRANCH   4  12
ATOM     12  O   UNL     1      -3.293  87.495  -6.199  1.00  0.00    -0.497 OA
ATOM     13  C   UNL     1      -4.363  88.139  -5.515  1.00  0.00     0.278 C 
ENDBRANCH   4  12
TORSDOF 3
ENDMDL
MODEL 6
REMARK VINA RESULT:    -3.640      9.348      9.686
REMARK INTER + INTRA:          -4.504
REMARK INTER:                  -4.194
REMARK INTRA:                  -0.310
REMARK UNBOUND:                -0.332
REMARK SMILES COc1ccc(C(C)=O)c(O)c1
REMARK SMILES IDX 6 1 10 2 12 3 3 4 4 5 5 6 7 7 8 8 9 9 11 10 2 12 1 13
REMARK H PARENT 11 11
REMARK Flexibility Score: inf
ROOT
ATOM      1  C   UNL     1      -5.130  84.740  -8.851  1.00  0.00     0.059 A 
ATOM      2  C   UNL     1      -3.722  84.818  -8.717  1.00  0.00     0.130 A 
ATOM      3  C   UNL     1      -3.138  85.966  -8.167  1.00  0.00     0.093 A 
ATOM      4  C   UNL     1      -3.935  87.033  -7.714  1.00  0.00     0.122 A 
ATOM      5  C   UNL     1      -5.324  86.938  -7.821  1.00  0.00     0.047 A 
ATOM      6  C   UNL     1      -5.918  85.807  -8.383  1.00  0.00     0.019 A 
ENDROOT
BRANCH   1   7
ATOM      7  C   UNL     1      -5.794  83.587  -9.503  1.00  0.00     0.163 C 
ATOM      8  C   UNL     1      -7.268  83.357  -9.357  1.00  0.00     0.093 C 
ATOM      9  O   UNL     1      -5.135  82.827 -10.262  1.00  0.00    -0.294 OA
ENDBRANCH   1   7
BRANCH   2  10
ATOM     10  O   UNL     1      -2.876  83.771  -9.088  1.00  0.00    -0.507 OA
ATOM     11  H   UNL     1      -3.065  82.801  -8.872  1.00  0.00     0.293 HD
ENDBRANCH   2  10
BRANCH   4  12
ATOM     12  O   UNL     1      -3.387  88.196  -7.152  1.00  0.00    -0.497 OA
ATOM     13  C   UNL     1      -3.995  89.482  -7.214  1.00  0.00     0.278 C 
ENDBRANCH   4  12
TORSDOF 3
ENDMDL
MODEL 7
REMARK VINA RESULT:    -3.627     13.577     14.623
REMARK INTER + INTRA:          -4.489
REMARK INTER:                  -4.146
REMARK INTRA:                  -0.343
REMARK UNBOUND:                -0.332
REMARK SMILES COc1ccc(C(C)=O)c(O)c1
REMARK SMILES IDX 6 1 10 2 12 3 3 4 4 5 5 6 7 7 8 8 9 9 11 10 2 12 1 13
REMARK H PARENT 11 11
REMARK Flexibility Score: inf
ROOT
ATOM      1  C   UNL     1      -4.152  91.906 -14.263  1.00  0.00     0.059 A 
ATOM      2  C   UNL     1      -3.613  90.774 -14.924  1.00  0.00     0.130 A 
ATOM      3  C   UNL     1      -3.787  90.627 -16.305  1.00  0.00     0.093 A 
ATOM      4  C   UNL     1      -4.464  91.607 -17.054  1.00  0.00     0.122 A 
ATOM      5  C   UNL     1      -4.967  92.735 -16.401  1.00  0.00     0.047 A 
ATOM      6  C   UNL     1      -4.815  92.885 -15.023  1.00  0.00     0.019 A 
ENDROOT
BRANCH   1   7
ATOM      7  C   UNL     1      -4.070  92.069 -12.792  1.00  0.00     0.163 C 
ATOM      8  C   UNL     1      -3.841  93.414 -12.173  1.00  0.00     0.093 C 
ATOM      9  O   UNL     1      -4.276  91.081 -12.036  1.00  0.00    -0.294 OA
ENDBRANCH   1   7
BRANCH   2  10
ATOM     10  O   UNL     1      -2.876  89.797 -14.252  1.00  0.00    -0.507 OA
ATOM     11  H   UNL     1      -1.873  89.701 -14.336  1.00  0.00     0.293 HD
ENDBRANCH   2  10
BRANCH   4  12
ATOM     12  O   UNL     1      -4.654  91.499 -18.440  1.00  0.00    -0.497 OA
ATOM     13  C   UNL     1      -5.874  91.797 -19.111  1.00  0.00     0.278 C 
ENDBRANCH   4  12
TORSDOF 3
ENDMDL
MODEL 8
REMARK VINA RESULT:    -3.611     12.251     13.460
REMARK INTER + INTRA:          -4.471
REMARK INTER:                  -4.170
REMARK INTRA:                  -0.301
REMARK UNBOUND:                -0.332
REMARK SMILES COc1ccc(C(C)=O)c(O)c1
REMARK SMILES IDX 6 1 10 2 12 3 3 4 4 5 5 6 7 7 8 8 9 9 11 10 2 12 1 13
REMARK H PARENT 11 11
REMARK Flexibility Score: inf
ROOT
ATOM      1  C   UNL     1      -5.418  90.161 -14.178  1.00  0.00     0.059 A 
ATOM      2  C   UNL     1      -4.141  90.748 -13.993  1.00  0.00     0.130 A 
ATOM      3  C   UNL     1      -3.321  90.993 -15.101  1.00  0.00     0.093 A 
ATOM      4  C   UNL     1      -3.761  90.693 -16.403  1.00  0.00     0.122 A 
ATOM      5  C   UNL     1      -5.031  90.143 -16.582  1.00  0.00     0.047 A 
ATOM      6  C   UNL     1      -5.852  89.878 -15.485  1.00  0.00     0.019 A 
ENDROOT
BRANCH   1   7
ATOM      7  C   UNL     1      -6.290  89.803 -13.035  1.00  0.00     0.163 C 
ATOM      8  C   UNL     1      -7.728  89.434 -13.244  1.00  0.00     0.093 C 
ATOM      9  O   UNL     1      -5.807  89.724 -11.874  1.00  0.00    -0.294 OA
ENDBRANCH   1   7
BRANCH   2  10
ATOM     10  O   UNL     1      -3.668  91.128 -12.735  1.00  0.00    -0.507 OA
ATOM     11  H   UNL     1      -3.245  90.483 -12.082  1.00  0.00     0.293 HD
ENDBRANCH   2  10
BRANCH   4  12
ATOM     12  O   UNL     1      -2.971  90.930 -17.538  1.00  0.00    -0.497 OA
ATOM     13  C   UNL     1      -3.407  91.649 -18.686  1.00  0.00     0.278 C 
ENDBRANCH   4  12
TORSDOF 3
ENDMDL
MODEL 9
REMARK VINA RESULT:    -2.698      8.943      9.558
REMARK INTER + INTRA:          -3.424
REMARK INTER:                  -3.081
REMARK INTRA:                  -0.343
REMARK UNBOUND:                -0.332
REMARK SMILES COc1ccc(C(C)=O)c(O)c1
REMARK SMILES IDX 6 1 10 2 12 3 3 4 4 5 5 6 7 7 8 8 9 9 11 10 2 12 1 13
REMARK H PARENT 11 11
REMARK Flexibility Score: inf
ROOT
ATOM      1  C   UNL     1      -3.844  83.471  -8.943  1.00  0.00     0.059 A 
ATOM      2  C   UNL     1      -4.980  83.574  -9.784  1.00  0.00     0.130 A 
ATOM      3  C   UNL     1      -5.617  84.811  -9.945  1.00  0.00     0.093 A 
ATOM      4  C   UNL     1      -5.123  85.963  -9.307  1.00  0.00     0.122 A 
ATOM      5  C   UNL     1      -3.986  85.862  -8.503  1.00  0.00     0.047 A 
ATOM      6  C   UNL     1      -3.352  84.632  -8.321  1.00  0.00     0.019 A 
ENDROOT
BRANCH   1   7
ATOM      7  C   UNL     1      -3.184  82.172  -8.671  1.00  0.00     0.163 C 
ATOM      8  C   UNL     1      -2.875  81.740  -7.270  1.00  0.00     0.093 C 
ATOM      9  O   UNL     1      -2.948  81.375  -9.618  1.00  0.00    -0.294 OA
ENDBRANCH   1   7
BRANCH   2  10
ATOM     10  O   UNL     1      -5.484  82.484 -10.496  1.00  0.00    -0.507 OA
ATOM     11  H   UNL     1      -6.420  82.122 -10.370  1.00  0.00     0.293 HD
ENDBRANCH   2  10
BRANCH   4  12
ATOM     12  O   UNL     1      -5.729  87.221  -9.448  1.00  0.00    -0.497 OA
ATOM     13  C   UNL     1      -6.877  87.475 -10.252  1.00  0.00     0.278 C 
ENDBRANCH   4  12
TORSDOF 3
ENDMDL
