MODEL 1
REMARK VINA RESULT:    -4.366      0.000      0.000
REMARK INTER + INTRA:          -8.556
REMARK INTER:                  -6.918
REMARK INTRA:                  -1.637
REMARK UNBOUND:                -1.637
REMARK SMILES CCCCCCCCCCCC(=O)[O-]
REMARK SMILES IDX 7 1 8 2 9 3 10 4 11 5 12 6 13 7 14 8 6 9 5 10 4 11 3 12 2 13
REMARK SMILES IDX 1 14
REMARK H PARENT
REMARK Flexibility Score: inf
ROOT
ATOM      1  C   UNL     1      63.008  29.512  13.545  1.00  0.00     0.000 C 
ENDROOT
BRANCH   1   2
ATOM      2  C   UNL     1      62.060  28.572  12.780  1.00  0.00     0.000 C 
BRANCH   2   3
ATOM      3  C   UNL     1      60.613  28.637  13.301  1.00  0.00     0.000 C 
BRANCH   3   4
ATOM      4  C   UNL     1      59.575  28.577  12.168  1.00  0.00     0.006 C 
BRANCH   4   5
ATOM      5  C   UNL     1      59.993  29.400  10.943  1.00  0.00     0.053 C 
BRANCH   5   6
ATOM      6  C   UNL     1      60.044  28.534   9.725  1.00  0.00     0.041 C 
ATOM      7  O   UNL     1      61.154  28.186   9.241  1.00  0.00    -0.550 OA
ATOM      8  O   UNL     1      58.868  28.152   9.094  1.00  0.00    -0.550 OA
ENDBRANCH   5   6
ENDBRANCH   4   5
ENDBRANCH   3   4
ENDBRANCH   2   3
ENDBRANCH   1   2
BRANCH   1   9
ATOM      9  C   UNL     1      63.644  30.626  12.691  1.00  0.00     0.000 C 
BRANCH   9  10
ATOM     10  C   UNL     1      62.668  31.711  12.195  1.00  0.00    -0.000 C 
BRANCH  10  11
ATOM     11  C   UNL     1      61.883  32.436  13.304  1.00  0.00    -0.000 C 
BRANCH  11  12
ATOM     12  C   UNL     1      60.373  32.478  13.034  1.00  0.00    -0.000 C 
BRANCH  12  13
ATOM     13  C   UNL     1      59.582  32.041  14.273  1.00  0.00    -0.003 C 
ATOM     14  C   UNL     1      60.516  31.675  15.423  1.00  0.00     0.004 C 
ENDBRANCH  12  13
ENDBRANCH  11  12
ENDBRANCH  10  11
ENDBRANCH   9  10
ENDBRANCH   1   9
TORSDOF 10
ENDMDL
MODEL 2
REMARK VINA RESULT:    -4.258     12.397     13.969
REMARK INTER + INTRA:          -8.385
REMARK INTER:                  -6.871
REMARK INTRA:                  -1.514
REMARK UNBOUND:                -1.637
REMARK SMILES CCCCCCCCCCCC(=O)[O-]
REMARK SMILES IDX 7 1 8 2 9 3 10 4 11 5 12 6 13 7 14 8 6 9 5 10 4 11 3 12 2 13
REMARK SMILES IDX 1 14
REMARK H PARENT
REMARK Flexibility Score: inf
ROOT
ATOM      1  C   UNL     1      62.349  29.673  24.880  1.00  0.00     0.000 C 
ENDROOT
BRANCH   1   2
ATOM      2  C   UNL     1      63.869  29.601  24.650  1.00  0.00     0.000 C 
BRANCH   2   3
ATOM      3  C   UNL     1      64.546  28.512  25.500  1.00  0.00     0.000 C 
BRANCH   3   4
ATOM      4  C   UNL     1      65.463  27.600  24.669  1.00  0.00     0.006 C 
BRANCH   4   5
ATOM      5  C   UNL     1      65.027  26.131  24.711  1.00  0.00     0.053 C 
BRANCH   5   6
ATOM      6  C   UNL     1      63.996  25.861  23.661  1.00  0.00     0.041 C 
ATOM      7  O   UNL     1      63.077  25.027  23.876  1.00  0.00    -0.550 OA
ATOM      8  O   UNL     1      64.079  26.492  22.428  1.00  0.00    -0.550 OA
ENDBRANCH   5   6
ENDBRANCH   4   5
ENDBRANCH   3   4
ENDBRANCH   2   3
ENDBRANCH   1   2
BRANCH   1   9
ATOM      9  C   UNL     1      61.605  28.332  24.719  1.00  0.00     0.000 C 
BRANCH   9  10
ATOM     10  C   UNL     1      60.814  27.868  25.958  1.00  0.00    -0.000 C 
BRANCH  10  11
ATOM     11  C   UNL     1      61.587  26.938  26.911  1.00  0.00    -0.000 C 
BRANCH  11  12
ATOM     12  C   UNL     1      62.095  27.660  28.167  1.00  0.00    -0.000 C 
BRANCH  12  13
ATOM     13  C   UNL     1      61.353  28.985  28.376  1.00  0.00    -0.003 C 
ATOM     14  C   UNL     1      62.329  30.134  28.614  1.00  0.00     0.004 C 
ENDBRANCH  12  13
ENDBRANCH  11  12
ENDBRANCH  10  11
ENDBRANCH   9  10
ENDBRANCH   1   9
TORSDOF 10
ENDMDL
MODEL 3
REMARK VINA RESULT:    -4.225      2.872      4.994
REMARK INTER + INTRA:          -8.333
REMARK INTER:                  -6.880
REMARK INTRA:                  -1.453
REMARK UNBOUND:                -1.637
REMARK SMILES CCCCCCCCCCCC(=O)[O-]
REMARK SMILES IDX 7 1 8 2 9 3 10 4 11 5 12 6 13 7 14 8 6 9 5 10 4 11 3 12 2 13
REMARK SMILES IDX 1 14
REMARK H PARENT
REMARK Flexibility Score: inf
ROOT
ATOM      1  C   UNL     1      62.258  28.686  13.413  1.00  0.00     0.000 C 
ENDROOT
BRANCH   1   2
ATOM      2  C   UNL     1      62.984  29.971  13.849  1.00  0.00     0.000 C 
BRANCH   2   3
ATOM      3  C   UNL     1      63.043  31.028  12.732  1.00  0.00     0.000 C 
BRANCH   3   4
ATOM      4  C   UNL     1      62.305  32.323  13.107  1.00  0.00     0.006 C 
BRANCH   4   5
ATOM      5  C   UNL     1      60.812  32.271  12.759  1.00  0.00     0.053 C 
BRANCH   5   6
ATOM      6  C   UNL     1      59.982  32.517  13.980  1.00  0.00     0.041 C 
ATOM      7  O   UNL     1      59.020  31.752  14.256  1.00  0.00    -0.550 OA
ATOM      8  O   UNL     1      60.238  33.619  14.784  1.00  0.00    -0.550 OA
ENDBRANCH   5   6
ENDBRANCH   4   5
ENDBRANCH   3   4
ENDBRANCH   2   3
ENDBRANCH   1   2
BRANCH   1   9
ATOM      9  C   UNL     1      60.724  28.726  13.564  1.00  0.00     0.000 C 
BRANCH   9  10
ATOM     10  C   UNL     1      59.937  27.986  12.464  1.00  0.00    -0.000 C 
BRANCH  10  11
ATOM     11  C   UNL     1      59.532  28.854  11.259  1.00  0.00    -0.000 C 
BRANCH  11  12
ATOM     12  C   UNL     1      60.347  28.537   9.996  1.00  0.00    -0.000 C 
BRANCH  12  13
ATOM     13  C   UNL     1      61.482  29.550   9.808  1.00  0.00    -0.003 C 
ATOM     14  C   UNL     1      62.839  28.853   9.749  1.00  0.00     0.004 C 
ENDBRANCH  12  13
ENDBRANCH  11  12
ENDBRANCH  10  11
ENDBRANCH   9  10
ENDBRANCH   1   9
TORSDOF 10
ENDMDL
MODEL 4
REMARK VINA RESULT:    -4.188      2.988      4.588
REMARK INTER + INTRA:          -8.274
REMARK INTER:                  -6.653
REMARK INTRA:                  -1.621
REMARK UNBOUND:                -1.637
REMARK SMILES CCCCCCCCCCCC(=O)[O-]
REMARK SMILES IDX 7 1 8 2 9 3 10 4 11 5 12 6 13 7 14 8 6 9 5 10 4 11 3 12 2 13
REMARK SMILES IDX 1 14
REMARK H PARENT
REMARK Flexibility Score: inf
ROOT
ATOM      1  C   UNL     1      63.617  30.019  11.012  1.00  0.00     0.000 C 
ENDROOT
BRANCH   1   2
ATOM      2  C   UNL     1      63.375  29.483  12.434  1.00  0.00     0.000 C 
BRANCH   2   3
ATOM      3  C   UNL     1      62.457  30.398  13.264  1.00  0.00     0.000 C 
BRANCH   3   4
ATOM      4  C   UNL     1      62.076  31.686  12.518  1.00  0.00     0.006 C 
BRANCH   4   5
ATOM      5  C   UNL     1      60.570  31.969  12.563  1.00  0.00     0.053 C 
BRANCH   5   6
ATOM      6  C   UNL     1      60.154  32.370  13.944  1.00  0.00     0.041 C 
ATOM      7  O   UNL     1      59.097  31.906  14.446  1.00  0.00    -0.550 OA
ATOM      8  O   UNL     1      60.908  33.293  14.656  1.00  0.00    -0.550 OA
ENDBRANCH   5   6
ENDBRANCH   4   5
ENDBRANCH   3   4
ENDBRANCH   2   3
ENDBRANCH   1   2
BRANCH   1   9
ATOM      9  C   UNL     1      63.304  29.020   9.881  1.00  0.00     0.000 C 
BRANCH   9  10
ATOM     10  C   UNL     1      62.103  29.393   8.989  1.00  0.00    -0.000 C 
BRANCH  10  11
ATOM     11  C   UNL     1      60.754  29.497   9.726  1.00  0.00    -0.000 C 
BRANCH  11  12
ATOM     12  C   UNL     1      60.418  28.236  10.534  1.00  0.00    -0.000 C 
BRANCH  12  13
ATOM     13  C   UNL     1      59.466  28.563  11.690  1.00  0.00    -0.003 C 
ATOM     14  C   UNL     1      59.871  27.826  12.964  1.00  0.00     0.004 C 
ENDBRANCH  12  13
ENDBRANCH  11  12
ENDBRANCH  10  11
ENDBRANCH   9  10
ENDBRANCH   1   9
TORSDOF 10
ENDMDL
MODEL 5
REMARK VINA RESULT:    -4.167     13.033     15.030
REMARK INTER + INTRA:          -8.241
REMARK INTER:                  -6.771
REMARK INTRA:                  -1.470
REMARK UNBOUND:                -1.637
REMARK SMILES CCCCCCCCCCCC(=O)[O-]
REMARK SMILES IDX 7 1 8 2 9 3 10 4 11 5 12 6 13 7 14 8 6 9 5 10 4 11 3 12 2 13
REMARK SMILES IDX 1 14
REMARK H PARENT
REMARK Flexibility Score: inf
ROOT
ATOM      1  C   UNL     1      61.827  29.401  24.922  1.00  0.00     0.000 C 
ENDROOT
BRANCH   1   2
ATOM      2  C   UNL     1      63.237  30.013  24.987  1.00  0.00     0.000 C 
BRANCH   2   3
ATOM      3  C   UNL     1      63.811  30.031  26.414  1.00  0.00     0.000 C 
BRANCH   3   4
ATOM      4  C   UNL     1      62.714  30.046  27.491  1.00  0.00     0.006 C 
BRANCH   4   5
ATOM      5  C   UNL     1      62.876  28.914  28.512  1.00  0.00     0.053 C 
BRANCH   5   6
ATOM      6  C   UNL     1      61.559  28.253  28.773  1.00  0.00     0.041 C 
ATOM      7  O   UNL     1      60.536  28.949  29.006  1.00  0.00    -0.550 OA
ATOM      8  O   UNL     1      61.472  26.868  28.808  1.00  0.00    -0.550 OA
ENDBRANCH   5   6
ENDBRANCH   4   5
ENDBRANCH   3   4
ENDBRANCH   2   3
ENDBRANCH   1   2
BRANCH   1   9
ATOM      9  C   UNL     1      61.766  27.972  24.349  1.00  0.00     0.000 C 
BRANCH   9  10
ATOM     10  C   UNL     1      62.260  26.862  25.298  1.00  0.00    -0.000 C 
BRANCH  10  11
ATOM     11  C   UNL     1      63.412  26.001  24.748  1.00  0.00    -0.000 C 
BRANCH  11  12
ATOM     12  C   UNL     1      64.787  26.447  25.264  1.00  0.00    -0.000 C 
BRANCH  12  13
ATOM     13  C   UNL     1      65.560  27.206  24.179  1.00  0.00    -0.003 C 
ATOM     14  C   UNL     1      65.056  26.842  22.785  1.00  0.00     0.004 C 
ENDBRANCH  12  13
ENDBRANCH  11  12
ENDBRANCH  10  11
ENDBRANCH   9  10
ENDBRANCH   1   9
TORSDOF 10
ENDMDL
MODEL 6
REMARK VINA RESULT:    -4.158     13.198     14.480
REMARK INTER + INTRA:          -8.226
REMARK INTER:                  -6.930
REMARK INTRA:                  -1.296
REMARK UNBOUND:                -1.637
REMARK SMILES CCCCCCCCCCCC(=O)[O-]
REMARK SMILES IDX 7 1 8 2 9 3 10 4 11 5 12 6 13 7 14 8 6 9 5 10 4 11 3 12 2 13
REMARK SMILES IDX 1 14
REMARK H PARENT
REMARK Flexibility Score: inf
ROOT
ATOM      1  C   UNL     1      63.829  30.124  26.588  1.00  0.00     0.000 C 
ENDROOT
BRANCH   1   2
ATOM      2  C   UNL     1      65.301  29.774  26.867  1.00  0.00     0.000 C 
BRANCH   2   3
ATOM      3  C   UNL     1      65.930  28.924  25.749  1.00  0.00     0.000 C 
BRANCH   3   4
ATOM      4  C   UNL     1      64.881  28.155  24.931  1.00  0.00     0.006 C 
BRANCH   4   5
ATOM      5  C   UNL     1      64.756  26.689  25.364  1.00  0.00     0.053 C 
BRANCH   5   6
ATOM      6  C   UNL     1      64.537  25.809  24.174  1.00  0.00     0.041 C 
ATOM      7  O   UNL     1      65.476  25.596  23.363  1.00  0.00    -0.550 OA
ATOM      8  O   UNL     1      63.283  25.265  23.934  1.00  0.00    -0.550 OA
ENDBRANCH   5   6
ENDBRANCH   4   5
ENDBRANCH   3   4
ENDBRANCH   2   3
ENDBRANCH   1   2
BRANCH   1   9
ATOM      9  C   UNL     1      62.970  30.362  27.846  1.00  0.00     0.000 C 
BRANCH   9  10
ATOM     10  C   UNL     1      61.868  29.312  28.096  1.00  0.00    -0.000 C 
BRANCH  10  11
ATOM     11  C   UNL     1      62.347  27.849  28.069  1.00  0.00    -0.000 C 
BRANCH  11  12
ATOM     12  C   UNL     1      61.486  26.957  27.163  1.00  0.00    -0.000 C 
BRANCH  12  13
ATOM     13  C   UNL     1      61.202  27.648  25.824  1.00  0.00    -0.003 C 
ATOM     14  C   UNL     1      59.917  27.120  25.192  1.00  0.00     0.004 C 
ENDBRANCH  12  13
ENDBRANCH  11  12
ENDBRANCH  10  11
ENDBRANCH   9  10
ENDBRANCH   1   9
TORSDOF 10
ENDMDL
MODEL 7
REMARK VINA RESULT:    -4.147      1.498      2.436
REMARK INTER + INTRA:          -8.209
REMARK INTER:                  -7.022
REMARK INTRA:                  -1.187
REMARK UNBOUND:                -1.637
REMARK SMILES CCCCCCCCCCCC(=O)[O-]
REMARK SMILES IDX 7 1 8 2 9 3 10 4 11 5 12 6 13 7 14 8 6 9 5 10 4 11 3 12 2 13
REMARK SMILES IDX 1 14
REMARK H PARENT
REMARK Flexibility Score: inf
ROOT
ATOM      1  C   UNL     1      61.954  28.580  12.890  1.00  0.00     0.000 C 
ENDROOT
BRANCH   1   2
ATOM      2  C   UNL     1      63.348  29.173  12.617  1.00  0.00     0.000 C 
BRANCH   2   3
ATOM      3  C   UNL     1      63.435  29.877  11.252  1.00  0.00     0.000 C 
BRANCH   3   4
ATOM      4  C   UNL     1      63.007  28.967  10.090  1.00  0.00     0.006 C 
BRANCH   4   5
ATOM      5  C   UNL     1      61.994  29.640   9.157  1.00  0.00     0.053 C 
BRANCH   5   6
ATOM      6  C   UNL     1      60.677  28.933   9.217  1.00  0.00     0.041 C 
ATOM      7  O   UNL     1      59.614  29.587   9.388  1.00  0.00    -0.550 OA
ATOM      8  O   UNL     1      60.628  27.548   9.136  1.00  0.00    -0.550 OA
ENDBRANCH   5   6
ENDBRANCH   4   5
ENDBRANCH   3   4
ENDBRANCH   2   3
ENDBRANCH   1   2
BRANCH   1   9
ATOM      9  C   UNL     1      60.998  29.503  13.671  1.00  0.00     0.000 C 
BRANCH   9  10
ATOM     10  C   UNL     1      59.967  30.260  12.810  1.00  0.00    -0.000 C 
BRANCH  10  11
ATOM     11  C   UNL     1      60.028  31.794  12.922  1.00  0.00    -0.000 C 
BRANCH  11  12
ATOM     12  C   UNL     1      61.464  32.326  13.041  1.00  0.00    -0.000 C 
BRANCH  12  13
ATOM     13  C   UNL     1      61.678  33.030  14.386  1.00  0.00    -0.003 C 
ATOM     14  C   UNL     1      60.347  33.416  15.025  1.00  0.00     0.004 C 
ENDBRANCH  12  13
ENDBRANCH  11  12
ENDBRANCH  10  11
ENDBRANCH   9  10
ENDBRANCH   1   9
TORSDOF 10
ENDMDL
MODEL 8
REMARK VINA RESULT:    -4.076      1.960      2.598
REMARK INTER + INTRA:          -8.096
REMARK INTER:                  -6.938
REMARK INTRA:                  -1.158
REMARK UNBOUND:                -1.637
REMARK SMILES CCCCCCCCCCCC(=O)[O-]
REMARK SMILES IDX 7 1 8 2 9 3 10 4 11 5 12 6 13 7 14 8 6 9 5 10 4 11 3 12 2 13
REMARK SMILES IDX 1 14
REMARK H PARENT
REMARK Flexibility Score: inf
ROOT
ATOM      1  C   UNL     1      63.364  29.721  11.493  1.00  0.00     0.000 C 
ENDROOT
BRANCH   1   2
ATOM      2  C   UNL     1      63.023  29.040  10.155  1.00  0.00     0.000 C 
BRANCH   2   3
ATOM      3  C   UNL     1      61.585  29.330   9.691  1.00  0.00     0.000 C 
BRANCH   3   4
ATOM      4  C   UNL     1      60.565  28.344  10.282  1.00  0.00     0.006 C 
BRANCH   4   5
ATOM      5  C   UNL     1      59.607  29.012  11.276  1.00  0.00     0.053 C 
BRANCH   5   6
ATOM      6  C   UNL     1      59.575  28.251  12.564  1.00  0.00     0.041 C 
ATOM      7  O   UNL     1      58.537  27.626  12.905  1.00  0.00    -0.550 OA
ATOM      8  O   UNL     1      60.675  28.274  13.412  1.00  0.00    -0.550 OA
ENDBRANCH   5   6
ENDBRANCH   4   5
ENDBRANCH   3   4
ENDBRANCH   2   3
ENDBRANCH   1   2
BRANCH   1   9
ATOM      9  C   UNL     1      62.867  31.174  11.625  1.00  0.00     0.000 C 
BRANCH   9  10
ATOM     10  C   UNL     1      62.086  31.486  12.917  1.00  0.00    -0.000 C 
BRANCH  10  11
ATOM     11  C   UNL     1      60.737  32.197  12.706  1.00  0.00    -0.000 C 
BRANCH  11  12
ATOM     12  C   UNL     1      59.746  31.946  13.851  1.00  0.00    -0.000 C 
BRANCH  12  13
ATOM     13  C   UNL     1      60.400  32.211  15.211  1.00  0.00    -0.003 C 
ATOM     14  C   UNL     1      60.612  33.705  15.441  1.00  0.00     0.004 C 
ENDBRANCH  12  13
ENDBRANCH  11  12
ENDBRANCH  10  11
ENDBRANCH   9  10
ENDBRANCH   1   9
TORSDOF 10
ENDMDL
MODEL 9
REMARK VINA RESULT:    -4.021     12.922     14.849
REMARK INTER + INTRA:          -8.009
REMARK INTER:                  -6.908
REMARK INTRA:                  -1.101
REMARK UNBOUND:                -1.637
REMARK SMILES CCCCCCCCCCCC(=O)[O-]
REMARK SMILES IDX 7 1 8 2 9 3 10 4 11 5 12 6 13 7 14 8 6 9 5 10 4 11 3 12 2 13
REMARK SMILES IDX 1 14
REMARK H PARENT
REMARK Flexibility Score: inf
ROOT
ATOM      1  C   UNL     1      61.958  29.246  24.607  1.00  0.00     0.000 C 
ENDROOT
BRANCH   1   2
ATOM      2  C   UNL     1      61.424  27.842  24.939  1.00  0.00     0.000 C 
BRANCH   2   3
ATOM      3  C   UNL     1      60.703  27.788  26.298  1.00  0.00     0.000 C 
BRANCH   3   4
ATOM      4  C   UNL     1      61.380  26.826  27.287  1.00  0.00     0.006 C 
BRANCH   4   5
ATOM      5  C   UNL     1      62.156  27.562  28.386  1.00  0.00     0.053 C 
BRANCH   5   6
ATOM      6  C   UNL     1      61.567  28.917  28.624  1.00  0.00     0.041 C 
ATOM      7  O   UNL     1      60.417  29.028  29.125  1.00  0.00    -0.550 OA
ATOM      8  O   UNL     1      62.267  30.055  28.246  1.00  0.00    -0.550 OA
ENDBRANCH   5   6
ENDBRANCH   4   5
ENDBRANCH   3   4
ENDBRANCH   2   3
ENDBRANCH   1   2
BRANCH   1   9
ATOM      9  C   UNL     1      63.494  29.357  24.542  1.00  0.00     0.000 C 
BRANCH   9  10
ATOM     10  C   UNL     1      64.247  28.749  25.743  1.00  0.00    -0.000 C 
BRANCH  10  11
ATOM     11  C   UNL     1      65.339  27.728  25.376  1.00  0.00    -0.000 C 
BRANCH  11  12
ATOM     12  C   UNL     1      64.765  26.373  24.938  1.00  0.00    -0.000 C 
BRANCH  12  13
ATOM     13  C   UNL     1      65.253  25.999  23.534  1.00  0.00    -0.003 C 
ATOM     14  C   UNL     1      64.365  26.618  22.458  1.00  0.00     0.004 C 
ENDBRANCH  12  13
ENDBRANCH  11  12
ENDBRANCH  10  11
ENDBRANCH   9  10
ENDBRANCH   1   9
TORSDOF 10
ENDMDL
