MODEL 1
REMARK VINA RESULT:    -2.860      0.000      0.000
REMARK INTER + INTRA:          -3.212
REMARK INTER:                  -3.194
REMARK INTRA:                  -0.018
REMARK UNBOUND:                -0.018
REMARK SMILES CCCC(=O)[O-]
REMARK SMILES IDX 3 1 4 2 5 3 6 4 2 5 1 6
REMARK H PARENT
REMARK Flexibility Score: inf
ROOT
ATOM      1  C   UNL     1      40.968  66.223  46.695  1.00  0.00     0.052 C 
ENDROOT
BRANCH   1   2
ATOM      2  C   UNL     1      41.323  64.783  46.504  1.00  0.00     0.041 C 
ATOM      3  O   UNL     1      40.537  63.879  46.893  1.00  0.00    -0.550 OA
ATOM      4  O   UNL     1      42.545  64.436  45.942  1.00  0.00    -0.550 OA
ENDBRANCH   1   2
BRANCH   1   5
ATOM      5  C   UNL     1      39.975  66.382  47.850  1.00  0.00     0.003 C 
ATOM      6  C   UNL     1      39.102  67.618  47.659  1.00  0.00     0.004 C 
ENDBRANCH   1   5
TORSDOF 2
ENDMDL
MODEL 2
REMARK VINA RESULT:    -2.777     11.803     13.001
REMARK INTER + INTRA:          -3.120
REMARK INTER:                  -3.099
REMARK INTRA:                  -0.021
REMARK UNBOUND:                -0.018
REMARK SMILES CCCC(=O)[O-]
REMARK SMILES IDX 3 1 4 2 5 3 6 4 2 5 1 6
REMARK H PARENT
REMARK Flexibility Score: inf
ROOT
ATOM      1  C   UNL     1      38.691  55.634  38.691  1.00  0.00     0.052 C 
ENDROOT
BRANCH   1   2
ATOM      2  C   UNL     1      38.050  56.642  39.590  1.00  0.00     0.041 C 
ATOM      3  O   UNL     1      38.070  56.481  40.839  1.00  0.00    -0.550 OA
ATOM      4  O   UNL     1      37.386  57.735  39.048  1.00  0.00    -0.550 OA
ENDBRANCH   1   2
BRANCH   1   5
ATOM      5  C   UNL     1      38.877  54.302  39.425  1.00  0.00     0.003 C 
ATOM      6  C   UNL     1      40.148  53.594  38.966  1.00  0.00     0.004 C 
ENDBRANCH   1   5
TORSDOF 2
ENDMDL
MODEL 3
REMARK VINA RESULT:    -2.754     16.044     16.723
REMARK INTER + INTRA:          -3.094
REMARK INTER:                  -3.047
REMARK INTRA:                  -0.047
REMARK UNBOUND:                -0.018
REMARK SMILES CCCC(=O)[O-]
REMARK SMILES IDX 3 1 4 2 5 3 6 4 2 5 1 6
REMARK H PARENT
REMARK Flexibility Score: inf
ROOT
ATOM      1  C   UNL     1      32.213  51.001  49.448  1.00  0.00     0.052 C 
ENDROOT
BRANCH   1   2
ATOM      2  C   UNL     1      33.663  51.142  49.108  1.00  0.00     0.041 C 
ATOM      3  O   UNL     1      34.320  50.145  48.708  1.00  0.00    -0.550 OA
ATOM      4  O   UNL     1      34.302  52.363  49.279  1.00  0.00    -0.550 OA
ENDBRANCH   1   2
BRANCH   1   5
ATOM      5  C   UNL     1      32.046  50.398  50.846  1.00  0.00     0.003 C 
ATOM      6  C   UNL     1      32.078  51.481  51.919  1.00  0.00     0.004 C 
ENDBRANCH   1   5
TORSDOF 2
ENDMDL
MODEL 4
REMARK VINA RESULT:    -2.728     11.146     11.694
REMARK INTER + INTRA:          -3.065
REMARK INTER:                  -3.059
REMARK INTRA:                  -0.006
REMARK UNBOUND:                -0.018
REMARK SMILES CCCC(=O)[O-]
REMARK SMILES IDX 3 1 4 2 5 3 6 4 2 5 1 6
REMARK H PARENT
REMARK Flexibility Score: inf
ROOT
ATOM      1  C   UNL     1      37.192  59.385  55.203  1.00  0.00     0.052 C 
ENDROOT
BRANCH   1   2
ATOM      2  C   UNL     1      37.264  57.958  55.643  1.00  0.00     0.041 C 
ATOM      3  O   UNL     1      37.803  57.660  56.742  1.00  0.00    -0.550 OA
ATOM      4  O   UNL     1      36.779  56.951  54.820  1.00  0.00    -0.550 OA
ENDBRANCH   1   2
BRANCH   1   5
ATOM      5  C   UNL     1      36.273  60.187  56.129  1.00  0.00     0.003 C 
ATOM      6  C   UNL     1      36.202  61.650  55.702  1.00  0.00     0.004 C 
ENDBRANCH   1   5
TORSDOF 2
ENDMDL
MODEL 5
REMARK VINA RESULT:    -2.697      6.767      7.240
REMARK INTER + INTRA:          -3.030
REMARK INTER:                  -3.022
REMARK INTRA:                  -0.008
REMARK UNBOUND:                -0.018
REMARK SMILES CCCC(=O)[O-]
REMARK SMILES IDX 3 1 4 2 5 3 6 4 2 5 1 6
REMARK H PARENT
REMARK Flexibility Score: inf
ROOT
ATOM      1  C   UNL     1      44.129  66.248  52.490  1.00  0.00     0.052 C 
ENDROOT
BRANCH   1   2
ATOM      2  C   UNL     1      43.211  65.561  53.450  1.00  0.00     0.041 C 
ATOM      3  O   UNL     1      42.046  66.001  53.637  1.00  0.00    -0.550 OA
ATOM      4  O   UNL     1      43.656  64.463  54.174  1.00  0.00    -0.550 OA
ENDBRANCH   1   2
BRANCH   1   5
ATOM      5  C   UNL     1      45.097  65.242  51.860  1.00  0.00     0.003 C 
ATOM      6  C   UNL     1      45.580  65.723  50.496  1.00  0.00     0.004 C 
ENDBRANCH   1   5
TORSDOF 2
ENDMDL
MODEL 6
REMARK VINA RESULT:    -2.686     15.451     16.421
REMARK INTER + INTRA:          -3.019
REMARK INTER:                  -3.006
REMARK INTRA:                  -0.012
REMARK UNBOUND:                -0.018
REMARK SMILES CCCC(=O)[O-]
REMARK SMILES IDX 3 1 4 2 5 3 6 4 2 5 1 6
REMARK H PARENT
REMARK Flexibility Score: inf
ROOT
ATOM      1  C   UNL     1      33.685  51.280  48.760  1.00  0.00     0.052 C 
ENDROOT
BRANCH   1   2
ATOM      2  C   UNL     1      33.922  52.199  49.916  1.00  0.00     0.041 C 
ATOM      3  O   UNL     1      34.644  53.221  49.774  1.00  0.00    -0.550 OA
ATOM      4  O   UNL     1      33.388  51.902  51.163  1.00  0.00    -0.550 OA
ENDBRANCH   1   2
BRANCH   1   5
ATOM      5  C   UNL     1      33.601  49.828  49.238  1.00  0.00     0.003 C 
ATOM      6  C   UNL     1      34.507  48.923  48.409  1.00  0.00     0.004 C 
ENDBRANCH   1   5
TORSDOF 2
ENDMDL
MODEL 7
REMARK VINA RESULT:    -2.678     10.451     11.282
REMARK INTER + INTRA:          -3.010
REMARK INTER:                  -2.989
REMARK INTRA:                  -0.020
REMARK UNBOUND:                -0.018
REMARK SMILES CCCC(=O)[O-]
REMARK SMILES IDX 3 1 4 2 5 3 6 4 2 5 1 6
REMARK H PARENT
REMARK Flexibility Score: inf
ROOT
ATOM      1  C   UNL     1      36.468  60.168  55.997  1.00  0.00     0.052 C 
ENDROOT
BRANCH   1   2
ATOM      2  C   UNL     1      37.045  61.524  55.739  1.00  0.00     0.041 C 
ATOM      3  O   UNL     1      38.284  61.717  55.851  1.00  0.00    -0.550 OA
ATOM      4  O   UNL     1      36.209  62.587  55.423  1.00  0.00    -0.550 OA
ENDBRANCH   1   2
BRANCH   1   5
ATOM      5  C   UNL     1      37.205  59.107  55.175  1.00  0.00     0.003 C 
ATOM      6  C   UNL     1      37.326  57.798  55.948  1.00  0.00     0.004 C 
ENDBRANCH   1   5
TORSDOF 2
ENDMDL
MODEL 8
REMARK VINA RESULT:    -2.563      2.102      3.074
REMARK INTER + INTRA:          -2.880
REMARK INTER:                  -2.866
REMARK INTRA:                  -0.014
REMARK UNBOUND:                -0.018
REMARK SMILES CCCC(=O)[O-]
REMARK SMILES IDX 3 1 4 2 5 3 6 4 2 5 1 6
REMARK H PARENT
REMARK Flexibility Score: inf
ROOT
ATOM      1  C   UNL     1      42.331  65.979  47.147  1.00  0.00     0.052 C 
ENDROOT
BRANCH   1   2
ATOM      2  C   UNL     1      42.066  64.722  46.382  1.00  0.00     0.041 C 
ATOM      3  O   UNL     1      42.910  64.297  45.550  1.00  0.00    -0.550 OA
ATOM      4  O   UNL     1      40.864  64.045  46.549  1.00  0.00    -0.550 OA
ENDBRANCH   1   2
BRANCH   1   5
ATOM      5  C   UNL     1      43.837  66.187  47.332  1.00  0.00     0.003 C 
ATOM      6  C   UNL     1      44.163  66.613  48.760  1.00  0.00     0.004 C 
ENDBRANCH   1   5
TORSDOF 2
ENDMDL
MODEL 9
REMARK VINA RESULT:    -2.514      4.810      5.373
REMARK INTER + INTRA:          -2.826
REMARK INTER:                  -2.807
REMARK INTRA:                  -0.020
REMARK UNBOUND:                -0.018
REMARK SMILES CCCC(=O)[O-]
REMARK SMILES IDX 3 1 4 2 5 3 6 4 2 5 1 6
REMARK H PARENT
REMARK Flexibility Score: inf
ROOT
ATOM      1  C   UNL     1      44.417  66.975  50.179  1.00  0.00     0.052 C 
ENDROOT
BRANCH   1   2
ATOM      2  C   UNL     1      43.809  66.772  48.828  1.00  0.00     0.041 C 
ATOM      3  O   UNL     1      44.488  66.265  47.897  1.00  0.00    -0.550 OA
ATOM      4  O   UNL     1      42.507  67.188  48.582  1.00  0.00    -0.550 OA
ENDBRANCH   1   2
BRANCH   1   5
ATOM      5  C   UNL     1      45.465  65.894  50.463  1.00  0.00     0.003 C 
ATOM      6  C   UNL     1      45.116  65.108  51.724  1.00  0.00     0.004 C 
ENDBRANCH   1   5
TORSDOF 2
ENDMDL
