MODEL 1
REMARK VINA RESULT:    -4.843      0.000      0.000
REMARK INTER + INTRA:         -17.605
REMARK INTER:                 -12.769
REMARK INTRA:                  -4.836
REMARK UNBOUND:                -4.836
REMARK SMILES CCCCCCCCCCCCCCCCCCCCCCCCCCCCCC(=O)[O-]
REMARK SMILES IDX 16 1 17 2 18 3 19 4 20 5 21 6 22 7 23 8 24 9 25 10 26 11
REMARK SMILES IDX 27 12 28 13 29 14 30 15 31 16 32 17 15 18 14 19 13 20 12 21
REMARK SMILES IDX 11 22 10 23 9 24 8 25 7 26 6 27 5 28 4 29 3 30 2 31 1 32
REMARK H PARENT
REMARK Flexibility Score: inf
ROOT
ATOM      1  C   UNL     1     -49.315  11.105 -29.276  1.00  0.00     0.000 C 
ENDROOT
BRANCH   1   2
ATOM      2  C   UNL     1     -49.242  12.601 -29.608  1.00  0.00     0.000 C 
BRANCH   2   3
ATOM      3  C   UNL     1     -49.286  12.830 -31.126  1.00  0.00     0.000 C 
BRANCH   3   4
ATOM      4  C   UNL     1     -49.758  14.245 -31.495  1.00  0.00     0.000 C 
BRANCH   4   5
ATOM      5  C   UNL     1     -51.267  14.313 -31.773  1.00  0.00     0.000 C 
BRANCH   5   6
ATOM      6  C   UNL     1     -51.826  12.915 -32.074  1.00  0.00     0.000 C 
BRANCH   6   7
ATOM      7  C   UNL     1     -53.091  12.587 -31.262  1.00  0.00     0.000 C 
BRANCH   7   8
ATOM      8  C   UNL     1     -53.503  13.656 -30.229  1.00  0.00     0.000 C 
BRANCH   8   9
ATOM      9  C   UNL     1     -52.969  13.429 -28.803  1.00  0.00     0.000 C 
BRANCH   9  10
ATOM     10  C   UNL     1     -52.641  14.738 -28.069  1.00  0.00     0.000 C 
BRANCH  10  11
ATOM     11  C   UNL     1     -53.846  15.685 -28.076  1.00  0.00     0.000 C 
BRANCH  11  12
ATOM     12  C   UNL     1     -53.407  17.137 -27.844  1.00  0.00     0.000 C 
BRANCH  12  13
ATOM     13  C   UNL     1     -53.838  18.036 -29.012  1.00  0.00     0.006 C 
BRANCH  13  14
ATOM     14  C   UNL     1     -53.387  17.483 -30.371  1.00  0.00     0.053 C 
BRANCH  14  15
ATOM     15  C   UNL     1     -52.066  18.050 -30.792  1.00  0.00     0.041 C 
ATOM     16  O   UNL     1     -50.995  17.515 -30.403  1.00  0.00    -0.550 OA
ATOM     17  O   UNL     1     -52.018  19.190 -31.586  1.00  0.00    -0.550 OA
ENDBRANCH  14  15
ENDBRANCH  13  14
ENDBRANCH  12  13
ENDBRANCH  11  12
ENDBRANCH  10  11
ENDBRANCH   9  10
ENDBRANCH   8   9
ENDBRANCH   7   8
ENDBRANCH   6   7
ENDBRANCH   5   6
ENDBRANCH   4   5
ENDBRANCH   3   4
ENDBRANCH   2   3
ENDBRANCH   1   2
BRANCH   1  18
ATOM     18  C   UNL     1     -50.730  10.560 -29.502  1.00  0.00     0.000 C 
BRANCH  18  19
ATOM     19  C   UNL     1     -50.748   9.529 -30.636  1.00  0.00     0.000 C 
BRANCH  19  20
ATOM     20  C   UNL     1     -52.156   8.946 -30.826  1.00  0.00     0.000 C 
BRANCH  20  21
ATOM     21  C   UNL     1     -52.274   7.484 -30.359  1.00  0.00     0.000 C 
BRANCH  21  22
ATOM     22  C   UNL     1     -53.244   6.609 -31.174  1.00  0.00     0.000 C 
BRANCH  22  23
ATOM     23  C   UNL     1     -53.901   7.364 -32.340  1.00  0.00     0.000 C 
BRANCH  23  24
ATOM     24  C   UNL     1     -53.819   6.593 -33.670  1.00  0.00    -0.000 C 
BRANCH  24  25
ATOM     25  C   UNL     1     -52.606   6.938 -34.558  1.00  0.00    -0.000 C 
BRANCH  25  26
ATOM     26  C   UNL     1     -51.246   6.440 -34.037  1.00  0.00    -0.000 C 
BRANCH  26  27
ATOM     27  C   UNL     1     -50.274   7.589 -33.716  1.00  0.00    -0.000 C 
BRANCH  27  28
ATOM     28  C   UNL     1     -48.904   7.084 -33.237  1.00  0.00    -0.000 C 
BRANCH  28  29
ATOM     29  C   UNL     1     -48.961   6.466 -31.829  1.00  0.00    -0.000 C 
BRANCH  29  30
ATOM     30  C   UNL     1     -47.878   7.023 -30.889  1.00  0.00    -0.000 C 
BRANCH  30  31
ATOM     31  C   UNL     1     -47.161   8.282 -31.409  1.00  0.00    -0.003 C 
ATOM     32  C   UNL     1     -46.460   9.071 -30.303  1.00  0.00     0.004 C 
ENDBRANCH  30  31
ENDBRANCH  29  30
ENDBRANCH  28  29
ENDBRANCH  27  28
ENDBRANCH  26  27
ENDBRANCH  25  26
ENDBRANCH  24  25
ENDBRANCH  23  24
ENDBRANCH  22  23
ENDBRANCH  21  22
ENDBRANCH  20  21
ENDBRANCH  19  20
ENDBRANCH  18  19
ENDBRANCH   1  18
TORSDOF 28
ENDMDL
MODEL 2
REMARK VINA RESULT:    -4.459      1.397      3.589
REMARK INTER + INTRA:         -16.594
REMARK INTER:                 -11.778
REMARK INTRA:                  -4.815
REMARK UNBOUND:                -4.836
REMARK SMILES CCCCCCCCCCCCCCCCCCCCCCCCCCCCCC(=O)[O-]
REMARK SMILES IDX 16 1 17 2 18 3 19 4 20 5 21 6 22 7 23 8 24 9 25 10 26 11
REMARK SMILES IDX 27 12 28 13 29 14 30 15 31 16 32 17 15 18 14 19 13 20 12 21
REMARK SMILES IDX 11 22 10 23 9 24 8 25 7 26 6 27 5 28 4 29 3 30 2 31 1 32
REMARK H PARENT
REMARK Flexibility Score: inf
ROOT
ATOM      1  C   UNL     1     -49.558  10.894 -29.519  1.00  0.00     0.000 C 
ENDROOT
BRANCH   1   2
ATOM      2  C   UNL     1     -49.674  11.758 -30.781  1.00  0.00     0.000 C 
BRANCH   2   3
ATOM      3  C   UNL     1     -50.815  11.265 -31.683  1.00  0.00     0.000 C 
BRANCH   3   4
ATOM      4  C   UNL     1     -51.827  10.389 -30.927  1.00  0.00     0.000 C 
BRANCH   4   5
ATOM      5  C   UNL     1     -53.154  11.115 -30.661  1.00  0.00     0.000 C 
BRANCH   5   6
ATOM      6  C   UNL     1     -53.159  12.498 -31.327  1.00  0.00     0.000 C 
BRANCH   6   7
ATOM      7  C   UNL     1     -53.477  13.637 -30.341  1.00  0.00     0.000 C 
BRANCH   7   8
ATOM      8  C   UNL     1     -53.169  13.328 -28.861  1.00  0.00     0.000 C 
BRANCH   8   9
ATOM      9  C   UNL     1     -53.667  14.382 -27.855  1.00  0.00     0.000 C 
BRANCH   9  10
ATOM     10  C   UNL     1     -52.728  15.593 -27.741  1.00  0.00     0.000 C 
BRANCH  10  11
ATOM     11  C   UNL     1     -53.473  16.894 -28.059  1.00  0.00     0.000 C 
BRANCH  11  12
ATOM     12  C   UNL     1     -53.050  17.452 -29.424  1.00  0.00     0.000 C 
BRANCH  12  13
ATOM     13  C   UNL     1     -51.527  17.383 -29.599  1.00  0.00     0.006 C 
BRANCH  13  14
ATOM     14  C   UNL     1     -51.117  17.177 -31.064  1.00  0.00     0.053 C 
BRANCH  14  15
ATOM     15  C   UNL     1     -50.652  15.776 -31.321  1.00  0.00     0.041 C 
ATOM     16  O   UNL     1     -50.477  14.982 -30.360  1.00  0.00    -0.550 OA
ATOM     17  O   UNL     1     -50.379  15.358 -32.617  1.00  0.00    -0.550 OA
ENDBRANCH  14  15
ENDBRANCH  13  14
ENDBRANCH  12  13
ENDBRANCH  11  12
ENDBRANCH  10  11
ENDBRANCH   9  10
ENDBRANCH   8   9
ENDBRANCH   7   8
ENDBRANCH   6   7
ENDBRANCH   5   6
ENDBRANCH   4   5
ENDBRANCH   3   4
ENDBRANCH   2   3
ENDBRANCH   1   2
BRANCH   1  18
ATOM     18  C   UNL     1     -48.120  10.886 -28.988  1.00  0.00     0.000 C 
BRANCH  18  19
ATOM     19  C   UNL     1     -47.422   9.559 -29.309  1.00  0.00     0.000 C 
BRANCH  19  20
ATOM     20  C   UNL     1     -48.413   8.545 -29.900  1.00  0.00     0.000 C 
BRANCH  20  21
ATOM     21  C   UNL     1     -47.724   7.306 -30.499  1.00  0.00     0.000 C 
BRANCH  21  22
ATOM     22  C   UNL     1     -47.297   7.438 -31.972  1.00  0.00     0.000 C 
BRANCH  22  23
ATOM     23  C   UNL     1     -47.789   8.740 -32.627  1.00  0.00     0.000 C 
BRANCH  23  24
ATOM     24  C   UNL     1     -48.843   8.494 -33.721  1.00  0.00    -0.000 C 
BRANCH  24  25
ATOM     25  C   UNL     1     -50.175   7.893 -33.229  1.00  0.00    -0.000 C 
BRANCH  25  26
ATOM     26  C   UNL     1     -50.654   6.645 -33.992  1.00  0.00    -0.000 C 
BRANCH  26  27
ATOM     27  C   UNL     1     -52.171   6.650 -34.253  1.00  0.00    -0.000 C 
BRANCH  27  28
ATOM     28  C   UNL     1     -52.889   7.799 -33.528  1.00  0.00    -0.000 C 
BRANCH  28  29
ATOM     29  C   UNL     1     -53.976   7.301 -32.560  1.00  0.00    -0.000 C 
BRANCH  29  30
ATOM     30  C   UNL     1     -53.445   6.271 -31.547  1.00  0.00    -0.000 C 
BRANCH  30  31
ATOM     31  C   UNL     1     -52.460   6.838 -30.510  1.00  0.00    -0.003 C 
ATOM     32  C   UNL     1     -51.186   6.005 -30.377  1.00  0.00     0.004 C 
ENDBRANCH  30  31
ENDBRANCH  29  30
ENDBRANCH  28  29
ENDBRANCH  27  28
ENDBRANCH  26  27
ENDBRANCH  25  26
ENDBRANCH  24  25
ENDBRANCH  23  24
ENDBRANCH  22  23
ENDBRANCH  21  22
ENDBRANCH  20  21
ENDBRANCH  19  20
ENDBRANCH  18  19
ENDBRANCH   1  18
TORSDOF 28
ENDMDL
MODEL 3
REMARK VINA RESULT:    -4.422      3.015      8.521
REMARK INTER + INTRA:         -16.496
REMARK INTER:                 -11.907
REMARK INTRA:                  -4.589
REMARK UNBOUND:                -4.836
REMARK SMILES CCCCCCCCCCCCCCCCCCCCCCCCCCCCCC(=O)[O-]
REMARK SMILES IDX 16 1 17 2 18 3 19 4 20 5 21 6 22 7 23 8 24 9 25 10 26 11
REMARK SMILES IDX 27 12 28 13 29 14 30 15 31 16 32 17 15 18 14 19 13 20 12 21
REMARK SMILES IDX 11 22 10 23 9 24 8 25 7 26 6 27 5 28 4 29 3 30 2 31 1 32
REMARK H PARENT
REMARK Flexibility Score: inf
ROOT
ATOM      1  C   UNL     1     -52.047  11.702 -31.903  1.00  0.00     0.000 C 
ENDROOT
BRANCH   1   2
ATOM      2  C   UNL     1     -51.898  10.201 -32.177  1.00  0.00     0.000 C 
BRANCH   2   3
ATOM      3  C   UNL     1     -51.950   9.395 -30.870  1.00  0.00     0.000 C 
BRANCH   3   4
ATOM      4  C   UNL     1     -53.162   8.453 -30.807  1.00  0.00     0.000 C 
BRANCH   4   5
ATOM      5  C   UNL     1     -52.763   6.990 -30.560  1.00  0.00     0.000 C 
BRANCH   5   6
ATOM      6  C   UNL     1     -53.449   6.063 -31.574  1.00  0.00     0.000 C 
BRANCH   6   7
ATOM      7  C   UNL     1     -54.124   6.828 -32.725  1.00  0.00     0.000 C 
BRANCH   7   8
ATOM      8  C   UNL     1     -53.486   6.621 -34.114  1.00  0.00     0.000 C 
BRANCH   8   9
ATOM      9  C   UNL     1     -52.141   7.339 -34.331  1.00  0.00     0.000 C 
BRANCH   9  10
ATOM     10  C   UNL     1     -50.930   6.415 -34.135  1.00  0.00     0.000 C 
BRANCH  10  11
ATOM     11  C   UNL     1     -50.046   6.909 -32.984  1.00  0.00     0.000 C 
BRANCH  11  12
ATOM     12  C   UNL     1     -49.295   8.188 -33.376  1.00  0.00     0.000 C 
BRANCH  12  13
ATOM     13  C   UNL     1     -48.392   8.670 -32.231  1.00  0.00     0.006 C 
BRANCH  13  14
ATOM     14  C   UNL     1     -48.559   7.824 -30.961  1.00  0.00     0.053 C 
BRANCH  14  15
ATOM     15  C   UNL     1     -47.237   7.443 -30.368  1.00  0.00     0.041 C 
ATOM     16  O   UNL     1     -46.951   6.231 -30.185  1.00  0.00    -0.550 OA
ATOM     17  O   UNL     1     -46.335   8.429 -29.986  1.00  0.00    -0.550 OA
ENDBRANCH  14  15
ENDBRANCH  13  14
ENDBRANCH  12  13
ENDBRANCH  11  12
ENDBRANCH  10  11
ENDBRANCH   9  10
ENDBRANCH   8   9
ENDBRANCH   7   8
ENDBRANCH   6   7
ENDBRANCH   5   6
ENDBRANCH   4   5
ENDBRANCH   3   4
ENDBRANCH   2   3
ENDBRANCH   1   2
BRANCH   1  18
ATOM     18  C   UNL     1     -53.109  11.964 -30.829  1.00  0.00     0.000 C 
BRANCH  18  19
ATOM     19  C   UNL     1     -52.609  12.979 -29.794  1.00  0.00     0.000 C 
BRANCH  19  20
ATOM     20  C   UNL     1     -53.500  12.974 -28.544  1.00  0.00     0.000 C 
BRANCH  20  21
ATOM     21  C   UNL     1     -53.876  14.387 -28.063  1.00  0.00     0.000 C 
BRANCH  21  22
ATOM     22  C   UNL     1     -52.688  15.331 -27.801  1.00  0.00     0.000 C 
BRANCH  22  23
ATOM     23  C   UNL     1     -53.083  16.816 -27.817  1.00  0.00     0.000 C 
BRANCH  23  24
ATOM     24  C   UNL     1     -52.823  17.487 -29.178  1.00  0.00    -0.000 C 
BRANCH  24  25
ATOM     25  C   UNL     1     -51.541  17.031 -29.903  1.00  0.00    -0.000 C 
BRANCH  25  26
ATOM     26  C   UNL     1     -51.760  16.064 -31.081  1.00  0.00    -0.000 C 
BRANCH  26  27
ATOM     27  C   UNL     1     -50.499  15.881 -31.944  1.00  0.00    -0.000 C 
BRANCH  27  28
ATOM     28  C   UNL     1     -49.897  14.474 -31.815  1.00  0.00    -0.000 C 
BRANCH  28  29
ATOM     29  C   UNL     1     -49.576  14.099 -30.358  1.00  0.00    -0.000 C 
BRANCH  29  30
ATOM     30  C   UNL     1     -48.544  12.962 -30.248  1.00  0.00    -0.000 C 
BRANCH  30  31
ATOM     31  C   UNL     1     -49.150  11.560 -30.059  1.00  0.00    -0.003 C 
ATOM     32  C   UNL     1     -48.579  10.819 -28.851  1.00  0.00     0.004 C 
ENDBRANCH  30  31
ENDBRANCH  29  30
ENDBRANCH  28  29
ENDBRANCH  27  28
ENDBRANCH  26  27
ENDBRANCH  25  26
ENDBRANCH  24  25
ENDBRANCH  23  24
ENDBRANCH  22  23
ENDBRANCH  21  22
ENDBRANCH  20  21
ENDBRANCH  19  20
ENDBRANCH  18  19
ENDBRANCH   1  18
TORSDOF 28
ENDMDL
MODEL 4
REMARK VINA RESULT:    -4.362      2.790      9.178
REMARK INTER + INTRA:         -16.339
REMARK INTER:                 -12.202
REMARK INTRA:                  -4.137
REMARK UNBOUND:                -4.836
REMARK SMILES CCCCCCCCCCCCCCCCCCCCCCCCCCCCCC(=O)[O-]
REMARK SMILES IDX 16 1 17 2 18 3 19 4 20 5 21 6 22 7 23 8 24 9 25 10 26 11
REMARK SMILES IDX 27 12 28 13 29 14 30 15 31 16 32 17 15 18 14 19 13 20 12 21
REMARK SMILES IDX 11 22 10 23 9 24 8 25 7 26 6 27 5 28 4 29 3 30 2 31 1 32
REMARK H PARENT
REMARK Flexibility Score: inf
ROOT
ATOM      1  C   UNL     1     -49.205  11.598 -29.986  1.00  0.00     0.000 C 
ENDROOT
BRANCH   1   2
ATOM      2  C   UNL     1     -50.306  10.533 -29.902  1.00  0.00     0.000 C 
BRANCH   2   3
ATOM      3  C   UNL     1     -50.468   9.801 -31.242  1.00  0.00     0.000 C 
BRANCH   3   4
ATOM      4  C   UNL     1     -51.897   9.279 -31.459  1.00  0.00     0.000 C 
BRANCH   4   5
ATOM      5  C   UNL     1     -52.338   8.290 -30.370  1.00  0.00     0.000 C 
BRANCH   5   6
ATOM      6  C   UNL     1     -53.020   7.064 -30.994  1.00  0.00     0.000 C 
BRANCH   6   7
ATOM      7  C   UNL     1     -54.119   7.440 -32.004  1.00  0.00     0.000 C 
BRANCH   7   8
ATOM      8  C   UNL     1     -53.740   7.249 -33.487  1.00  0.00     0.000 C 
BRANCH   8   9
ATOM      9  C   UNL     1     -52.723   6.127 -33.764  1.00  0.00     0.000 C 
BRANCH   9  10
ATOM     10  C   UNL     1     -51.364   6.656 -34.249  1.00  0.00     0.000 C 
BRANCH  10  11
ATOM     11  C   UNL     1     -50.277   6.419 -33.194  1.00  0.00     0.000 C 
BRANCH  11  12
ATOM     12  C   UNL     1     -49.025   7.253 -33.497  1.00  0.00     0.000 C 
BRANCH  12  13
ATOM     13  C   UNL     1     -47.767   6.584 -32.925  1.00  0.00     0.006 C 
BRANCH  13  14
ATOM     14  C   UNL     1     -47.701   6.677 -31.394  1.00  0.00     0.053 C 
BRANCH  14  15
ATOM     15  C   UNL     1     -46.889   7.852 -30.943  1.00  0.00     0.041 C 
ATOM     16  O   UNL     1     -46.754   8.854 -31.694  1.00  0.00    -0.550 OA
ATOM     17  O   UNL     1     -46.251   7.827 -29.708  1.00  0.00    -0.550 OA
ENDBRANCH  14  15
ENDBRANCH  13  14
ENDBRANCH  12  13
ENDBRANCH  11  12
ENDBRANCH  10  11
ENDBRANCH   9  10
ENDBRANCH   8   9
ENDBRANCH   7   8
ENDBRANCH   6   7
ENDBRANCH   5   6
ENDBRANCH   4   5
ENDBRANCH   3   4
ENDBRANCH   2   3
ENDBRANCH   1   2
BRANCH   1  18
ATOM     18  C   UNL     1     -49.805  13.008 -30.026  1.00  0.00     0.000 C 
BRANCH  18  19
ATOM     19  C   UNL     1     -49.661  13.630 -31.420  1.00  0.00     0.000 C 
BRANCH  19  20
ATOM     20  C   UNL     1     -49.631  15.164 -31.337  1.00  0.00     0.000 C 
BRANCH  20  21
ATOM     21  C   UNL     1     -51.034  15.797 -31.344  1.00  0.00     0.000 C 
BRANCH  21  22
ATOM     22  C   UNL     1     -51.153  17.141 -30.602  1.00  0.00     0.000 C 
BRANCH  22  23
ATOM     23  C   UNL     1     -52.358  17.978 -31.062  1.00  0.00     0.000 C 
BRANCH  23  24
ATOM     24  C   UNL     1     -53.606  17.753 -30.190  1.00  0.00    -0.000 C 
BRANCH  24  25
ATOM     25  C   UNL     1     -53.485  18.231 -28.729  1.00  0.00    -0.000 C 
BRANCH  25  26
ATOM     26  C   UNL     1     -53.550  17.119 -27.666  1.00  0.00    -0.000 C 
BRANCH  26  27
ATOM     27  C   UNL     1     -54.039  15.777 -28.236  1.00  0.00    -0.000 C 
BRANCH  27  28
ATOM     28  C   UNL     1     -52.951  14.693 -28.205  1.00  0.00    -0.000 C 
BRANCH  28  29
ATOM     29  C   UNL     1     -53.530  13.276 -28.047  1.00  0.00    -0.000 C 
BRANCH  29  30
ATOM     30  C   UNL     1     -53.392  12.429 -29.324  1.00  0.00    -0.000 C 
BRANCH  30  31
ATOM     31  C   UNL     1     -53.655  13.193 -30.634  1.00  0.00    -0.003 C 
ATOM     32  C   UNL     1     -52.915  12.599 -31.832  1.00  0.00     0.004 C 
ENDBRANCH  30  31
ENDBRANCH  29  30
ENDBRANCH  28  29
ENDBRANCH  27  28
ENDBRANCH  26  27
ENDBRANCH  25  26
ENDBRANCH  24  25
ENDBRANCH  23  24
ENDBRANCH  22  23
ENDBRANCH  21  22
ENDBRANCH  20  21
ENDBRANCH  19  20
ENDBRANCH  18  19
ENDBRANCH   1  18
TORSDOF 28
ENDMDL
MODEL 5
REMARK VINA RESULT:    -4.036      2.928      8.668
REMARK INTER + INTRA:         -15.480
REMARK INTER:                 -11.132
REMARK INTRA:                  -4.348
REMARK UNBOUND:                -4.836
REMARK SMILES CCCCCCCCCCCCCCCCCCCCCCCCCCCCCC(=O)[O-]
REMARK SMILES IDX 16 1 17 2 18 3 19 4 20 5 21 6 22 7 23 8 24 9 25 10 26 11
REMARK SMILES IDX 27 12 28 13 29 14 30 15 31 16 32 17 15 18 14 19 13 20 12 21
REMARK SMILES IDX 11 22 10 23 9 24 8 25 7 26 6 27 5 28 4 29 3 30 2 31 1 32
REMARK H PARENT
REMARK Flexibility Score: inf
ROOT
ATOM      1  C   UNL     1     -50.202  14.125 -31.619  1.00  0.00     0.000 C 
ENDROOT
BRANCH   1   2
ATOM      2  C   UNL     1     -51.600  13.540 -31.853  1.00  0.00     0.000 C 
BRANCH   2   3
ATOM      3  C   UNL     1     -51.513  12.139 -32.476  1.00  0.00     0.000 C 
BRANCH   3   4
ATOM      4  C   UNL     1     -52.525  11.158 -31.864  1.00  0.00     0.000 C 
BRANCH   4   5
ATOM      5  C   UNL     1     -52.086   9.693 -31.999  1.00  0.00     0.000 C 
BRANCH   5   6
ATOM      6  C   UNL     1     -52.477   8.892 -30.749  1.00  0.00     0.000 C 
BRANCH   6   7
ATOM      7  C   UNL     1     -53.047   7.502 -31.081  1.00  0.00     0.000 C 
BRANCH   7   8
ATOM      8  C   UNL     1     -53.901   7.433 -32.364  1.00  0.00     0.000 C 
BRANCH   8   9
ATOM      9  C   UNL     1     -53.445   6.388 -33.399  1.00  0.00     0.000 C 
BRANCH   9  10
ATOM     10  C   UNL     1     -52.395   6.933 -34.378  1.00  0.00     0.000 C 
BRANCH  10  11
ATOM     11  C   UNL     1     -51.024   6.295 -34.122  1.00  0.00     0.000 C 
BRANCH  11  12
ATOM     12  C   UNL     1     -50.068   7.292 -33.454  1.00  0.00     0.000 C 
BRANCH  12  13
ATOM     13  C   UNL     1     -49.311   6.634 -32.292  1.00  0.00     0.006 C 
BRANCH  13  14
ATOM     14  C   UNL     1     -48.928   7.643 -31.199  1.00  0.00     0.053 C 
BRANCH  14  15
ATOM     15  C   UNL     1     -47.444   7.730 -31.018  1.00  0.00     0.041 C 
ATOM     16  O   UNL     1     -46.889   7.146 -30.050  1.00  0.00    -0.550 OA
ATOM     17  O   UNL     1     -46.677   8.485 -31.897  1.00  0.00    -0.550 OA
ENDBRANCH  14  15
ENDBRANCH  13  14
ENDBRANCH  12  13
ENDBRANCH  11  12
ENDBRANCH  10  11
ENDBRANCH   9  10
ENDBRANCH   8   9
ENDBRANCH   7   8
ENDBRANCH   6   7
ENDBRANCH   5   6
ENDBRANCH   4   5
ENDBRANCH   3   4
ENDBRANCH   2   3
ENDBRANCH   1   2
BRANCH   1  18
ATOM     18  C   UNL     1     -50.208  15.650 -31.782  1.00  0.00     0.000 C 
BRANCH  18  19
ATOM     19  C   UNL     1     -51.526  16.252 -31.279  1.00  0.00     0.000 C 
BRANCH  19  20
ATOM     20  C   UNL     1     -51.356  17.742 -30.945  1.00  0.00     0.000 C 
BRANCH  20  21
ATOM     21  C   UNL     1     -52.681  18.525 -30.982  1.00  0.00     0.000 C 
BRANCH  21  22
ATOM     22  C   UNL     1     -53.827  17.918 -30.150  1.00  0.00     0.000 C 
BRANCH  22  23
ATOM     23  C   UNL     1     -53.695  18.205 -28.646  1.00  0.00     0.000 C 
BRANCH  23  24
ATOM     24  C   UNL     1     -53.581  16.922 -27.803  1.00  0.00    -0.000 C 
BRANCH  24  25
ATOM     25  C   UNL     1     -53.912  15.612 -28.547  1.00  0.00    -0.000 C 
BRANCH  25  26
ATOM     26  C   UNL     1     -52.940  14.446 -28.292  1.00  0.00    -0.000 C 
BRANCH  26  27
ATOM     27  C   UNL     1     -53.652  13.085 -28.198  1.00  0.00    -0.000 C 
BRANCH  27  28
ATOM     28  C   UNL     1     -52.730  11.912 -28.563  1.00  0.00    -0.000 C 
BRANCH  28  29
ATOM     29  C   UNL     1     -51.265  12.345 -28.747  1.00  0.00    -0.000 C 
BRANCH  29  30
ATOM     30  C   UNL     1     -50.336  11.170 -29.097  1.00  0.00    -0.000 C 
BRANCH  30  31
ATOM     31  C   UNL     1     -48.867  11.562 -29.339  1.00  0.00    -0.003 C 
ATOM     32  C   UNL     1     -47.877  10.518 -28.823  1.00  0.00     0.004 C 
ENDBRANCH  30  31
ENDBRANCH  29  30
ENDBRANCH  28  29
ENDBRANCH  27  28
ENDBRANCH  26  27
ENDBRANCH  25  26
ENDBRANCH  24  25
ENDBRANCH  23  24
ENDBRANCH  22  23
ENDBRANCH  21  22
ENDBRANCH  20  21
ENDBRANCH  19  20
ENDBRANCH  18  19
ENDBRANCH   1  18
TORSDOF 28
ENDMDL
MODEL 6
REMARK VINA RESULT:    -3.946      2.053      4.337
REMARK INTER + INTRA:         -15.242
REMARK INTER:                 -11.222
REMARK INTRA:                  -4.020
REMARK UNBOUND:                -4.836
REMARK SMILES CCCCCCCCCCCCCCCCCCCCCCCCCCCCCC(=O)[O-]
REMARK SMILES IDX 16 1 17 2 18 3 19 4 20 5 21 6 22 7 23 8 24 9 25 10 26 11
REMARK SMILES IDX 27 12 28 13 29 14 30 15 31 16 32 17 15 18 14 19 13 20 12 21
REMARK SMILES IDX 11 22 10 23 9 24 8 25 7 26 6 27 5 28 4 29 3 30 2 31 1 32
REMARK H PARENT
REMARK Flexibility Score: inf
ROOT
ATOM      1  C   UNL     1     -52.540  12.909 -28.970  1.00  0.00     0.000 C 
ENDROOT
BRANCH   1   2
ATOM      2  C   UNL     1     -53.578  13.728 -28.194  1.00  0.00     0.000 C 
BRANCH   2   3
ATOM      3  C   UNL     1     -53.075  15.158 -27.942  1.00  0.00     0.000 C 
BRANCH   3   4
ATOM      4  C   UNL     1     -54.107  16.224 -28.341  1.00  0.00     0.000 C 
BRANCH   4   5
ATOM      5  C   UNL     1     -53.741  17.624 -27.826  1.00  0.00     0.000 C 
BRANCH   5   6
ATOM      6  C   UNL     1     -53.745  18.643 -28.975  1.00  0.00     0.000 C 
BRANCH   6   7
ATOM      7  C   UNL     1     -53.695  17.981 -30.363  1.00  0.00     0.000 C 
BRANCH   7   8
ATOM      8  C   UNL     1     -52.331  18.063 -31.080  1.00  0.00     0.000 C 
BRANCH   8   9
ATOM      9  C   UNL     1     -51.133  17.532 -30.272  1.00  0.00     0.000 C 
BRANCH   9  10
ATOM     10  C   UNL     1     -50.538  16.244 -30.860  1.00  0.00     0.000 C 
BRANCH  10  11
ATOM     11  C   UNL     1     -51.630  15.378 -31.499  1.00  0.00     0.000 C 
BRANCH  11  12
ATOM     12  C   UNL     1     -51.048  14.065 -32.038  1.00  0.00     0.000 C 
BRANCH  12  13
ATOM     13  C   UNL     1     -49.780  13.668 -31.270  1.00  0.00     0.006 C 
BRANCH  13  14
ATOM     14  C   UNL     1     -49.585  12.146 -31.213  1.00  0.00     0.053 C 
BRANCH  14  15
ATOM     15  C   UNL     1     -49.104  11.698 -29.866  1.00  0.00     0.041 C 
ATOM     16  O   UNL     1     -48.204  12.344 -29.269  1.00  0.00    -0.550 OA
ATOM     17  O   UNL     1     -49.625  10.547 -29.287  1.00  0.00    -0.550 OA
ENDBRANCH  14  15
ENDBRANCH  13  14
ENDBRANCH  12  13
ENDBRANCH  11  12
ENDBRANCH  10  11
ENDBRANCH   9  10
ENDBRANCH   8   9
ENDBRANCH   7   8
ENDBRANCH   6   7
ENDBRANCH   5   6
ENDBRANCH   4   5
ENDBRANCH   3   4
ENDBRANCH   2   3
ENDBRANCH   1   2
BRANCH   1  18
ATOM     18  C   UNL     1     -53.011  11.462 -29.160  1.00  0.00     0.000 C 
BRANCH  18  19
ATOM     19  C   UNL     1     -53.058  11.089 -30.646  1.00  0.00     0.000 C 
BRANCH  19  20
ATOM     20  C   UNL     1     -52.612   9.635 -30.862  1.00  0.00     0.000 C 
BRANCH  20  21
ATOM     21  C   UNL     1     -53.784   8.679 -31.152  1.00  0.00     0.000 C 
BRANCH  21  22
ATOM     22  C   UNL     1     -53.522   7.198 -30.822  1.00  0.00     0.000 C 
BRANCH  22  23
ATOM     23  C   UNL     1     -53.641   6.278 -32.048  1.00  0.00     0.000 C 
BRANCH  23  24
ATOM     24  C   UNL     1     -53.936   7.051 -33.346  1.00  0.00    -0.000 C 
BRANCH  24  25
ATOM     25  C   UNL     1     -52.763   7.137 -34.343  1.00  0.00    -0.000 C 
BRANCH  25  26
ATOM     26  C   UNL     1     -51.444   7.679 -33.763  1.00  0.00    -0.000 C 
BRANCH  26  27
ATOM     27  C   UNL     1     -50.394   6.577 -33.536  1.00  0.00    -0.000 C 
BRANCH  27  28
ATOM     28  C   UNL     1     -49.984   6.448 -32.062  1.00  0.00    -0.000 C 
BRANCH  28  29
ATOM     29  C   UNL     1     -48.458   6.393 -31.874  1.00  0.00    -0.000 C 
BRANCH  29  30
ATOM     30  C   UNL     1     -48.027   6.655 -30.420  1.00  0.00    -0.000 C 
BRANCH  30  31
ATOM     31  C   UNL     1     -47.005   7.793 -30.248  1.00  0.00    -0.003 C 
ATOM     32  C   UNL     1     -46.954   8.738 -31.448  1.00  0.00     0.004 C 
ENDBRANCH  30  31
ENDBRANCH  29  30
ENDBRANCH  28  29
ENDBRANCH  27  28
ENDBRANCH  26  27
ENDBRANCH  25  26
ENDBRANCH  24  25
ENDBRANCH  23  24
ENDBRANCH  22  23
ENDBRANCH  21  22
ENDBRANCH  20  21
ENDBRANCH  19  20
ENDBRANCH  18  19
ENDBRANCH   1  18
TORSDOF 28
ENDMDL
MODEL 7
REMARK VINA RESULT:    -3.914      2.699      8.622
REMARK INTER + INTRA:         -15.157
REMARK INTER:                 -10.791
REMARK INTRA:                  -4.365
REMARK UNBOUND:                -4.836
REMARK SMILES CCCCCCCCCCCCCCCCCCCCCCCCCCCCCC(=O)[O-]
REMARK SMILES IDX 16 1 17 2 18 3 19 4 20 5 21 6 22 7 23 8 24 9 25 10 26 11
REMARK SMILES IDX 27 12 28 13 29 14 30 15 31 16 32 17 15 18 14 19 13 20 12 21
REMARK SMILES IDX 11 22 10 23 9 24 8 25 7 26 6 27 5 28 4 29 3 30 2 31 1 32
REMARK H PARENT
REMARK Flexibility Score: inf
ROOT
ATOM      1  C   UNL     1     -52.335  11.302 -29.500  1.00  0.00     0.000 C 
ENDROOT
BRANCH   1   2
ATOM      2  C   UNL     1     -52.003   9.942 -30.126  1.00  0.00     0.000 C 
BRANCH   2   3
ATOM      3  C   UNL     1     -53.102   9.503 -31.105  1.00  0.00     0.000 C 
BRANCH   3   4
ATOM      4  C   UNL     1     -53.577   8.064 -30.851  1.00  0.00     0.000 C 
BRANCH   4   5
ATOM      5  C   UNL     1     -53.290   7.128 -32.035  1.00  0.00     0.000 C 
BRANCH   5   6
ATOM      6  C   UNL     1     -52.454   5.923 -31.583  1.00  0.00     0.000 C 
BRANCH   6   7
ATOM      7  C   UNL     1     -51.620   6.210 -30.322  1.00  0.00     0.000 C 
BRANCH   7   8
ATOM      8  C   UNL     1     -50.092   6.114 -30.509  1.00  0.00     0.000 C 
BRANCH   8   9
ATOM      9  C   UNL     1     -49.294   7.331 -30.007  1.00  0.00     0.000 C 
BRANCH   9  10
ATOM     10  C   UNL     1     -47.800   7.255 -30.360  1.00  0.00     0.000 C 
BRANCH  10  11
ATOM     11  C   UNL     1     -47.441   5.875 -30.922  1.00  0.00     0.000 C 
BRANCH  11  12
ATOM     12  C   UNL     1     -46.917   5.985 -32.360  1.00  0.00     0.000 C 
BRANCH  12  13
ATOM     13  C   UNL     1     -47.359   7.305 -33.008  1.00  0.00     0.006 C 
BRANCH  13  14
ATOM     14  C   UNL     1     -48.766   7.214 -33.617  1.00  0.00     0.053 C 
BRANCH  14  15
ATOM     15  C   UNL     1     -49.565   8.455 -33.359  1.00  0.00     0.041 C 
ATOM     16  O   UNL     1     -50.821   8.428 -33.445  1.00  0.00    -0.550 OA
ATOM     17  O   UNL     1     -48.921   9.649 -33.058  1.00  0.00    -0.550 OA
ENDBRANCH  14  15
ENDBRANCH  13  14
ENDBRANCH  12  13
ENDBRANCH  11  12
ENDBRANCH  10  11
ENDBRANCH   9  10
ENDBRANCH   8   9
ENDBRANCH   7   8
ENDBRANCH   6   7
ENDBRANCH   5   6
ENDBRANCH   4   5
ENDBRANCH   3   4
ENDBRANCH   2   3
ENDBRANCH   1   2
BRANCH   1  18
ATOM     18  C   UNL     1     -53.509  11.970 -30.225  1.00  0.00     0.000 C 
BRANCH  18  19
ATOM     19  C   UNL     1     -53.926  13.266 -29.521  1.00  0.00     0.000 C 
BRANCH  19  20
ATOM     20  C   UNL     1     -52.863  13.707 -28.504  1.00  0.00     0.000 C 
BRANCH  20  21
ATOM     21  C   UNL     1     -53.266  14.964 -27.713  1.00  0.00     0.000 C 
BRANCH  21  22
ATOM     22  C   UNL     1     -54.115  15.986 -28.491  1.00  0.00     0.000 C 
BRANCH  22  23
ATOM     23  C   UNL     1     -53.355  17.286 -28.803  1.00  0.00     0.000 C 
BRANCH  23  24
ATOM     24  C   UNL     1     -51.829  17.126 -28.685  1.00  0.00    -0.000 C 
BRANCH  24  25
ATOM     25  C   UNL     1     -51.038  17.371 -29.986  1.00  0.00    -0.000 C 
BRANCH  25  26
ATOM     26  C   UNL     1     -51.787  17.026 -31.286  1.00  0.00    -0.000 C 
BRANCH  26  27
ATOM     27  C   UNL     1     -51.622  15.553 -31.697  1.00  0.00    -0.000 C 
BRANCH  27  28
ATOM     28  C   UNL     1     -50.198  15.030 -31.455  1.00  0.00    -0.000 C 
BRANCH  28  29
ATOM     29  C   UNL     1     -50.145  13.500 -31.311  1.00  0.00    -0.000 C 
BRANCH  29  30
ATOM     30  C   UNL     1     -49.337  13.044 -30.083  1.00  0.00    -0.000 C 
BRANCH  30  31
ATOM     31  C   UNL     1     -48.696  11.651 -30.215  1.00  0.00    -0.003 C 
ATOM     32  C   UNL     1     -48.309  11.041 -28.868  1.00  0.00     0.004 C 
ENDBRANCH  30  31
ENDBRANCH  29  30
ENDBRANCH  28  29
ENDBRANCH  27  28
ENDBRANCH  26  27
ENDBRANCH  25  26
ENDBRANCH  24  25
ENDBRANCH  23  24
ENDBRANCH  22  23
ENDBRANCH  21  22
ENDBRANCH  20  21
ENDBRANCH  19  20
ENDBRANCH  18  19
ENDBRANCH   1  18
TORSDOF 28
ENDMDL
