MODEL 1
REMARK VINA RESULT:    -5.280      0.000      0.000
REMARK INTER + INTRA:          -8.038
REMARK INTER:                  -7.133
REMARK INTRA:                  -0.905
REMARK UNBOUND:                -0.905
REMARK SMILES CC(=O)CCC=C(C)CCC=C(C)C
REMARK SMILES IDX 7 1 6 2 8 3 9 4 10 5 11 6 13 7 12 8 14 9 5 10 4 11 2 12 3 13
REMARK SMILES IDX 1 14
REMARK H PARENT
REMARK Flexibility Score: inf
ROOT
ATOM      1  C   UNL     1      17.271  -9.980  64.871  1.00  0.00    -0.077 C 
ATOM      2  C   UNL     1      16.913 -10.073  66.173  1.00  0.00    -0.028 C 
ATOM      3  C   UNL     1      16.312  -9.325  63.912  1.00  0.00     0.039 C 
ENDROOT
BRANCH   1   4
ATOM      4  C   UNL     1      18.559 -10.566  64.326  1.00  0.00     0.034 C 
BRANCH   4   5
ATOM      5  C   UNL     1      19.665  -9.506  64.297  1.00  0.00     0.032 C 
BRANCH   5   6
ATOM      6  C   UNL     1      20.981 -10.099  63.856  1.00  0.00    -0.028 C 
ATOM      7  C   UNL     1      21.639 -10.616  66.208  1.00  0.00     0.039 C 
ATOM      8  C   UNL     1      21.886 -10.607  64.719  1.00  0.00    -0.080 C 
ATOM      9  C   UNL     1      23.170 -11.174  64.170  1.00  0.00     0.039 C 
ENDBRANCH   5   6
ENDBRANCH   4   5
ENDBRANCH   1   4
BRANCH   2  10
ATOM     10  C   UNL     1      17.768 -10.671  67.265  1.00  0.00     0.035 C 
BRANCH  10  11
ATOM     11  C   UNL     1      18.516  -9.588  68.055  1.00  0.00     0.079 C 
BRANCH  11  12
ATOM     12  C   UNL     1      19.247 -10.169  69.239  1.00  0.00     0.130 C 
ATOM     13  O   UNL     1      19.469  -9.466  70.213  1.00  0.00    -0.300 OA
ATOM     14  C   UNL     1      19.705 -11.597  69.246  1.00  0.00     0.087 C 
ENDBRANCH  11  12
ENDBRANCH  10  11
ENDBRANCH   2  10
TORSDOF 6
ENDMDL
MODEL 2
REMARK VINA RESULT:    -5.188      2.982      4.861
REMARK INTER + INTRA:          -7.913
REMARK INTER:                  -6.521
REMARK INTRA:                  -1.392
REMARK UNBOUND:                -0.905
REMARK SMILES CC(=O)CCC=C(C)CCC=C(C)C
REMARK SMILES IDX 7 1 6 2 8 3 9 4 10 5 11 6 13 7 12 8 14 9 5 10 4 11 2 12 3 13
REMARK SMILES IDX 1 14
REMARK H PARENT
REMARK Flexibility Score: inf
ROOT
ATOM      1  C   UNL     1      17.223 -11.349  66.966  1.00  0.00    -0.077 C 
ATOM      2  C   UNL     1      16.635 -11.698  65.798  1.00  0.00    -0.028 C 
ATOM      3  C   UNL     1      17.515 -12.433  67.970  1.00  0.00     0.039 C 
ENDROOT
BRANCH   1   4
ATOM      4  C   UNL     1      17.539  -9.913  67.334  1.00  0.00     0.034 C 
BRANCH   4   5
ATOM      5  C   UNL     1      19.054  -9.687  67.384  1.00  0.00     0.032 C 
BRANCH   5   6
ATOM      6  C   UNL     1      19.595  -9.297  66.030  1.00  0.00    -0.028 C 
ATOM      7  C   UNL     1      20.683 -11.524  65.724  1.00  0.00     0.039 C 
ATOM      8  C   UNL     1      20.338 -10.127  65.267  1.00  0.00    -0.080 C 
ATOM      9  C   UNL     1      20.829  -9.635  63.930  1.00  0.00     0.039 C 
ENDBRANCH   5   6
ENDBRANCH   4   5
ENDBRANCH   1   4
BRANCH   2  10
ATOM     10  C   UNL     1      16.303 -10.742  64.677  1.00  0.00     0.035 C 
BRANCH  10  11
ATOM     11  C   UNL     1      17.167 -11.007  63.436  1.00  0.00     0.079 C 
BRANCH  11  12
ATOM     12  C   UNL     1      16.410 -11.786  62.389  1.00  0.00     0.130 C 
ATOM     13  O   UNL     1      16.888 -12.820  61.947  1.00  0.00    -0.300 OA
ATOM     14  C   UNL     1      15.079 -11.319  61.882  1.00  0.00     0.087 C 
ENDBRANCH  11  12
ENDBRANCH  10  11
ENDBRANCH   2  10
TORSDOF 6
ENDMDL
MODEL 3
REMARK VINA RESULT:    -5.160      2.358      4.301
REMARK INTER + INTRA:          -7.875
REMARK INTER:                  -7.014
REMARK INTRA:                  -0.862
REMARK UNBOUND:                -0.905
REMARK SMILES CC(=O)CCC=C(C)CCC=C(C)C
REMARK SMILES IDX 7 1 6 2 8 3 9 4 10 5 11 6 13 7 12 8 14 9 5 10 4 11 2 12 3 13
REMARK SMILES IDX 1 14
REMARK H PARENT
REMARK Flexibility Score: inf
ROOT
ATOM      1  C   UNL     1      17.406 -11.208  65.444  1.00  0.00    -0.077 C 
ATOM      2  C   UNL     1      17.318 -11.118  66.791  1.00  0.00    -0.028 C 
ATOM      3  C   UNL     1      17.196 -12.554  64.803  1.00  0.00     0.039 C 
ENDROOT
BRANCH   1   4
ATOM      4  C   UNL     1      17.772 -10.031  64.561  1.00  0.00     0.034 C 
BRANCH   4   5
ATOM      5  C   UNL     1      16.522  -9.230  64.181  1.00  0.00     0.032 C 
BRANCH   5   6
ATOM      6  C   UNL     1      15.912  -9.743  62.899  1.00  0.00    -0.028 C 
ATOM      7  C   UNL     1      13.968 -10.732  64.115  1.00  0.00     0.039 C 
ATOM      8  C   UNL     1      14.750 -10.428  62.859  1.00  0.00    -0.080 C 
ATOM      9  C   UNL     1      14.231 -10.896  61.524  1.00  0.00     0.039 C 
ENDBRANCH   5   6
ENDBRANCH   4   5
ENDBRANCH   1   4
BRANCH   2  10
ATOM     10  C   UNL     1      17.472  -9.843  67.585  1.00  0.00     0.035 C 
BRANCH  10  11
ATOM     11  C   UNL     1      18.945  -9.541  67.890  1.00  0.00     0.079 C 
BRANCH  11  12
ATOM     12  C   UNL     1      19.370 -10.131  69.212  1.00  0.00     0.130 C 
ATOM     13  O   UNL     1      19.323  -9.443  70.220  1.00  0.00    -0.300 OA
ATOM     14  C   UNL     1      19.848 -11.548  69.314  1.00  0.00     0.087 C 
ENDBRANCH  11  12
ENDBRANCH  10  11
ENDBRANCH   2  10
TORSDOF 6
ENDMDL
MODEL 4
REMARK VINA RESULT:    -5.153      2.374      4.032
REMARK INTER + INTRA:          -7.865
REMARK INTER:                  -7.021
REMARK INTRA:                  -0.844
REMARK UNBOUND:                -0.905
REMARK SMILES CC(=O)CCC=C(C)CCC=C(C)C
REMARK SMILES IDX 7 1 6 2 8 3 9 4 10 5 11 6 13 7 12 8 14 9 5 10 4 11 2 12 3 13
REMARK SMILES IDX 1 14
REMARK H PARENT
REMARK Flexibility Score: inf
ROOT
ATOM      1  C   UNL     1      16.411 -10.817  65.735  1.00  0.00    -0.077 C 
ATOM      2  C   UNL     1      17.342 -11.235  66.624  1.00  0.00    -0.028 C 
ATOM      3  C   UNL     1      15.093 -11.545  65.685  1.00  0.00     0.039 C 
ENDROOT
BRANCH   1   4
ATOM      4  C   UNL     1      16.660  -9.697  64.744  1.00  0.00     0.034 C 
BRANCH   4   5
ATOM      5  C   UNL     1      17.198 -10.254  63.422  1.00  0.00     0.032 C 
BRANCH   5   6
ATOM      6  C   UNL     1      16.077 -10.543  62.453  1.00  0.00    -0.028 C 
ATOM      7  C   UNL     1      16.517 -12.999  62.538  1.00  0.00     0.039 C 
ATOM      8  C   UNL     1      15.760 -11.790  62.044  1.00  0.00    -0.080 C 
ATOM      9  C   UNL     1      14.622 -11.965  61.072  1.00  0.00     0.039 C 
ENDBRANCH   5   6
ENDBRANCH   4   5
ENDBRANCH   1   4
BRANCH   2  10
ATOM     10  C   UNL     1      18.696 -10.598  66.822  1.00  0.00     0.035 C 
BRANCH  10  11
ATOM     11  C   UNL     1      18.680  -9.581  67.971  1.00  0.00     0.079 C 
BRANCH  11  12
ATOM     12  C   UNL     1      19.345 -10.131  69.208  1.00  0.00     0.130 C 
ATOM     13  O   UNL     1      19.414  -9.438  70.212  1.00  0.00    -0.300 OA
ATOM     14  C   UNL     1      19.921 -11.515  69.232  1.00  0.00     0.087 C 
ENDBRANCH  11  12
ENDBRANCH  10  11
ENDBRANCH   2  10
TORSDOF 6
ENDMDL
MODEL 5
REMARK VINA RESULT:    -5.050      2.116      4.869
REMARK INTER + INTRA:          -7.726
REMARK INTER:                  -6.946
REMARK INTRA:                  -0.780
REMARK UNBOUND:                -0.905
REMARK SMILES CC(=O)CCC=C(C)CCC=C(C)C
REMARK SMILES IDX 7 1 6 2 8 3 9 4 10 5 11 6 13 7 12 8 14 9 5 10 4 11 2 12 3 13
REMARK SMILES IDX 1 14
REMARK H PARENT
REMARK Flexibility Score: inf
ROOT
ATOM      1  C   UNL     1      17.841 -10.469  64.585  1.00  0.00    -0.077 C 
ATOM      2  C   UNL     1      18.806  -9.960  65.385  1.00  0.00    -0.028 C 
ATOM      3  C   UNL     1      17.578  -9.793  63.265  1.00  0.00     0.039 C 
ENDROOT
BRANCH   1   4
ATOM      4  C   UNL     1      16.971 -11.644  64.986  1.00  0.00     0.034 C 
BRANCH   4   5
ATOM      5  C   UNL     1      15.663 -11.157  65.618  1.00  0.00     0.032 C 
BRANCH   5   6
ATOM      6  C   UNL     1      14.469 -11.855  65.011  1.00  0.00    -0.028 C 
ATOM      7  C   UNL     1      13.902  -9.863  63.615  1.00  0.00     0.039 C 
ATOM      8  C   UNL     1      13.662 -11.273  64.099  1.00  0.00    -0.080 C 
ATOM      9  C   UNL     1      12.495 -12.060  63.559  1.00  0.00     0.039 C 
ENDBRANCH   5   6
ENDBRANCH   4   5
ENDBRANCH   1   4
BRANCH   2  10
ATOM     10  C   UNL     1      19.214 -10.534  66.721  1.00  0.00     0.035 C 
BRANCH  10  11
ATOM     11  C   UNL     1      18.915  -9.561  67.870  1.00  0.00     0.079 C 
BRANCH  11  12
ATOM     12  C   UNL     1      19.320 -10.136  69.204  1.00  0.00     0.130 C 
ATOM     13  O   UNL     1      19.325  -9.417  70.192  1.00  0.00    -0.300 OA
ATOM     14  C   UNL     1      19.713 -11.576  69.344  1.00  0.00     0.087 C 
ENDBRANCH  11  12
ENDBRANCH  10  11
ENDBRANCH   2  10
TORSDOF 6
ENDMDL
MODEL 6
REMARK VINA RESULT:    -4.983     14.095     15.915
REMARK INTER + INTRA:          -7.636
REMARK INTER:                  -6.105
REMARK INTRA:                  -1.531
REMARK UNBOUND:                -0.905
REMARK SMILES CC(=O)CCC=C(C)CCC=C(C)C
REMARK SMILES IDX 7 1 6 2 8 3 9 4 10 5 11 6 13 7 12 8 14 9 5 10 4 11 2 12 3 13
REMARK SMILES IDX 1 14
REMARK H PARENT
REMARK Flexibility Score: inf
ROOT
ATOM      1  C   UNL     1       9.497  -9.679  54.879  1.00  0.00    -0.077 C 
ATOM      2  C   UNL     1       8.738  -8.775  54.217  1.00  0.00    -0.028 C 
ATOM      3  C   UNL     1      10.995  -9.583  54.752  1.00  0.00     0.039 C 
ENDROOT
BRANCH   1   4
ATOM      4  C   UNL     1       8.906 -10.820  55.683  1.00  0.00     0.034 C 
BRANCH   4   5
ATOM      5  C   UNL     1       9.322 -10.717  57.154  1.00  0.00     0.032 C 
BRANCH   5   6
ATOM      6  C   UNL     1       8.131 -10.452  58.043  1.00  0.00    -0.028 C 
ATOM      7  C   UNL     1       8.673  -8.019  58.196  1.00  0.00     0.039 C 
ATOM      8  C   UNL     1       7.827  -9.227  58.522  1.00  0.00    -0.080 C 
ATOM      9  C   UNL     1       6.614  -9.075  59.404  1.00  0.00     0.039 C 
ENDBRANCH   5   6
ENDBRANCH   4   5
ENDBRANCH   1   4
BRANCH   2  10
ATOM     10  C   UNL     1       7.230  -8.712  54.262  1.00  0.00     0.035 C 
BRANCH  10  11
ATOM     11  C   UNL     1       6.738  -7.462  55.003  1.00  0.00     0.079 C 
BRANCH  11  12
ATOM     12  C   UNL     1       5.648  -7.796  55.991  1.00  0.00     0.130 C 
ATOM     13  O   UNL     1       5.233  -8.942  56.064  1.00  0.00    -0.300 OA
ATOM     14  C   UNL     1       5.066  -6.748  56.892  1.00  0.00     0.087 C 
ENDBRANCH  11  12
ENDBRANCH  10  11
ENDBRANCH   2  10
TORSDOF 6
ENDMDL
MODEL 7
REMARK VINA RESULT:    -4.955      2.271      4.097
REMARK INTER + INTRA:          -7.598
REMARK INTER:                  -6.458
REMARK INTRA:                  -1.140
REMARK UNBOUND:                -0.905
REMARK SMILES CC(=O)CCC=C(C)CCC=C(C)C
REMARK SMILES IDX 7 1 6 2 8 3 9 4 10 5 11 6 13 7 12 8 14 9 5 10 4 11 2 12 3 13
REMARK SMILES IDX 1 14
REMARK H PARENT
REMARK Flexibility Score: inf
ROOT
ATOM      1  C   UNL     1      18.992 -10.008  66.959  1.00  0.00    -0.077 C 
ATOM      2  C   UNL     1      19.867 -10.468  67.884  1.00  0.00    -0.028 C 
ATOM      3  C   UNL     1      19.519  -9.642  65.597  1.00  0.00     0.039 C 
ENDROOT
BRANCH   1   4
ATOM      4  C   UNL     1      17.522  -9.782  67.256  1.00  0.00     0.034 C 
BRANCH   4   5
ATOM      5  C   UNL     1      16.720 -11.067  67.028  1.00  0.00     0.032 C 
BRANCH   5   6
ATOM      6  C   UNL     1      16.397 -11.259  65.566  1.00  0.00    -0.028 C 
ATOM      7  C   UNL     1      17.912 -13.237  65.399  1.00  0.00     0.039 C 
ATOM      8  C   UNL     1      16.935 -12.244  64.816  1.00  0.00    -0.080 C 
ATOM      9  C   UNL     1      16.544 -12.345  63.364  1.00  0.00     0.039 C 
ENDBRANCH   5   6
ENDBRANCH   4   5
ENDBRANCH   1   4
BRANCH   2  10
ATOM     10  C   UNL     1      19.499 -10.906  69.282  1.00  0.00     0.035 C 
BRANCH  10  11
ATOM     11  C   UNL     1      19.813 -12.391  69.510  1.00  0.00     0.079 C 
BRANCH  11  12
ATOM     12  C   UNL     1      18.610 -13.140  70.026  1.00  0.00     0.130 C 
ATOM     13  O   UNL     1      18.433 -13.235  71.231  1.00  0.00    -0.300 OA
ATOM     14  C   UNL     1      17.623 -13.768  69.088  1.00  0.00     0.087 C 
ENDBRANCH  11  12
ENDBRANCH  10  11
ENDBRANCH   2  10
TORSDOF 6
ENDMDL
MODEL 8
REMARK VINA RESULT:    -4.919      1.383      4.132
REMARK INTER + INTRA:          -7.550
REMARK INTER:                  -6.660
REMARK INTRA:                  -0.890
REMARK UNBOUND:                -0.905
REMARK SMILES CC(=O)CCC=C(C)CCC=C(C)C
REMARK SMILES IDX 7 1 6 2 8 3 9 4 10 5 11 6 13 7 12 8 14 9 5 10 4 11 2 12 3 13
REMARK SMILES IDX 1 14
REMARK H PARENT
REMARK Flexibility Score: inf
ROOT
ATOM      1  C   UNL     1      19.814  -9.676  64.846  1.00  0.00    -0.077 C 
ATOM      2  C   UNL     1      19.960  -9.685  66.191  1.00  0.00    -0.028 C 
ATOM      3  C   UNL     1      21.043  -9.847  63.993  1.00  0.00     0.039 C 
ENDROOT
BRANCH   1   4
ATOM      4  C   UNL     1      18.482  -9.436  64.163  1.00  0.00     0.034 C 
BRANCH   4   5
ATOM      5  C   UNL     1      17.789 -10.766  63.846  1.00  0.00     0.032 C 
BRANCH   5   6
ATOM      6  C   UNL     1      16.319 -10.564  63.566  1.00  0.00    -0.028 C 
ATOM      7  C   UNL     1      15.676 -11.504  65.788  1.00  0.00     0.039 C 
ATOM      8  C   UNL     1      15.350 -10.898  64.444  1.00  0.00    -0.080 C 
ATOM      9  C   UNL     1      13.912 -10.655  64.062  1.00  0.00     0.039 C 
ENDBRANCH   5   6
ENDBRANCH   4   5
ENDBRANCH   1   4
BRANCH   2  10
ATOM     10  C   UNL     1      18.831  -9.557  67.186  1.00  0.00     0.035 C 
BRANCH  10  11
ATOM     11  C   UNL     1      18.598 -10.869  67.948  1.00  0.00     0.079 C 
BRANCH  11  12
ATOM     12  C   UNL     1      19.542 -11.005  69.117  1.00  0.00     0.130 C 
ATOM     13  O   UNL     1      19.566 -10.136  69.975  1.00  0.00    -0.300 OA
ATOM     14  C   UNL     1      20.450 -12.191  69.250  1.00  0.00     0.087 C 
ENDBRANCH  11  12
ENDBRANCH  10  11
ENDBRANCH   2  10
TORSDOF 6
ENDMDL
MODEL 9
REMARK VINA RESULT:    -4.902      1.776      2.863
REMARK INTER + INTRA:          -7.527
REMARK INTER:                  -6.364
REMARK INTRA:                  -1.163
REMARK UNBOUND:                -0.905
REMARK SMILES CC(=O)CCC=C(C)CCC=C(C)C
REMARK SMILES IDX 7 1 6 2 8 3 9 4 10 5 11 6 13 7 12 8 14 9 5 10 4 11 2 12 3 13
REMARK SMILES IDX 1 14
REMARK H PARENT
REMARK Flexibility Score: inf
ROOT
ATOM      1  C   UNL     1      17.273 -11.327  67.019  1.00  0.00    -0.077 C 
ATOM      2  C   UNL     1      17.467 -12.504  67.658  1.00  0.00    -0.028 C 
ATOM      3  C   UNL     1      16.691 -11.356  65.630  1.00  0.00     0.039 C 
ENDROOT
BRANCH   1   4
ATOM      4  C   UNL     1      17.678  -9.991  67.610  1.00  0.00     0.034 C 
BRANCH   4   5
ATOM      5  C   UNL     1      19.197  -9.804  67.534  1.00  0.00     0.032 C 
BRANCH   5   6
ATOM      6  C   UNL     1      19.634  -9.439  66.136  1.00  0.00    -0.028 C 
ATOM      7  C   UNL     1      20.785 -11.633  65.828  1.00  0.00     0.039 C 
ATOM      8  C   UNL     1      20.358 -10.265  65.352  1.00  0.00    -0.080 C 
ATOM      9  C   UNL     1      20.744  -9.799  63.972  1.00  0.00     0.039 C 
ENDBRANCH   5   6
ENDBRANCH   4   5
ENDBRANCH   1   4
BRANCH   2  10
ATOM     10  C   UNL     1      18.010 -12.649  69.060  1.00  0.00     0.035 C 
BRANCH  10  11
ATOM     11  C   UNL     1      19.170 -13.652  69.115  1.00  0.00     0.079 C 
BRANCH  11  12
ATOM     12  C   UNL     1      20.481 -12.969  69.411  1.00  0.00     0.130 C 
ATOM     13  O   UNL     1      20.484 -11.917  70.033  1.00  0.00    -0.300 OA
ATOM     14  C   UNL     1      21.785 -13.557  68.960  1.00  0.00     0.087 C 
ENDBRANCH  11  12
ENDBRANCH  10  11
ENDBRANCH   2  10
TORSDOF 6
ENDMDL
