MODEL 1
REMARK VINA RESULT:    -6.525      0.000      0.000
REMARK INTER + INTRA:          -6.525
REMARK INTER:                  -6.525
REMARK INTRA:                   0.000
REMARK UNBOUND:                 0.000
REMARK SMILES O=c1ccc2ccc3occc3c2o1
REMARK SMILES IDX 6 1 7 2 8 3 12 4 11 5 10 6 9 7 13 8 5 9 4 10 3 11 2 12 1 13
REMARK SMILES IDX 14 14
REMARK H PARENT
REMARK Flexibility Score: inf
ROOT
ATOM      1  C   UNL     1      47.272  68.198   3.997  1.00  0.00     0.016 A 
ATOM      2  C   UNL     1      46.170  68.927   4.483  1.00  0.00     0.048 A 
ATOM      3  C   UNL     1      44.932  68.289   4.532  1.00  0.00     0.137 A 
ATOM      4  C   UNL     1      44.769  66.993   4.122  1.00  0.00     0.064 A 
ATOM      5  C   UNL     1      43.440  66.680   4.301  1.00  0.00     0.054 A 
ATOM      6  C   UNL     1      42.875  67.841   4.820  1.00  0.00     0.196 A 
ATOM      7  O   UNL     1      43.791  68.784   4.946  1.00  0.00    -0.464 OA
ATOM      8  C   UNL     1      45.833  66.238   3.635  1.00  0.00     0.149 A 
ATOM      9  C   UNL     1      47.109  66.856   3.572  1.00  0.00     0.018 A 
ATOM     10  C   UNL     1      48.181  66.104   3.084  1.00  0.00     0.019 A 
ATOM     11  C   UNL     1      47.965  64.786   2.679  1.00  0.00     0.094 A 
ATOM     12  C   UNL     1      46.676  64.245   2.771  1.00  0.00     0.336 A 
ATOM     13  O   UNL     1      46.465  63.058   2.410  1.00  0.00    -0.246 OA
ATOM     14  O   UNL     1      45.669  64.979   3.239  1.00  0.00    -0.422 OA
ENDROOT
TORSDOF 0
ENDMDL
MODEL 2
REMARK VINA RESULT:    -6.501      1.720      4.750
REMARK INTER + INTRA:          -6.501
REMARK INTER:                  -6.501
REMARK INTRA:                   0.000
REMARK UNBOUND:                 0.000
REMARK SMILES O=c1ccc2ccc3occc3c2o1
REMARK SMILES IDX 6 1 7 2 8 3 12 4 11 5 10 6 9 7 13 8 5 9 4 10 3 11 2 12 1 13
REMARK SMILES IDX 14 14
REMARK H PARENT
REMARK Flexibility Score: inf
ROOT
ATOM      1  C   UNL     1      42.876  65.572   3.400  1.00  0.00     0.016 A 
ATOM      2  C   UNL     1      43.182  64.217   3.177  1.00  0.00     0.048 A 
ATOM      3  C   UNL     1      44.518  63.825   3.250  1.00  0.00     0.137 A 
ATOM      4  C   UNL     1      45.519  64.716   3.528  1.00  0.00     0.064 A 
ATOM      5  C   UNL     1      46.699  64.007   3.524  1.00  0.00     0.054 A 
ATOM      6  C   UNL     1      46.320  62.700   3.235  1.00  0.00     0.196 A 
ATOM      7  O   UNL     1      45.011  62.623   3.076  1.00  0.00    -0.464 OA
ATOM      8  C   UNL     1      45.258  66.065   3.755  1.00  0.00     0.149 A 
ATOM      9  C   UNL     1      43.909  66.499   3.689  1.00  0.00     0.018 A 
ATOM     10  C   UNL     1      43.640  67.851   3.915  1.00  0.00     0.019 A 
ATOM     11  C   UNL     1      44.695  68.721   4.196  1.00  0.00     0.094 A 
ATOM     12  C   UNL     1      46.001  68.219   4.243  1.00  0.00     0.336 A 
ATOM     13  O   UNL     1      46.963  68.991   4.495  1.00  0.00    -0.246 OA
ATOM     14  O   UNL     1      46.235  66.927   4.025  1.00  0.00    -0.422 OA
ENDROOT
TORSDOF 0
ENDMDL
MODEL 3
REMARK VINA RESULT:    -6.316      1.687      3.472
REMARK INTER + INTRA:          -6.316
REMARK INTER:                  -6.316
REMARK INTRA:                   0.000
REMARK UNBOUND:                 0.000
REMARK SMILES O=c1ccc2ccc3occc3c2o1
REMARK SMILES IDX 6 1 7 2 8 3 12 4 11 5 10 6 9 7 13 8 5 9 4 10 3 11 2 12 1 13
REMARK SMILES IDX 14 14
REMARK H PARENT
REMARK Flexibility Score: inf
ROOT
ATOM      1  C   UNL     1      44.377  68.380   4.531  1.00  0.00     0.016 A 
ATOM      2  C   UNL     1      45.642  68.995   4.476  1.00  0.00     0.048 A 
ATOM      3  C   UNL     1      46.716  68.245   3.998  1.00  0.00     0.137 A 
ATOM      4  C   UNL     1      46.567  66.946   3.591  1.00  0.00     0.064 A 
ATOM      5  C   UNL     1      47.808  66.510   3.184  1.00  0.00     0.054 A 
ATOM      6  C   UNL     1      48.644  67.604   3.380  1.00  0.00     0.196 A 
ATOM      7  O   UNL     1      47.963  68.625   3.867  1.00  0.00    -0.464 OA
ATOM      8  C   UNL     1      45.332  66.303   3.629  1.00  0.00     0.149 A 
ATOM      9  C   UNL     1      44.218  67.036   4.110  1.00  0.00     0.018 A 
ATOM     10  C   UNL     1      42.977  66.396   4.152  1.00  0.00     0.019 A 
ATOM     11  C   UNL     1      42.875  65.071   3.725  1.00  0.00     0.094 A 
ATOM     12  C   UNL     1      44.022  64.412   3.263  1.00  0.00     0.336 A 
ATOM     13  O   UNL     1      43.946  63.217   2.875  1.00  0.00    -0.246 OA
ATOM     14  O   UNL     1      45.194  65.041   3.232  1.00  0.00    -0.422 OA
ENDROOT
TORSDOF 0
ENDMDL
MODEL 4
REMARK VINA RESULT:    -6.301      1.517      2.755
REMARK INTER + INTRA:          -6.301
REMARK INTER:                  -6.301
REMARK INTRA:                   0.000
REMARK UNBOUND:                 0.000
REMARK SMILES O=c1ccc2ccc3occc3c2o1
REMARK SMILES IDX 6 1 7 2 8 3 12 4 11 5 10 6 9 7 13 8 5 9 4 10 3 11 2 12 1 13
REMARK SMILES IDX 14 14
REMARK H PARENT
REMARK Flexibility Score: inf
ROOT
ATOM      1  C   UNL     1      43.567  64.740   2.882  1.00  0.00     0.016 A 
ATOM      2  C   UNL     1      42.949  65.986   3.102  1.00  0.00     0.048 A 
ATOM      3  C   UNL     1      43.732  67.031   3.587  1.00  0.00     0.137 A 
ATOM      4  C   UNL     1      45.066  66.873   3.852  1.00  0.00     0.064 A 
ATOM      5  C   UNL     1      45.530  68.085   4.312  1.00  0.00     0.054 A 
ATOM      6  C   UNL     1      44.414  68.915   4.294  1.00  0.00     0.196 A 
ATOM      7  O   UNL     1      43.355  68.257   3.857  1.00  0.00    -0.464 OA
ATOM      8  C   UNL     1      45.715  65.657   3.648  1.00  0.00     0.149 A 
ATOM      9  C   UNL     1      44.948  64.572   3.154  1.00  0.00     0.018 A 
ATOM     10  C   UNL     1      45.593  63.350   2.948  1.00  0.00     0.019 A 
ATOM     11  C   UNL     1      46.955  63.238   3.232  1.00  0.00     0.094 A 
ATOM     12  C   UNL     1      47.646  64.355   3.718  1.00  0.00     0.336 A 
ATOM     13  O   UNL     1      48.874  64.270   3.979  1.00  0.00    -0.246 OA
ATOM     14  O   UNL     1      47.011  65.510   3.907  1.00  0.00    -0.422 OA
ENDROOT
TORSDOF 0
ENDMDL
MODEL 5
REMARK VINA RESULT:    -6.298      1.097      4.268
REMARK INTER + INTRA:          -6.298
REMARK INTER:                  -6.298
REMARK INTRA:                   0.000
REMARK UNBOUND:                 0.000
REMARK SMILES O=c1ccc2ccc3occc3c2o1
REMARK SMILES IDX 6 1 7 2 8 3 12 4 11 5 10 6 9 7 13 8 5 9 4 10 3 11 2 12 1 13
REMARK SMILES IDX 14 14
REMARK H PARENT
REMARK Flexibility Score: inf
ROOT
ATOM      1  C   UNL     1      47.879  67.040   3.362  1.00  0.00     0.016 A 
ATOM      2  C   UNL     1      48.145  65.724   2.939  1.00  0.00     0.048 A 
ATOM      3  C   UNL     1      47.109  64.793   2.999  1.00  0.00     0.137 A 
ATOM      4  C   UNL     1      45.862  65.127   3.454  1.00  0.00     0.064 A 
ATOM      5  C   UNL     1      45.091  63.989   3.382  1.00  0.00     0.054 A 
ATOM      6  C   UNL     1      45.949  63.018   2.875  1.00  0.00     0.196 A 
ATOM      7  O   UNL     1      47.147  63.529   2.657  1.00  0.00    -0.464 OA
ATOM      8  C   UNL     1      45.559  66.418   3.882  1.00  0.00     0.149 A 
ATOM      9  C   UNL     1      46.589  67.391   3.833  1.00  0.00     0.018 A 
ATOM     10  C   UNL     1      46.292  68.687   4.261  1.00  0.00     0.019 A 
ATOM     11  C   UNL     1      45.005  68.979   4.716  1.00  0.00     0.094 A 
ATOM     12  C   UNL     1      44.040  67.964   4.735  1.00  0.00     0.336 A 
ATOM     13  O   UNL     1      42.875  68.212   5.143  1.00  0.00    -0.246 OA
ATOM     14  O   UNL     1      44.345  66.737   4.323  1.00  0.00    -0.422 OA
ENDROOT
TORSDOF 0
ENDMDL
MODEL 6
REMARK VINA RESULT:    -6.053      8.763     11.293
REMARK INTER + INTRA:          -6.053
REMARK INTER:                  -6.053
REMARK INTRA:                   0.000
REMARK UNBOUND:                 0.000
REMARK SMILES O=c1ccc2ccc3occc3c2o1
REMARK SMILES IDX 6 1 7 2 8 3 12 4 11 5 10 6 9 7 13 8 5 9 4 10 3 11 2 12 1 13
REMARK SMILES IDX 14 14
REMARK H PARENT
REMARK Flexibility Score: inf
ROOT
ATOM      1  C   UNL     1      53.366  61.195   8.293  1.00  0.00     0.016 A 
ATOM      2  C   UNL     1      54.221  60.244   8.881  1.00  0.00     0.048 A 
ATOM      3  C   UNL     1      54.650  59.174   8.096  1.00  0.00     0.137 A 
ATOM      4  C   UNL     1      54.262  59.033   6.791  1.00  0.00     0.064 A 
ATOM      5  C   UNL     1      54.858  57.886   6.318  1.00  0.00     0.054 A 
ATOM      6  C   UNL     1      55.585  57.398   7.399  1.00  0.00     0.196 A 
ATOM      7  O   UNL     1      55.441  58.190   8.447  1.00  0.00    -0.464 OA
ATOM      8  C   UNL     1      53.418  59.953   6.173  1.00  0.00     0.149 A 
ATOM      9  C   UNL     1      52.962  61.054   6.942  1.00  0.00     0.018 A 
ATOM     10  C   UNL     1      52.114  61.980   6.329  1.00  0.00     0.019 A 
ATOM     11  C   UNL     1      51.747  61.793   4.995  1.00  0.00     0.094 A 
ATOM     12  C   UNL     1      52.238  60.680   4.301  1.00  0.00     0.336 A 
ATOM     13  O   UNL     1      51.916  60.498   3.098  1.00  0.00    -0.246 OA
ATOM     14  O   UNL     1      53.045  59.810   4.905  1.00  0.00    -0.422 OA
ENDROOT
TORSDOF 0
ENDMDL
MODEL 7
REMARK VINA RESULT:    -6.031      8.846     11.123
REMARK INTER + INTRA:          -6.031
REMARK INTER:                  -6.031
REMARK INTRA:                   0.000
REMARK UNBOUND:                 0.000
REMARK SMILES O=c1ccc2ccc3occc3c2o1
REMARK SMILES IDX 6 1 7 2 8 3 12 4 11 5 10 6 9 7 13 8 5 9 4 10 3 11 2 12 1 13
REMARK SMILES IDX 14 14
REMARK H PARENT
REMARK Flexibility Score: inf
ROOT
ATOM      1  C   UNL     1      51.298  58.770  -0.653  1.00  0.00     0.016 A 
ATOM      2  C   UNL     1      50.497  59.255   0.398  1.00  0.00     0.048 A 
ATOM      3  C   UNL     1      51.114  59.547   1.613  1.00  0.00     0.137 A 
ATOM      4  C   UNL     1      52.459  59.373   1.801  1.00  0.00     0.064 A 
ATOM      5  C   UNL     1      52.734  59.752   3.096  1.00  0.00     0.054 A 
ATOM      6  C   UNL     1      51.503  60.138   3.616  1.00  0.00     0.196 A 
ATOM      7  O   UNL     1      50.555  60.004   2.706  1.00  0.00    -0.464 OA
ATOM      8  C   UNL     1      53.286  58.896   0.787  1.00  0.00     0.149 A 
ATOM      9  C   UNL     1      52.691  58.589  -0.463  1.00  0.00     0.018 A 
ATOM     10  C   UNL     1      53.515  58.109  -1.484  1.00  0.00     0.019 A 
ATOM     11  C   UNL     1      54.881  57.950  -1.244  1.00  0.00     0.094 A 
ATOM     12  C   UNL     1      55.395  58.274   0.018  1.00  0.00     0.336 A 
ATOM     13  O   UNL     1      56.624  58.136   0.250  1.00  0.00    -0.246 OA
ATOM     14  O   UNL     1      54.592  58.730   0.976  1.00  0.00    -0.422 OA
ENDROOT
TORSDOF 0
ENDMDL
MODEL 8
REMARK VINA RESULT:    -6.014      8.686     10.816
REMARK INTER + INTRA:          -6.014
REMARK INTER:                  -6.014
REMARK INTRA:                   0.000
REMARK UNBOUND:                 0.000
REMARK SMILES O=c1ccc2ccc3occc3c2o1
REMARK SMILES IDX 6 1 7 2 8 3 12 4 11 5 10 6 9 7 13 8 5 9 4 10 3 11 2 12 1 13
REMARK SMILES IDX 14 14
REMARK H PARENT
REMARK Flexibility Score: inf
ROOT
ATOM      1  C   UNL     1      53.099  61.309   7.812  1.00  0.00     0.016 A 
ATOM      2  C   UNL     1      52.298  61.893   6.812  1.00  0.00     0.048 A 
ATOM      3  C   UNL     1      52.171  61.222   5.597  1.00  0.00     0.137 A 
ATOM      4  C   UNL     1      52.800  60.029   5.361  1.00  0.00     0.064 A 
ATOM      5  C   UNL     1      52.467  59.647   4.081  1.00  0.00     0.054 A 
ATOM      6  C   UNL     1      51.638  60.664   3.618  1.00  0.00     0.196 A 
ATOM      7  O   UNL     1      51.481  61.590   4.546  1.00  0.00    -0.464 OA
ATOM      8  C   UNL     1      53.600  59.418   6.324  1.00  0.00     0.149 A 
ATOM      9  C   UNL     1      53.751  60.074   7.572  1.00  0.00     0.018 A 
ATOM     10  C   UNL     1      54.553  59.467   8.542  1.00  0.00     0.019 A 
ATOM     11  C   UNL     1      55.172  58.250   8.254  1.00  0.00     0.094 A 
ATOM     12  C   UNL     1      54.977  57.664   6.997  1.00  0.00     0.336 A 
ATOM     13  O   UNL     1      55.529  56.566   6.723  1.00  0.00    -0.246 OA
ATOM     14  O   UNL     1      54.208  58.259   6.088  1.00  0.00    -0.422 OA
ENDROOT
TORSDOF 0
ENDMDL
MODEL 9
REMARK VINA RESULT:    -5.970      9.085     11.838
REMARK INTER + INTRA:          -5.970
REMARK INTER:                  -5.970
REMARK INTRA:                   0.000
REMARK UNBOUND:                 0.000
REMARK SMILES O=c1ccc2ccc3occc3c2o1
REMARK SMILES IDX 6 1 7 2 8 3 12 4 11 5 10 6 9 7 13 8 5 9 4 10 3 11 2 12 1 13
REMARK SMILES IDX 14 14
REMARK H PARENT
REMARK Flexibility Score: inf
ROOT
ATOM      1  C   UNL     1      51.371  58.961  -0.539  1.00  0.00     0.016 A 
ATOM      2  C   UNL     1      52.349  58.438  -1.405  1.00  0.00     0.048 A 
ATOM      3  C   UNL     1      53.629  58.224  -0.896  1.00  0.00     0.137 A 
ATOM      4  C   UNL     1      53.947  58.509   0.404  1.00  0.00     0.064 A 
ATOM      5  C   UNL     1      55.275  58.184   0.572  1.00  0.00     0.054 A 
ATOM      6  C   UNL     1      55.679  57.713  -0.673  1.00  0.00     0.196 A 
ATOM      7  O   UNL     1      54.674  57.750  -1.529  1.00  0.00    -0.464 OA
ATOM      8  C   UNL     1      53.008  59.027   1.293  1.00  0.00     0.149 A 
ATOM      9  C   UNL     1      51.695  59.257   0.809  1.00  0.00     0.018 A 
ATOM     10  C   UNL     1      50.748  59.777   1.694  1.00  0.00     0.019 A 
ATOM     11  C   UNL     1      51.120  60.050   3.012  1.00  0.00     0.094 A 
ATOM     12  C   UNL     1      52.437  59.797   3.416  1.00  0.00     0.336 A 
ATOM     13  O   UNL     1      52.788  60.038   4.601  1.00  0.00    -0.246 OA
ATOM     14  O   UNL     1      53.323  59.301   2.555  1.00  0.00    -0.422 OA
ENDROOT
TORSDOF 0
ENDMDL
