MODEL 1
REMARK VINA RESULT:    -5.349      0.000      0.000
REMARK INTER + INTRA:          -5.881
REMARK INTER:                  -5.662
REMARK INTRA:                  -0.219
REMARK UNBOUND:                -0.219
REMARK SMILES CC1=CC[C@]23[C@@H]([C@@H](C(C)C)CC[C@H]2C)[C@@H]13
REMARK SMILES IDX 14 1 13 2 12 3 11 4 7 5 6 6 5 7 15 8 2 9 3 10 4 11 1 12 8 13
REMARK SMILES IDX 9 14 10 15
REMARK H PARENT
REMARK Flexibility Score: inf
ROOT
ATOM      1  C   UNL     1      14.142  19.128  37.692  1.00  0.00     0.008 C 
ATOM      2  C   UNL     1      13.927  18.293  36.418  1.00  0.00    -0.007 C 
ATOM      3  C   UNL     1      12.424  17.942  36.164  1.00  0.00     0.004 C 
ATOM      4  C   UNL     1      11.893  16.700  36.944  1.00  0.00     0.004 C 
ATOM      5  C   UNL     1      12.903  15.512  36.994  1.00  0.00    -0.004 C 
ATOM      6  C   UNL     1      14.214  16.117  37.510  1.00  0.00     0.007 C 
ATOM      7  C   UNL     1      14.766  16.997  36.324  1.00  0.00    -0.013 C 
ATOM      8  C   UNL     1      15.672  16.114  37.177  1.00  0.00     0.025 C 
ATOM      9  C   UNL     1      16.127  15.019  36.278  1.00  0.00    -0.073 C 
ATOM     10  C   UNL     1      15.723  15.189  35.031  1.00  0.00    -0.027 C 
ATOM     11  C   UNL     1      14.915  16.429  34.885  1.00  0.00     0.035 C 
ATOM     12  C   UNL     1      16.961  13.862  36.730  1.00  0.00     0.039 C 
ENDROOT
BRANCH   5  13
ATOM     13  C   UNL     1      12.444  14.317  37.884  1.00  0.00    -0.014 C 
ATOM     14  C   UNL     1      11.710  14.719  39.176  1.00  0.00     0.007 C 
ATOM     15  C   UNL     1      11.589  13.321  37.087  1.00  0.00     0.007 C 
ENDBRANCH   5  13
TORSDOF 1
ENDMDL
MODEL 2
REMARK VINA RESULT:    -5.223      1.088      3.817
REMARK INTER + INTRA:          -5.747
REMARK INTER:                  -5.335
REMARK INTRA:                  -0.411
REMARK UNBOUND:                -0.219
REMARK SMILES CC1=CC[C@]23[C@@H]([C@@H](C(C)C)CC[C@H]2C)[C@@H]13
REMARK SMILES IDX 14 1 13 2 12 3 11 4 7 5 6 6 5 7 15 8 2 9 3 10 4 11 1 12 8 13
REMARK SMILES IDX 9 14 10 15
REMARK H PARENT
REMARK Flexibility Score: inf
ROOT
ATOM      1  C   UNL     1      13.490  18.892  36.291  1.00  0.00     0.008 C 
ATOM      2  C   UNL     1      13.653  18.079  37.587  1.00  0.00    -0.007 C 
ATOM      3  C   UNL     1      15.139  17.971  38.059  1.00  0.00     0.004 C 
ATOM      4  C   UNL     1      15.974  16.847  37.370  1.00  0.00     0.004 C 
ATOM      5  C   UNL     1      15.189  15.512  37.178  1.00  0.00    -0.004 C 
ATOM      6  C   UNL     1      13.885  15.906  36.475  1.00  0.00     0.007 C 
ATOM      7  C   UNL     1      13.032  16.662  37.563  1.00  0.00    -0.013 C 
ATOM      8  C   UNL     1      12.414  15.660  36.592  1.00  0.00     0.025 C 
ATOM      9  C   UNL     1      12.020  14.489  37.419  1.00  0.00    -0.073 C 
ATOM     10  C   UNL     1      12.206  14.698  38.711  1.00  0.00    -0.027 C 
ATOM     11  C   UNL     1      12.771  16.049  38.968  1.00  0.00     0.035 C 
ATOM     12  C   UNL     1      11.460  13.220  36.855  1.00  0.00     0.039 C 
ENDROOT
BRANCH   5  13
ATOM     13  C   UNL     1      15.960  14.425  36.370  1.00  0.00    -0.014 C 
ATOM     14  C   UNL     1      17.449  14.285  36.733  1.00  0.00     0.007 C 
ATOM     15  C   UNL     1      15.269  13.056  36.470  1.00  0.00     0.007 C 
ENDBRANCH   5  13
TORSDOF 1
ENDMDL
MODEL 3
REMARK VINA RESULT:    -5.088      1.394      4.204
REMARK INTER + INTRA:          -5.604
REMARK INTER:                  -5.280
REMARK INTRA:                  -0.325
REMARK UNBOUND:                -0.219
REMARK SMILES CC1=CC[C@]23[C@@H]([C@@H](C(C)C)CC[C@H]2C)[C@@H]13
REMARK SMILES IDX 14 1 13 2 12 3 11 4 7 5 6 6 5 7 15 8 2 9 3 10 4 11 1 12 8 13
REMARK SMILES IDX 9 14 10 15
REMARK H PARENT
REMARK Flexibility Score: inf
ROOT
ATOM      1  C   UNL     1      16.043  16.828  37.827  1.00  0.00     0.008 C 
ATOM      2  C   UNL     1      15.243  15.763  37.057  1.00  0.00    -0.007 C 
ATOM      3  C   UNL     1      15.284  15.970  35.508  1.00  0.00     0.004 C 
ATOM      4  C   UNL     1      14.255  17.001  34.948  1.00  0.00     0.004 C 
ATOM      5  C   UNL     1      12.848  16.908  35.617  1.00  0.00    -0.004 C 
ATOM      6  C   UNL     1      13.113  16.975  37.126  1.00  0.00     0.007 C 
ATOM      7  C   UNL     1      13.771  15.592  37.499  1.00  0.00    -0.013 C 
ATOM      8  C   UNL     1      12.717  16.260  38.379  1.00  0.00     0.025 C 
ATOM      9  C   UNL     1      11.506  15.401  38.278  1.00  0.00    -0.073 C 
ATOM     10  C   UNL     1      11.725  14.301  37.579  1.00  0.00    -0.027 C 
ATOM     11  C   UNL     1      13.125  14.241  37.082  1.00  0.00     0.035 C 
ATOM     12  C   UNL     1      10.191  15.737  38.908  1.00  0.00     0.039 C 
ENDROOT
BRANCH   5  13
ATOM     13  C   UNL     1      11.851  18.019  35.169  1.00  0.00    -0.014 C 
ATOM     14  C   UNL     1      11.694  19.185  36.162  1.00  0.00     0.007 C 
ATOM     15  C   UNL     1      12.208  18.565  33.778  1.00  0.00     0.007 C 
ENDBRANCH   5  13
TORSDOF 1
ENDMDL
MODEL 4
REMARK VINA RESULT:    -5.040     11.788     13.439
REMARK INTER + INTRA:          -5.554
REMARK INTER:                  -5.039
REMARK INTRA:                  -0.515
REMARK UNBOUND:                -0.219
REMARK SMILES CC1=CC[C@]23[C@@H]([C@@H](C(C)C)CC[C@H]2C)[C@@H]13
REMARK SMILES IDX 14 1 13 2 12 3 11 4 7 5 6 6 5 7 15 8 2 9 3 10 4 11 1 12 8 13
REMARK SMILES IDX 9 14 10 15
REMARK H PARENT
REMARK Flexibility Score: inf
ROOT
ATOM      1  C   UNL     1       7.601  21.876  23.611  1.00  0.00     0.008 C 
ATOM      2  C   UNL     1       8.078  20.419  23.487  1.00  0.00    -0.007 C 
ATOM      3  C   UNL     1       7.346  19.450  24.472  1.00  0.00     0.004 C 
ATOM      4  C   UNL     1       7.929  19.410  25.918  1.00  0.00     0.004 C 
ATOM      5  C   UNL     1       9.489  19.429  25.966  1.00  0.00    -0.004 C 
ATOM      6  C   UNL     1       9.905  20.630  25.108  1.00  0.00     0.007 C 
ATOM      7  C   UNL     1       9.605  20.207  23.620  1.00  0.00    -0.013 C 
ATOM      8  C   UNL     1      10.871  20.962  24.015  1.00  0.00     0.025 C 
ATOM      9  C   UNL     1      11.989  19.998  23.826  1.00  0.00    -0.073 C 
ATOM     10  C   UNL     1      11.588  18.860  23.286  1.00  0.00    -0.027 C 
ATOM     11  C   UNL     1      10.123  18.865  23.031  1.00  0.00     0.035 C 
ATOM     12  C   UNL     1      13.410  20.288  24.192  1.00  0.00     0.039 C 
ENDROOT
BRANCH   5  13
ATOM     13  C   UNL     1      10.085  19.529  27.403  1.00  0.00    -0.014 C 
ATOM     14  C   UNL     1      11.438  18.819  27.591  1.00  0.00     0.007 C 
ATOM     15  C   UNL     1      10.195  20.990  27.864  1.00  0.00     0.007 C 
ENDBRANCH   5  13
TORSDOF 1
ENDMDL
MODEL 5
REMARK VINA RESULT:    -5.000     11.757     13.602
REMARK INTER + INTRA:          -5.511
REMARK INTER:                  -5.131
REMARK INTRA:                  -0.380
REMARK UNBOUND:                -0.219
REMARK SMILES CC1=CC[C@]23[C@@H]([C@@H](C(C)C)CC[C@H]2C)[C@@H]13
REMARK SMILES IDX 14 1 13 2 12 3 11 4 7 5 6 6 5 7 15 8 2 9 3 10 4 11 1 12 8 13
REMARK SMILES IDX 9 14 10 15
REMARK H PARENT
REMARK Flexibility Score: inf
ROOT
ATOM      1  C   UNL     1       6.946  21.344  26.639  1.00  0.00     0.008 C 
ATOM      2  C   UNL     1       7.209  20.019  25.903  1.00  0.00    -0.007 C 
ATOM      3  C   UNL     1       7.708  18.881  26.851  1.00  0.00     0.004 C 
ATOM      4  C   UNL     1       9.239  18.896  27.157  1.00  0.00     0.004 C 
ATOM      5  C   UNL     1      10.122  19.227  25.914  1.00  0.00    -0.004 C 
ATOM      6  C   UNL     1       9.540  20.523  25.337  1.00  0.00     0.007 C 
ATOM      7  C   UNL     1       8.163  20.113  24.689  1.00  0.00    -0.013 C 
ATOM      8  C   UNL     1       9.124  21.089  24.016  1.00  0.00     0.025 C 
ATOM      9  C   UNL     1       9.644  20.379  22.817  1.00  0.00    -0.073 C 
ATOM     10  C   UNL     1       9.059  19.208  22.631  1.00  0.00    -0.027 C 
ATOM     11  C   UNL     1       8.051  18.930  23.688  1.00  0.00     0.035 C 
ATOM     12  C   UNL     1      10.699  20.933  21.912  1.00  0.00     0.039 C 
ENDROOT
BRANCH   5  13
ATOM     13  C   UNL     1      11.641  19.382  26.230  1.00  0.00    -0.014 C 
ATOM     14  C   UNL     1      12.290  20.659  25.668  1.00  0.00     0.007 C 
ATOM     15  C   UNL     1      11.912  19.281  27.739  1.00  0.00     0.007 C 
ENDBRANCH   5  13
TORSDOF 1
ENDMDL
MODEL 6
REMARK VINA RESULT:    -4.888      1.409      3.459
REMARK INTER + INTRA:          -5.392
REMARK INTER:                  -4.902
REMARK INTRA:                  -0.490
REMARK UNBOUND:                -0.219
REMARK SMILES CC1=CC[C@]23[C@@H]([C@@H](C(C)C)CC[C@H]2C)[C@@H]13
REMARK SMILES IDX 14 1 13 2 12 3 11 4 7 5 6 6 5 7 15 8 2 9 3 10 4 11 1 12 8 13
REMARK SMILES IDX 9 14 10 15
REMARK H PARENT
REMARK Flexibility Score: inf
ROOT
ATOM      1  C   UNL     1      12.511  18.404  34.471  1.00  0.00     0.008 C 
ATOM      2  C   UNL     1      12.270  17.461  35.663  1.00  0.00    -0.007 C 
ATOM      3  C   UNL     1      11.900  18.221  36.978  1.00  0.00     0.004 C 
ATOM      4  C   UNL     1      13.113  18.770  37.790  1.00  0.00     0.004 C 
ATOM      5  C   UNL     1      14.323  17.786  37.853  1.00  0.00    -0.004 C 
ATOM      6  C   UNL     1      14.608  17.404  36.396  1.00  0.00     0.007 C 
ATOM      7  C   UNL     1      13.416  16.467  35.965  1.00  0.00    -0.013 C 
ATOM      8  C   UNL     1      14.863  16.180  35.573  1.00  0.00     0.025 C 
ATOM      9  C   UNL     1      15.250  14.961  36.333  1.00  0.00    -0.073 C 
ATOM     10  C   UNL     1      14.236  14.442  37.005  1.00  0.00    -0.027 C 
ATOM     11  C   UNL     1      12.995  15.237  36.816  1.00  0.00     0.035 C 
ATOM     12  C   UNL     1      16.628  14.377  36.327  1.00  0.00     0.039 C 
ENDROOT
BRANCH   5  13
ATOM     13  C   UNL     1      15.592  18.372  38.542  1.00  0.00    -0.014 C 
ATOM     14  C   UNL     1      16.793  17.412  38.608  1.00  0.00     0.007 C 
ATOM     15  C   UNL     1      16.020  19.697  37.891  1.00  0.00     0.007 C 
ENDBRANCH   5  13
TORSDOF 1
ENDMDL
MODEL 7
REMARK VINA RESULT:    -4.830     12.142     13.954
REMARK INTER + INTRA:          -5.331
REMARK INTER:                  -4.960
REMARK INTRA:                  -0.371
REMARK UNBOUND:                -0.219
REMARK SMILES CC1=CC[C@]23[C@@H]([C@@H](C(C)C)CC[C@H]2C)[C@@H]13
REMARK SMILES IDX 14 1 13 2 12 3 11 4 7 5 6 6 5 7 15 8 2 9 3 10 4 11 1 12 8 13
REMARK SMILES IDX 9 14 10 15
REMARK H PARENT
REMARK Flexibility Score: inf
ROOT
ATOM      1  C   UNL     1      13.159  20.026  22.314  1.00  0.00     0.008 C 
ATOM      2  C   UNL     1      12.113  20.976  22.923  1.00  0.00    -0.007 C 
ATOM      3  C   UNL     1      12.553  21.565  24.303  1.00  0.00     0.004 C 
ATOM      4  C   UNL     1      12.283  20.645  25.533  1.00  0.00     0.004 C 
ATOM      5  C   UNL     1      10.907  19.912  25.478  1.00  0.00    -0.004 C 
ATOM      6  C   UNL     1      10.867  19.228  24.107  1.00  0.00     0.007 C 
ATOM      7  C   UNL     1      10.687  20.392  23.060  1.00  0.00    -0.013 C 
ATOM      8  C   UNL     1       9.938  19.068  22.946  1.00  0.00     0.025 C 
ATOM      9  C   UNL     1       8.510  19.389  23.212  1.00  0.00    -0.073 C 
ATOM     10  C   UNL     1       8.302  20.687  23.351  1.00  0.00    -0.027 C 
ATOM     11  C   UNL     1       9.566  21.458  23.210  1.00  0.00     0.035 C 
ATOM     12  C   UNL     1       7.426  18.361  23.300  1.00  0.00     0.039 C 
ENDROOT
BRANCH   5  13
ATOM     13  C   UNL     1      10.681  18.884  26.628  1.00  0.00    -0.014 C 
ATOM     14  C   UNL     1      11.659  19.012  27.810  1.00  0.00     0.007 C 
ATOM     15  C   UNL     1       9.233  18.929  27.143  1.00  0.00     0.007 C 
ENDBRANCH   5  13
TORSDOF 1
ENDMDL
MODEL 8
REMARK VINA RESULT:    -4.829     10.870     12.898
REMARK INTER + INTRA:          -5.331
REMARK INTER:                  -4.854
REMARK INTRA:                  -0.476
REMARK UNBOUND:                -0.219
REMARK SMILES CC1=CC[C@]23[C@@H]([C@@H](C(C)C)CC[C@H]2C)[C@@H]13
REMARK SMILES IDX 14 1 13 2 12 3 11 4 7 5 6 6 5 7 15 8 2 9 3 10 4 11 1 12 8 13
REMARK SMILES IDX 9 14 10 15
REMARK H PARENT
REMARK Flexibility Score: inf
ROOT
ATOM      1  C   UNL     1      12.766  22.608  26.755  1.00  0.00     0.008 C 
ATOM      2  C   UNL     1      12.790  21.079  26.918  1.00  0.00    -0.007 C 
ATOM      3  C   UNL     1      13.738  20.370  25.897  1.00  0.00     0.004 C 
ATOM      4  C   UNL     1      13.119  20.107  24.489  1.00  0.00     0.004 C 
ATOM      5  C   UNL     1      11.636  19.625  24.537  1.00  0.00    -0.004 C 
ATOM      6  C   UNL     1      10.905  20.651  25.411  1.00  0.00     0.007 C 
ATOM      7  C   UNL     1      11.408  20.386  26.881  1.00  0.00    -0.013 C 
ATOM      8  C   UNL     1       9.946  20.685  26.559  1.00  0.00     0.025 C 
ATOM      9  C   UNL     1       9.210  19.420  26.823  1.00  0.00    -0.073 C 
ATOM     10  C   UNL     1       9.985  18.484  27.345  1.00  0.00    -0.027 C 
ATOM     11  C   UNL     1      11.382  18.965  27.509  1.00  0.00     0.035 C 
ATOM     12  C   UNL     1       7.752  19.230  26.543  1.00  0.00     0.039 C 
ENDROOT
BRANCH   5  13
ATOM     13  C   UNL     1      10.959  19.490  23.139  1.00  0.00    -0.014 C 
ATOM     14  C   UNL     1       9.465  19.123  23.177  1.00  0.00     0.007 C 
ATOM     15  C   UNL     1      11.162  20.758  22.295  1.00  0.00     0.007 C 
ENDBRANCH   5  13
TORSDOF 1
ENDMDL
MODEL 9
REMARK VINA RESULT:    -4.781     12.931     14.538
REMARK INTER + INTRA:          -5.279
REMARK INTER:                  -4.870
REMARK INTRA:                  -0.409
REMARK UNBOUND:                -0.219
REMARK SMILES CC1=CC[C@]23[C@@H]([C@@H](C(C)C)CC[C@H]2C)[C@@H]13
REMARK SMILES IDX 14 1 13 2 12 3 11 4 7 5 6 6 5 7 15 8 2 9 3 10 4 11 1 12 8 13
REMARK SMILES IDX 9 14 10 15
REMARK H PARENT
REMARK Flexibility Score: inf
ROOT
ATOM      1  C   UNL     1       6.605  21.219  27.332  1.00  0.00     0.008 C 
ATOM      2  C   UNL     1       7.123  21.825  26.016  1.00  0.00    -0.007 C 
ATOM      3  C   UNL     1       6.024  21.911  24.908  1.00  0.00     0.004 C 
ATOM      4  C   UNL     1       5.798  20.599  24.095  1.00  0.00     0.004 C 
ATOM      5  C   UNL     1       7.118  19.852  23.731  1.00  0.00    -0.004 C 
ATOM      6  C   UNL     1       7.874  19.698  25.056  1.00  0.00     0.007 C 
ATOM      7  C   UNL     1       8.379  21.146  25.422  1.00  0.00    -0.013 C 
ATOM      8  C   UNL     1       9.250  19.906  25.607  1.00  0.00     0.025 C 
ATOM      9  C   UNL     1      10.338  20.024  24.600  1.00  0.00    -0.073 C 
ATOM     10  C   UNL     1      10.299  21.173  23.948  1.00  0.00    -0.027 C 
ATOM     11  C   UNL     1       9.164  22.019  24.404  1.00  0.00     0.035 C 
ATOM     12  C   UNL     1      11.371  18.968  24.361  1.00  0.00     0.039 C 
ENDROOT
BRANCH   5  13
ATOM     13  C   UNL     1       6.905  18.471  23.040  1.00  0.00    -0.014 C 
ATOM     14  C   UNL     1       5.609  18.354  22.218  1.00  0.00     0.007 C 
ATOM     15  C   UNL     1       8.111  18.088  22.168  1.00  0.00     0.007 C 
ENDBRANCH   5  13
TORSDOF 1
ENDMDL
