MODEL 1
REMARK VINA RESULT:    -2.391      0.000      0.000
REMARK INTER + INTRA:          -3.595
REMARK INTER:                  -3.230
REMARK INTRA:                  -0.365
REMARK UNBOUND:                -0.365
REMARK SMILES [NH3+]CCCC[C@H]([NH3+])C(=O)[O-]
REMARK SMILES IDX 4 1 3 2 2 3 1 4 5 8 6 9 7 10 8 14 9 15 10 16
REMARK H PARENT 1 5 1 6 1 7 7 11 7 12 7 13
REMARK Flexibility Score: inf
ROOT
ATOM      1  C   UNL     1      -5.304 -49.700 -12.125  1.00  0.00     0.012 C 
ENDROOT
BRANCH   1   2
ATOM      2  C   UNL     1      -5.465 -48.172 -12.068  1.00  0.00     0.061 C 
BRANCH   2   3
ATOM      3  C   UNL     1      -6.883 -47.737 -11.665  1.00  0.00     0.258 C 
BRANCH   3   4
ATOM      4  N   UNL     1      -7.003 -47.634 -10.212  1.00  0.00    -0.358 N 
ATOM      5  H   UNL     1      -7.999 -47.767  -9.923  1.00  0.00     0.344 HD
ATOM      6  H   UNL     1      -6.420 -48.380  -9.766  1.00  0.00     0.344 HD
ATOM      7  H   UNL     1      -6.662 -46.700  -9.889  1.00  0.00     0.344 HD
ENDBRANCH   3   4
ENDBRANCH   2   3
ENDBRANCH   1   2
BRANCH   1   8
ATOM      8  C   UNL     1      -6.653 -50.439 -12.103  1.00  0.00     0.072 C 
BRANCH   8   9
ATOM      9  C   UNL     1      -6.588 -51.748 -11.285  1.00  0.00     0.227 C 
BRANCH   9  10
ATOM     10  N   UNL     1      -7.652 -52.669 -11.701  1.00  0.00    -0.350 N 
ATOM     11  H   UNL     1      -7.839 -53.361 -10.939  1.00  0.00     0.345 HD
ATOM     12  H   UNL     1      -7.376 -53.185 -12.570  1.00  0.00     0.345 HD
ATOM     13  H   UNL     1      -8.534 -52.137 -11.881  1.00  0.00     0.345 HD
ENDBRANCH   9  10
BRANCH   9  14
ATOM     14  C   UNL     1      -6.692 -51.473  -9.806  1.00  0.00     0.099 C 
ATOM     15  O   UNL     1      -6.201 -52.278  -8.971  1.00  0.00    -0.544 OA
ATOM     16  O   UNL     1      -7.340 -50.329  -9.357  1.00  0.00    -0.544 OA
ENDBRANCH   9  14
ENDBRANCH   8   9
ENDBRANCH   1   8
TORSDOF 7
ENDMDL
MODEL 2
REMARK VINA RESULT:    -1.946      2.201      3.928
REMARK INTER + INTRA:          -2.993
REMARK INTER:                  -2.578
REMARK INTRA:                  -0.415
REMARK UNBOUND:                -0.365
REMARK SMILES [NH3+]CCCC[C@H]([NH3+])C(=O)[O-]
REMARK SMILES IDX 4 1 3 2 2 3 1 4 5 8 6 9 7 10 8 14 9 15 10 16
REMARK H PARENT 1 5 1 6 1 7 7 11 7 12 7 13
REMARK Flexibility Score: inf
ROOT
ATOM      1  C   UNL     1      -6.928 -50.844 -11.908  1.00  0.00     0.012 C 
ENDROOT
BRANCH   1   2
ATOM      2  C   UNL     1      -7.008 -52.077 -10.994  1.00  0.00     0.061 C 
BRANCH   2   3
ATOM      3  C   UNL     1      -6.567 -51.779  -9.552  1.00  0.00     0.258 C 
BRANCH   3   4
ATOM      4  N   UNL     1      -7.411 -50.749  -8.951  1.00  0.00    -0.358 N 
ATOM      5  H   UNL     1      -6.873 -50.221  -8.225  1.00  0.00     0.344 HD
ATOM      6  H   UNL     1      -7.720 -50.081  -9.695  1.00  0.00     0.344 HD
ATOM      7  H   UNL     1      -8.257 -51.186  -8.517  1.00  0.00     0.344 HD
ENDBRANCH   3   4
ENDBRANCH   2   3
ENDBRANCH   1   2
BRANCH   1   8
ATOM      8  C   UNL     1      -5.551 -50.159 -11.859  1.00  0.00     0.072 C 
BRANCH   8   9
ATOM      9  C   UNL     1      -5.648 -48.637 -12.105  1.00  0.00     0.227 C 
BRANCH   9  10
ATOM     10  N   UNL     1      -4.383 -47.978 -11.760  1.00  0.00    -0.350 N 
ATOM     11  H   UNL     1      -3.616 -48.340 -12.374  1.00  0.00     0.345 HD
ATOM     12  H   UNL     1      -4.133 -48.157 -10.759  1.00  0.00     0.345 HD
ATOM     13  H   UNL     1      -4.464 -46.947 -11.916  1.00  0.00     0.345 HD
ENDBRANCH   9  10
BRANCH   9  14
ATOM     14  C   UNL     1      -6.780 -48.027 -11.318  1.00  0.00     0.099 C 
ATOM     15  O   UNL     1      -7.794 -47.567 -11.907  1.00  0.00    -0.544 OA
ATOM     16  O   UNL     1      -6.706 -47.964  -9.932  1.00  0.00    -0.544 OA
ENDBRANCH   9  14
ENDBRANCH   8   9
ENDBRANCH   1   8
TORSDOF 7
ENDMDL
MODEL 3
REMARK VINA RESULT:    -1.202      2.155      2.784
REMARK INTER + INTRA:          -1.989
REMARK INTER:                  -1.891
REMARK INTRA:                  -0.098
REMARK UNBOUND:                -0.365
REMARK SMILES [NH3+]CCCC[C@H]([NH3+])C(=O)[O-]
REMARK SMILES IDX 4 1 3 2 2 3 1 4 5 8 6 9 7 10 8 14 9 15 10 16
REMARK H PARENT 1 5 1 6 1 7 7 11 7 12 7 13
REMARK Flexibility Score: inf
ROOT
ATOM      1  C   UNL     1      -6.519 -47.766 -11.014  1.00  0.00     0.012 C 
ENDROOT
BRANCH   1   2
ATOM      2  C   UNL     1      -5.484 -47.520 -12.123  1.00  0.00     0.061 C 
BRANCH   2   3
ATOM      3  C   UNL     1      -4.351 -48.559 -12.121  1.00  0.00     0.258 C 
BRANCH   3   4
ATOM      4  N   UNL     1      -3.046 -47.906 -12.035  1.00  0.00    -0.358 N 
ATOM      5  H   UNL     1      -2.982 -47.136 -12.741  1.00  0.00     0.344 HD
ATOM      6  H   UNL     1      -2.929 -47.497 -11.079  1.00  0.00     0.344 HD
ATOM      7  H   UNL     1      -2.284 -48.603 -12.200  1.00  0.00     0.344 HD
ENDBRANCH   3   4
ENDBRANCH   2   3
ENDBRANCH   1   2
BRANCH   1   8
ATOM      8  C   UNL     1      -7.070 -49.203 -11.024  1.00  0.00     0.072 C 
BRANCH   8   9
ATOM      9  C   UNL     1      -7.649 -49.615  -9.653  1.00  0.00     0.227 C 
BRANCH   9  10
ATOM     10  N   UNL     1      -7.391 -48.574  -8.651  1.00  0.00    -0.350 N 
ATOM     11  H   UNL     1      -6.436 -48.703  -8.243  1.00  0.00     0.345 HD
ATOM     12  H   UNL     1      -8.099 -48.617  -7.881  1.00  0.00     0.345 HD
ATOM     13  H   UNL     1      -7.427 -47.630  -9.100  1.00  0.00     0.345 HD
ENDBRANCH   9  10
BRANCH   9  14
ATOM     14  C   UNL     1      -7.074 -50.930  -9.190  1.00  0.00     0.099 C 
ATOM     15  O   UNL     1      -6.769 -51.104  -7.981  1.00  0.00    -0.544 OA
ATOM     16  O   UNL     1      -6.870 -51.957 -10.103  1.00  0.00    -0.544 OA
ENDBRANCH   9  14
ENDBRANCH   8   9
ENDBRANCH   1   8
TORSDOF 7
ENDMDL
MODEL 4
REMARK VINA RESULT:    -1.059      2.143      2.615
REMARK INTER + INTRA:          -1.796
REMARK INTER:                  -1.907
REMARK INTRA:                   0.111
REMARK UNBOUND:                -0.365
REMARK SMILES [NH3+]CCCC[C@H]([NH3+])C(=O)[O-]
REMARK SMILES IDX 4 1 3 2 2 3 1 4 5 8 6 9 7 10 8 14 9 15 10 16
REMARK H PARENT 1 5 1 6 1 7 7 11 7 12 7 13
REMARK Flexibility Score: inf
ROOT
ATOM      1  C   UNL     1      -7.463 -48.323  -9.697  1.00  0.00     0.012 C 
ENDROOT
BRANCH   1   2
ATOM      2  C   UNL     1      -7.346 -47.315 -10.851  1.00  0.00     0.061 C 
BRANCH   2   3
ATOM      3  C   UNL     1      -6.720 -47.927 -12.115  1.00  0.00     0.258 C 
BRANCH   3   4
ATOM      4  N   UNL     1      -5.271 -47.733 -12.124  1.00  0.00    -0.358 N 
ATOM      5  H   UNL     1      -4.828 -48.366 -12.830  1.00  0.00     0.344 HD
ATOM      6  H   UNL     1      -5.059 -46.741 -12.381  1.00  0.00     0.344 HD
ATOM      7  H   UNL     1      -4.877 -47.928 -11.176  1.00  0.00     0.344 HD
ENDBRANCH   3   4
ENDBRANCH   2   3
ENDBRANCH   1   2
BRANCH   1   8
ATOM      8  C   UNL     1      -6.416 -49.448  -9.784  1.00  0.00     0.072 C 
BRANCH   8   9
ATOM      9  C   UNL     1      -7.067 -50.841  -9.930  1.00  0.00     0.227 C 
BRANCH   9  10
ATOM     10  N   UNL     1      -6.641 -51.725  -8.838  1.00  0.00    -0.350 N 
ATOM     11  H   UNL     1      -7.227 -52.593  -8.837  1.00  0.00     0.345 HD
ATOM     12  H   UNL     1      -6.739 -51.245  -7.913  1.00  0.00     0.345 HD
ATOM     13  H   UNL     1      -5.644 -52.007  -8.977  1.00  0.00     0.345 HD
ENDBRANCH   9  10
BRANCH   9  14
ATOM     14  C   UNL     1      -6.731 -51.464 -11.261  1.00  0.00     0.099 C 
ATOM     15  O   UNL     1      -5.857 -50.948 -12.006  1.00  0.00    -0.544 OA
ATOM     16  O   UNL     1      -7.392 -52.614 -11.675  1.00  0.00    -0.544 OA
ENDBRANCH   9  14
ENDBRANCH   8   9
ENDBRANCH   1   8
TORSDOF 7
ENDMDL
MODEL 5
REMARK VINA RESULT:    -0.872      2.356      3.302
REMARK INTER + INTRA:          -1.543
REMARK INTER:                  -1.279
REMARK INTRA:                  -0.264
REMARK UNBOUND:                -0.365
REMARK SMILES [NH3+]CCCC[C@H]([NH3+])C(=O)[O-]
REMARK SMILES IDX 4 1 3 2 2 3 1 4 5 8 6 9 7 10 8 14 9 15 10 16
REMARK H PARENT 1 5 1 6 1 7 7 11 7 12 7 13
REMARK Flexibility Score: inf
ROOT
ATOM      1  C   UNL     1      -6.401 -50.996  -9.605  1.00  0.00     0.012 C 
ENDROOT
BRANCH   1   2
ATOM      2  C   UNL     1      -7.439 -50.430  -8.623  1.00  0.00     0.061 C 
BRANCH   2   3
ATOM      3  C   UNL     1      -7.790 -48.961  -8.909  1.00  0.00     0.258 C 
BRANCH   3   4
ATOM      4  N   UNL     1      -6.581 -48.146  -9.006  1.00  0.00    -0.358 N 
ATOM      5  H   UNL     1      -6.693 -47.268  -8.447  1.00  0.00     0.344 HD
ATOM      6  H   UNL     1      -5.771 -48.688  -8.625  1.00  0.00     0.344 HD
ATOM      7  H   UNL     1      -6.388 -47.908 -10.006  1.00  0.00     0.344 HD
ENDBRANCH   3   4
ENDBRANCH   2   3
ENDBRANCH   1   2
BRANCH   1   8
ATOM      8  C   UNL     1      -6.995 -51.286 -10.995  1.00  0.00     0.072 C 
BRANCH   8   9
ATOM      9  C   UNL     1      -6.201 -50.592 -12.124  1.00  0.00     0.227 C 
BRANCH   9  10
ATOM     10  N   UNL     1      -4.780 -50.954 -12.051  1.00  0.00    -0.350 N 
ATOM     11  H   UNL     1      -4.199 -50.190 -12.470  1.00  0.00     0.345 HD
ATOM     12  H   UNL     1      -4.598 -51.845 -12.569  1.00  0.00     0.345 HD
ATOM     13  H   UNL     1      -4.493 -51.070 -11.052  1.00  0.00     0.345 HD
ENDBRANCH   9  10
BRANCH   9  14
ATOM     14  C   UNL     1      -6.357 -49.095 -12.061  1.00  0.00     0.099 C 
ATOM     15  O   UNL     1      -7.501 -48.569 -12.097  1.00  0.00    -0.544 OA
ATOM     16  O   UNL     1      -5.233 -48.283 -11.970  1.00  0.00    -0.544 OA
ENDBRANCH   9  14
ENDBRANCH   8   9
ENDBRANCH   1   8
TORSDOF 7
ENDMDL
MODEL 6
REMARK VINA RESULT:    -0.804      2.483      4.113
REMARK INTER + INTRA:          -1.451
REMARK INTER:                  -0.985
REMARK INTRA:                  -0.466
REMARK UNBOUND:                -0.365
REMARK SMILES [NH3+]CCCC[C@H]([NH3+])C(=O)[O-]
REMARK SMILES IDX 4 1 3 2 2 3 1 4 5 8 6 9 7 10 8 14 9 15 10 16
REMARK H PARENT 1 5 1 6 1 7 7 11 7 12 7 13
REMARK Flexibility Score: inf
ROOT
ATOM      1  C   UNL     1      -7.997 -48.482  -9.464  1.00  0.00     0.012 C 
ENDROOT
BRANCH   1   2
ATOM      2  C   UNL     1      -8.022 -49.937  -8.970  1.00  0.00     0.061 C 
BRANCH   2   3
ATOM      3  C   UNL     1      -6.655 -50.630  -9.087  1.00  0.00     0.258 C 
BRANCH   3   4
ATOM      4  N   UNL     1      -6.699 -51.705 -10.076  1.00  0.00    -0.358 N 
ATOM      5  H   UNL     1      -6.066 -52.487  -9.786  1.00  0.00     0.344 HD
ATOM      6  H   UNL     1      -7.677 -52.070 -10.143  1.00  0.00     0.344 HD
ATOM      7  H   UNL     1      -6.408 -51.344 -11.013  1.00  0.00     0.344 HD
ENDBRANCH   3   4
ENDBRANCH   2   3
ENDBRANCH   1   2
BRANCH   1   8
ATOM      8  C   UNL     1      -6.582 -48.009  -9.841  1.00  0.00     0.072 C 
BRANCH   8   9
ATOM      9  C   UNL     1      -6.420 -47.811 -11.364  1.00  0.00     0.227 C 
BRANCH   9  10
ATOM     10  N   UNL     1      -7.643 -48.214 -12.069  1.00  0.00    -0.350 N 
ATOM     11  H   UNL     1      -7.445 -48.318 -13.091  1.00  0.00     0.345 HD
ATOM     12  H   UNL     1      -8.398 -47.500 -11.938  1.00  0.00     0.345 HD
ATOM     13  H   UNL     1      -7.975 -49.137 -11.707  1.00  0.00     0.345 HD
ENDBRANCH   9  10
BRANCH   9  14
ATOM     14  C   UNL     1      -5.241 -48.586 -11.893  1.00  0.00     0.099 C 
ATOM     15  O   UNL     1      -5.338 -49.820 -12.125  1.00  0.00    -0.544 OA
ATOM     16  O   UNL     1      -4.032 -47.940 -12.122  1.00  0.00    -0.544 OA
ENDBRANCH   9  14
ENDBRANCH   8   9
ENDBRANCH   1   8
TORSDOF 7
ENDMDL
MODEL 7
REMARK VINA RESULT:    -0.737     14.535     15.798
REMARK INTER + INTRA:          -1.360
REMARK INTER:                  -1.272
REMARK INTRA:                  -0.088
REMARK UNBOUND:                -0.365
REMARK SMILES [NH3+]CCCC[C@H]([NH3+])C(=O)[O-]
REMARK SMILES IDX 4 1 3 2 2 3 1 4 5 8 6 9 7 10 8 14 9 15 10 16
REMARK H PARENT 1 5 1 6 1 7 7 11 7 12 7 13
REMARK Flexibility Score: inf
ROOT
ATOM      1  C   UNL     1     -15.913 -53.694   0.568  1.00  0.00     0.012 C 
ENDROOT
BRANCH   1   2
ATOM      2  C   UNL     1     -15.882 -54.781   1.654  1.00  0.00     0.061 C 
BRANCH   2   3
ATOM      3  C   UNL     1     -15.569 -54.219   3.050  1.00  0.00     0.258 C 
BRANCH   3   4
ATOM      4  N   UNL     1     -16.788 -53.752   3.709  1.00  0.00    -0.358 N 
ATOM      5  H   UNL     1     -16.769 -54.007   4.723  1.00  0.00     0.344 HD
ATOM      6  H   UNL     1     -16.847 -52.711   3.623  1.00  0.00     0.344 HD
ATOM      7  H   UNL     1     -17.628 -54.177   3.253  1.00  0.00     0.344 HD
ENDBRANCH   3   4
ENDBRANCH   2   3
ENDBRANCH   1   2
BRANCH   1   8
ATOM      8  C   UNL     1     -16.147 -54.269  -0.840  1.00  0.00     0.072 C 
BRANCH   8   9
ATOM      9  C   UNL     1     -16.869 -53.267  -1.767  1.00  0.00     0.227 C 
BRANCH   9  10
ATOM     10  N   UNL     1     -17.381 -52.129  -0.995  1.00  0.00    -0.350 N 
ATOM     11  H   UNL     1     -16.696 -51.338  -1.034  1.00  0.00     0.345 HD
ATOM     12  H   UNL     1     -17.535 -52.399   0.004  1.00  0.00     0.345 HD
ATOM     13  H   UNL     1     -18.284 -51.797  -1.406  1.00  0.00     0.345 HD
ENDBRANCH   9  10
BRANCH   9  14
ATOM     14  C   UNL     1     -17.996 -53.931  -2.517  1.00  0.00     0.099 C 
ATOM     15  O   UNL     1     -17.802 -54.420  -3.662  1.00  0.00    -0.544 OA
ATOM     16  O   UNL     1     -19.262 -54.001  -1.949  1.00  0.00    -0.544 OA
ENDBRANCH   9  14
ENDBRANCH   8   9
ENDBRANCH   1   8
TORSDOF 7
ENDMDL
MODEL 8
REMARK VINA RESULT:    -0.369     14.643     15.499
REMARK INTER + INTRA:          -0.863
REMARK INTER:                  -0.798
REMARK INTRA:                  -0.065
REMARK UNBOUND:                -0.365
REMARK SMILES [NH3+]CCCC[C@H]([NH3+])C(=O)[O-]
REMARK SMILES IDX 4 1 3 2 2 3 1 4 5 8 6 9 7 10 8 14 9 15 10 16
REMARK H PARENT 1 5 1 6 1 7 7 11 7 12 7 13
REMARK Flexibility Score: inf
ROOT
ATOM      1  C   UNL     1     -17.374 -53.251  -1.257  1.00  0.00     0.012 C 
ENDROOT
BRANCH   1   2
ATOM      2  C   UNL     1     -17.531 -53.671  -2.727  1.00  0.00     0.061 C 
BRANCH   2   3
ATOM      3  C   UNL     1     -18.975 -54.060  -3.084  1.00  0.00     0.258 C 
BRANCH   3   4
ATOM      4  N   UNL     1     -19.022 -54.779  -4.356  1.00  0.00    -0.358 N 
ATOM      5  H   UNL     1     -19.893 -55.357  -4.410  1.00  0.00     0.344 HD
ATOM      6  H   UNL     1     -19.027 -54.087  -5.141  1.00  0.00     0.344 HD
ATOM      7  H   UNL     1     -18.182 -55.393  -4.452  1.00  0.00     0.344 HD
ENDBRANCH   3   4
ENDBRANCH   2   3
ENDBRANCH   1   2
BRANCH   1   8
ATOM      8  C   UNL     1     -16.369 -54.132  -0.493  1.00  0.00     0.072 C 
BRANCH   8   9
ATOM      9  C   UNL     1     -15.915 -53.484   0.832  1.00  0.00     0.227 C 
BRANCH   9  10
ATOM     10  N   UNL     1     -14.622 -52.809   0.659  1.00  0.00    -0.350 N 
ATOM     11  H   UNL     1     -14.756 -51.772   0.703  1.00  0.00     0.345 HD
ATOM     12  H   UNL     1     -14.195 -53.060  -0.263  1.00  0.00     0.345 HD
ATOM     13  H   UNL     1     -13.970 -53.085   1.428  1.00  0.00     0.345 HD
ENDBRANCH   9  10
BRANCH   9  14
ATOM     14  C   UNL     1     -15.819 -54.506   1.936  1.00  0.00     0.099 C 
ATOM     15  O   UNL     1     -15.297 -55.631   1.722  1.00  0.00    -0.544 OA
ATOM     16  O   UNL     1     -16.317 -54.211   3.200  1.00  0.00    -0.544 OA
ENDBRANCH   9  14
ENDBRANCH   8   9
ENDBRANCH   1   8
TORSDOF 7
ENDMDL
MODEL 9
REMARK VINA RESULT:    -0.016      2.582      3.966
REMARK INTER + INTRA:          -0.387
REMARK INTER:                  -0.221
REMARK INTRA:                  -0.166
REMARK UNBOUND:                -0.365
REMARK SMILES [NH3+]CCCC[C@H]([NH3+])C(=O)[O-]
REMARK SMILES IDX 4 1 3 2 2 3 1 4 5 8 6 9 7 10 8 14 9 15 10 16
REMARK H PARENT 1 5 1 6 1 7 7 11 7 12 7 13
REMARK Flexibility Score: inf
ROOT
ATOM      1  C   UNL     1      -6.319 -51.545  -9.728  1.00  0.00     0.012 C 
ENDROOT
BRANCH   1   2
ATOM      2  C   UNL     1      -7.158 -50.965  -8.578  1.00  0.00     0.061 C 
BRANCH   2   3
ATOM      3  C   UNL     1      -6.681 -51.438  -7.196  1.00  0.00     0.258 C 
BRANCH   3   4
ATOM      4  N   UNL     1      -5.683 -52.498  -7.324  1.00  0.00    -0.358 N 
ATOM      5  H   UNL     1      -4.845 -52.277  -6.737  1.00  0.00     0.344 HD
ATOM      6  H   UNL     1      -6.097 -53.401  -6.994  1.00  0.00     0.344 HD
ATOM      7  H   UNL     1      -5.397 -52.604  -8.324  1.00  0.00     0.344 HD
ENDBRANCH   3   4
ENDBRANCH   2   3
ENDBRANCH   1   2
BRANCH   1   8
ATOM      8  C   UNL     1      -7.027 -51.437 -11.091  1.00  0.00     0.072 C 
BRANCH   8   9
ATOM      9  C   UNL     1      -6.199 -50.633 -12.116  1.00  0.00     0.227 C 
BRANCH   9  10
ATOM     10  N   UNL     1      -4.804 -51.092 -12.125  1.00  0.00    -0.350 N 
ATOM     11  H   UNL     1      -4.543 -51.413 -13.087  1.00  0.00     0.345 HD
ATOM     12  H   UNL     1      -4.671 -51.883 -11.453  1.00  0.00     0.345 HD
ATOM     13  H   UNL     1      -4.168 -50.304 -11.862  1.00  0.00     0.345 HD
ENDBRANCH   9  10
BRANCH   9  14
ATOM     14  C   UNL     1      -6.254 -49.155 -11.825  1.00  0.00     0.099 C 
ATOM     15  O   UNL     1      -5.285 -48.408 -12.122  1.00  0.00    -0.544 OA
ATOM     16  O   UNL     1      -7.378 -48.609 -11.217  1.00  0.00    -0.544 OA
ENDBRANCH   9  14
ENDBRANCH   8   9
ENDBRANCH   1   8
TORSDOF 7
ENDMDL
