MODEL 1
REMARK VINA RESULT:    -9.941      0.000      0.000
REMARK INTER + INTRA:         -13.148
REMARK INTER:                 -12.557
REMARK INTRA:                  -0.591
REMARK UNBOUND:                -0.591
REMARK SMILES O[C@H]1OC[C@@H](Cc2ccc3c(c2)OCO3)[C@@H]1Cc1ccc2c(c1)OCO2
REMARK SMILES IDX 4 1 5 2 16 3 2 4 3 5 6 6 7 7 12 8 8 9 11 10 9 11 10 12 13 13
REMARK SMILES IDX 15 14 14 15 17 16 18 17 23 18 19 19 22 20 20 21 21 22 24 23
REMARK SMILES IDX 26 24 25 25 1 26
REMARK H PARENT 1 27
REMARK Flexibility Score: inf
ROOT
ATOM      1  C   UNL     1     -11.253 -28.397  -9.358  1.00  0.00     0.168 C 
ATOM      2  C   UNL     1     -11.881 -29.006  -8.115  1.00  0.00     0.028 C 
ATOM      3  C   UNL     1     -12.985 -28.009  -7.787  1.00  0.00     0.055 C 
ATOM      4  C   UNL     1     -12.532 -26.722  -8.502  1.00  0.00     0.250 C 
ATOM      5  O   UNL     1     -11.394 -26.999  -9.294  1.00  0.00    -0.352 OA
ENDROOT
BRANCH   2   6
ATOM      6  C   UNL     1     -10.863 -29.227  -6.962  1.00  0.00     0.042 C 
BRANCH   6   7
ATOM      7  C   UNL     1     -10.546 -30.674  -6.649  1.00  0.00    -0.044 A 
ATOM      8  C   UNL     1     -10.729 -31.676  -7.629  1.00  0.00     0.054 A 
ATOM      9  C   UNL     1     -10.075 -31.039  -5.359  1.00  0.00     0.008 A 
ATOM     10  C   UNL     1     -10.405 -32.987  -7.295  1.00  0.00     0.166 A 
ATOM     11  C   UNL     1      -9.761 -32.378  -5.063  1.00  0.00     0.051 A 
ATOM     12  C   UNL     1      -9.939 -33.323  -6.066  1.00  0.00     0.165 A 
ATOM     13  O   UNL     1     -10.489 -34.121  -8.081  1.00  0.00    -0.454 OA
ATOM     14  O   UNL     1      -9.705 -34.683  -6.019  1.00  0.00    -0.454 OA
ATOM     15  C   UNL     1     -10.045 -35.237  -7.297  1.00  0.00     0.468 C 
ENDBRANCH   6   7
ENDBRANCH   2   6
BRANCH   3  16
ATOM     16  C   UNL     1     -14.410 -28.485  -8.194  1.00  0.00     0.044 C 
BRANCH  16  17
ATOM     17  C   UNL     1     -14.596 -28.820  -9.661  1.00  0.00    -0.044 A 
ATOM     18  C   UNL     1     -14.658 -27.787 -10.626  1.00  0.00     0.054 A 
ATOM     19  C   UNL     1     -14.664 -30.174 -10.088  1.00  0.00     0.008 A 
ATOM     20  C   UNL     1     -14.833 -28.143 -11.960  1.00  0.00     0.166 A 
ATOM     21  C   UNL     1     -14.841 -30.489 -11.447  1.00  0.00     0.051 A 
ATOM     22  C   UNL     1     -14.926 -29.438 -12.352  1.00  0.00     0.165 A 
ATOM     23  O   UNL     1     -14.934 -27.318 -13.064  1.00  0.00    -0.454 OA
ATOM     24  O   UNL     1     -15.093 -29.493 -13.723  1.00  0.00    -0.454 OA
ATOM     25  C   UNL     1     -15.106 -28.148 -14.222  1.00  0.00     0.468 C 
ENDBRANCH  16  17
ENDBRANCH   3  16
BRANCH   4  26
ATOM     26  O   UNL     1     -12.208 -25.742  -7.554  1.00  0.00    -0.368 OA
ATOM     27  H   UNL     1     -12.695 -24.919  -7.819  1.00  0.00     0.213 HD
ENDBRANCH   4  26
TORSDOF 5
ENDMDL
MODEL 2
REMARK VINA RESULT:    -9.926      0.708      1.459
REMARK INTER + INTRA:         -13.128
REMARK INTER:                 -12.446
REMARK INTRA:                  -0.681
REMARK UNBOUND:                -0.591
REMARK SMILES O[C@H]1OC[C@@H](Cc2ccc3c(c2)OCO3)[C@@H]1Cc1ccc2c(c1)OCO2
REMARK SMILES IDX 4 1 5 2 16 3 2 4 3 5 6 6 7 7 12 8 8 9 11 10 9 11 10 12 13 13
REMARK SMILES IDX 15 14 14 15 17 16 18 17 23 18 19 19 22 20 20 21 21 22 24 23
REMARK SMILES IDX 26 24 25 25 1 26
REMARK H PARENT 1 27
REMARK Flexibility Score: inf
ROOT
ATOM      1  C   UNL     1     -11.267 -28.419  -9.391  1.00  0.00     0.168 C 
ATOM      2  C   UNL     1     -11.883 -29.023  -8.140  1.00  0.00     0.028 C 
ATOM      3  C   UNL     1     -12.986 -28.027  -7.806  1.00  0.00     0.055 C 
ATOM      4  C   UNL     1     -12.542 -26.743  -8.531  1.00  0.00     0.250 C 
ATOM      5  O   UNL     1     -11.410 -27.020  -9.331  1.00  0.00    -0.352 OA
ENDROOT
BRANCH   2   6
ATOM      6  C   UNL     1     -10.854 -29.237  -6.995  1.00  0.00     0.042 C 
BRANCH   6   7
ATOM      7  C   UNL     1     -10.547 -30.682  -6.664  1.00  0.00    -0.044 A 
ATOM      8  C   UNL     1     -10.723 -31.693  -7.636  1.00  0.00     0.054 A 
ATOM      9  C   UNL     1     -10.093 -31.037  -5.365  1.00  0.00     0.008 A 
ATOM     10  C   UNL     1     -10.409 -33.003  -7.286  1.00  0.00     0.166 A 
ATOM     11  C   UNL     1      -9.789 -32.374  -5.052  1.00  0.00     0.051 A 
ATOM     12  C   UNL     1      -9.959 -33.328  -6.048  1.00  0.00     0.165 A 
ATOM     13  O   UNL     1     -10.489 -34.143  -8.061  1.00  0.00    -0.454 OA
ATOM     14  O   UNL     1      -9.731 -34.689  -5.985  1.00  0.00    -0.454 OA
ATOM     15  C   UNL     1     -10.059 -35.254  -7.262  1.00  0.00     0.468 C 
ENDBRANCH   6   7
ENDBRANCH   2   6
BRANCH   3  16
ATOM     16  C   UNL     1     -14.413 -28.508  -8.199  1.00  0.00     0.044 C 
BRANCH  16  17
ATOM     17  C   UNL     1     -14.612 -28.848  -9.663  1.00  0.00    -0.044 A 
ATOM     18  C   UNL     1     -14.693 -30.199 -10.077  1.00  0.00     0.054 A 
ATOM     19  C   UNL     1     -14.767 -27.817 -10.628  1.00  0.00     0.008 A 
ATOM     20  C   UNL     1     -14.872 -30.462 -11.431  1.00  0.00     0.166 A 
ATOM     21  C   UNL     1     -14.946 -28.127 -11.988  1.00  0.00     0.051 A 
ATOM     22  C   UNL     1     -14.988 -29.469 -12.348  1.00  0.00     0.165 A 
ATOM     23  O   UNL     1     -14.965 -31.687 -12.064  1.00  0.00    -0.454 OA
ATOM     24  O   UNL     1     -15.158 -30.019 -13.604  1.00  0.00    -0.454 OA
ATOM     25  C   UNL     1     -15.147 -31.447 -13.467  1.00  0.00     0.468 C 
ENDBRANCH  16  17
ENDBRANCH   3  16
BRANCH   4  26
ATOM     26  O   UNL     1     -12.211 -25.758  -7.590  1.00  0.00    -0.368 OA
ATOM     27  H   UNL     1     -12.188 -26.208  -6.705  1.00  0.00     0.213 HD
ENDBRANCH   4  26
TORSDOF 5
ENDMDL
MODEL 3
REMARK VINA RESULT:    -9.529      3.514      6.047
REMARK INTER + INTRA:         -12.627
REMARK INTER:                 -11.305
REMARK INTRA:                  -1.322
REMARK UNBOUND:                -0.591
REMARK SMILES O[C@H]1OC[C@@H](Cc2ccc3c(c2)OCO3)[C@@H]1Cc1ccc2c(c1)OCO2
REMARK SMILES IDX 4 1 5 2 16 3 2 4 3 5 6 6 7 7 12 8 8 9 11 10 9 11 10 12 13 13
REMARK SMILES IDX 15 14 14 15 17 16 18 17 23 18 19 19 22 20 20 21 21 22 24 23
REMARK SMILES IDX 26 24 25 25 1 26
REMARK H PARENT 1 27
REMARK Flexibility Score: inf
ROOT
ATOM      1  C   UNL     1     -15.911 -32.303 -11.367  1.00  0.00     0.168 C 
ATOM      2  C   UNL     1     -15.055 -31.049 -11.437  1.00  0.00     0.028 C 
ATOM      3  C   UNL     1     -14.719 -30.968 -12.921  1.00  0.00     0.055 C 
ATOM      4  C   UNL     1     -14.934 -32.410 -13.417  1.00  0.00     0.250 C 
ATOM      5  O   UNL     1     -15.497 -33.187 -12.380  1.00  0.00    -0.352 OA
ENDROOT
BRANCH   2   6
ATOM      6  C   UNL     1     -13.811 -31.105 -10.507  1.00  0.00     0.042 C 
BRANCH   6   7
ATOM      7  C   UNL     1     -13.481 -29.812  -9.792  1.00  0.00    -0.044 A 
ATOM      8  C   UNL     1     -12.136 -29.455  -9.543  1.00  0.00     0.054 A 
ATOM      9  C   UNL     1     -14.523 -28.953  -9.351  1.00  0.00     0.008 A 
ATOM     10  C   UNL     1     -11.886 -28.248  -8.898  1.00  0.00     0.166 A 
ATOM     11  C   UNL     1     -14.226 -27.742  -8.700  1.00  0.00     0.051 A 
ATOM     12  C   UNL     1     -12.888 -27.426  -8.496  1.00  0.00     0.165 A 
ATOM     13  O   UNL     1     -10.669 -27.688  -8.559  1.00  0.00    -0.454 OA
ATOM     14  O   UNL     1     -12.351 -26.308  -7.888  1.00  0.00    -0.454 OA
ATOM     15  C   UNL     1     -10.922 -26.436  -7.908  1.00  0.00     0.468 C 
ENDBRANCH   6   7
ENDBRANCH   2   6
BRANCH   3  16
ATOM     16  C   UNL     1     -15.548 -29.906 -13.701  1.00  0.00     0.044 C 
BRANCH  16  17
ATOM     17  C   UNL     1     -14.885 -28.553 -13.872  1.00  0.00    -0.044 A 
ATOM     18  C   UNL     1     -13.691 -28.433 -14.622  1.00  0.00     0.054 A 
ATOM     19  C   UNL     1     -15.479 -27.385 -13.323  1.00  0.00     0.008 A 
ATOM     20  C   UNL     1     -13.117 -27.172 -14.748  1.00  0.00     0.166 A 
ATOM     21  C   UNL     1     -14.865 -26.129 -13.475  1.00  0.00     0.051 A 
ATOM     22  C   UNL     1     -13.677 -26.068 -14.194  1.00  0.00     0.165 A 
ATOM     23  O   UNL     1     -11.960 -26.817 -15.413  1.00  0.00    -0.454 OA
ATOM     24  O   UNL     1     -12.899 -24.963 -14.481  1.00  0.00    -0.454 OA
ATOM     25  C   UNL     1     -11.780 -25.401 -15.264  1.00  0.00     0.468 C 
ENDBRANCH  16  17
ENDBRANCH   3  16
BRANCH   4  26
ATOM     26  O   UNL     1     -13.705 -32.968 -13.797  1.00  0.00    -0.368 OA
ATOM     27  H   UNL     1     -13.859 -33.943 -13.909  1.00  0.00     0.213 HD
ENDBRANCH   4  26
TORSDOF 5
ENDMDL
MODEL 4
REMARK VINA RESULT:    -9.136      1.624      6.454
REMARK INTER + INTRA:         -12.131
REMARK INTER:                 -10.899
REMARK INTRA:                  -1.231
REMARK UNBOUND:                -0.591
REMARK SMILES O[C@H]1OC[C@@H](Cc2ccc3c(c2)OCO3)[C@@H]1Cc1ccc2c(c1)OCO2
REMARK SMILES IDX 4 1 5 2 16 3 2 4 3 5 6 6 7 7 12 8 8 9 11 10 9 11 10 12 13 13
REMARK SMILES IDX 15 14 14 15 17 16 18 17 23 18 19 19 22 20 20 21 21 22 24 23
REMARK SMILES IDX 26 24 25 25 1 26
REMARK H PARENT 1 27
REMARK Flexibility Score: inf
ROOT
ATOM      1  C   UNL     1     -12.082 -26.246  -7.752  1.00  0.00     0.168 C 
ATOM      2  C   UNL     1     -12.437 -27.564  -8.419  1.00  0.00     0.028 C 
ATOM      3  C   UNL     1     -11.130 -28.340  -8.321  1.00  0.00     0.055 C 
ATOM      4  C   UNL     1     -10.071 -27.239  -8.130  1.00  0.00     0.250 C 
ATOM      5  O   UNL     1     -10.714 -25.991  -7.960  1.00  0.00    -0.352 OA
ENDROOT
BRANCH   2   6
ATOM      6  C   UNL     1     -12.966 -27.392  -9.871  1.00  0.00     0.042 C 
BRANCH   6   7
ATOM      7  C   UNL     1     -13.787 -28.548 -10.401  1.00  0.00    -0.044 A 
ATOM      8  C   UNL     1     -14.399 -28.469 -11.672  1.00  0.00     0.054 A 
ATOM      9  C   UNL     1     -13.961 -29.720  -9.616  1.00  0.00     0.008 A 
ATOM     10  C   UNL     1     -15.127 -29.567 -12.120  1.00  0.00     0.166 A 
ATOM     11  C   UNL     1     -14.707 -30.807 -10.105  1.00  0.00     0.051 A 
ATOM     12  C   UNL     1     -15.273 -30.688 -11.370  1.00  0.00     0.165 A 
ATOM     13  O   UNL     1     -15.798 -29.724 -13.317  1.00  0.00    -0.454 OA
ATOM     14  O   UNL     1     -16.040 -31.607 -12.059  1.00  0.00    -0.454 OA
ATOM     15  C   UNL     1     -16.399 -31.026 -13.321  1.00  0.00     0.468 C 
ENDBRANCH   6   7
ENDBRANCH   2   6
BRANCH   3  16
ATOM     16  C   UNL     1     -11.118 -29.424  -7.203  1.00  0.00     0.044 C 
BRANCH  16  17
ATOM     17  C   UNL     1     -10.624 -30.794  -7.623  1.00  0.00    -0.044 A 
ATOM     18  C   UNL     1     -10.171 -31.015  -8.945  1.00  0.00     0.054 A 
ATOM     19  C   UNL     1     -10.565 -31.858  -6.682  1.00  0.00     0.008 A 
ATOM     20  C   UNL     1      -9.730 -32.291  -9.284  1.00  0.00     0.166 A 
ATOM     21  C   UNL     1     -10.112 -33.132  -7.068  1.00  0.00     0.051 A 
ATOM     22  C   UNL     1      -9.707 -33.306  -8.386  1.00  0.00     0.165 A 
ATOM     23  O   UNL     1      -9.260 -32.741 -10.503  1.00  0.00    -0.454 OA
ATOM     24  O   UNL     1      -9.223 -34.449  -8.995  1.00  0.00    -0.454 OA
ATOM     25  C   UNL     1      -8.925 -34.129 -10.361  1.00  0.00     0.468 C 
ENDBRANCH  16  17
ENDBRANCH   3  16
BRANCH   4  26
ATOM     26  O   UNL     1      -9.240 -27.179  -9.257  1.00  0.00    -0.368 OA
ATOM     27  H   UNL     1      -8.480 -26.587  -9.018  1.00  0.00     0.213 HD
ENDBRANCH   4  26
TORSDOF 5
ENDMDL
MODEL 5
REMARK VINA RESULT:    -8.739      2.779      6.719
REMARK INTER + INTRA:         -11.628
REMARK INTER:                 -10.430
REMARK INTRA:                  -1.198
REMARK UNBOUND:                -0.591
REMARK SMILES O[C@H]1OC[C@@H](Cc2ccc3c(c2)OCO3)[C@@H]1Cc1ccc2c(c1)OCO2
REMARK SMILES IDX 4 1 5 2 16 3 2 4 3 5 6 6 7 7 12 8 8 9 11 10 9 11 10 12 13 13
REMARK SMILES IDX 15 14 14 15 17 16 18 17 23 18 19 19 22 20 20 21 21 22 24 23
REMARK SMILES IDX 26 24 25 25 1 26
REMARK H PARENT 1 27
REMARK Flexibility Score: inf
ROOT
ATOM      1  C   UNL     1     -16.019 -27.721 -13.750  1.00  0.00     0.168 C 
ATOM      2  C   UNL     1     -15.145 -28.695 -12.978  1.00  0.00     0.028 C 
ATOM      3  C   UNL     1     -14.171 -27.765 -12.267  1.00  0.00     0.055 C 
ATOM      4  C   UNL     1     -14.230 -26.474 -13.105  1.00  0.00     0.250 C 
ATOM      5  O   UNL     1     -15.250 -26.590 -14.076  1.00  0.00    -0.352 OA
ENDROOT
BRANCH   2   6
ATOM      6  C   UNL     1     -14.462 -29.756 -13.885  1.00  0.00     0.042 C 
BRANCH   6   7
ATOM      7  C   UNL     1     -14.746 -31.197 -13.522  1.00  0.00    -0.044 A 
ATOM      8  C   UNL     1     -14.656 -32.214 -14.500  1.00  0.00     0.054 A 
ATOM      9  C   UNL     1     -15.120 -31.539 -12.194  1.00  0.00     0.008 A 
ATOM     10  C   UNL     1     -14.910 -33.525 -14.109  1.00  0.00     0.166 A 
ATOM     11  C   UNL     1     -15.370 -32.877 -11.841  1.00  0.00     0.051 A 
ATOM     12  C   UNL     1     -15.250 -33.843 -12.834  1.00  0.00     0.165 A 
ATOM     13  O   UNL     1     -14.875 -34.674 -14.875  1.00  0.00    -0.454 OA
ATOM     14  O   UNL     1     -15.442 -35.207 -12.735  1.00  0.00    -0.454 OA
ATOM     15  C   UNL     1     -15.210 -35.783 -14.029  1.00  0.00     0.468 C 
ENDBRANCH   6   7
ENDBRANCH   2   6
BRANCH   3  16
ATOM     16  C   UNL     1     -14.488 -27.548 -10.758  1.00  0.00     0.044 C 
BRANCH  16  17
ATOM     17  C   UNL     1     -13.493 -28.151  -9.785  1.00  0.00    -0.044 A 
ATOM     18  C   UNL     1     -12.979 -29.451 -10.005  1.00  0.00     0.054 A 
ATOM     19  C   UNL     1     -13.029 -27.401  -8.671  1.00  0.00     0.008 A 
ATOM     20  C   UNL     1     -12.071 -29.963  -9.083  1.00  0.00     0.166 A 
ATOM     21  C   UNL     1     -12.110 -27.957  -7.764  1.00  0.00     0.051 A 
ATOM     22  C   UNL     1     -11.659 -29.249  -8.006  1.00  0.00     0.165 A 
ATOM     23  O   UNL     1     -11.453 -31.199  -9.081  1.00  0.00    -0.454 OA
ATOM     24  O   UNL     1     -10.761 -30.000  -7.271  1.00  0.00    -0.454 OA
ATOM     25  C   UNL     1     -10.602 -31.266  -7.928  1.00  0.00     0.468 C 
ENDBRANCH  16  17
ENDBRANCH   3  16
BRANCH   4  26
ATOM     26  O   UNL     1     -13.001 -26.270 -13.748  1.00  0.00    -0.368 OA
ATOM     27  H   UNL     1     -12.906 -26.997 -14.416  1.00  0.00     0.213 HD
ENDBRANCH   4  26
TORSDOF 5
ENDMDL
MODEL 6
REMARK VINA RESULT:    -8.672      0.738      7.394
REMARK INTER + INTRA:         -11.544
REMARK INTER:                 -11.467
REMARK INTRA:                  -0.077
REMARK UNBOUND:                -0.591
REMARK SMILES O[C@H]1OC[C@@H](Cc2ccc3c(c2)OCO3)[C@@H]1Cc1ccc2c(c1)OCO2
REMARK SMILES IDX 4 1 5 2 16 3 2 4 3 5 6 6 7 7 12 8 8 9 11 10 9 11 10 12 13 13
REMARK SMILES IDX 15 14 14 15 17 16 18 17 23 18 19 19 22 20 20 21 21 22 24 23
REMARK SMILES IDX 26 24 25 25 1 26
REMARK H PARENT 1 27
REMARK Flexibility Score: inf
ROOT
ATOM      1  C   UNL     1     -11.887 -26.957  -8.725  1.00  0.00     0.168 C 
ATOM      2  C   UNL     1     -12.582 -27.906  -7.763  1.00  0.00     0.028 C 
ATOM      3  C   UNL     1     -11.733 -29.165  -7.877  1.00  0.00     0.055 C 
ATOM      4  C   UNL     1     -11.023 -28.999  -9.234  1.00  0.00     0.250 C 
ATOM      5  O   UNL     1     -11.297 -27.713  -9.754  1.00  0.00    -0.352 OA
ENDROOT
BRANCH   2   6
ATOM      6  C   UNL     1     -14.085 -28.123  -8.098  1.00  0.00     0.042 C 
BRANCH   6   7
ATOM      7  C   UNL     1     -14.377 -28.529  -9.527  1.00  0.00    -0.044 A 
ATOM      8  C   UNL     1     -14.468 -27.553 -10.545  1.00  0.00     0.054 A 
ATOM      9  C   UNL     1     -14.577 -29.897  -9.854  1.00  0.00     0.008 A 
ATOM     10  C   UNL     1     -14.720 -27.981 -11.845  1.00  0.00     0.166 A 
ATOM     11  C   UNL     1     -14.832 -30.287 -11.182  1.00  0.00     0.051 A 
ATOM     12  C   UNL     1     -14.892 -29.292 -12.150  1.00  0.00     0.165 A 
ATOM     13  O   UNL     1     -14.840 -27.222 -12.992  1.00  0.00    -0.454 OA
ATOM     14  O   UNL     1     -15.126 -29.422 -13.504  1.00  0.00    -0.454 OA
ATOM     15  C   UNL     1     -15.101 -28.111 -14.087  1.00  0.00     0.468 C 
ENDBRANCH   6   7
ENDBRANCH   2   6
BRANCH   3  16
ATOM     16  C   UNL     1     -10.759 -29.382  -6.682  1.00  0.00     0.044 C 
BRANCH  16  17
ATOM     17  C   UNL     1     -10.366 -30.821  -6.409  1.00  0.00    -0.044 A 
ATOM     18  C   UNL     1     -10.760 -31.849  -7.297  1.00  0.00     0.054 A 
ATOM     19  C   UNL     1      -9.558 -31.147  -5.285  1.00  0.00     0.008 A 
ATOM     20  C   UNL     1     -10.379 -33.155  -7.003  1.00  0.00     0.166 A 
ATOM     21  C   UNL     1      -9.196 -32.480  -5.025  1.00  0.00     0.051 A 
ATOM     22  C   UNL     1      -9.634 -33.457  -5.911  1.00  0.00     0.165 A 
ATOM     23  O   UNL     1     -10.655 -34.310  -7.708  1.00  0.00    -0.454 OA
ATOM     24  O   UNL     1      -9.405 -34.820  -5.873  1.00  0.00    -0.454 OA
ATOM     25  C   UNL     1     -10.048 -35.409  -7.012  1.00  0.00     0.468 C 
ENDBRANCH  16  17
ENDBRANCH   3  16
BRANCH   4  26
ATOM     26  O   UNL     1     -11.486 -29.969 -10.133  1.00  0.00    -0.368 OA
ATOM     27  H   UNL     1     -12.442 -29.764 -10.305  1.00  0.00     0.213 HD
ENDBRANCH   4  26
TORSDOF 5
ENDMDL
MODEL 7
REMARK VINA RESULT:    -8.618      2.373      8.011
REMARK INTER + INTRA:         -11.476
REMARK INTER:                 -10.830
REMARK INTRA:                  -0.645
REMARK UNBOUND:                -0.591
REMARK SMILES O[C@H]1OC[C@@H](Cc2ccc3c(c2)OCO3)[C@@H]1Cc1ccc2c(c1)OCO2
REMARK SMILES IDX 4 1 5 2 16 3 2 4 3 5 6 6 7 7 12 8 8 9 11 10 9 11 10 12 13 13
REMARK SMILES IDX 15 14 14 15 17 16 18 17 23 18 19 19 22 20 20 21 21 22 24 23
REMARK SMILES IDX 26 24 25 25 1 26
REMARK H PARENT 1 27
REMARK Flexibility Score: inf
ROOT
ATOM      1  C   UNL     1     -14.593 -30.341 -10.237  1.00  0.00     0.168 C 
ATOM      2  C   UNL     1     -14.006 -29.124 -10.934  1.00  0.00     0.028 C 
ATOM      3  C   UNL     1     -13.542 -28.270  -9.762  1.00  0.00     0.055 C 
ATOM      4  C   UNL     1     -14.375 -28.798  -8.580  1.00  0.00     0.250 C 
ATOM      5  O   UNL     1     -15.102 -29.940  -8.988  1.00  0.00    -0.352 OA
ENDROOT
BRANCH   2   6
ATOM      6  C   UNL     1     -15.018 -28.413 -11.877  1.00  0.00     0.042 C 
BRANCH   6   7
ATOM      7  C   UNL     1     -14.402 -27.481 -12.898  1.00  0.00    -0.044 A 
ATOM      8  C   UNL     1     -12.999 -27.333 -12.981  1.00  0.00     0.054 A 
ATOM      9  C   UNL     1     -15.233 -26.732 -13.774  1.00  0.00     0.008 A 
ATOM     10  C   UNL     1     -12.484 -26.477 -13.949  1.00  0.00     0.166 A 
ATOM     11  C   UNL     1     -14.672 -25.875 -14.739  1.00  0.00     0.051 A 
ATOM     12  C   UNL     1     -13.286 -25.780 -14.793  1.00  0.00     0.165 A 
ATOM     13  O   UNL     1     -11.163 -26.183 -14.223  1.00  0.00    -0.454 OA
ATOM     14  O   UNL     1     -12.509 -25.016 -15.641  1.00  0.00    -0.454 OA
ATOM     15  C   UNL     1     -11.132 -25.246 -15.309  1.00  0.00     0.468 C 
ENDBRANCH   6   7
ENDBRANCH   2   6
BRANCH   3  16
ATOM     16  C   UNL     1     -12.006 -28.312  -9.516  1.00  0.00     0.044 C 
BRANCH  16  17
ATOM     17  C   UNL     1     -11.517 -29.423  -8.607  1.00  0.00    -0.044 A 
ATOM     18  C   UNL     1     -11.351 -30.735  -9.110  1.00  0.00     0.054 A 
ATOM     19  C   UNL     1     -11.175 -29.150  -7.255  1.00  0.00     0.008 A 
ATOM     20  C   UNL     1     -10.904 -31.722  -8.237  1.00  0.00     0.166 A 
ATOM     21  C   UNL     1     -10.726 -30.178  -6.407  1.00  0.00     0.051 A 
ATOM     22  C   UNL     1     -10.609 -31.456  -6.941  1.00  0.00     0.165 A 
ATOM     23  O   UNL     1     -10.683 -33.061  -8.495  1.00  0.00    -0.454 OA
ATOM     24  O   UNL     1     -10.189 -32.615  -6.316  1.00  0.00    -0.454 OA
ATOM     25  C   UNL     1     -10.223 -33.675  -7.282  1.00  0.00     0.468 C 
ENDBRANCH  16  17
ENDBRANCH   3  16
BRANCH   4  26
ATOM     26  O   UNL     1     -15.272 -27.809  -8.152  1.00  0.00    -0.368 OA
ATOM     27  H   UNL     1     -16.026 -28.281  -7.711  1.00  0.00     0.213 HD
ENDBRANCH   4  26
TORSDOF 5
ENDMDL
MODEL 8
REMARK VINA RESULT:    -8.523      2.567      6.774
REMARK INTER + INTRA:         -11.356
REMARK INTER:                 -10.659
REMARK INTRA:                  -0.697
REMARK UNBOUND:                -0.591
REMARK SMILES O[C@H]1OC[C@@H](Cc2ccc3c(c2)OCO3)[C@@H]1Cc1ccc2c(c1)OCO2
REMARK SMILES IDX 4 1 5 2 16 3 2 4 3 5 6 6 7 7 12 8 8 9 11 10 9 11 10 12 13 13
REMARK SMILES IDX 15 14 14 15 17 16 18 17 23 18 19 19 22 20 20 21 21 22 24 23
REMARK SMILES IDX 26 24 25 25 1 26
REMARK H PARENT 1 27
REMARK Flexibility Score: inf
ROOT
ATOM      1  C   UNL     1     -14.812 -29.615  -8.979  1.00  0.00     0.168 C 
ATOM      2  C   UNL     1     -14.148 -29.485 -10.340  1.00  0.00     0.028 C 
ATOM      3  C   UNL     1     -13.449 -28.136 -10.233  1.00  0.00     0.055 C 
ATOM      4  C   UNL     1     -14.212 -27.424  -9.101  1.00  0.00     0.250 C 
ATOM      5  O   UNL     1     -15.125 -28.326  -8.508  1.00  0.00    -0.352 OA
ENDROOT
BRANCH   2   6
ATOM      6  C   UNL     1     -15.151 -29.589 -11.522  1.00  0.00     0.042 C 
BRANCH   6   7
ATOM      7  C   UNL     1     -15.010 -30.827 -12.382  1.00  0.00    -0.044 A 
ATOM      8  C   UNL     1     -15.329 -32.101 -11.861  1.00  0.00     0.054 A 
ATOM      9  C   UNL     1     -14.541 -30.719 -13.719  1.00  0.00     0.008 A 
ATOM     10  C   UNL     1     -15.199 -33.205 -12.699  1.00  0.00     0.166 A 
ATOM     11  C   UNL     1     -14.422 -31.860 -14.532  1.00  0.00     0.051 A 
ATOM     12  C   UNL     1     -14.767 -33.088 -13.980  1.00  0.00     0.165 A 
ATOM     13  O   UNL     1     -15.459 -34.532 -12.420  1.00  0.00    -0.454 OA
ATOM     14  O   UNL     1     -14.736 -34.337 -14.570  1.00  0.00    -0.454 OA
ATOM     15  C   UNL     1     -15.175 -35.298 -13.599  1.00  0.00     0.468 C 
ENDBRANCH   6   7
ENDBRANCH   2   6
BRANCH   3  16
ATOM     16  C   UNL     1     -11.915 -28.234  -9.992  1.00  0.00     0.044 C 
BRANCH  16  17
ATOM     17  C   UNL     1     -11.480 -29.220  -8.926  1.00  0.00    -0.044 A 
ATOM     18  C   UNL     1     -11.257 -30.578  -9.259  1.00  0.00     0.054 A 
ATOM     19  C   UNL     1     -11.244 -28.786  -7.594  1.00  0.00     0.008 A 
ATOM     20  C   UNL     1     -10.863 -31.447  -8.247  1.00  0.00     0.166 A 
ATOM     21  C   UNL     1     -10.846 -29.698  -6.601  1.00  0.00     0.051 A 
ATOM     22  C   UNL     1     -10.671 -31.027  -6.972  1.00  0.00     0.165 A 
ATOM     23  O   UNL     1     -10.603 -32.801  -8.330  1.00  0.00    -0.454 OA
ATOM     24  O   UNL     1     -10.282 -32.096  -6.188  1.00  0.00    -0.454 OA
ATOM     25  C   UNL     1     -10.228 -33.261  -7.023  1.00  0.00     0.468 C 
ENDBRANCH  16  17
ENDBRANCH   3  16
BRANCH   4  26
ATOM     26  O   UNL     1     -14.917 -26.329  -9.619  1.00  0.00    -0.368 OA
ATOM     27  H   UNL     1     -14.374 -25.971 -10.369  1.00  0.00     0.213 HD
ENDBRANCH   4  26
TORSDOF 5
ENDMDL
MODEL 9
REMARK VINA RESULT:    -8.481      1.568      6.823
REMARK INTER + INTRA:         -11.302
REMARK INTER:                 -10.355
REMARK INTRA:                  -0.947
REMARK UNBOUND:                -0.591
REMARK SMILES O[C@H]1OC[C@@H](Cc2ccc3c(c2)OCO3)[C@@H]1Cc1ccc2c(c1)OCO2
REMARK SMILES IDX 4 1 5 2 16 3 2 4 3 5 6 6 7 7 12 8 8 9 11 10 9 11 10 12 13 13
REMARK SMILES IDX 15 14 14 15 17 16 18 17 23 18 19 19 22 20 20 21 21 22 24 23
REMARK SMILES IDX 26 24 25 25 1 26
REMARK H PARENT 1 27
REMARK Flexibility Score: inf
ROOT
ATOM      1  C   UNL     1     -12.627 -28.341  -7.753  1.00  0.00     0.168 C 
ATOM      2  C   UNL     1     -12.369 -28.487  -9.243  1.00  0.00     0.028 C 
ATOM      3  C   UNL     1     -10.963 -27.918  -9.387  1.00  0.00     0.055 C 
ATOM      4  C   UNL     1     -10.800 -27.040  -8.133  1.00  0.00     0.250 C 
ATOM      5  O   UNL     1     -11.913 -27.224  -7.281  1.00  0.00    -0.352 OA
ENDROOT
BRANCH   2   6
ATOM      6  C   UNL     1     -13.434 -27.773 -10.122  1.00  0.00     0.042 C 
BRANCH   6   7
ATOM      7  C   UNL     1     -14.142 -28.658 -11.126  1.00  0.00    -0.044 A 
ATOM      8  C   UNL     1     -14.173 -30.060 -10.949  1.00  0.00     0.054 A 
ATOM      9  C   UNL     1     -14.768 -28.086 -12.265  1.00  0.00     0.008 A 
ATOM     10  C   UNL     1     -14.851 -30.826 -11.892  1.00  0.00     0.166 A 
ATOM     11  C   UNL     1     -15.443 -28.897 -13.196  1.00  0.00     0.051 A 
ATOM     12  C   UNL     1     -15.462 -30.267 -12.967  1.00  0.00     0.165 A 
ATOM     13  O   UNL     1     -15.024 -32.196 -11.925  1.00  0.00    -0.454 OA
ATOM     14  O   UNL     1     -16.051 -31.259 -13.728  1.00  0.00    -0.454 OA
ATOM     15  C   UNL     1     -15.794 -32.518 -13.091  1.00  0.00     0.468 C 
ENDBRANCH   6   7
ENDBRANCH   2   6
BRANCH   3  16
ATOM     16  C   UNL     1      -9.855 -29.001  -9.544  1.00  0.00     0.044 C 
BRANCH  16  17
ATOM     17  C   UNL     1     -10.129 -30.325  -8.859  1.00  0.00    -0.044 A 
ATOM     18  C   UNL     1      -9.865 -30.480  -7.477  1.00  0.00     0.054 A 
ATOM     19  C   UNL     1     -10.696 -31.408  -9.583  1.00  0.00     0.008 A 
ATOM     20  C   UNL     1     -10.129 -31.716  -6.893  1.00  0.00     0.166 A 
ATOM     21  C   UNL     1     -10.947 -32.639  -8.953  1.00  0.00     0.051 A 
ATOM     22  C   UNL     1     -10.643 -32.751  -7.601  1.00  0.00     0.165 A 
ATOM     23  O   UNL     1      -9.941 -32.103  -5.580  1.00  0.00    -0.454 OA
ATOM     24  O   UNL     1     -10.803 -33.844  -6.770  1.00  0.00    -0.454 OA
ATOM     25  C   UNL     1     -10.360 -33.470  -5.457  1.00  0.00     0.468 C 
ENDBRANCH  16  17
ENDBRANCH   3  16
BRANCH   4  26
ATOM     26  O   UNL     1     -10.722 -25.691  -8.506  1.00  0.00    -0.368 OA
ATOM     27  H   UNL     1     -10.704 -25.672  -9.498  1.00  0.00     0.213 HD
ENDBRANCH   4  26
TORSDOF 5
ENDMDL
