MODEL 1
REMARK VINA RESULT:    -4.324      0.000      0.000
REMARK INTER + INTRA:          -9.918
REMARK INTER:                  -7.862
REMARK INTRA:                  -2.056
REMARK UNBOUND:                -2.056
REMARK SMILES CCCCCCCCCCCCCCCC(=O)[O-]
REMARK SMILES IDX 9 1 10 2 11 3 12 4 13 5 14 6 15 7 16 8 17 9 18 10 8 11 7 12
REMARK SMILES IDX 6 13 5 14 4 15 3 16 2 17 1 18
REMARK H PARENT
REMARK Flexibility Score: inf
ROOT
ATOM      1  C   UNL     1     110.616 116.326 126.423  1.00  0.00     0.000 C 
ENDROOT
BRANCH   1   2
ATOM      2  C   UNL     1     109.539 116.867 127.376  1.00  0.00     0.000 C 
BRANCH   2   3
ATOM      3  C   UNL     1     109.312 115.907 128.550  1.00  0.00     0.000 C 
BRANCH   3   4
ATOM      4  C   UNL     1     110.578 115.772 129.406  1.00  0.00     0.000 C 
BRANCH   4   5
ATOM      5  C   UNL     1     110.644 116.879 130.467  1.00  0.00     0.000 C 
BRANCH   5   6
ATOM      6  C   UNL     1     111.971 117.661 130.434  1.00  0.00     0.006 C 
BRANCH   6   7
ATOM      7  C   UNL     1     112.785 117.470 129.143  1.00  0.00     0.053 C 
BRANCH   7   8
ATOM      8  C   UNL     1     112.862 118.729 128.336  1.00  0.00     0.041 C 
ATOM      9  O   UNL     1     113.950 119.076 127.805  1.00  0.00    -0.550 OA
ATOM     10  O   UNL     1     111.725 119.503 128.143  1.00  0.00    -0.550 OA
ENDBRANCH   7   8
ENDBRANCH   6   7
ENDBRANCH   5   6
ENDBRANCH   4   5
ENDBRANCH   3   4
ENDBRANCH   2   3
ENDBRANCH   1   2
BRANCH   1  11
ATOM     11  C   UNL     1     110.023 115.540 125.244  1.00  0.00     0.000 C 
BRANCH  11  12
ATOM     12  C   UNL     1     111.009 115.393 124.075  1.00  0.00    -0.000 C 
BRANCH  12  13
ATOM     13  C   UNL     1     110.653 116.351 122.931  1.00  0.00    -0.000 C 
BRANCH  13  14
ATOM     14  C   UNL     1     109.161 116.713 122.961  1.00  0.00    -0.000 C 
BRANCH  14  15
ATOM     15  C   UNL     1     108.908 118.194 123.299  1.00  0.00    -0.000 C 
BRANCH  15  16
ATOM     16  C   UNL     1     110.118 119.123 123.092  1.00  0.00    -0.000 C 
BRANCH  16  17
ATOM     17  C   UNL     1     110.654 119.710 124.405  1.00  0.00    -0.003 C 
ATOM     18  C   UNL     1     112.128 119.366 124.601  1.00  0.00     0.004 C 
ENDBRANCH  16  17
ENDBRANCH  15  16
ENDBRANCH  14  15
ENDBRANCH  13  14
ENDBRANCH  12  13
ENDBRANCH  11  12
ENDBRANCH   1  11
TORSDOF 14
ENDMDL
MODEL 2
REMARK VINA RESULT:    -4.290      1.225      2.628
REMARK INTER + INTRA:          -9.857
REMARK INTER:                  -7.658
REMARK INTRA:                  -2.199
REMARK UNBOUND:                -2.056
REMARK SMILES CCCCCCCCCCCCCCCC(=O)[O-]
REMARK SMILES IDX 9 1 10 2 11 3 12 4 13 5 14 6 15 7 16 8 17 9 18 10 8 11 7 12
REMARK SMILES IDX 6 13 5 14 4 15 3 16 2 17 1 18
REMARK H PARENT
REMARK Flexibility Score: inf
ROOT
ATOM      1  C   UNL     1     110.764 116.255 123.868  1.00  0.00     0.000 C 
ENDROOT
BRANCH   1   2
ATOM      2  C   UNL     1     109.799 115.992 125.034  1.00  0.00     0.000 C 
BRANCH   2   3
ATOM      3  C   UNL     1     110.499 116.199 126.384  1.00  0.00     0.000 C 
BRANCH   3   4
ATOM      4  C   UNL     1     109.539 116.807 127.415  1.00  0.00     0.000 C 
BRANCH   4   5
ATOM      5  C   UNL     1     109.318 115.847 128.592  1.00  0.00     0.000 C 
BRANCH   5   6
ATOM      6  C   UNL     1     110.452 115.906 129.633  1.00  0.00     0.006 C 
BRANCH   6   7
ATOM      7  C   UNL     1     110.696 117.305 130.223  1.00  0.00     0.053 C 
BRANCH   7   8
ATOM      8  C   UNL     1     112.097 117.778 129.985  1.00  0.00     0.041 C 
ATOM      9  O   UNL     1     112.997 117.546 130.835  1.00  0.00    -0.550 OA
ATOM     10  O   UNL     1     112.416 118.448 128.810  1.00  0.00    -0.550 OA
ENDBRANCH   7   8
ENDBRANCH   6   7
ENDBRANCH   5   6
ENDBRANCH   4   5
ENDBRANCH   3   4
ENDBRANCH   2   3
ENDBRANCH   1   2
BRANCH   1  11
ATOM     11  C   UNL     1     110.105 117.029 122.717  1.00  0.00     0.000 C 
BRANCH  11  12
ATOM     12  C   UNL     1     108.918 117.886 123.181  1.00  0.00    -0.000 C 
BRANCH  12  13
ATOM     13  C   UNL     1     109.007 119.305 122.607  1.00  0.00    -0.000 C 
BRANCH  13  14
ATOM     14  C   UNL     1     109.240 120.336 123.720  1.00  0.00    -0.000 C 
BRANCH  14  15
ATOM     15  C   UNL     1     109.413 119.693 125.109  1.00  0.00    -0.000 C 
BRANCH  15  16
ATOM     16  C   UNL     1     110.814 119.853 125.727  1.00  0.00    -0.000 C 
BRANCH  16  17
ATOM     17  C   UNL     1     111.945 119.654 124.708  1.00  0.00    -0.003 C 
ATOM     18  C   UNL     1     113.174 119.030 125.364  1.00  0.00     0.004 C 
ENDBRANCH  16  17
ENDBRANCH  15  16
ENDBRANCH  14  15
ENDBRANCH  13  14
ENDBRANCH  12  13
ENDBRANCH  11  12
ENDBRANCH   1  11
TORSDOF 14
ENDMDL
MODEL 3
REMARK VINA RESULT:    -4.215      1.749      5.389
REMARK INTER + INTRA:          -9.721
REMARK INTER:                  -7.482
REMARK INTRA:                  -2.239
REMARK UNBOUND:                -2.056
REMARK SMILES CCCCCCCCCCCCCCCC(=O)[O-]
REMARK SMILES IDX 9 1 10 2 11 3 12 4 13 5 14 6 15 7 16 8 17 9 18 10 8 11 7 12
REMARK SMILES IDX 6 13 5 14 4 15 3 16 2 17 1 18
REMARK H PARENT
REMARK Flexibility Score: inf
ROOT
ATOM      1  C   UNL     1     109.491 116.755 127.472  1.00  0.00     0.000 C 
ENDROOT
BRANCH   1   2
ATOM      2  C   UNL     1     110.061 115.891 126.338  1.00  0.00     0.000 C 
BRANCH   2   3
ATOM      3  C   UNL     1     109.771 116.519 124.969  1.00  0.00     0.000 C 
BRANCH   3   4
ATOM      4  C   UNL     1     109.279 117.964 125.119  1.00  0.00     0.000 C 
BRANCH   4   5
ATOM      5  C   UNL     1     109.777 118.836 123.957  1.00  0.00     0.000 C 
BRANCH   5   6
ATOM      6  C   UNL     1     110.296 120.210 124.421  1.00  0.00     0.006 C 
BRANCH   6   7
ATOM      7  C   UNL     1     111.790 120.447 124.147  1.00  0.00     0.053 C 
BRANCH   7   8
ATOM      8  C   UNL     1     112.306 121.662 124.855  1.00  0.00     0.041 C 
ATOM      9  O   UNL     1     111.546 122.644 125.064  1.00  0.00    -0.550 OA
ATOM     10  O   UNL     1     113.617 121.695 125.314  1.00  0.00    -0.550 OA
ENDBRANCH   7   8
ENDBRANCH   6   7
ENDBRANCH   5   6
ENDBRANCH   4   5
ENDBRANCH   3   4
ENDBRANCH   2   3
ENDBRANCH   1   2
BRANCH   1  11
ATOM     11  C   UNL     1     109.291 115.968 128.776  1.00  0.00     0.000 C 
BRANCH  11  12
ATOM     12  C   UNL     1     110.079 116.560 129.954  1.00  0.00    -0.000 C 
BRANCH  12  13
ATOM     13  C   UNL     1     111.221 115.628 130.375  1.00  0.00    -0.000 C 
BRANCH  13  14
ATOM     14  C   UNL     1     112.558 116.381 130.422  1.00  0.00    -0.000 C 
BRANCH  14  15
ATOM     15  C   UNL     1     112.539 117.692 129.614  1.00  0.00    -0.000 C 
BRANCH  15  16
ATOM     16  C   UNL     1     113.178 117.603 128.217  1.00  0.00    -0.000 C 
BRANCH  16  17
ATOM     17  C   UNL     1     112.572 118.596 127.216  1.00  0.00    -0.003 C 
ATOM     18  C   UNL     1     111.652 119.592 127.917  1.00  0.00     0.004 C 
ENDBRANCH  16  17
ENDBRANCH  15  16
ENDBRANCH  14  15
ENDBRANCH  13  14
ENDBRANCH  12  13
ENDBRANCH  11  12
ENDBRANCH   1  11
TORSDOF 14
ENDMDL
MODEL 4
REMARK VINA RESULT:    -4.189      2.250      6.022
REMARK INTER + INTRA:          -9.673
REMARK INTER:                  -7.556
REMARK INTRA:                  -2.116
REMARK UNBOUND:                -2.056
REMARK SMILES CCCCCCCCCCCCCCCC(=O)[O-]
REMARK SMILES IDX 9 1 10 2 11 3 12 4 13 5 14 6 15 7 16 8 17 9 18 10 8 11 7 12
REMARK SMILES IDX 6 13 5 14 4 15 3 16 2 17 1 18
REMARK H PARENT
REMARK Flexibility Score: inf
ROOT
ATOM      1  C   UNL     1     111.194 119.158 127.329  1.00  0.00     0.000 C 
ENDROOT
BRANCH   1   2
ATOM      2  C   UNL     1     111.868 119.657 126.043  1.00  0.00     0.000 C 
BRANCH   2   3
ATOM      3  C   UNL     1     110.857 120.361 125.130  1.00  0.00     0.000 C 
BRANCH   3   4
ATOM      4  C   UNL     1     110.838 119.726 123.734  1.00  0.00     0.000 C 
BRANCH   4   5
ATOM      5  C   UNL     1     109.488 119.050 123.456  1.00  0.00     0.000 C 
BRANCH   5   6
ATOM      6  C   UNL     1     109.635 117.682 122.764  1.00  0.00     0.006 C 
BRANCH   6   7
ATOM      7  C   UNL     1     109.483 116.477 123.708  1.00  0.00     0.053 C 
BRANCH   7   8
ATOM      8  C   UNL     1     110.760 115.705 123.843  1.00  0.00     0.041 C 
ATOM      9  O   UNL     1     111.790 116.070 123.218  1.00  0.00    -0.550 OA
ATOM     10  O   UNL     1     110.820 114.601 124.684  1.00  0.00    -0.550 OA
ENDBRANCH   7   8
ENDBRANCH   6   7
ENDBRANCH   5   6
ENDBRANCH   4   5
ENDBRANCH   3   4
ENDBRANCH   2   3
ENDBRANCH   1   2
BRANCH   1  11
ATOM     11  C   UNL     1     109.666 119.315 127.298  1.00  0.00     0.000 C 
BRANCH  11  12
ATOM     12  C   UNL     1     108.938 117.986 127.044  1.00  0.00    -0.000 C 
BRANCH  12  13
ATOM     13  C   UNL     1     109.858 116.793 127.330  1.00  0.00    -0.000 C 
BRANCH  13  14
ATOM     14  C   UNL     1     109.377 116.009 128.559  1.00  0.00    -0.000 C 
BRANCH  14  15
ATOM     15  C   UNL     1     110.467 115.847 129.634  1.00  0.00    -0.000 C 
BRANCH  15  16
ATOM     16  C   UNL     1     110.594 117.028 130.613  1.00  0.00    -0.000 C 
BRANCH  16  17
ATOM     17  C   UNL     1     111.969 117.708 130.557  1.00  0.00    -0.003 C 
ATOM     18  C   UNL     1     113.036 116.751 130.032  1.00  0.00     0.004 C 
ENDBRANCH  16  17
ENDBRANCH  15  16
ENDBRANCH  14  15
ENDBRANCH  13  14
ENDBRANCH  12  13
ENDBRANCH  11  12
ENDBRANCH   1  11
TORSDOF 14
ENDMDL
MODEL 5
REMARK VINA RESULT:    -4.188      1.515      3.138
REMARK INTER + INTRA:          -9.672
REMARK INTER:                  -7.646
REMARK INTRA:                  -2.026
REMARK UNBOUND:                -2.056
REMARK SMILES CCCCCCCCCCCCCCCC(=O)[O-]
REMARK SMILES IDX 9 1 10 2 11 3 12 4 13 5 14 6 15 7 16 8 17 9 18 10 8 11 7 12
REMARK SMILES IDX 6 13 5 14 4 15 3 16 2 17 1 18
REMARK H PARENT
REMARK Flexibility Score: inf
ROOT
ATOM      1  C   UNL     1     110.080 116.552 129.930  1.00  0.00     0.000 C 
ENDROOT
BRANCH   1   2
ATOM      2  C   UNL     1     111.217 115.655 130.442  1.00  0.00     0.000 C 
BRANCH   2   3
ATOM      3  C   UNL     1     112.559 116.398 130.412  1.00  0.00     0.000 C 
BRANCH   3   4
ATOM      4  C   UNL     1     112.432 117.737 129.673  1.00  0.00     0.000 C 
BRANCH   4   5
ATOM      5  C   UNL     1     113.250 117.727 128.374  1.00  0.00     0.000 C 
BRANCH   5   6
ATOM      6  C   UNL     1     113.149 119.052 127.595  1.00  0.00     0.006 C 
BRANCH   6   7
ATOM      7  C   UNL     1     111.766 119.720 127.659  1.00  0.00     0.053 C 
BRANCH   7   8
ATOM      8  C   UNL     1     111.786 121.109 127.100  1.00  0.00     0.041 C 
ATOM      9  O   UNL     1     111.823 122.103 127.873  1.00  0.00    -0.550 OA
ATOM     10  O   UNL     1     111.798 121.306 125.725  1.00  0.00    -0.550 OA
ENDBRANCH   7   8
ENDBRANCH   6   7
ENDBRANCH   5   6
ENDBRANCH   4   5
ENDBRANCH   3   4
ENDBRANCH   2   3
ENDBRANCH   1   2
BRANCH   1  11
ATOM     11  C   UNL     1     109.333 115.939 128.736  1.00  0.00     0.000 C 
BRANCH  11  12
ATOM     12  C   UNL     1     109.601 116.689 127.422  1.00  0.00    -0.000 C 
BRANCH  12  13
ATOM     13  C   UNL     1     110.682 115.982 126.596  1.00  0.00    -0.000 C 
BRANCH  13  14
ATOM     14  C   UNL     1     110.130 115.531 125.236  1.00  0.00    -0.000 C 
BRANCH  14  15
ATOM     15  C   UNL     1     109.437 116.669 124.462  1.00  0.00    -0.000 C 
BRANCH  15  16
ATOM     16  C   UNL     1     110.383 117.567 123.645  1.00  0.00    -0.000 C 
BRANCH  16  17
ATOM     17  C   UNL     1     110.059 119.061 123.785  1.00  0.00    -0.003 C 
ATOM     18  C   UNL     1     108.987 119.295 124.846  1.00  0.00     0.004 C 
ENDBRANCH  16  17
ENDBRANCH  15  16
ENDBRANCH  14  15
ENDBRANCH  13  14
ENDBRANCH  12  13
ENDBRANCH  11  12
ENDBRANCH   1  11
TORSDOF 14
ENDMDL
MODEL 6
REMARK VINA RESULT:    -4.179      1.531      5.603
REMARK INTER + INTRA:          -9.655
REMARK INTER:                  -7.430
REMARK INTRA:                  -2.225
REMARK UNBOUND:                -2.056
REMARK SMILES CCCCCCCCCCCCCCCC(=O)[O-]
REMARK SMILES IDX 9 1 10 2 11 3 12 4 13 5 14 6 15 7 16 8 17 9 18 10 8 11 7 12
REMARK SMILES IDX 6 13 5 14 4 15 3 16 2 17 1 18
REMARK H PARENT
REMARK Flexibility Score: inf
ROOT
ATOM      1  C   UNL     1     109.977 115.626 125.472  1.00  0.00     0.000 C 
ENDROOT
BRANCH   1   2
ATOM      2  C   UNL     1     111.207 116.061 124.660  1.00  0.00     0.000 C 
BRANCH   2   3
ATOM      3  C   UNL     1     110.793 116.623 123.295  1.00  0.00     0.000 C 
BRANCH   3   4
ATOM      4  C   UNL     1     109.271 116.796 123.207  1.00  0.00     0.000 C 
BRANCH   4   5
ATOM      5  C   UNL     1     108.875 118.269 123.386  1.00  0.00     0.000 C 
BRANCH   5   6
ATOM      6  C   UNL     1     110.027 119.240 123.067  1.00  0.00     0.006 C 
BRANCH   6   7
ATOM      7  C   UNL     1     110.171 120.400 124.067  1.00  0.00     0.053 C 
BRANCH   7   8
ATOM      8  C   UNL     1     111.567 120.514 124.598  1.00  0.00     0.041 C 
ATOM      9  O   UNL     1     112.329 119.511 124.597  1.00  0.00    -0.550 OA
ATOM     10  O   UNL     1     112.037 121.735 125.063  1.00  0.00    -0.550 OA
ENDBRANCH   7   8
ENDBRANCH   6   7
ENDBRANCH   5   6
ENDBRANCH   4   5
ENDBRANCH   3   4
ENDBRANCH   2   3
ENDBRANCH   1   2
BRANCH   1  11
ATOM     11  C   UNL     1     109.994 116.169 126.909  1.00  0.00     0.000 C 
BRANCH  11  12
ATOM     12  C   UNL     1     109.288 117.527 127.038  1.00  0.00    -0.000 C 
BRANCH  12  13
ATOM     13  C   UNL     1     110.272 118.618 127.479  1.00  0.00    -0.000 C 
BRANCH  13  14
ATOM     14  C   UNL     1     111.658 118.024 127.770  1.00  0.00    -0.000 C 
BRANCH  14  15
ATOM     15  C   UNL     1     112.004 118.011 129.271  1.00  0.00    -0.000 C 
BRANCH  15  16
ATOM     16  C   UNL     1     112.349 116.625 129.845  1.00  0.00    -0.000 C 
BRANCH  16  17
ATOM     17  C   UNL     1     111.113 115.847 130.317  1.00  0.00    -0.003 C 
ATOM     18  C   UNL     1     109.997 116.794 130.747  1.00  0.00     0.004 C 
ENDBRANCH  16  17
ENDBRANCH  15  16
ENDBRANCH  14  15
ENDBRANCH  13  14
ENDBRANCH  12  13
ENDBRANCH  11  12
ENDBRANCH   1  11
TORSDOF 14
ENDMDL
MODEL 7
REMARK VINA RESULT:    -4.131      1.787      4.642
REMARK INTER + INTRA:          -9.568
REMARK INTER:                  -7.265
REMARK INTRA:                  -2.304
REMARK UNBOUND:                -2.056
REMARK SMILES CCCCCCCCCCCCCCCC(=O)[O-]
REMARK SMILES IDX 9 1 10 2 11 3 12 4 13 5 14 6 15 7 16 8 17 9 18 10 8 11 7 12
REMARK SMILES IDX 6 13 5 14 4 15 3 16 2 17 1 18
REMARK H PARENT
REMARK Flexibility Score: inf
ROOT
ATOM      1  C   UNL     1     111.833 117.917 129.977  1.00  0.00     0.000 C 
ENDROOT
BRANCH   1   2
ATOM      2  C   UNL     1     112.946 117.604 128.967  1.00  0.00     0.000 C 
BRANCH   2   3
ATOM      3  C   UNL     1     112.833 118.502 127.729  1.00  0.00     0.000 C 
BRANCH   3   4
ATOM      4  C   UNL     1     111.737 119.560 127.913  1.00  0.00     0.000 C 
BRANCH   4   5
ATOM      5  C   UNL     1     111.010 119.832 126.589  1.00  0.00     0.000 C 
BRANCH   5   6
ATOM      6  C   UNL     1     111.870 119.504 125.354  1.00  0.00     0.006 C 
BRANCH   6   7
ATOM      7  C   UNL     1     112.018 120.667 124.359  1.00  0.00     0.053 C 
BRANCH   7   8
ATOM      8  C   UNL     1     113.097 121.622 124.767  1.00  0.00     0.041 C 
ATOM      9  O   UNL     1     114.041 121.235 125.505  1.00  0.00    -0.550 OA
ATOM     10  O   UNL     1     113.077 122.933 124.307  1.00  0.00    -0.550 OA
ENDBRANCH   7   8
ENDBRANCH   6   7
ENDBRANCH   5   6
ENDBRANCH   4   5
ENDBRANCH   3   4
ENDBRANCH   2   3
ENDBRANCH   1   2
BRANCH   1  11
ATOM     11  C   UNL     1     111.136 116.653 130.502  1.00  0.00     0.000 C 
BRANCH  11  12
ATOM     12  C   UNL     1     110.690 115.710 129.374  1.00  0.00    -0.000 C 
BRANCH  12  13
ATOM     13  C   UNL     1     109.311 116.109 128.837  1.00  0.00    -0.000 C 
BRANCH  13  14
ATOM     14  C   UNL     1     109.418 116.687 127.419  1.00  0.00    -0.000 C 
BRANCH  14  15
ATOM     15  C   UNL     1     110.459 115.957 126.549  1.00  0.00    -0.000 C 
BRANCH  15  16
ATOM     16  C   UNL     1     110.011 115.669 125.105  1.00  0.00    -0.000 C 
BRANCH  16  17
ATOM     17  C   UNL     1     109.428 116.902 124.402  1.00  0.00    -0.003 C 
ATOM     18  C   UNL     1     109.811 116.927 122.924  1.00  0.00     0.004 C 
ENDBRANCH  16  17
ENDBRANCH  15  16
ENDBRANCH  14  15
ENDBRANCH  13  14
ENDBRANCH  12  13
ENDBRANCH  11  12
ENDBRANCH   1  11
TORSDOF 14
ENDMDL
MODEL 8
REMARK VINA RESULT:    -4.112      1.772      3.837
REMARK INTER + INTRA:          -9.533
REMARK INTER:                  -7.747
REMARK INTRA:                  -1.786
REMARK UNBOUND:                -2.056
REMARK SMILES CCCCCCCCCCCCCCCC(=O)[O-]
REMARK SMILES IDX 9 1 10 2 11 3 12 4 13 5 14 6 15 7 16 8 17 9 18 10 8 11 7 12
REMARK SMILES IDX 6 13 5 14 4 15 3 16 2 17 1 18
REMARK H PARENT
REMARK Flexibility Score: inf
ROOT
ATOM      1  C   UNL     1     110.111 117.263 122.541  1.00  0.00     0.000 C 
ENDROOT
BRANCH   1   2
ATOM      2  C   UNL     1     110.586 116.201 123.544  1.00  0.00     0.000 C 
BRANCH   2   3
ATOM      3  C   UNL     1     109.685 116.176 124.786  1.00  0.00     0.000 C 
BRANCH   3   4
ATOM      4  C   UNL     1     110.430 116.705 126.018  1.00  0.00     0.000 C 
BRANCH   4   5
ATOM      5  C   UNL     1     109.447 117.260 127.058  1.00  0.00     0.000 C 
BRANCH   5   6
ATOM      6  C   UNL     1     109.310 116.352 128.295  1.00  0.00     0.006 C 
BRANCH   6   7
ATOM      7  C   UNL     1     110.631 116.092 129.038  1.00  0.00     0.053 C 
BRANCH   7   8
ATOM      8  C   UNL     1     110.777 116.962 130.248  1.00  0.00     0.041 C 
ATOM      9  O   UNL     1     111.854 117.579 130.458  1.00  0.00    -0.550 OA
ATOM     10  O   UNL     1     109.711 117.118 131.125  1.00  0.00    -0.550 OA
ENDBRANCH   7   8
ENDBRANCH   6   7
ENDBRANCH   5   6
ENDBRANCH   4   5
ENDBRANCH   3   4
ENDBRANCH   2   3
ENDBRANCH   1   2
BRANCH   1  11
ATOM     11  C   UNL     1     108.930 118.091 123.069  1.00  0.00     0.000 C 
BRANCH  11  12
ATOM     12  C   UNL     1     109.182 119.604 122.981  1.00  0.00    -0.000 C 
BRANCH  12  13
ATOM     13  C   UNL     1     109.958 120.104 124.205  1.00  0.00    -0.000 C 
BRANCH  13  14
ATOM     14  C   UNL     1     111.469 120.108 123.935  1.00  0.00    -0.000 C 
BRANCH  14  15
ATOM     15  C   UNL     1     112.306 119.801 125.191  1.00  0.00    -0.000 C 
BRANCH  15  16
ATOM     16  C   UNL     1     112.868 121.037 125.915  1.00  0.00    -0.000 C 
BRANCH  16  17
ATOM     17  C   UNL     1     111.921 121.582 126.993  1.00  0.00    -0.003 C 
ATOM     18  C   UNL     1     111.217 120.447 127.732  1.00  0.00     0.004 C 
ENDBRANCH  16  17
ENDBRANCH  15  16
ENDBRANCH  14  15
ENDBRANCH  13  14
ENDBRANCH  12  13
ENDBRANCH  11  12
ENDBRANCH   1  11
TORSDOF 14
ENDMDL
MODEL 9
REMARK VINA RESULT:    -4.073      1.903      5.284
REMARK INTER + INTRA:          -9.462
REMARK INTER:                  -7.614
REMARK INTRA:                  -1.848
REMARK UNBOUND:                -2.056
REMARK SMILES CCCCCCCCCCCCCCCC(=O)[O-]
REMARK SMILES IDX 9 1 10 2 11 3 12 4 13 5 14 6 15 7 16 8 17 9 18 10 8 11 7 12
REMARK SMILES IDX 6 13 5 14 4 15 3 16 2 17 1 18
REMARK H PARENT
REMARK Flexibility Score: inf
ROOT
ATOM      1  C   UNL     1     110.816 116.563 122.822  1.00  0.00     0.000 C 
ENDROOT
BRANCH   1   2
ATOM      2  C   UNL     1     109.309 116.754 122.598  1.00  0.00     0.000 C 
BRANCH   2   3
ATOM      3  C   UNL     1     108.875 118.179 122.964  1.00  0.00     0.000 C 
BRANCH   3   4
ATOM      4  C   UNL     1     110.070 119.140 122.949  1.00  0.00     0.000 C 
BRANCH   4   5
ATOM      5  C   UNL     1     110.077 120.027 124.203  1.00  0.00     0.000 C 
BRANCH   5   6
ATOM      6  C   UNL     1     111.448 120.059 124.904  1.00  0.00     0.006 C 
BRANCH   6   7
ATOM      7  C   UNL     1     112.596 120.581 124.025  1.00  0.00     0.053 C 
BRANCH   7   8
ATOM      8  C   UNL     1     112.955 121.998 124.352  1.00  0.00     0.041 C 
ATOM      9  O   UNL     1     112.388 122.591 125.307  1.00  0.00    -0.550 OA
ATOM     10  O   UNL     1     113.938 122.653 123.622  1.00  0.00    -0.550 OA
ENDBRANCH   7   8
ENDBRANCH   6   7
ENDBRANCH   5   6
ENDBRANCH   4   5
ENDBRANCH   3   4
ENDBRANCH   2   3
ENDBRANCH   1   2
BRANCH   1  11
ATOM     11  C   UNL     1     111.130 115.427 123.807  1.00  0.00     0.000 C 
BRANCH  11  12
ATOM     12  C   UNL     1     111.328 115.928 125.246  1.00  0.00    -0.000 C 
BRANCH  12  13
ATOM     13  C   UNL     1     110.014 115.867 126.034  1.00  0.00    -0.000 C 
BRANCH  13  14
ATOM     14  C   UNL     1     109.612 117.258 126.544  1.00  0.00    -0.000 C 
BRANCH  14  15
ATOM     15  C   UNL     1     109.517 117.332 128.079  1.00  0.00    -0.000 C 
BRANCH  15  16
ATOM     16  C   UNL     1     109.633 115.979 128.803  1.00  0.00    -0.000 C 
BRANCH  16  17
ATOM     17  C   UNL     1     110.707 115.976 129.900  1.00  0.00    -0.003 C 
ATOM     18  C   UNL     1     111.546 117.250 129.852  1.00  0.00     0.004 C 
ENDBRANCH  16  17
ENDBRANCH  15  16
ENDBRANCH  14  15
ENDBRANCH  13  14
ENDBRANCH  12  13
ENDBRANCH  11  12
ENDBRANCH   1  11
TORSDOF 14
ENDMDL
