MODEL 1
REMARK VINA RESULT:    -6.218      0.000      0.000
REMARK INTER + INTRA:          -9.285
REMARK INTER:                  -9.126
REMARK INTRA:                  -0.160
REMARK UNBOUND:                -0.160
REMARK SMILES O=C([O-])CCCCCCCC(=O)[O-]
REMARK SMILES IDX 7 1 6 2 5 3 4 4 2 5 1 6 3 7 8 8 9 9 10 10 11 11 12 12 13 13
REMARK H PARENT
REMARK Flexibility Score: inf
ROOT
ATOM      1  C   UNL     1     -22.439 -22.395  31.372  1.00  0.00     0.000 C 
ENDROOT
BRANCH   1   2
ATOM      2  C   UNL     1     -21.266 -21.407  31.469  1.00  0.00     0.000 C 
BRANCH   2   3
ATOM      3  C   UNL     1     -21.558 -20.131  30.671  1.00  0.00     0.006 C 
BRANCH   3   4
ATOM      4  C   UNL     1     -20.585 -19.011  31.049  1.00  0.00     0.053 C 
BRANCH   4   5
ATOM      5  C   UNL     1     -19.989 -18.396  29.822  1.00  0.00     0.041 C 
ATOM      6  O   UNL     1     -18.811 -18.678  29.480  1.00  0.00    -0.550 OA
ATOM      7  O   UNL     1     -20.754 -17.549  29.028  1.00  0.00    -0.550 OA
ENDBRANCH   4   5
ENDBRANCH   3   4
ENDBRANCH   2   3
ENDBRANCH   1   2
BRANCH   1   8
ATOM      8  C   UNL     1     -22.200 -23.497  30.327  1.00  0.00     0.000 C 
BRANCH   8   9
ATOM      9  C   UNL     1     -23.126 -24.707  30.519  1.00  0.00     0.006 C 
BRANCH   9  10
ATOM     10  C   UNL     1     -23.488 -25.338  29.171  1.00  0.00     0.053 C 
BRANCH  10  11
ATOM     11  C   UNL     1     -24.347 -26.546  29.372  1.00  0.00     0.041 C 
ATOM     12  O   UNL     1     -24.793 -27.179  28.380  1.00  0.00    -0.550 OA
ATOM     13  O   UNL     1     -24.617 -27.002  30.657  1.00  0.00    -0.550 OA
ENDBRANCH  10  11
ENDBRANCH   9  10
ENDBRANCH   8   9
ENDBRANCH   1   8
TORSDOF 8
ENDMDL
MODEL 2
REMARK VINA RESULT:    -6.189      1.256      7.605
REMARK INTER + INTRA:          -9.243
REMARK INTER:                  -9.067
REMARK INTRA:                  -0.176
REMARK UNBOUND:                -0.160
REMARK SMILES O=C([O-])CCCCCCCC(=O)[O-]
REMARK SMILES IDX 7 1 6 2 5 3 4 4 2 5 1 6 3 7 8 8 9 9 10 10 11 11 12 12 13 13
REMARK H PARENT
REMARK Flexibility Score: inf
ROOT
ATOM      1  C   UNL     1     -21.625 -21.655  31.494  1.00  0.00     0.000 C 
ENDROOT
BRANCH   1   2
ATOM      2  C   UNL     1     -22.753 -22.698  31.500  1.00  0.00     0.000 C 
BRANCH   2   3
ATOM      3  C   UNL     1     -22.402 -23.890  30.601  1.00  0.00     0.006 C 
BRANCH   3   4
ATOM      4  C   UNL     1     -23.469 -24.984  30.695  1.00  0.00     0.053 C 
BRANCH   4   5
ATOM      5  C   UNL     1     -23.981 -25.338  29.335  1.00  0.00     0.041 C 
ATOM      6  O   UNL     1     -23.204 -25.327  28.343  1.00  0.00    -0.550 OA
ATOM      7  O   UNL     1     -25.304 -25.728  29.170  1.00  0.00    -0.550 OA
ENDBRANCH   4   5
ENDBRANCH   3   4
ENDBRANCH   2   3
ENDBRANCH   1   2
BRANCH   1   8
ATOM      8  C   UNL     1     -21.891 -20.500  30.515  1.00  0.00     0.000 C 
BRANCH   8   9
ATOM      9  C   UNL     1     -20.891 -19.346  30.675  1.00  0.00     0.006 C 
BRANCH   9  10
ATOM     10  C   UNL     1     -20.537 -18.736  29.316  1.00  0.00     0.053 C 
BRANCH  10  11
ATOM     11  C   UNL     1     -19.646 -17.547  29.490  1.00  0.00     0.041 C 
ATOM     12  O   UNL     1     -19.453 -17.063  30.636  1.00  0.00    -0.550 OA
ATOM     13  O   UNL     1     -18.990 -17.003  28.392  1.00  0.00    -0.550 OA
ENDBRANCH  10  11
ENDBRANCH   9  10
ENDBRANCH   8   9
ENDBRANCH   1   8
TORSDOF 8
ENDMDL
MODEL 3
REMARK VINA RESULT:    -6.187      1.264      1.724
REMARK INTER + INTRA:          -9.240
REMARK INTER:                  -8.945
REMARK INTRA:                  -0.295
REMARK UNBOUND:                -0.160
REMARK SMILES O=C([O-])CCCCCCCC(=O)[O-]
REMARK SMILES IDX 7 1 6 2 5 3 4 4 2 5 1 6 3 7 8 8 9 9 10 10 11 11 12 12 13 13
REMARK H PARENT
REMARK Flexibility Score: inf
ROOT
ATOM      1  C   UNL     1     -21.768 -21.109  30.916  1.00  0.00     0.000 C 
ENDROOT
BRANCH   1   2
ATOM      2  C   UNL     1     -22.027 -20.850  29.424  1.00  0.00     0.000 C 
BRANCH   2   3
ATOM      3  C   UNL     1     -21.182 -19.675  28.918  1.00  0.00     0.006 C 
BRANCH   3   4
ATOM      4  C   UNL     1     -20.554 -18.906  30.084  1.00  0.00     0.053 C 
BRANCH   4   5
ATOM      5  C   UNL     1     -19.883 -17.662  29.593  1.00  0.00     0.041 C 
ATOM      6  O   UNL     1     -20.016 -17.302  28.393  1.00  0.00    -0.550 OA
ATOM      7  O   UNL     1     -19.152 -16.873  30.472  1.00  0.00    -0.550 OA
ENDBRANCH   4   5
ENDBRANCH   3   4
ENDBRANCH   2   3
ENDBRANCH   1   2
BRANCH   1   8
ATOM      8  C   UNL     1     -22.463 -22.383  31.425  1.00  0.00     0.000 C 
BRANCH   8   9
ATOM      9  C   UNL     1     -22.375 -23.546  30.425  1.00  0.00     0.006 C 
BRANCH   9  10
ATOM     10  C   UNL     1     -23.161 -24.760  30.927  1.00  0.00     0.053 C 
BRANCH  10  11
ATOM     11  C   UNL     1     -23.922 -25.393  29.806  1.00  0.00     0.041 C 
ATOM     12  O   UNL     1     -23.348 -25.649  28.716  1.00  0.00    -0.550 OA
ATOM     13  O   UNL     1     -25.255 -25.745  29.982  1.00  0.00    -0.550 OA
ENDBRANCH  10  11
ENDBRANCH   9  10
ENDBRANCH   8   9
ENDBRANCH   1   8
TORSDOF 8
ENDMDL
MODEL 4
REMARK VINA RESULT:    -6.172      1.098      1.730
REMARK INTER + INTRA:          -9.218
REMARK INTER:                  -8.856
REMARK INTRA:                  -0.362
REMARK UNBOUND:                -0.160
REMARK SMILES O=C([O-])CCCCCCCC(=O)[O-]
REMARK SMILES IDX 7 1 6 2 5 3 4 4 2 5 1 6 3 7 8 8 9 9 10 10 11 11 12 12 13 13
REMARK H PARENT
REMARK Flexibility Score: inf
ROOT
ATOM      1  C   UNL     1     -22.026 -23.405  30.681  1.00  0.00     0.000 C 
ENDROOT
BRANCH   1   2
ATOM      2  C   UNL     1     -22.096 -21.992  31.279  1.00  0.00     0.000 C 
BRANCH   2   3
ATOM      3  C   UNL     1     -22.059 -20.927  30.176  1.00  0.00     0.006 C 
BRANCH   3   4
ATOM      4  C   UNL     1     -21.259 -19.700  30.622  1.00  0.00     0.053 C 
BRANCH   4   5
ATOM      5  C   UNL     1     -20.512 -19.112  29.467  1.00  0.00     0.041 C 
ATOM      6  O   UNL     1     -21.062 -19.020  28.337  1.00  0.00    -0.550 OA
ATOM      7  O   UNL     1     -19.227 -18.617  29.650  1.00  0.00    -0.550 OA
ENDBRANCH   4   5
ENDBRANCH   3   4
ENDBRANCH   2   3
ENDBRANCH   1   2
BRANCH   1   8
ATOM      8  C   UNL     1     -22.329 -23.426  29.174  1.00  0.00     0.000 C 
BRANCH   8   9
ATOM      9  C   UNL     1     -23.166 -24.643  28.754  1.00  0.00     0.006 C 
BRANCH   9  10
ATOM     10  C   UNL     1     -23.517 -25.510  29.967  1.00  0.00     0.053 C 
BRANCH  10  11
ATOM     11  C   UNL     1     -24.993 -25.737  30.039  1.00  0.00     0.041 C 
ATOM     12  O   UNL     1     -25.561 -25.868  31.155  1.00  0.00    -0.550 OA
ATOM     13  O   UNL     1     -25.752 -25.756  28.875  1.00  0.00    -0.550 OA
ENDBRANCH  10  11
ENDBRANCH   9  10
ENDBRANCH   8   9
ENDBRANCH   1   8
TORSDOF 8
ENDMDL
MODEL 5
REMARK VINA RESULT:    -6.169      0.977      7.411
REMARK INTER + INTRA:          -9.214
REMARK INTER:                  -8.892
REMARK INTRA:                  -0.322
REMARK UNBOUND:                -0.160
REMARK SMILES O=C([O-])CCCCCCCC(=O)[O-]
REMARK SMILES IDX 7 1 6 2 5 3 4 4 2 5 1 6 3 7 8 8 9 9 10 10 11 11 12 12 13 13
REMARK H PARENT
REMARK Flexibility Score: inf
ROOT
ATOM      1  C   UNL     1     -21.962 -23.251  30.542  1.00  0.00     0.000 C 
ENDROOT
BRANCH   1   2
ATOM      2  C   UNL     1     -22.321 -23.469  29.065  1.00  0.00     0.000 C 
BRANCH   2   3
ATOM      3  C   UNL     1     -23.131 -24.758  28.882  1.00  0.00     0.006 C 
BRANCH   3   4
ATOM      4  C   UNL     1     -23.548 -25.342  30.234  1.00  0.00     0.053 C 
BRANCH   4   5
ATOM      5  C   UNL     1     -24.950 -25.862  30.172  1.00  0.00     0.041 C 
ATOM      6  O   UNL     1     -25.641 -25.696  29.133  1.00  0.00    -0.550 OA
ATOM      7  O   UNL     1     -25.475 -26.573  31.244  1.00  0.00    -0.550 OA
ENDBRANCH   4   5
ENDBRANCH   3   4
ENDBRANCH   2   3
ENDBRANCH   1   2
BRANCH   1   8
ATOM      8  C   UNL     1     -22.364 -21.857  31.050  1.00  0.00     0.000 C 
BRANCH   8   9
ATOM      9  C   UNL     1     -21.890 -20.729  30.121  1.00  0.00     0.006 C 
BRANCH   9  10
ATOM     10  C   UNL     1     -21.077 -19.687  30.896  1.00  0.00     0.053 C 
BRANCH  10  11
ATOM     11  C   UNL     1     -20.263 -18.855  29.958  1.00  0.00     0.041 C 
ATOM     12  O   UNL     1     -19.043 -18.648  30.189  1.00  0.00    -0.550 OA
ATOM     13  O   UNL     1     -20.840 -18.345  28.800  1.00  0.00    -0.550 OA
ENDBRANCH  10  11
ENDBRANCH   9  10
ENDBRANCH   8   9
ENDBRANCH   1   8
TORSDOF 8
ENDMDL
MODEL 6
REMARK VINA RESULT:    -6.076      1.387      7.594
REMARK INTER + INTRA:          -9.077
REMARK INTER:                  -8.758
REMARK INTRA:                  -0.319
REMARK UNBOUND:                -0.160
REMARK SMILES O=C([O-])CCCCCCCC(=O)[O-]
REMARK SMILES IDX 7 1 6 2 5 3 4 4 2 5 1 6 3 7 8 8 9 9 10 10 11 11 12 12 13 13
REMARK H PARENT
REMARK Flexibility Score: inf
ROOT
ATOM      1  C   UNL     1     -22.084 -23.638  29.368  1.00  0.00     0.000 C 
ENDROOT
BRANCH   1   2
ATOM      2  C   UNL     1     -23.070 -24.667  28.793  1.00  0.00     0.000 C 
BRANCH   2   3
ATOM      3  C   UNL     1     -23.916 -25.297  29.906  1.00  0.00     0.006 C 
BRANCH   3   4
ATOM      4  C   UNL     1     -24.445 -26.670  29.484  1.00  0.00     0.053 C 
BRANCH   4   5
ATOM      5  C   UNL     1     -25.321 -27.246  30.551  1.00  0.00     0.041 C 
ATOM      6  O   UNL     1     -25.413 -26.677  31.671  1.00  0.00    -0.550 OA
ATOM      7  O   UNL     1     -26.076 -28.383  30.292  1.00  0.00    -0.550 OA
ENDBRANCH   4   5
ENDBRANCH   3   4
ENDBRANCH   2   3
ENDBRANCH   1   2
BRANCH   1   8
ATOM      8  C   UNL     1     -22.416 -23.246  30.817  1.00  0.00     0.000 C 
BRANCH   8   9
ATOM      9  C   UNL     1     -21.860 -21.866  31.199  1.00  0.00     0.006 C 
BRANCH   9  10
ATOM     10  C   UNL     1     -22.203 -20.823  30.132  1.00  0.00     0.053 C 
BRANCH  10  11
ATOM     11  C   UNL     1     -21.204 -19.709  30.147  1.00  0.00     0.041 C 
ATOM     12  O   UNL     1     -20.668 -19.325  29.076  1.00  0.00    -0.550 OA
ATOM     13  O   UNL     1     -20.902 -19.062  31.340  1.00  0.00    -0.550 OA
ENDBRANCH  10  11
ENDBRANCH   9  10
ENDBRANCH   8   9
ENDBRANCH   1   8
TORSDOF 8
ENDMDL
MODEL 7
REMARK VINA RESULT:    -5.938      1.536      7.397
REMARK INTER + INTRA:          -8.875
REMARK INTER:                  -8.552
REMARK INTRA:                  -0.322
REMARK UNBOUND:                -0.160
REMARK SMILES O=C([O-])CCCCCCCC(=O)[O-]
REMARK SMILES IDX 7 1 6 2 5 3 4 4 2 5 1 6 3 7 8 8 9 9 10 10 11 11 12 12 13 13
REMARK H PARENT
REMARK Flexibility Score: inf
ROOT
ATOM      1  C   UNL     1     -21.623 -20.060  30.724  1.00  0.00     0.000 C 
ENDROOT
BRANCH   1   2
ATOM      2  C   UNL     1     -21.405 -21.388  31.463  1.00  0.00     0.000 C 
BRANCH   2   3
ATOM      3  C   UNL     1     -22.569 -22.354  31.210  1.00  0.00     0.006 C 
BRANCH   3   4
ATOM      4  C   UNL     1     -22.085 -23.629  30.513  1.00  0.00     0.053 C 
BRANCH   4   5
ATOM      5  C   UNL     1     -23.186 -24.640  30.445  1.00  0.00     0.041 C 
ATOM      6  O   UNL     1     -23.742 -24.897  29.345  1.00  0.00    -0.550 OA
ATOM      7  O   UNL     1     -23.564 -25.335  31.587  1.00  0.00    -0.550 OA
ENDBRANCH   4   5
ENDBRANCH   3   4
ENDBRANCH   2   3
ENDBRANCH   1   2
BRANCH   1   8
ATOM      8  C   UNL     1     -21.600 -20.221  29.195  1.00  0.00     0.000 C 
BRANCH   8   9
ATOM      9  C   UNL     1     -20.927 -19.037  28.484  1.00  0.00     0.006 C 
BRANCH   9  10
ATOM     10  C   UNL     1     -20.616 -17.910  29.473  1.00  0.00     0.053 C 
BRANCH  10  11
ATOM     11  C   UNL     1     -19.145 -17.648  29.524  1.00  0.00     0.041 C 
ATOM     12  O   UNL     1     -18.351 -18.359  28.854  1.00  0.00    -0.550 OA
ATOM     13  O   UNL     1     -18.653 -16.586  30.274  1.00  0.00    -0.550 OA
ENDBRANCH  10  11
ENDBRANCH   9  10
ENDBRANCH   8   9
ENDBRANCH   1   8
TORSDOF 8
ENDMDL
MODEL 8
REMARK VINA RESULT:    -5.867      1.453      2.189
REMARK INTER + INTRA:          -8.770
REMARK INTER:                  -8.452
REMARK INTRA:                  -0.318
REMARK UNBOUND:                -0.160
REMARK SMILES O=C([O-])CCCCCCCC(=O)[O-]
REMARK SMILES IDX 7 1 6 2 5 3 4 4 2 5 1 6 3 7 8 8 9 9 10 10 11 11 12 12 13 13
REMARK H PARENT
REMARK Flexibility Score: inf
ROOT
ATOM      1  C   UNL     1     -22.155 -23.552  29.274  1.00  0.00     0.000 C 
ENDROOT
BRANCH   1   2
ATOM      2  C   UNL     1     -22.374 -23.278  30.769  1.00  0.00     0.000 C 
BRANCH   2   3
ATOM      3  C   UNL     1     -21.667 -21.987  31.199  1.00  0.00     0.006 C 
BRANCH   3   4
ATOM      4  C   UNL     1     -22.311 -20.763  30.543  1.00  0.00     0.053 C 
BRANCH   4   5
ATOM      5  C   UNL     1     -21.267 -19.761  30.163  1.00  0.00     0.041 C 
ATOM      6  O   UNL     1     -20.756 -19.014  31.039  1.00  0.00    -0.550 OA
ATOM      7  O   UNL     1     -20.821 -19.686  28.849  1.00  0.00    -0.550 OA
ENDBRANCH   4   5
ENDBRANCH   3   4
ENDBRANCH   2   3
ENDBRANCH   1   2
BRANCH   1   8
ATOM      8  C   UNL     1     -23.034 -24.699  28.747  1.00  0.00     0.000 C 
BRANCH   8   9
ATOM      9  C   UNL     1     -23.928 -25.309  29.837  1.00  0.00     0.006 C 
BRANCH   9  10
ATOM     10  C   UNL     1     -24.730 -26.493  29.288  1.00  0.00     0.053 C 
BRANCH  10  11
ATOM     11  C   UNL     1     -25.357 -27.264  30.405  1.00  0.00     0.041 C 
ATOM     12  O   UNL     1     -25.283 -26.840  31.588  1.00  0.00    -0.550 OA
ATOM     13  O   UNL     1     -26.066 -28.429  30.134  1.00  0.00    -0.550 OA
ENDBRANCH  10  11
ENDBRANCH   9  10
ENDBRANCH   8   9
ENDBRANCH   1   8
TORSDOF 8
ENDMDL
MODEL 9
REMARK VINA RESULT:    -5.866      2.392      3.463
REMARK INTER + INTRA:          -8.769
REMARK INTER:                  -8.450
REMARK INTRA:                  -0.319
REMARK UNBOUND:                -0.160
REMARK SMILES O=C([O-])CCCCCCCC(=O)[O-]
REMARK SMILES IDX 7 1 6 2 5 3 4 4 2 5 1 6 3 7 8 8 9 9 10 10 11 11 12 12 13 13
REMARK H PARENT
REMARK Flexibility Score: inf
ROOT
ATOM      1  C   UNL     1     -21.027 -19.485  31.122  1.00  0.00     0.000 C 
ENDROOT
BRANCH   1   2
ATOM      2  C   UNL     1     -20.779 -19.387  29.609  1.00  0.00     0.000 C 
BRANCH   2   3
ATOM      3  C   UNL     1     -19.478 -18.631  29.315  1.00  0.00     0.006 C 
BRANCH   3   4
ATOM      4  C   UNL     1     -19.762 -17.297  28.619  1.00  0.00     0.053 C 
BRANCH   4   5
ATOM      5  C   UNL     1     -18.527 -16.453  28.577  1.00  0.00     0.041 C 
ATOM      6  O   UNL     1     -17.980 -16.184  27.476  1.00  0.00    -0.550 OA
ATOM      7  O   UNL     1     -18.010 -15.921  29.752  1.00  0.00    -0.550 OA
ENDBRANCH   4   5
ENDBRANCH   3   4
ENDBRANCH   2   3
ENDBRANCH   1   2
BRANCH   1   8
ATOM      8  C   UNL     1     -21.158 -20.938  31.607  1.00  0.00     0.000 C 
BRANCH   8   9
ATOM      9  C   UNL     1     -22.366 -21.661  30.993  1.00  0.00     0.006 C 
BRANCH   9  10
ATOM     10  C   UNL     1     -21.962 -23.032  30.444  1.00  0.00     0.053 C 
BRANCH  10  11
ATOM     11  C   UNL     1     -22.352 -23.156  29.005  1.00  0.00     0.041 C 
ATOM     12  O   UNL     1     -22.183 -22.190  28.217  1.00  0.00    -0.550 OA
ATOM     13  O   UNL     1     -22.858 -24.358  28.523  1.00  0.00    -0.550 OA
ENDBRANCH  10  11
ENDBRANCH   9  10
ENDBRANCH   8   9
ENDBRANCH   1   8
TORSDOF 8
ENDMDL
