MODEL 1
REMARK VINA RESULT:    -4.467      0.000      0.000
REMARK INTER + INTRA:         -10.428
REMARK INTER:                  -8.123
REMARK INTRA:                  -2.305
REMARK UNBOUND:                -2.305
REMARK SMILES CCCCCC=CCC=CCCCCCCCC(=O)[O-]
REMARK SMILES IDX 11 1 12 2 13 3 14 4 15 5 16 6 17 7 18 8 19 9 20 10 10 11
REMARK SMILES IDX 9 12 8 13 7 14 6 15 5 16 4 17 3 18 2 19 1 20
REMARK H PARENT
REMARK Flexibility Score: inf
ROOT
ATOM      1  C   UNL     1      48.207   7.279 111.144  1.00  0.00     0.027 C 
ENDROOT
BRANCH   1   2
ATOM      2  C   UNL     1      49.411   6.425 110.708  1.00  0.00     0.004 C 
BRANCH   2   3
ATOM      3  C   UNL     1      49.520   5.064 111.424  1.00  0.00     0.000 C 
BRANCH   3   4
ATOM      4  C   UNL     1      50.807   4.857 112.241  1.00  0.00     0.000 C 
BRANCH   4   5
ATOM      5  C   UNL     1      50.553   4.197 113.604  1.00  0.00     0.000 C 
BRANCH   5   6
ATOM      6  C   UNL     1      50.548   5.244 114.727  1.00  0.00     0.006 C 
BRANCH   6   7
ATOM      7  C   UNL     1      51.694   6.256 114.582  1.00  0.00     0.053 C 
BRANCH   7   8
ATOM      8  C   UNL     1      51.395   7.540 115.294  1.00  0.00     0.041 C 
ATOM      9  O   UNL     1      51.152   7.539 116.530  1.00  0.00    -0.550 OA
ATOM     10  O   UNL     1      51.370   8.738 114.589  1.00  0.00    -0.550 OA
ENDBRANCH   7   8
ENDBRANCH   6   7
ENDBRANCH   5   6
ENDBRANCH   4   5
ENDBRANCH   3   4
ENDBRANCH   2   3
ENDBRANCH   1   2
BRANCH   1  11
ATOM     11  C   UNL     1      47.771   6.983 112.554  1.00  0.00    -0.031 C 
ATOM     12  C   UNL     1      48.142   7.761 113.579  1.00  0.00    -0.027 C 
BRANCH  12  13
ATOM     13  C   UNL     1      47.679   7.467 114.979  1.00  0.00     0.054 C 
BRANCH  13  14
ATOM     14  C   UNL     1      47.796   8.698 115.838  1.00  0.00    -0.027 C 
ATOM     15  C   UNL     1      46.783   9.533 116.138  1.00  0.00    -0.031 C 
BRANCH  15  16
ATOM     16  C   UNL     1      45.335   9.333 115.745  1.00  0.00     0.027 C 
BRANCH  16  17
ATOM     17  C   UNL     1      44.628   8.204 116.513  1.00  0.00     0.004 C 
BRANCH  17  18
ATOM     18  C   UNL     1      43.375   7.636 115.819  1.00  0.00     0.000 C 
BRANCH  18  19
ATOM     19  C   UNL     1      43.576   7.356 114.315  1.00  0.00    -0.003 C 
ATOM     20  C   UNL     1      44.422   6.111 114.054  1.00  0.00     0.004 C 
ENDBRANCH  18  19
ENDBRANCH  17  18
ENDBRANCH  16  17
ENDBRANCH  15  16
ENDBRANCH  13  14
ENDBRANCH  12  13
ENDBRANCH   1  11
TORSDOF 14
ENDMDL
MODEL 2
REMARK VINA RESULT:    -4.441      3.563      7.475
REMARK INTER + INTRA:         -10.381
REMARK INTER:                  -8.817
REMARK INTRA:                  -1.564
REMARK UNBOUND:                -2.305
REMARK SMILES CCCCCC=CCC=CCCCCCCCC(=O)[O-]
REMARK SMILES IDX 11 1 12 2 13 3 14 4 15 5 16 6 17 7 18 8 19 9 20 10 10 11
REMARK SMILES IDX 9 12 8 13 7 14 6 15 5 16 4 17 3 18 2 19 1 20
REMARK H PARENT
REMARK Flexibility Score: inf
ROOT
ATOM      1  C   UNL     1      45.844   7.291 114.100  1.00  0.00     0.027 C 
ENDROOT
BRANCH   1   2
ATOM      2  C   UNL     1      44.604   8.156 113.816  1.00  0.00     0.004 C 
BRANCH   2   3
ATOM      3  C   UNL     1      44.420   9.345 114.781  1.00  0.00     0.000 C 
BRANCH   3   4
ATOM      4  C   UNL     1      45.485   9.459 115.886  1.00  0.00     0.000 C 
BRANCH   4   5
ATOM      5  C   UNL     1      45.013   8.896 117.234  1.00  0.00     0.000 C 
BRANCH   5   6
ATOM      6  C   UNL     1      43.683   9.536 117.660  1.00  0.00     0.006 C 
BRANCH   6   7
ATOM      7  C   UNL     1      43.100   8.879 118.918  1.00  0.00     0.053 C 
BRANCH   7   8
ATOM      8  C   UNL     1      42.490   9.890 119.842  1.00  0.00     0.041 C 
ATOM      9  O   UNL     1      42.984  11.044 119.935  1.00  0.00    -0.550 OA
ATOM     10  O   UNL     1      41.383   9.551 120.612  1.00  0.00    -0.550 OA
ENDBRANCH   7   8
ENDBRANCH   6   7
ENDBRANCH   5   6
ENDBRANCH   4   5
ENDBRANCH   3   4
ENDBRANCH   2   3
ENDBRANCH   1   2
BRANCH   1  11
ATOM     11  C   UNL     1      46.928   7.484 113.074  1.00  0.00    -0.031 C 
ATOM     12  C   UNL     1      47.657   6.454 112.624  1.00  0.00    -0.027 C 
BRANCH  12  13
ATOM     13  C   UNL     1      48.721   6.658 111.581  1.00  0.00     0.054 C 
BRANCH  13  14
ATOM     14  C   UNL     1      49.127   5.337 110.982  1.00  0.00    -0.027 C 
ATOM     15  C   UNL     1      50.185   4.602 111.372  1.00  0.00    -0.031 C 
BRANCH  15  16
ATOM     16  C   UNL     1      51.095   4.923 112.538  1.00  0.00     0.027 C 
BRANCH  16  17
ATOM     17  C   UNL     1      50.567   4.437 113.897  1.00  0.00     0.004 C 
BRANCH  17  18
ATOM     18  C   UNL     1      50.992   5.298 115.102  1.00  0.00     0.000 C 
BRANCH  18  19
ATOM     19  C   UNL     1      49.966   6.389 115.473  1.00  0.00    -0.003 C 
ATOM     20  C   UNL     1      50.290   7.743 114.843  1.00  0.00     0.004 C 
ENDBRANCH  18  19
ENDBRANCH  17  18
ENDBRANCH  16  17
ENDBRANCH  15  16
ENDBRANCH  13  14
ENDBRANCH  12  13
ENDBRANCH   1  11
TORSDOF 14
ENDMDL
MODEL 3
REMARK VINA RESULT:    -4.440      3.089      7.023
REMARK INTER + INTRA:         -10.378
REMARK INTER:                  -7.917
REMARK INTRA:                  -2.461
REMARK UNBOUND:                -2.305
REMARK SMILES CCCCCC=CCC=CCCCCCCCC(=O)[O-]
REMARK SMILES IDX 11 1 12 2 13 3 14 4 15 5 16 6 17 7 18 8 19 9 20 10 10 11
REMARK SMILES IDX 9 12 8 13 7 14 6 15 5 16 4 17 3 18 2 19 1 20
REMARK H PARENT
REMARK Flexibility Score: inf
ROOT
ATOM      1  C   UNL     1      46.597   7.650 113.219  1.00  0.00     0.027 C 
ENDROOT
BRANCH   1   2
ATOM      2  C   UNL     1      46.133   6.957 114.513  1.00  0.00     0.004 C 
BRANCH   2   3
ATOM      3  C   UNL     1      46.612   7.641 115.810  1.00  0.00     0.000 C 
BRANCH   3   4
ATOM      4  C   UNL     1      46.467   9.173 115.832  1.00  0.00     0.000 C 
BRANCH   4   5
ATOM      5  C   UNL     1      45.430   9.663 116.853  1.00  0.00     0.000 C 
BRANCH   5   6
ATOM      6  C   UNL     1      44.002   9.421 116.341  1.00  0.00     0.006 C 
BRANCH   6   7
ATOM      7  C   UNL     1      43.425  10.652 115.629  1.00  0.00     0.053 C 
BRANCH   7   8
ATOM      8  C   UNL     1      42.939  10.320 114.250  1.00  0.00     0.041 C 
ATOM      9  O   UNL     1      42.026  11.004 113.717  1.00  0.00    -0.550 OA
ATOM     10  O   UNL     1      43.486   9.245 113.559  1.00  0.00    -0.550 OA
ENDBRANCH   7   8
ENDBRANCH   6   7
ENDBRANCH   5   6
ENDBRANCH   4   5
ENDBRANCH   3   4
ENDBRANCH   2   3
ENDBRANCH   1   2
BRANCH   1  11
ATOM     11  C   UNL     1      47.511   6.782 112.397  1.00  0.00    -0.031 C 
ATOM     12  C   UNL     1      48.245   7.288 111.398  1.00  0.00    -0.027 C 
BRANCH  12  13
ATOM     13  C   UNL     1      49.172   6.414 110.601  1.00  0.00     0.054 C 
BRANCH  13  14
ATOM     14  C   UNL     1      49.359   5.086 111.286  1.00  0.00    -0.027 C 
ATOM     15  C   UNL     1      50.505   4.657 111.846  1.00  0.00    -0.031 C 
BRANCH  15  16
ATOM     16  C   UNL     1      51.778   5.467 111.970  1.00  0.00     0.027 C 
BRANCH  16  17
ATOM     17  C   UNL     1      51.974   6.117 113.350  1.00  0.00     0.004 C 
BRANCH  17  18
ATOM     18  C   UNL     1      51.279   7.480 113.528  1.00  0.00     0.000 C 
BRANCH  18  19
ATOM     19  C   UNL     1      50.322   7.531 114.738  1.00  0.00    -0.003 C 
ATOM     20  C   UNL     1      49.917   6.143 115.230  1.00  0.00     0.004 C 
ENDBRANCH  18  19
ENDBRANCH  17  18
ENDBRANCH  16  17
ENDBRANCH  15  16
ENDBRANCH  13  14
ENDBRANCH  12  13
ENDBRANCH   1  11
TORSDOF 14
ENDMDL
MODEL 4
REMARK VINA RESULT:    -4.420      4.018      7.107
REMARK INTER + INTRA:         -10.343
REMARK INTER:                  -8.394
REMARK INTRA:                  -1.949
REMARK UNBOUND:                -2.305
REMARK SMILES CCCCCC=CCC=CCCCCCCCC(=O)[O-]
REMARK SMILES IDX 11 1 12 2 13 3 14 4 15 5 16 6 17 7 18 8 19 9 20 10 10 11
REMARK SMILES IDX 9 12 8 13 7 14 6 15 5 16 4 17 3 18 2 19 1 20
REMARK H PARENT
REMARK Flexibility Score: inf
ROOT
ATOM      1  C   UNL     1      44.380   8.557 117.434  1.00  0.00     0.027 C 
ENDROOT
BRANCH   1   2
ATOM      2  C   UNL     1      44.569   9.885 116.681  1.00  0.00     0.004 C 
BRANCH   2   3
ATOM      3  C   UNL     1      43.555  10.124 115.543  1.00  0.00     0.000 C 
BRANCH   3   4
ATOM      4  C   UNL     1      43.351   8.933 114.590  1.00  0.00     0.000 C 
BRANCH   4   5
ATOM      5  C   UNL     1      44.546   8.704 113.653  1.00  0.00     0.000 C 
BRANCH   5   6
ATOM      6  C   UNL     1      45.218   7.353 113.943  1.00  0.00     0.006 C 
BRANCH   6   7
ATOM      7  C   UNL     1      46.634   7.272 113.356  1.00  0.00     0.053 C 
BRANCH   7   8
ATOM      8  C   UNL     1      47.680   7.599 114.379  1.00  0.00     0.041 C 
ATOM      9  O   UNL     1      47.382   7.636 115.602  1.00  0.00    -0.550 OA
ATOM     10  O   UNL     1      48.982   7.878 113.980  1.00  0.00    -0.550 OA
ENDBRANCH   7   8
ENDBRANCH   6   7
ENDBRANCH   5   6
ENDBRANCH   4   5
ENDBRANCH   3   4
ENDBRANCH   2   3
ENDBRANCH   1   2
BRANCH   1  11
ATOM     11  C   UNL     1      43.617   8.728 118.720  1.00  0.00    -0.031 C 
ATOM     12  C   UNL     1      43.345   9.942 119.217  1.00  0.00    -0.027 C 
BRANCH  12  13
ATOM     13  C   UNL     1      42.560  10.098 120.489  1.00  0.00     0.054 C 
BRANCH  13  14
ATOM     14  C   UNL     1      42.026  11.501 120.607  1.00  0.00    -0.027 C 
ATOM     15  C   UNL     1      42.601  12.493 121.311  1.00  0.00    -0.031 C 
BRANCH  15  16
ATOM     16  C   UNL     1      43.929  12.403 122.030  1.00  0.00     0.027 C 
BRANCH  16  17
ATOM     17  C   UNL     1      45.134  12.829 121.175  1.00  0.00     0.004 C 
BRANCH  17  18
ATOM     18  C   UNL     1      46.416  12.007 121.408  1.00  0.00     0.000 C 
BRANCH  18  19
ATOM     19  C   UNL     1      46.718  11.000 120.278  1.00  0.00    -0.003 C 
ATOM     20  C   UNL     1      46.703   9.550 120.759  1.00  0.00     0.004 C 
ENDBRANCH  18  19
ENDBRANCH  17  18
ENDBRANCH  16  17
ENDBRANCH  15  16
ENDBRANCH  13  14
ENDBRANCH  12  13
ENDBRANCH   1  11
TORSDOF 14
ENDMDL
MODEL 5
REMARK VINA RESULT:    -4.373      1.434      2.867
REMARK INTER + INTRA:         -10.257
REMARK INTER:                  -8.591
REMARK INTRA:                  -1.666
REMARK UNBOUND:                -2.305
REMARK SMILES CCCCCC=CCC=CCCCCCCCC(=O)[O-]
REMARK SMILES IDX 11 1 12 2 13 3 14 4 15 5 16 6 17 7 18 8 19 9 20 10 10 11
REMARK SMILES IDX 9 12 8 13 7 14 6 15 5 16 4 17 3 18 2 19 1 20
REMARK H PARENT
REMARK Flexibility Score: inf
ROOT
ATOM      1  C   UNL     1      48.213   7.545 112.483  1.00  0.00     0.027 C 
ENDROOT
BRANCH   1   2
ATOM      2  C   UNL     1      48.179   7.206 110.983  1.00  0.00     0.004 C 
BRANCH   2   3
ATOM      3  C   UNL     1      49.430   6.467 110.467  1.00  0.00     0.000 C 
BRANCH   3   4
ATOM      4  C   UNL     1      49.759   5.152 111.197  1.00  0.00     0.000 C 
BRANCH   4   5
ATOM      5  C   UNL     1      51.216   5.080 111.676  1.00  0.00     0.000 C 
BRANCH   5   6
ATOM      6  C   UNL     1      51.318   4.322 113.007  1.00  0.00     0.006 C 
BRANCH   6   7
ATOM      7  C   UNL     1      50.143   4.633 113.944  1.00  0.00     0.053 C 
BRANCH   7   8
ATOM      8  C   UNL     1      50.512   5.651 114.980  1.00  0.00     0.041 C 
ATOM      9  O   UNL     1      49.617   6.333 115.545  1.00  0.00    -0.550 OA
ATOM     10  O   UNL     1      51.846   5.856 115.311  1.00  0.00    -0.550 OA
ENDBRANCH   7   8
ENDBRANCH   6   7
ENDBRANCH   5   6
ENDBRANCH   4   5
ENDBRANCH   3   4
ENDBRANCH   2   3
ENDBRANCH   1   2
BRANCH   1  11
ATOM     11  C   UNL     1      47.046   6.960 113.233  1.00  0.00    -0.031 C 
ATOM     12  C   UNL     1      46.016   7.720 113.628  1.00  0.00    -0.027 C 
BRANCH  12  13
ATOM     13  C   UNL     1      44.846   7.117 114.354  1.00  0.00     0.054 C 
BRANCH  13  14
ATOM     14  C   UNL     1      43.586   7.879 114.041  1.00  0.00    -0.027 C 
ATOM     15  C   UNL     1      43.250   9.073 114.565  1.00  0.00    -0.031 C 
BRANCH  15  16
ATOM     16  C   UNL     1      44.119   9.902 115.487  1.00  0.00     0.027 C 
BRANCH  16  17
ATOM     17  C   UNL     1      43.855   9.660 116.982  1.00  0.00     0.004 C 
BRANCH  17  18
ATOM     18  C   UNL     1      45.031   9.031 117.753  1.00  0.00     0.000 C 
BRANCH  18  19
ATOM     19  C   UNL     1      46.397   9.219 117.060  1.00  0.00    -0.003 C 
ATOM     20  C   UNL     1      47.334  10.136 117.843  1.00  0.00     0.004 C 
ENDBRANCH  18  19
ENDBRANCH  17  18
ENDBRANCH  16  17
ENDBRANCH  15  16
ENDBRANCH  13  14
ENDBRANCH  12  13
ENDBRANCH   1  11
TORSDOF 14
ENDMDL
MODEL 6
REMARK VINA RESULT:    -4.346      4.597      7.464
REMARK INTER + INTRA:         -10.209
REMARK INTER:                  -7.891
REMARK INTRA:                  -2.317
REMARK UNBOUND:                -2.305
REMARK SMILES CCCCCC=CCC=CCCCCCCCC(=O)[O-]
REMARK SMILES IDX 11 1 12 2 13 3 14 4 15 5 16 6 17 7 18 8 19 9 20 10 10 11
REMARK SMILES IDX 9 12 8 13 7 14 6 15 5 16 4 17 3 18 2 19 1 20
REMARK H PARENT
REMARK Flexibility Score: inf
ROOT
ATOM      1  C   UNL     1      44.841   8.424 118.743  1.00  0.00     0.027 C 
ENDROOT
BRANCH   1   2
ATOM      2  C   UNL     1      43.540   8.947 118.110  1.00  0.00     0.004 C 
BRANCH   2   3
ATOM      3  C   UNL     1      43.739  10.089 117.093  1.00  0.00     0.000 C 
BRANCH   3   4
ATOM      4  C   UNL     1      44.745   9.792 115.966  1.00  0.00     0.000 C 
BRANCH   4   5
ATOM      5  C   UNL     1      44.069   9.528 114.612  1.00  0.00     0.000 C 
BRANCH   5   6
ATOM      6  C   UNL     1      44.372   8.106 114.117  1.00  0.00     0.006 C 
BRANCH   6   7
ATOM      7  C   UNL     1      45.544   7.465 114.874  1.00  0.00     0.053 C 
BRANCH   7   8
ATOM      8  C   UNL     1      46.824   7.560 114.101  1.00  0.00     0.041 C 
ATOM      9  O   UNL     1      47.881   7.941 114.669  1.00  0.00    -0.550 OA
ATOM     10  O   UNL     1      46.846   7.243 112.748  1.00  0.00    -0.550 OA
ENDBRANCH   7   8
ENDBRANCH   6   7
ENDBRANCH   5   6
ENDBRANCH   4   5
ENDBRANCH   3   4
ENDBRANCH   2   3
ENDBRANCH   1   2
BRANCH   1  11
ATOM     11  C   UNL     1      45.589   9.495 119.491  1.00  0.00    -0.031 C 
ATOM     12  C   UNL     1      45.976   9.321 120.762  1.00  0.00    -0.027 C 
BRANCH  12  13
ATOM     13  C   UNL     1      46.743  10.390 121.489  1.00  0.00     0.054 C 
BRANCH  13  14
ATOM     14  C   UNL     1      46.454  11.742 120.891  1.00  0.00    -0.027 C 
ATOM     15  C   UNL     1      45.701  12.698 121.466  1.00  0.00    -0.031 C 
BRANCH  15  16
ATOM     16  C   UNL     1      45.093  12.623 122.850  1.00  0.00     0.027 C 
BRANCH  16  17
ATOM     17  C   UNL     1      43.578  12.361 122.855  1.00  0.00     0.004 C 
BRANCH  17  18
ATOM     18  C   UNL     1      43.175  10.893 122.624  1.00  0.00     0.000 C 
BRANCH  18  19
ATOM     19  C   UNL     1      42.514  10.642 121.252  1.00  0.00    -0.003 C 
ATOM     20  C   UNL     1      42.292  11.928 120.460  1.00  0.00     0.004 C 
ENDBRANCH  18  19
ENDBRANCH  17  18
ENDBRANCH  16  17
ENDBRANCH  15  16
ENDBRANCH  13  14
ENDBRANCH  12  13
ENDBRANCH   1  11
TORSDOF 14
ENDMDL
MODEL 7
REMARK VINA RESULT:    -4.335      1.972      6.294
REMARK INTER + INTRA:         -10.188
REMARK INTER:                  -8.005
REMARK INTRA:                  -2.183
REMARK UNBOUND:                -2.305
REMARK SMILES CCCCCC=CCC=CCCCCCCCC(=O)[O-]
REMARK SMILES IDX 11 1 12 2 13 3 14 4 15 5 16 6 17 7 18 8 19 9 20 10 10 11
REMARK SMILES IDX 9 12 8 13 7 14 6 15 5 16 4 17 3 18 2 19 1 20
REMARK H PARENT
REMARK Flexibility Score: inf
ROOT
ATOM      1  C   UNL     1      46.712   7.488 113.136  1.00  0.00     0.027 C 
ENDROOT
BRANCH   1   2
ATOM      2  C   UNL     1      45.442   7.637 113.993  1.00  0.00     0.004 C 
BRANCH   2   3
ATOM      3  C   UNL     1      44.495   8.766 113.540  1.00  0.00     0.000 C 
BRANCH   3   4
ATOM      4  C   UNL     1      43.879   9.598 114.679  1.00  0.00     0.000 C 
BRANCH   4   5
ATOM      5  C   UNL     1      43.689   8.795 115.974  1.00  0.00     0.000 C 
BRANCH   5   6
ATOM      6  C   UNL     1      44.216   9.577 117.186  1.00  0.00     0.006 C 
BRANCH   6   7
ATOM      7  C   UNL     1      45.505   8.968 117.754  1.00  0.00     0.053 C 
BRANCH   7   8
ATOM      8  C   UNL     1      46.706   9.803 117.425  1.00  0.00     0.041 C 
ATOM      9  O   UNL     1      47.045   9.982 116.226  1.00  0.00    -0.550 OA
ATOM     10  O   UNL     1      47.460  10.370 118.446  1.00  0.00    -0.550 OA
ENDBRANCH   7   8
ENDBRANCH   6   7
ENDBRANCH   5   6
ENDBRANCH   4   5
ENDBRANCH   3   4
ENDBRANCH   2   3
ENDBRANCH   1   2
BRANCH   1  11
ATOM     11  C   UNL     1      47.924   7.140 113.958  1.00  0.00    -0.031 C 
ATOM     12  C   UNL     1      48.939   8.000 114.107  1.00  0.00    -0.027 C 
BRANCH  12  13
ATOM     13  C   UNL     1      50.133   7.649 114.950  1.00  0.00     0.054 C 
BRANCH  13  14
ATOM     14  C   UNL     1      50.202   6.160 115.166  1.00  0.00    -0.027 C 
ATOM     15  C   UNL     1      50.998   5.314 114.487  1.00  0.00    -0.031 C 
BRANCH  15  16
ATOM     16  C   UNL     1      52.029   5.718 113.455  1.00  0.00     0.027 C 
BRANCH  16  17
ATOM     17  C   UNL     1      51.498   5.739 112.012  1.00  0.00     0.004 C 
BRANCH  17  18
ATOM     18  C   UNL     1      50.383   4.717 111.719  1.00  0.00     0.000 C 
BRANCH  18  19
ATOM     19  C   UNL     1      49.161   5.325 110.998  1.00  0.00    -0.003 C 
ATOM     20  C   UNL     1      49.448   6.708 110.416  1.00  0.00     0.004 C 
ENDBRANCH  18  19
ENDBRANCH  17  18
ENDBRANCH  16  17
ENDBRANCH  15  16
ENDBRANCH  13  14
ENDBRANCH  12  13
ENDBRANCH   1  11
TORSDOF 14
ENDMDL
MODEL 8
REMARK VINA RESULT:    -4.294      2.794      6.674
REMARK INTER + INTRA:         -10.113
REMARK INTER:                  -7.972
REMARK INTRA:                  -2.141
REMARK UNBOUND:                -2.305
REMARK SMILES CCCCCC=CCC=CCCCCCCCC(=O)[O-]
REMARK SMILES IDX 11 1 12 2 13 3 14 4 15 5 16 6 17 7 18 8 19 9 20 10 10 11
REMARK SMILES IDX 9 12 8 13 7 14 6 15 5 16 4 17 3 18 2 19 1 20
REMARK H PARENT
REMARK Flexibility Score: inf
ROOT
ATOM      1  C   UNL     1      48.254   8.703 115.160  1.00  0.00     0.027 C 
ENDROOT
BRANCH   1   2
ATOM      2  C   UNL     1      46.917   7.993 115.439  1.00  0.00     0.004 C 
BRANCH   2   3
ATOM      3  C   UNL     1      46.268   7.345 114.199  1.00  0.00     0.000 C 
BRANCH   3   4
ATOM      4  C   UNL     1      44.792   7.716 113.965  1.00  0.00     0.000 C 
BRANCH   4   5
ATOM      5  C   UNL     1      44.507   9.208 114.189  1.00  0.00     0.000 C 
BRANCH   5   6
ATOM      6  C   UNL     1      43.367   9.402 115.201  1.00  0.00     0.006 C 
BRANCH   6   7
ATOM      7  C   UNL     1      43.848  10.070 116.496  1.00  0.00     0.053 C 
BRANCH   7   8
ATOM      8  C   UNL     1      43.706   9.160 117.678  1.00  0.00     0.041 C 
ATOM      9  O   UNL     1      44.201   8.002 117.650  1.00  0.00    -0.550 OA
ATOM     10  O   UNL     1      43.013   9.586 118.805  1.00  0.00    -0.550 OA
ENDBRANCH   7   8
ENDBRANCH   6   7
ENDBRANCH   5   6
ENDBRANCH   4   5
ENDBRANCH   3   4
ENDBRANCH   2   3
ENDBRANCH   1   2
BRANCH   1  11
ATOM     11  C   UNL     1      49.330   7.750 114.714  1.00  0.00    -0.031 C 
ATOM     12  C   UNL     1      49.648   6.667 115.435  1.00  0.00    -0.027 C 
BRANCH  12  13
ATOM     13  C   UNL     1      50.709   5.710 114.965  1.00  0.00     0.054 C 
BRANCH  13  14
ATOM     14  C   UNL     1      51.465   6.296 113.803  1.00  0.00    -0.027 C 
ATOM     15  C   UNL     1      51.559   5.741 112.580  1.00  0.00    -0.031 C 
BRANCH  15  16
ATOM     16  C   UNL     1      50.846   4.484 112.130  1.00  0.00     0.027 C 
BRANCH  16  17
ATOM     17  C   UNL     1      49.631   4.744 111.224  1.00  0.00     0.004 C 
BRANCH  17  18
ATOM     18  C   UNL     1      48.547   5.650 111.838  1.00  0.00     0.000 C 
BRANCH  18  19
ATOM     19  C   UNL     1      48.452   7.038 111.171  1.00  0.00    -0.003 C 
ATOM     20  C   UNL     1      49.299   7.144 109.904  1.00  0.00     0.004 C 
ENDBRANCH  18  19
ENDBRANCH  17  18
ENDBRANCH  16  17
ENDBRANCH  15  16
ENDBRANCH  13  14
ENDBRANCH  12  13
ENDBRANCH   1  11
TORSDOF 14
ENDMDL
MODEL 9
REMARK VINA RESULT:    -4.243      2.663      6.743
REMARK INTER + INTRA:         -10.021
REMARK INTER:                  -8.022
REMARK INTRA:                  -1.999
REMARK UNBOUND:                -2.305
REMARK SMILES CCCCCC=CCC=CCCCCCCCC(=O)[O-]
REMARK SMILES IDX 11 1 12 2 13 3 14 4 15 5 16 6 17 7 18 8 19 9 20 10 10 11
REMARK SMILES IDX 9 12 8 13 7 14 6 15 5 16 4 17 3 18 2 19 1 20
REMARK H PARENT
REMARK Flexibility Score: inf
ROOT
ATOM      1  C   UNL     1      48.073   8.309 115.434  1.00  0.00     0.027 C 
ENDROOT
BRANCH   1   2
ATOM      2  C   UNL     1      47.903   9.103 116.741  1.00  0.00     0.004 C 
BRANCH   2   3
ATOM      3  C   UNL     1      46.493   9.688 116.955  1.00  0.00     0.000 C 
BRANCH   3   4
ATOM      4  C   UNL     1      45.831   9.324 118.296  1.00  0.00     0.000 C 
BRANCH   4   5
ATOM      5  C   UNL     1      44.619   8.394 118.134  1.00  0.00     0.000 C 
BRANCH   5   6
ATOM      6  C   UNL     1      44.696   7.622 116.809  1.00  0.00     0.006 C 
BRANCH   6   7
ATOM      7  C   UNL     1      43.428   7.797 115.961  1.00  0.00     0.053 C 
BRANCH   7   8
ATOM      8  C   UNL     1      43.630   8.794 114.859  1.00  0.00     0.041 C 
ATOM      9  O   UNL     1      44.253   8.467 113.815  1.00  0.00    -0.550 OA
ATOM     10  O   UNL     1      43.141  10.088 114.993  1.00  0.00    -0.550 OA
ENDBRANCH   7   8
ENDBRANCH   6   7
ENDBRANCH   5   6
ENDBRANCH   4   5
ENDBRANCH   3   4
ENDBRANCH   2   3
ENDBRANCH   1   2
BRANCH   1  11
ATOM     11  C   UNL     1      49.248   7.370 115.478  1.00  0.00    -0.031 C 
ATOM     12  C   UNL     1      50.258   7.472 114.604  1.00  0.00    -0.027 C 
BRANCH  12  13
ATOM     13  C   UNL     1      51.438   6.543 114.675  1.00  0.00     0.054 C 
BRANCH  13  14
ATOM     14  C   UNL     1      50.976   5.111 114.709  1.00  0.00    -0.027 C 
ATOM     15  C   UNL     1      50.774   4.335 113.628  1.00  0.00    -0.031 C 
BRANCH  15  16
ATOM     16  C   UNL     1      51.064   4.732 112.197  1.00  0.00     0.027 C 
BRANCH  16  17
ATOM     17  C   UNL     1      49.826   5.195 111.411  1.00  0.00     0.004 C 
BRANCH  17  18
ATOM     18  C   UNL     1      48.478   4.892 112.092  1.00  0.00     0.000 C 
BRANCH  18  19
ATOM     19  C   UNL     1      47.657   6.155 112.428  1.00  0.00    -0.003 C 
ATOM     20  C   UNL     1      48.044   7.356 111.568  1.00  0.00     0.004 C 
ENDBRANCH  18  19
ENDBRANCH  17  18
ENDBRANCH  16  17
ENDBRANCH  15  16
ENDBRANCH  13  14
ENDBRANCH  12  13
ENDBRANCH   1  11
TORSDOF 14
ENDMDL
