MODEL 1
REMARK VINA RESULT:    -0.450      0.000      0.000
REMARK INTER + INTRA:          -8.326
REMARK INTER:                  -1.186
REMARK INTRA:                  -7.141
REMARK UNBOUND:                -7.141
REMARK SMILES CCCCCCCCCCCCCCCCCCCCCCCCCCCCCC(=O)[O-]
REMARK SMILES IDX 16 1 17 2 18 3 19 4 20 5 21 6 22 7 23 8 24 9 25 10 26 11
REMARK SMILES IDX 27 12 28 13 29 14 30 15 31 16 32 17 15 18 14 19 13 20 12 21
REMARK SMILES IDX 11 22 10 23 9 24 8 25 7 26 6 27 5 28 4 29 3 30 2 31 1 32
REMARK H PARENT
REMARK Flexibility Score: inf
ROOT
ATOM      1  C   UNL     1      40.894   7.433  37.948  1.00  0.00     0.000 C 
ENDROOT
BRANCH   1   2
ATOM      2  C   UNL     1      40.565   7.445  39.453  1.00  0.00     0.000 C 
BRANCH   2   3
ATOM      3  C   UNL     1      39.981   6.116  39.977  1.00  0.00     0.000 C 
BRANCH   3   4
ATOM      4  C   UNL     1      40.668   5.628  41.265  1.00  0.00     0.000 C 
BRANCH   4   5
ATOM      5  C   UNL     1      41.578   4.407  41.030  1.00  0.00     0.000 C 
BRANCH   5   6
ATOM      6  C   UNL     1      40.948   3.281  40.185  1.00  0.00     0.000 C 
BRANCH   6   7
ATOM      7  C   UNL     1      40.843   1.914  40.890  1.00  0.00     0.000 C 
BRANCH   7   8
ATOM      8  C   UNL     1      39.411   1.464  41.229  1.00  0.00     0.000 C 
BRANCH   8   9
ATOM      9  C   UNL     1      38.355   2.514  40.843  1.00  0.00     0.000 C 
BRANCH   9  10
ATOM     10  C   UNL     1      37.873   3.354  42.040  1.00  0.00     0.000 C 
BRANCH  10  11
ATOM     11  C   UNL     1      36.882   4.484  41.698  1.00  0.00     0.000 C 
BRANCH  11  12
ATOM     12  C   UNL     1      36.581   4.589  40.194  1.00  0.00     0.000 C 
BRANCH  12  13
ATOM     13  C   UNL     1      36.181   6.012  39.771  1.00  0.00     0.006 C 
BRANCH  13  14
ATOM     14  C   UNL     1      36.389   6.250  38.270  1.00  0.00     0.053 C 
BRANCH  14  15
ATOM     15  C   UNL     1      37.082   7.556  38.033  1.00  0.00     0.041 C 
ATOM     16  O   UNL     1      37.274   8.352  38.991  1.00  0.00    -0.550 OA
ATOM     17  O   UNL     1      37.496   7.905  36.754  1.00  0.00    -0.550 OA
ENDBRANCH  14  15
ENDBRANCH  13  14
ENDBRANCH  12  13
ENDBRANCH  11  12
ENDBRANCH  10  11
ENDBRANCH   9  10
ENDBRANCH   8   9
ENDBRANCH   7   8
ENDBRANCH   6   7
ENDBRANCH   5   6
ENDBRANCH   4   5
ENDBRANCH   3   4
ENDBRANCH   2   3
ENDBRANCH   1   2
BRANCH   1  18
ATOM     18  C   UNL     1      42.390   7.548  37.597  1.00  0.00     0.000 C 
BRANCH  18  19
ATOM     19  C   UNL     1      43.246   6.328  37.984  1.00  0.00     0.000 C 
BRANCH  19  20
ATOM     20  C   UNL     1      42.616   4.998  37.548  1.00  0.00     0.000 C 
BRANCH  20  21
ATOM     21  C   UNL     1      43.147   4.561  36.176  1.00  0.00     0.000 C 
BRANCH  21  22
ATOM     22  C   UNL     1      43.210   3.031  36.020  1.00  0.00     0.000 C 
BRANCH  22  23
ATOM     23  C   UNL     1      43.367   2.243  37.338  1.00  0.00     0.000 C 
BRANCH  23  24
ATOM     24  C   UNL     1      42.352   1.104  37.543  1.00  0.00    -0.000 C 
BRANCH  24  25
ATOM     25  C   UNL     1      41.164   1.183  36.574  1.00  0.00    -0.000 C 
BRANCH  25  26
ATOM     26  C   UNL     1      39.832   1.177  37.338  1.00  0.00    -0.000 C 
BRANCH  26  27
ATOM     27  C   UNL     1      38.786   2.131  36.732  1.00  0.00    -0.000 C 
BRANCH  27  28
ATOM     28  C   UNL     1      38.724   3.532  37.369  1.00  0.00    -0.000 C 
BRANCH  28  29
ATOM     29  C   UNL     1      39.213   4.644  36.424  1.00  0.00    -0.000 C 
BRANCH  29  30
ATOM     30  C   UNL     1      39.198   4.220  34.944  1.00  0.00    -0.000 C 
BRANCH  30  31
ATOM     31  C   UNL     1      40.270   4.891  34.063  1.00  0.00    -0.003 C 
ATOM     32  C   UNL     1      40.449   6.378  34.362  1.00  0.00     0.004 C 
ENDBRANCH  30  31
ENDBRANCH  29  30
ENDBRANCH  28  29
ENDBRANCH  27  28
ENDBRANCH  26  27
ENDBRANCH  25  26
ENDBRANCH  24  25
ENDBRANCH  23  24
ENDBRANCH  22  23
ENDBRANCH  21  22
ENDBRANCH  20  21
ENDBRANCH  19  20
ENDBRANCH  18  19
ENDBRANCH   1  18
TORSDOF 28
ENDMDL
MODEL 2
REMARK VINA RESULT:    -0.417      2.676      5.714
REMARK INTER + INTRA:          -8.240
REMARK INTER:                  -1.125
REMARK INTRA:                  -7.115
REMARK UNBOUND:                -7.141
REMARK SMILES CCCCCCCCCCCCCCCCCCCCCCCCCCCCCC(=O)[O-]
REMARK SMILES IDX 16 1 17 2 18 3 19 4 20 5 21 6 22 7 23 8 24 9 25 10 26 11
REMARK SMILES IDX 27 12 28 13 29 14 30 15 31 16 32 17 15 18 14 19 13 20 12 21
REMARK SMILES IDX 11 22 10 23 9 24 8 25 7 26 6 27 5 28 4 29 3 30 2 31 1 32
REMARK H PARENT
REMARK Flexibility Score: inf
ROOT
ATOM      1  C   UNL     1      37.077   4.814  35.778  1.00  0.00     0.000 C 
ENDROOT
BRANCH   1   2
ATOM      2  C   UNL     1      35.574   4.938  35.460  1.00  0.00     0.000 C 
BRANCH   2   3
ATOM      3  C   UNL     1      34.722   5.443  36.644  1.00  0.00     0.000 C 
BRANCH   3   4
ATOM      4  C   UNL     1      35.505   5.484  37.968  1.00  0.00     0.000 C 
BRANCH   4   5
ATOM      5  C   UNL     1      34.698   6.114  39.119  1.00  0.00     0.000 C 
BRANCH   5   6
ATOM      6  C   UNL     1      35.547   6.784  40.217  1.00  0.00     0.000 C 
BRANCH   6   7
ATOM      7  C   UNL     1      37.066   6.541  40.110  1.00  0.00     0.000 C 
BRANCH   7   8
ATOM      8  C   UNL     1      37.942   7.785  40.342  1.00  0.00     0.000 C 
BRANCH   8   9
ATOM      9  C   UNL     1      39.068   7.917  39.302  1.00  0.00     0.000 C 
BRANCH   9  10
ATOM     10  C   UNL     1      38.682   8.803  38.104  1.00  0.00     0.000 C 
BRANCH  10  11
ATOM     11  C   UNL     1      38.239   8.044  36.838  1.00  0.00     0.000 C 
BRANCH  11  12
ATOM     12  C   UNL     1      36.865   8.495  36.312  1.00  0.00     0.000 C 
BRANCH  12  13
ATOM     13  C   UNL     1      36.037   9.226  37.381  1.00  0.00     0.006 C 
BRANCH  13  14
ATOM     14  C   UNL     1      34.536   9.207  37.064  1.00  0.00     0.053 C 
BRANCH  14  15
ATOM     15  C   UNL     1      34.128  10.464  36.361  1.00  0.00     0.041 C 
ATOM     16  O   UNL     1      33.858  10.440  35.131  1.00  0.00    -0.550 OA
ATOM     17  O   UNL     1      34.068  11.666  37.056  1.00  0.00    -0.550 OA
ENDBRANCH  14  15
ENDBRANCH  13  14
ENDBRANCH  12  13
ENDBRANCH  11  12
ENDBRANCH  10  11
ENDBRANCH   9  10
ENDBRANCH   8   9
ENDBRANCH   7   8
ENDBRANCH   6   7
ENDBRANCH   5   6
ENDBRANCH   4   5
ENDBRANCH   3   4
ENDBRANCH   2   3
ENDBRANCH   1   2
BRANCH   1  18
ATOM     18  C   UNL     1      37.606   3.375  35.925  1.00  0.00     0.000 C 
BRANCH  18  19
ATOM     19  C   UNL     1      38.633   3.170  37.055  1.00  0.00     0.000 C 
BRANCH  19  20
ATOM     20  C   UNL     1      39.043   4.486  37.731  1.00  0.00     0.000 C 
BRANCH  20  21
ATOM     21  C   UNL     1      39.864   4.221  38.999  1.00  0.00     0.000 C 
BRANCH  21  22
ATOM     22  C   UNL     1      40.703   2.934  38.909  1.00  0.00     0.000 C 
BRANCH  22  23
ATOM     23  C   UNL     1      40.551   1.968  40.103  1.00  0.00     0.000 C 
BRANCH  23  24
ATOM     24  C   UNL     1      39.165   1.312  40.241  1.00  0.00    -0.000 C 
BRANCH  24  25
ATOM     25  C   UNL     1      38.683   1.240  41.696  1.00  0.00    -0.000 C 
BRANCH  25  26
ATOM     26  C   UNL     1      37.958   2.533  42.098  1.00  0.00    -0.000 C 
BRANCH  26  27
ATOM     27  C   UNL     1      37.081   3.108  40.971  1.00  0.00    -0.000 C 
BRANCH  27  28
ATOM     28  C   UNL     1      35.569   3.137  41.260  1.00  0.00    -0.000 C 
BRANCH  28  29
ATOM     29  C   UNL     1      34.737   2.415  40.186  1.00  0.00    -0.000 C 
BRANCH  29  30
ATOM     30  C   UNL     1      35.585   1.939  38.992  1.00  0.00    -0.000 C 
BRANCH  30  31
ATOM     31  C   UNL     1      34.823   1.813  37.660  1.00  0.00    -0.003 C 
ATOM     32  C   UNL     1      33.359   2.234  37.763  1.00  0.00     0.004 C 
ENDBRANCH  30  31
ENDBRANCH  29  30
ENDBRANCH  28  29
ENDBRANCH  27  28
ENDBRANCH  26  27
ENDBRANCH  25  26
ENDBRANCH  24  25
ENDBRANCH  23  24
ENDBRANCH  22  23
ENDBRANCH  21  22
ENDBRANCH  20  21
ENDBRANCH  19  20
ENDBRANCH  18  19
ENDBRANCH   1  18
TORSDOF 28
ENDMDL
MODEL 3
REMARK VINA RESULT:    -0.395      2.250      5.595
REMARK INTER + INTRA:          -8.183
REMARK INTER:                  -1.447
REMARK INTRA:                  -6.736
REMARK UNBOUND:                -7.141
REMARK SMILES CCCCCCCCCCCCCCCCCCCCCCCCCCCCCC(=O)[O-]
REMARK SMILES IDX 16 1 17 2 18 3 19 4 20 5 21 6 22 7 23 8 24 9 25 10 26 11
REMARK SMILES IDX 27 12 28 13 29 14 30 15 31 16 32 17 15 18 14 19 13 20 12 21
REMARK SMILES IDX 11 22 10 23 9 24 8 25 7 26 6 27 5 28 4 29 3 30 2 31 1 32
REMARK H PARENT
REMARK Flexibility Score: inf
ROOT
ATOM      1  C   UNL     1      36.240   5.321  38.409  1.00  0.00     0.000 C 
ENDROOT
BRANCH   1   2
ATOM      2  C   UNL     1      35.735   5.999  39.697  1.00  0.00     0.000 C 
BRANCH   2   3
ATOM      3  C   UNL     1      35.649   5.053  40.913  1.00  0.00     0.000 C 
BRANCH   3   4
ATOM      4  C   UNL     1      36.186   3.642  40.610  1.00  0.00     0.000 C 
BRANCH   4   5
ATOM      5  C   UNL     1      36.639   2.892  41.877  1.00  0.00     0.000 C 
BRANCH   5   6
ATOM      6  C   UNL     1      38.160   2.662  41.986  1.00  0.00     0.000 C 
BRANCH   6   7
ATOM      7  C   UNL     1      38.605   1.187  41.916  1.00  0.00     0.000 C 
BRANCH   7   8
ATOM      8  C   UNL     1      39.667   0.878  40.845  1.00  0.00     0.000 C 
BRANCH   8   9
ATOM      9  C   UNL     1      41.000   1.597  41.111  1.00  0.00     0.000 C 
BRANCH   9  10
ATOM     10  C   UNL     1      42.088   1.252  40.077  1.00  0.00     0.000 C 
BRANCH  10  11
ATOM     11  C   UNL     1      43.539   1.478  40.545  1.00  0.00     0.000 C 
BRANCH  11  12
ATOM     12  C   UNL     1      44.404   2.207  39.503  1.00  0.00     0.000 C 
BRANCH  12  13
ATOM     13  C   UNL     1      43.852   3.598  39.149  1.00  0.00     0.006 C 
BRANCH  13  14
ATOM     14  C   UNL     1      43.953   3.896  37.647  1.00  0.00     0.053 C 
BRANCH  14  15
ATOM     15  C   UNL     1      43.903   5.371  37.397  1.00  0.00     0.041 C 
ATOM     16  O   UNL     1      44.970   6.039  37.348  1.00  0.00    -0.550 OA
ATOM     17  O   UNL     1      42.681   6.012  37.240  1.00  0.00    -0.550 OA
ENDBRANCH  14  15
ENDBRANCH  13  14
ENDBRANCH  12  13
ENDBRANCH  11  12
ENDBRANCH  10  11
ENDBRANCH   9  10
ENDBRANCH   8   9
ENDBRANCH   7   8
ENDBRANCH   6   7
ENDBRANCH   5   6
ENDBRANCH   4   5
ENDBRANCH   3   4
ENDBRANCH   2   3
ENDBRANCH   1   2
BRANCH   1  18
ATOM     18  C   UNL     1      36.602   6.276  37.256  1.00  0.00     0.000 C 
BRANCH  18  19
ATOM     19  C   UNL     1      37.705   5.766  36.309  1.00  0.00     0.000 C 
BRANCH  19  20
ATOM     20  C   UNL     1      38.971   6.634  36.349  1.00  0.00     0.000 C 
BRANCH  20  21
ATOM     21  C   UNL     1      38.809   7.799  37.335  1.00  0.00     0.000 C 
BRANCH  21  22
ATOM     22  C   UNL     1      40.139   8.219  37.986  1.00  0.00     0.000 C 
BRANCH  22  23
ATOM     23  C   UNL     1      40.206   8.035  39.517  1.00  0.00     0.000 C 
BRANCH  23  24
ATOM     24  C   UNL     1      39.096   7.155  40.119  1.00  0.00    -0.000 C 
BRANCH  24  25
ATOM     25  C   UNL     1      39.644   5.914  40.837  1.00  0.00    -0.000 C 
BRANCH  25  26
ATOM     26  C   UNL     1      40.447   5.030  39.871  1.00  0.00    -0.000 C 
BRANCH  26  27
ATOM     27  C   UNL     1      39.555   4.166  38.961  1.00  0.00    -0.000 C 
BRANCH  27  28
ATOM     28  C   UNL     1      40.287   3.439  37.818  1.00  0.00    -0.000 C 
BRANCH  28  29
ATOM     29  C   UNL     1      39.476   2.270  37.232  1.00  0.00    -0.000 C 
BRANCH  29  30
ATOM     30  C   UNL     1      38.089   2.119  37.883  1.00  0.00    -0.000 C 
BRANCH  30  31
ATOM     31  C   UNL     1      37.037   1.400  37.017  1.00  0.00    -0.003 C 
ATOM     32  C   UNL     1      36.269   2.347  36.096  1.00  0.00     0.004 C 
ENDBRANCH  30  31
ENDBRANCH  29  30
ENDBRANCH  28  29
ENDBRANCH  27  28
ENDBRANCH  26  27
ENDBRANCH  25  26
ENDBRANCH  24  25
ENDBRANCH  23  24
ENDBRANCH  22  23
ENDBRANCH  21  22
ENDBRANCH  20  21
ENDBRANCH  19  20
ENDBRANCH  18  19
ENDBRANCH   1  18
TORSDOF 28
ENDMDL
MODEL 4
REMARK VINA RESULT:    -0.370      1.985      4.435
REMARK INTER + INTRA:          -8.117
REMARK INTER:                  -1.179
REMARK INTRA:                  -6.939
REMARK UNBOUND:                -7.141
REMARK SMILES CCCCCCCCCCCCCCCCCCCCCCCCCCCCCC(=O)[O-]
REMARK SMILES IDX 16 1 17 2 18 3 19 4 20 5 21 6 22 7 23 8 24 9 25 10 26 11
REMARK SMILES IDX 27 12 28 13 29 14 30 15 31 16 32 17 15 18 14 19 13 20 12 21
REMARK SMILES IDX 11 22 10 23 9 24 8 25 7 26 6 27 5 28 4 29 3 30 2 31 1 32
REMARK H PARENT
REMARK Flexibility Score: inf
ROOT
ATOM      1  C   UNL     1      41.506   4.432  36.950  1.00  0.00     0.000 C 
ENDROOT
BRANCH   1   2
ATOM      2  C   UNL     1      42.941   4.903  37.257  1.00  0.00     0.000 C 
BRANCH   2   3
ATOM      3  C   UNL     1      43.688   4.015  38.274  1.00  0.00     0.000 C 
BRANCH   3   4
ATOM      4  C   UNL     1      44.052   4.765  39.567  1.00  0.00     0.000 C 
BRANCH   4   5
ATOM      5  C   UNL     1      44.158   3.831  40.788  1.00  0.00     0.000 C 
BRANCH   5   6
ATOM      6  C   UNL     1      43.037   3.997  41.832  1.00  0.00     0.000 C 
BRANCH   6   7
ATOM      7  C   UNL     1      42.181   5.270  41.678  1.00  0.00     0.000 C 
BRANCH   7   8
ATOM      8  C   UNL     1      40.713   5.025  41.286  1.00  0.00     0.000 C 
BRANCH   8   9
ATOM      9  C   UNL     1      40.036   6.282  40.714  1.00  0.00     0.000 C 
BRANCH   9  10
ATOM     10  C   UNL     1      40.896   7.004  39.660  1.00  0.00     0.000 C 
BRANCH  10  11
ATOM     11  C   UNL     1      40.110   7.724  38.548  1.00  0.00     0.000 C 
BRANCH  11  12
ATOM     12  C   UNL     1      40.982   8.101  37.338  1.00  0.00     0.000 C 
BRANCH  12  13
ATOM     13  C   UNL     1      40.273   7.843  35.998  1.00  0.00     0.006 C 
BRANCH  13  14
ATOM     14  C   UNL     1      39.011   8.700  35.836  1.00  0.00     0.053 C 
BRANCH  14  15
ATOM     15  C   UNL     1      39.360  10.155  35.804  1.00  0.00     0.041 C 
ATOM     16  O   UNL     1      40.044  10.620  34.853  1.00  0.00    -0.550 OA
ATOM     17  O   UNL     1      38.952  10.994  36.834  1.00  0.00    -0.550 OA
ENDBRANCH  14  15
ENDBRANCH  13  14
ENDBRANCH  12  13
ENDBRANCH  11  12
ENDBRANCH  10  11
ENDBRANCH   9  10
ENDBRANCH   8   9
ENDBRANCH   7   8
ENDBRANCH   6   7
ENDBRANCH   5   6
ENDBRANCH   4   5
ENDBRANCH   3   4
ENDBRANCH   2   3
ENDBRANCH   1   2
BRANCH   1  18
ATOM     18  C   UNL     1      40.879   3.492  37.997  1.00  0.00     0.000 C 
BRANCH  18  19
ATOM     19  C   UNL     1      40.484   2.100  37.469  1.00  0.00     0.000 C 
BRANCH  19  20
ATOM     20  C   UNL     1      40.365   1.053  38.586  1.00  0.00     0.000 C 
BRANCH  20  21
ATOM     21  C   UNL     1      41.343   1.354  39.729  1.00  0.00     0.000 C 
BRANCH  21  22
ATOM     22  C   UNL     1      40.676   1.297  41.116  1.00  0.00     0.000 C 
BRANCH  22  23
ATOM     23  C   UNL     1      39.141   1.150  41.099  1.00  0.00     0.000 C 
BRANCH  23  24
ATOM     24  C   UNL     1      38.370   2.257  41.841  1.00  0.00    -0.000 C 
BRANCH  24  25
ATOM     25  C   UNL     1      37.106   2.706  41.094  1.00  0.00    -0.000 C 
BRANCH  25  26
ATOM     26  C   UNL     1      36.987   1.993  39.739  1.00  0.00    -0.000 C 
BRANCH  26  27
ATOM     27  C   UNL     1      37.052   2.959  38.542  1.00  0.00    -0.000 C 
BRANCH  27  28
ATOM     28  C   UNL     1      37.348   4.429  38.895  1.00  0.00    -0.000 C 
BRANCH  28  29
ATOM     29  C   UNL     1      37.739   5.274  37.671  1.00  0.00    -0.000 C 
BRANCH  29  30
ATOM     30  C   UNL     1      37.729   4.469  36.359  1.00  0.00    -0.000 C 
BRANCH  30  31
ATOM     31  C   UNL     1      37.700   5.317  35.074  1.00  0.00    -0.003 C 
ATOM     32  C   UNL     1      36.354   5.997  34.832  1.00  0.00     0.004 C 
ENDBRANCH  30  31
ENDBRANCH  29  30
ENDBRANCH  28  29
ENDBRANCH  27  28
ENDBRANCH  26  27
ENDBRANCH  25  26
ENDBRANCH  24  25
ENDBRANCH  23  24
ENDBRANCH  22  23
ENDBRANCH  21  22
ENDBRANCH  20  21
ENDBRANCH  19  20
ENDBRANCH  18  19
ENDBRANCH   1  18
TORSDOF 28
ENDMDL
MODEL 5
REMARK VINA RESULT:    -0.354      2.421      5.933
REMARK INTER + INTRA:          -8.074
REMARK INTER:                  -1.605
REMARK INTRA:                  -6.469
REMARK UNBOUND:                -7.141
REMARK SMILES CCCCCCCCCCCCCCCCCCCCCCCCCCCCCC(=O)[O-]
REMARK SMILES IDX 16 1 17 2 18 3 19 4 20 5 21 6 22 7 23 8 24 9 25 10 26 11
REMARK SMILES IDX 27 12 28 13 29 14 30 15 31 16 32 17 15 18 14 19 13 20 12 21
REMARK SMILES IDX 11 22 10 23 9 24 8 25 7 26 6 27 5 28 4 29 3 30 2 31 1 32
REMARK H PARENT
REMARK Flexibility Score: inf
ROOT
ATOM      1  C   UNL     1      34.480   6.106  38.445  1.00  0.00     0.000 C 
ENDROOT
BRANCH   1   2
ATOM      2  C   UNL     1      34.040   6.832  39.731  1.00  0.00     0.000 C 
BRANCH   2   3
ATOM      3  C   UNL     1      33.803   5.892  40.932  1.00  0.00     0.000 C 
BRANCH   3   4
ATOM      4  C   UNL     1      34.218   4.438  40.643  1.00  0.00     0.000 C 
BRANCH   4   5
ATOM      5  C   UNL     1      34.540   3.645  41.923  1.00  0.00     0.000 C 
BRANCH   5   6
ATOM      6  C   UNL     1      36.017   3.230  42.076  1.00  0.00     0.000 C 
BRANCH   6   7
ATOM      7  C   UNL     1      36.268   1.710  42.125  1.00  0.00     0.000 C 
BRANCH   7   8
ATOM      8  C   UNL     1      37.324   1.192  41.132  1.00  0.00     0.000 C 
BRANCH   8   9
ATOM      9  C   UNL     1      38.730   1.745  41.421  1.00  0.00     0.000 C 
BRANCH   9  10
ATOM     10  C   UNL     1      39.806   1.184  40.474  1.00  0.00     0.000 C 
BRANCH  10  11
ATOM     11  C   UNL     1      41.254   1.272  40.994  1.00  0.00     0.000 C 
BRANCH  11  12
ATOM     12  C   UNL     1      42.240   1.815  39.946  1.00  0.00     0.000 C 
BRANCH  12  13
ATOM     13  C   UNL     1      41.857   3.219  39.448  1.00  0.00     0.006 C 
BRANCH  13  14
ATOM     14  C   UNL     1      42.027   3.361  37.930  1.00  0.00     0.053 C 
BRANCH  14  15
ATOM     15  C   UNL     1      42.034   4.804  37.532  1.00  0.00     0.041 C 
ATOM     16  O   UNL     1      43.124   5.432  37.455  1.00  0.00    -0.550 OA
ATOM     17  O   UNL     1      40.840   5.463  37.269  1.00  0.00    -0.550 OA
ENDBRANCH  14  15
ENDBRANCH  13  14
ENDBRANCH  12  13
ENDBRANCH  11  12
ENDBRANCH  10  11
ENDBRANCH   9  10
ENDBRANCH   8   9
ENDBRANCH   7   8
ENDBRANCH   6   7
ENDBRANCH   5   6
ENDBRANCH   4   5
ENDBRANCH   3   4
ENDBRANCH   2   3
ENDBRANCH   1   2
BRANCH   1  18
ATOM     18  C   UNL     1      34.941   7.020  37.294  1.00  0.00     0.000 C 
BRANCH  18  19
ATOM     19  C   UNL     1      35.915   6.368  36.294  1.00  0.00     0.000 C 
BRANCH  19  20
ATOM     20  C   UNL     1      37.317   6.993  36.336  1.00  0.00     0.000 C 
BRANCH  20  21
ATOM     21  C   UNL     1      37.393   8.105  37.391  1.00  0.00     0.000 C 
BRANCH  21  22
ATOM     22  C   UNL     1      38.792   8.238  38.019  1.00  0.00     0.000 C 
BRANCH  22  23
ATOM     23  C   UNL     1      38.849   8.012  39.544  1.00  0.00     0.000 C 
BRANCH  23  24
ATOM     24  C   UNL     1      37.601   7.351  40.155  1.00  0.00    -0.000 C 
BRANCH  24  25
ATOM     25  C   UNL     1      37.915   6.029  40.868  1.00  0.00    -0.000 C 
BRANCH  25  26
ATOM     26  C   UNL     1      38.624   5.050  39.922  1.00  0.00    -0.000 C 
BRANCH  26  27
ATOM     27  C   UNL     1      37.692   4.473  38.840  1.00  0.00    -0.000 C 
BRANCH  27  28
ATOM     28  C   UNL     1      38.272   3.303  38.025  1.00  0.00    -0.000 C 
BRANCH  28  29
ATOM     29  C   UNL     1      37.216   2.248  37.651  1.00  0.00    -0.000 C 
BRANCH  29  30
ATOM     30  C   UNL     1      35.792   2.651  38.076  1.00  0.00    -0.000 C 
BRANCH  30  31
ATOM     31  C   UNL     1      34.662   2.050  37.219  1.00  0.00    -0.003 C 
ATOM     32  C   UNL     1      34.317   2.901  35.998  1.00  0.00     0.004 C 
ENDBRANCH  30  31
ENDBRANCH  29  30
ENDBRANCH  28  29
ENDBRANCH  27  28
ENDBRANCH  26  27
ENDBRANCH  25  26
ENDBRANCH  24  25
ENDBRANCH  23  24
ENDBRANCH  22  23
ENDBRANCH  21  22
ENDBRANCH  20  21
ENDBRANCH  19  20
ENDBRANCH  18  19
ENDBRANCH   1  18
TORSDOF 28
ENDMDL
MODEL 6
REMARK VINA RESULT:    -0.353      1.662      3.519
REMARK INTER + INTRA:          -8.071
REMARK INTER:                  -1.274
REMARK INTRA:                  -6.797
REMARK UNBOUND:                -7.141
REMARK SMILES CCCCCCCCCCCCCCCCCCCCCCCCCCCCCC(=O)[O-]
REMARK SMILES IDX 16 1 17 2 18 3 19 4 20 5 21 6 22 7 23 8 24 9 25 10 26 11
REMARK SMILES IDX 27 12 28 13 29 14 30 15 31 16 32 17 15 18 14 19 13 20 12 21
REMARK SMILES IDX 11 22 10 23 9 24 8 25 7 26 6 27 5 28 4 29 3 30 2 31 1 32
REMARK H PARENT
REMARK Flexibility Score: inf
ROOT
ATOM      1  C   UNL     1      40.272   4.880  38.822  1.00  0.00     0.000 C 
ENDROOT
BRANCH   1   2
ATOM      2  C   UNL     1      40.917   5.331  40.146  1.00  0.00     0.000 C 
BRANCH   2   3
ATOM      3  C   UNL     1      41.255   4.171  41.106  1.00  0.00     0.000 C 
BRANCH   3   4
ATOM      4  C   UNL     1      42.056   3.047  40.426  1.00  0.00     0.000 C 
BRANCH   4   5
ATOM      5  C   UNL     1      41.640   1.644  40.907  1.00  0.00     0.000 C 
BRANCH   5   6
ATOM      6  C   UNL     1      40.702   0.881  39.951  1.00  0.00     0.000 C 
BRANCH   6   7
ATOM      7  C   UNL     1      39.198   1.025  40.258  1.00  0.00     0.000 C 
BRANCH   7   8
ATOM      8  C   UNL     1      38.853   1.239  41.743  1.00  0.00     0.000 C 
BRANCH   8   9
ATOM      9  C   UNL     1      38.042   2.524  41.982  1.00  0.00     0.000 C 
BRANCH   9  10
ATOM     10  C   UNL     1      37.619   3.222  40.677  1.00  0.00     0.000 C 
BRANCH  10  11
ATOM     11  C   UNL     1      36.732   4.470  40.853  1.00  0.00     0.000 C 
BRANCH  11  12
ATOM     12  C   UNL     1      37.292   5.470  41.878  1.00  0.00     0.000 C 
BRANCH  12  13
ATOM     13  C   UNL     1      37.801   6.764  41.221  1.00  0.00     0.006 C 
BRANCH  13  14
ATOM     14  C   UNL     1      37.304   6.915  39.778  1.00  0.00     0.053 C 
BRANCH  14  15
ATOM     15  C   UNL     1      37.939   8.102  39.122  1.00  0.00     0.041 C 
ATOM     16  O   UNL     1      37.253   8.854  38.378  1.00  0.00    -0.550 OA
ATOM     17  O   UNL     1      39.290   8.366  39.311  1.00  0.00    -0.550 OA
ENDBRANCH  14  15
ENDBRANCH  13  14
ENDBRANCH  12  13
ENDBRANCH  11  12
ENDBRANCH  10  11
ENDBRANCH   9  10
ENDBRANCH   8   9
ENDBRANCH   7   8
ENDBRANCH   6   7
ENDBRANCH   5   6
ENDBRANCH   4   5
ENDBRANCH   3   4
ENDBRANCH   2   3
ENDBRANCH   1   2
BRANCH   1  18
ATOM     18  C   UNL     1      40.925   5.438  37.543  1.00  0.00     0.000 C 
BRANCH  18  19
ATOM     19  C   UNL     1      41.389   4.374  36.530  1.00  0.00     0.000 C 
BRANCH  19  20
ATOM     20  C   UNL     1      40.868   2.969  36.864  1.00  0.00     0.000 C 
BRANCH  20  21
ATOM     21  C   UNL     1      39.617   2.635  36.041  1.00  0.00     0.000 C 
BRANCH  21  22
ATOM     22  C   UNL     1      38.415   2.238  36.916  1.00  0.00     0.000 C 
BRANCH  22  23
ATOM     23  C   UNL     1      37.313   3.310  37.042  1.00  0.00     0.000 C 
BRANCH  23  24
ATOM     24  C   UNL     1      37.205   4.280  35.852  1.00  0.00    -0.000 C 
BRANCH  24  25
ATOM     25  C   UNL     1      37.506   5.734  36.240  1.00  0.00    -0.000 C 
BRANCH  25  26
ATOM     26  C   UNL     1      38.143   6.495  35.068  1.00  0.00    -0.000 C 
BRANCH  26  27
ATOM     27  C   UNL     1      39.064   7.642  35.523  1.00  0.00    -0.000 C 
BRANCH  27  28
ATOM     28  C   UNL     1      40.342   7.834  34.686  1.00  0.00    -0.000 C 
BRANCH  28  29
ATOM     29  C   UNL     1      40.058   7.982  33.181  1.00  0.00    -0.000 C 
BRANCH  29  30
ATOM     30  C   UNL     1      40.784   6.926  32.328  1.00  0.00    -0.000 C 
BRANCH  30  31
ATOM     31  C   UNL     1      41.227   5.664  33.091  1.00  0.00    -0.003 C 
ATOM     32  C   UNL     1      40.294   4.474  32.878  1.00  0.00     0.004 C 
ENDBRANCH  30  31
ENDBRANCH  29  30
ENDBRANCH  28  29
ENDBRANCH  27  28
ENDBRANCH  26  27
ENDBRANCH  25  26
ENDBRANCH  24  25
ENDBRANCH  23  24
ENDBRANCH  22  23
ENDBRANCH  21  22
ENDBRANCH  20  21
ENDBRANCH  19  20
ENDBRANCH  18  19
ENDBRANCH   1  18
TORSDOF 28
ENDMDL
MODEL 7
REMARK VINA RESULT:    -0.332      1.911      5.912
REMARK INTER + INTRA:          -8.015
REMARK INTER:                  -1.318
REMARK INTRA:                  -6.698
REMARK UNBOUND:                -7.141
REMARK SMILES CCCCCCCCCCCCCCCCCCCCCCCCCCCCCC(=O)[O-]
REMARK SMILES IDX 16 1 17 2 18 3 19 4 20 5 21 6 22 7 23 8 24 9 25 10 26 11
REMARK SMILES IDX 27 12 28 13 29 14 30 15 31 16 32 17 15 18 14 19 13 20 12 21
REMARK SMILES IDX 11 22 10 23 9 24 8 25 7 26 6 27 5 28 4 29 3 30 2 31 1 32
REMARK H PARENT
REMARK Flexibility Score: inf
ROOT
ATOM      1  C   UNL     1      37.909   6.952  35.123  1.00  0.00     0.000 C 
ENDROOT
BRANCH   1   2
ATOM      2  C   UNL     1      39.175   6.700  34.280  1.00  0.00     0.000 C 
BRANCH   2   3
ATOM      3  C   UNL     1      40.056   5.547  34.803  1.00  0.00     0.000 C 
BRANCH   3   4
ATOM      4  C   UNL     1      39.917   4.262  33.967  1.00  0.00     0.000 C 
BRANCH   4   5
ATOM      5  C   UNL     1      39.069   3.184  34.668  1.00  0.00     0.000 C 
BRANCH   5   6
ATOM      6  C   UNL     1      39.879   2.091  35.394  1.00  0.00     0.000 C 
BRANCH   6   7
ATOM      7  C   UNL     1      41.234   1.743  34.747  1.00  0.00     0.000 C 
BRANCH   7   8
ATOM      8  C   UNL     1      42.442   1.789  35.700  1.00  0.00     0.000 C 
BRANCH   8   9
ATOM      9  C   UNL     1      42.777   3.218  36.160  1.00  0.00     0.000 C 
BRANCH   9  10
ATOM     10  C   UNL     1      42.554   3.434  37.668  1.00  0.00     0.000 C 
BRANCH  10  11
ATOM     11  C   UNL     1      41.314   4.272  38.038  1.00  0.00     0.000 C 
BRANCH  11  12
ATOM     12  C   UNL     1      41.608   5.779  38.127  1.00  0.00     0.000 C 
BRANCH  12  13
ATOM     13  C   UNL     1      40.533   6.542  38.919  1.00  0.00     0.006 C 
BRANCH  13  14
ATOM     14  C   UNL     1      39.914   7.684  38.103  1.00  0.00     0.053 C 
BRANCH  14  15
ATOM     15  C   UNL     1      40.974   8.628  37.626  1.00  0.00     0.041 C 
ATOM     16  O   UNL     1      41.617   9.326  38.454  1.00  0.00    -0.550 OA
ATOM     17  O   UNL     1      41.236   8.755  36.267  1.00  0.00    -0.550 OA
ENDBRANCH  14  15
ENDBRANCH  13  14
ENDBRANCH  12  13
ENDBRANCH  11  12
ENDBRANCH  10  11
ENDBRANCH   9  10
ENDBRANCH   8   9
ENDBRANCH   7   8
ENDBRANCH   6   7
ENDBRANCH   5   6
ENDBRANCH   4   5
ENDBRANCH   3   4
ENDBRANCH   2   3
ENDBRANCH   1   2
BRANCH   1  18
ATOM     18  C   UNL     1      36.705   6.049  34.794  1.00  0.00     0.000 C 
BRANCH  18  19
ATOM     19  C   UNL     1      36.236   5.143  35.948  1.00  0.00     0.000 C 
BRANCH  19  20
ATOM     20  C   UNL     1      36.826   5.554  37.305  1.00  0.00     0.000 C 
BRANCH  20  21
ATOM     21  C   UNL     1      37.666   4.419  37.907  1.00  0.00     0.000 C 
BRANCH  21  22
ATOM     22  C   UNL     1      36.807   3.251  38.422  1.00  0.00     0.000 C 
BRANCH  22  23
ATOM     23  C   UNL     1      37.417   1.848  38.217  1.00  0.00     0.000 C 
BRANCH  23  24
ATOM     24  C   UNL     1      38.805   1.642  38.850  1.00  0.00    -0.000 C 
BRANCH  24  25
ATOM     25  C   UNL     1      38.746   0.878  40.180  1.00  0.00    -0.000 C 
BRANCH  25  26
ATOM     26  C   UNL     1      38.906   1.835  41.370  1.00  0.00    -0.000 C 
BRANCH  26  27
ATOM     27  C   UNL     1      39.579   3.166  40.987  1.00  0.00    -0.000 C 
BRANCH  27  28
ATOM     28  C   UNL     1      38.819   4.436  41.414  1.00  0.00    -0.000 C 
BRANCH  28  29
ATOM     29  C   UNL     1      37.489   4.130  42.125  1.00  0.00    -0.000 C 
BRANCH  29  30
ATOM     30  C   UNL     1      36.319   4.980  41.596  1.00  0.00    -0.000 C 
BRANCH  30  31
ATOM     31  C   UNL     1      34.964   4.250  41.525  1.00  0.00    -0.003 C 
ATOM     32  C   UNL     1      35.083   2.740  41.721  1.00  0.00     0.004 C 
ENDBRANCH  30  31
ENDBRANCH  29  30
ENDBRANCH  28  29
ENDBRANCH  27  28
ENDBRANCH  26  27
ENDBRANCH  25  26
ENDBRANCH  24  25
ENDBRANCH  23  24
ENDBRANCH  22  23
ENDBRANCH  21  22
ENDBRANCH  20  21
ENDBRANCH  19  20
ENDBRANCH  18  19
ENDBRANCH   1  18
TORSDOF 28
ENDMDL
MODEL 8
REMARK VINA RESULT:    -0.283      2.430      5.720
REMARK INTER + INTRA:          -7.888
REMARK INTER:                  -0.956
REMARK INTRA:                  -6.932
REMARK UNBOUND:                -7.141
REMARK SMILES CCCCCCCCCCCCCCCCCCCCCCCCCCCCCC(=O)[O-]
REMARK SMILES IDX 16 1 17 2 18 3 19 4 20 5 21 6 22 7 23 8 24 9 25 10 26 11
REMARK SMILES IDX 27 12 28 13 29 14 30 15 31 16 32 17 15 18 14 19 13 20 12 21
REMARK SMILES IDX 11 22 10 23 9 24 8 25 7 26 6 27 5 28 4 29 3 30 2 31 1 32
REMARK H PARENT
REMARK Flexibility Score: inf
ROOT
ATOM      1  C   UNL     1      35.280   4.563  34.561  1.00  0.00     0.000 C 
ENDROOT
BRANCH   1   2
ATOM      2  C   UNL     1      34.263   4.500  35.717  1.00  0.00     0.000 C 
BRANCH   2   3
ATOM      3  C   UNL     1      34.907   4.494  37.119  1.00  0.00     0.000 C 
BRANCH   3   4
ATOM      4  C   UNL     1      34.835   5.866  37.815  1.00  0.00     0.000 C 
BRANCH   4   5
ATOM      5  C   UNL     1      36.129   6.218  38.573  1.00  0.00     0.000 C 
BRANCH   5   6
ATOM      6  C   UNL     1      37.081   5.031  38.819  1.00  0.00     0.000 C 
BRANCH   6   7
ATOM      7  C   UNL     1      38.334   5.360  39.656  1.00  0.00     0.000 C 
BRANCH   7   8
ATOM      8  C   UNL     1      39.426   4.276  39.647  1.00  0.00     0.000 C 
BRANCH   8   9
ATOM      9  C   UNL     1      40.771   4.797  39.114  1.00  0.00     0.000 C 
BRANCH   9  10
ATOM     10  C   UNL     1      40.621   6.018  38.188  1.00  0.00     0.000 C 
BRANCH  10  11
ATOM     11  C   UNL     1      41.177   7.343  38.747  1.00  0.00     0.000 C 
BRANCH  11  12
ATOM     12  C   UNL     1      40.252   8.544  38.489  1.00  0.00     0.000 C 
BRANCH  12  13
ATOM     13  C   UNL     1      39.118   8.212  37.504  1.00  0.00     0.006 C 
BRANCH  13  14
ATOM     14  C   UNL     1      38.860   9.354  36.512  1.00  0.00     0.053 C 
BRANCH  14  15
ATOM     15  C   UNL     1      39.430   9.024  35.168  1.00  0.00     0.041 C 
ATOM     16  O   UNL     1      38.971   9.580  34.134  1.00  0.00    -0.550 OA
ATOM     17  O   UNL     1      40.451   8.089  35.051  1.00  0.00    -0.550 OA
ENDBRANCH  14  15
ENDBRANCH  13  14
ENDBRANCH  12  13
ENDBRANCH  11  12
ENDBRANCH  10  11
ENDBRANCH   9  10
ENDBRANCH   8   9
ENDBRANCH   7   8
ENDBRANCH   6   7
ENDBRANCH   5   6
ENDBRANCH   4   5
ENDBRANCH   3   4
ENDBRANCH   2   3
ENDBRANCH   1   2
BRANCH   1  18
ATOM     18  C   UNL     1      35.913   5.945  34.310  1.00  0.00     0.000 C 
BRANCH  18  19
ATOM     19  C   UNL     1      37.444   5.940  34.142  1.00  0.00     0.000 C 
BRANCH  19  20
ATOM     20  C   UNL     1      38.177   5.430  35.391  1.00  0.00     0.000 C 
BRANCH  20  21
ATOM     21  C   UNL     1      39.462   4.682  35.008  1.00  0.00     0.000 C 
BRANCH  21  22
ATOM     22  C   UNL     1      39.480   3.229  35.513  1.00  0.00     0.000 C 
BRANCH  22  23
ATOM     23  C   UNL     1      38.224   2.791  36.295  1.00  0.00     0.000 C 
BRANCH  23  24
ATOM     24  C   UNL     1      37.424   1.641  35.655  1.00  0.00    -0.000 C 
BRANCH  24  25
ATOM     25  C   UNL     1      36.341   1.079  36.586  1.00  0.00    -0.000 C 
BRANCH  25  26
ATOM     26  C   UNL     1      36.666   1.386  38.055  1.00  0.00    -0.000 C 
BRANCH  26  27
ATOM     27  C   UNL     1      35.477   1.136  39.001  1.00  0.00    -0.000 C 
BRANCH  27  28
ATOM     28  C   UNL     1      35.272   2.198  40.097  1.00  0.00    -0.000 C 
BRANCH  28  29
ATOM     29  C   UNL     1      36.416   2.232  41.124  1.00  0.00    -0.000 C 
BRANCH  29  30
ATOM     30  C   UNL     1      36.288   3.395  42.125  1.00  0.00    -0.000 C 
BRANCH  30  31
ATOM     31  C   UNL     1      35.051   4.290  41.929  1.00  0.00    -0.003 C 
ATOM     32  C   UNL     1      35.347   5.776  42.124  1.00  0.00     0.004 C 
ENDBRANCH  30  31
ENDBRANCH  29  30
ENDBRANCH  28  29
ENDBRANCH  27  28
ENDBRANCH  26  27
ENDBRANCH  25  26
ENDBRANCH  24  25
ENDBRANCH  23  24
ENDBRANCH  22  23
ENDBRANCH  21  22
ENDBRANCH  20  21
ENDBRANCH  19  20
ENDBRANCH  18  19
ENDBRANCH   1  18
TORSDOF 28
ENDMDL
