MODEL 1
REMARK VINA RESULT:    -4.300      0.000      0.000
REMARK INTER + INTRA:          -9.276
REMARK INTER:                  -7.568
REMARK INTRA:                  -1.709
REMARK UNBOUND:                -1.709
REMARK SMILES CCCCCCCCCCCCCCC(=O)[O-]
REMARK SMILES IDX 9 1 10 2 11 3 12 4 13 5 14 6 15 7 16 8 17 9 8 10 7 11 6 12
REMARK SMILES IDX 5 13 4 14 3 15 2 16 1 17
REMARK H PARENT
REMARK Flexibility Score: inf
ROOT
ATOM      1  C   UNL     1      -8.474  26.505  21.438  1.00  0.00     0.000 C 
ENDROOT
BRANCH   1   2
ATOM      2  C   UNL     1      -7.413  25.672  22.180  1.00  0.00     0.000 C 
BRANCH   2   3
ATOM      3  C   UNL     1      -7.380  25.966  23.688  1.00  0.00     0.000 C 
BRANCH   3   4
ATOM      4  C   UNL     1      -8.683  25.567  24.399  1.00  0.00     0.000 C 
BRANCH   4   5
ATOM      5  C   UNL     1      -9.208  26.719  25.267  1.00  0.00     0.006 C 
BRANCH   5   6
ATOM      6  C   UNL     1      -8.710  28.070  24.745  1.00  0.00     0.053 C 
BRANCH   6   7
ATOM      7  C   UNL     1      -9.858  28.896  24.255  1.00  0.00     0.041 C 
ATOM      8  O   UNL     1     -10.075  30.034  24.749  1.00  0.00    -0.550 OA
ATOM      9  O   UNL     1     -10.717  28.390  23.288  1.00  0.00    -0.550 OA
ENDBRANCH   6   7
ENDBRANCH   5   6
ENDBRANCH   4   5
ENDBRANCH   3   4
ENDBRANCH   2   3
ENDBRANCH   1   2
BRANCH   1  10
ATOM     10  C   UNL     1      -9.493  25.630  20.690  1.00  0.00     0.000 C 
BRANCH  10  11
ATOM     11  C   UNL     1      -8.863  24.862  19.514  1.00  0.00    -0.000 C 
BRANCH  11  12
ATOM     12  C   UNL     1      -9.918  24.253  18.578  1.00  0.00    -0.000 C 
BRANCH  12  13
ATOM     13  C   UNL     1     -11.034  23.515  19.339  1.00  0.00    -0.000 C 
BRANCH  13  14
ATOM     14  C   UNL     1     -10.892  21.984  19.269  1.00  0.00    -0.000 C 
BRANCH  14  15
ATOM     15  C   UNL     1     -10.406  21.316  20.570  1.00  0.00    -0.000 C 
BRANCH  15  16
ATOM     16  C   UNL     1     -10.255  22.265  21.772  1.00  0.00    -0.003 C 
ATOM     17  C   UNL     1      -8.847  22.255  22.366  1.00  0.00     0.004 C 
ENDBRANCH  15  16
ENDBRANCH  14  15
ENDBRANCH  13  14
ENDBRANCH  12  13
ENDBRANCH  11  12
ENDBRANCH  10  11
ENDBRANCH   1  10
TORSDOF 13
ENDMDL
MODEL 2
REMARK VINA RESULT:    -4.196      1.381      2.361
REMARK INTER + INTRA:          -9.093
REMARK INTER:                  -7.097
REMARK INTRA:                  -1.996
REMARK UNBOUND:                -1.709
REMARK SMILES CCCCCCCCCCCCCCC(=O)[O-]
REMARK SMILES IDX 9 1 10 2 11 3 12 4 13 5 14 6 15 7 16 8 17 9 8 10 7 11 6 12
REMARK SMILES IDX 5 13 4 14 3 15 2 16 1 17
REMARK H PARENT
REMARK Flexibility Score: inf
ROOT
ATOM      1  C   UNL     1      -7.411  26.097  23.872  1.00  0.00     0.000 C 
ENDROOT
BRANCH   1   2
ATOM      2  C   UNL     1      -8.642  26.102  24.795  1.00  0.00     0.000 C 
BRANCH   2   3
ATOM      3  C   UNL     1      -9.890  25.514  24.119  1.00  0.00     0.000 C 
BRANCH   3   4
ATOM      4  C   UNL     1     -10.958  26.577  23.814  1.00  0.00     0.000 C 
BRANCH   4   5
ATOM      5  C   UNL     1     -10.676  27.873  24.585  1.00  0.00     0.006 C 
BRANCH   5   6
ATOM      6  C   UNL     1     -11.113  29.099  23.776  1.00  0.00     0.053 C 
BRANCH   6   7
ATOM      7  C   UNL     1     -10.161  29.348  22.649  1.00  0.00     0.041 C 
ATOM      8  O   UNL     1      -8.953  29.614  22.889  1.00  0.00    -0.550 OA
ATOM      9  O   UNL     1     -10.617  29.335  21.338  1.00  0.00    -0.550 OA
ENDBRANCH   6   7
ENDBRANCH   5   6
ENDBRANCH   4   5
ENDBRANCH   3   4
ENDBRANCH   2   3
ENDBRANCH   1   2
BRANCH   1  10
ATOM     10  C   UNL     1      -7.737  25.590  22.457  1.00  0.00     0.000 C 
BRANCH  10  11
ATOM     11  C   UNL     1      -7.984  26.737  21.460  1.00  0.00    -0.000 C 
BRANCH  11  12
ATOM     12  C   UNL     1      -8.915  26.325  20.309  1.00  0.00    -0.000 C 
BRANCH  12  13
ATOM     13  C   UNL     1      -9.141  24.804  20.244  1.00  0.00    -0.000 C 
BRANCH  13  14
ATOM     14  C   UNL     1     -10.607  24.408  20.492  1.00  0.00    -0.000 C 
BRANCH  14  15
ATOM     15  C   UNL     1     -10.814  23.310  21.554  1.00  0.00    -0.000 C 
BRANCH  15  16
ATOM     16  C   UNL     1      -9.877  22.096  21.425  1.00  0.00    -0.003 C 
ATOM     17  C   UNL     1      -8.810  22.050  22.518  1.00  0.00     0.004 C 
ENDBRANCH  15  16
ENDBRANCH  14  15
ENDBRANCH  13  14
ENDBRANCH  12  13
ENDBRANCH  11  12
ENDBRANCH  10  11
ENDBRANCH   1  10
TORSDOF 13
ENDMDL
MODEL 3
REMARK VINA RESULT:    -4.176      1.409      2.680
REMARK INTER + INTRA:          -9.059
REMARK INTER:                  -7.551
REMARK INTRA:                  -1.507
REMARK UNBOUND:                -1.709
REMARK SMILES CCCCCCCCCCCCCCC(=O)[O-]
REMARK SMILES IDX 9 1 10 2 11 3 12 4 13 5 14 6 15 7 16 8 17 9 8 10 7 11 6 12
REMARK SMILES IDX 5 13 4 14 3 15 2 16 1 17
REMARK H PARENT
REMARK Flexibility Score: inf
ROOT
ATOM      1  C   UNL     1      -7.819  24.574  21.823  1.00  0.00     0.000 C 
ENDROOT
BRANCH   1   2
ATOM      2  C   UNL     1      -7.564  25.905  22.553  1.00  0.00     0.000 C 
BRANCH   2   3
ATOM      3  C   UNL     1      -7.771  25.794  24.072  1.00  0.00     0.000 C 
BRANCH   3   4
ATOM      4  C   UNL     1      -8.120  27.141  24.724  1.00  0.00     0.000 C 
BRANCH   4   5
ATOM      5  C   UNL     1      -9.522  27.604  24.309  1.00  0.00     0.006 C 
BRANCH   5   6
ATOM      6  C   UNL     1      -9.444  28.763  23.310  1.00  0.00     0.053 C 
BRANCH   6   7
ATOM      7  C   UNL     1     -10.302  28.482  22.116  1.00  0.00     0.041 C 
ATOM      8  O   UNL     1     -10.553  29.398  21.288  1.00  0.00    -0.550 OA
ATOM      9  O   UNL     1     -10.862  27.224  21.943  1.00  0.00    -0.550 OA
ENDBRANCH   6   7
ENDBRANCH   5   6
ENDBRANCH   4   5
ENDBRANCH   3   4
ENDBRANCH   2   3
ENDBRANCH   1   2
BRANCH   1  10
ATOM     10  C   UNL     1      -9.083  23.858  22.326  1.00  0.00     0.000 C 
BRANCH  10  11
ATOM     11  C   UNL     1      -8.907  22.331  22.404  1.00  0.00    -0.000 C 
BRANCH  11  12
ATOM     12  C   UNL     1      -9.764  21.586  21.369  1.00  0.00    -0.000 C 
BRANCH  12  13
ATOM     13  C   UNL     1     -10.777  22.506  20.664  1.00  0.00    -0.000 C 
BRANCH  13  14
ATOM     14  C   UNL     1     -10.757  22.352  19.133  1.00  0.00    -0.000 C 
BRANCH  14  15
ATOM     15  C   UNL     1     -11.125  23.625  18.346  1.00  0.00    -0.000 C 
BRANCH  15  16
ATOM     16  C   UNL     1     -11.015  24.937  19.144  1.00  0.00    -0.003 C 
ATOM     17  C   UNL     1      -9.707  25.683  18.884  1.00  0.00     0.004 C 
ENDBRANCH  15  16
ENDBRANCH  14  15
ENDBRANCH  13  14
ENDBRANCH  12  13
ENDBRANCH  11  12
ENDBRANCH  10  11
ENDBRANCH   1  10
TORSDOF 13
ENDMDL
MODEL 4
REMARK VINA RESULT:    -4.060      3.256      6.385
REMARK INTER + INTRA:          -8.853
REMARK INTER:                  -6.861
REMARK INTRA:                  -1.992
REMARK UNBOUND:                -1.709
REMARK SMILES CCCCCCCCCCCCCCC(=O)[O-]
REMARK SMILES IDX 9 1 10 2 11 3 12 4 13 5 14 6 15 7 16 8 17 9 8 10 7 11 6 12
REMARK SMILES IDX 5 13 4 14 3 15 2 16 1 17
REMARK H PARENT
REMARK Flexibility Score: inf
ROOT
ATOM      1  C   UNL     1      -7.738  25.763  22.355  1.00  0.00     0.000 C 
ENDROOT
BRANCH   1   2
ATOM      2  C   UNL     1      -8.128  26.994  21.517  1.00  0.00     0.000 C 
BRANCH   2   3
ATOM      3  C   UNL     1      -9.265  26.698  20.526  1.00  0.00     0.000 C 
BRANCH   3   4
ATOM      4  C   UNL     1      -9.173  25.289  19.920  1.00  0.00     0.000 C 
BRANCH   4   5
ATOM      5  C   UNL     1     -10.503  24.540  20.072  1.00  0.00     0.006 C 
BRANCH   5   6
ATOM      6  C   UNL     1     -10.331  23.284  20.933  1.00  0.00     0.053 C 
BRANCH   6   7
ATOM      7  C   UNL     1     -10.636  22.057  20.133  1.00  0.00     0.041 C 
ATOM      8  O   UNL     1     -10.887  20.968  20.716  1.00  0.00    -0.550 OA
ATOM      9  O   UNL     1     -10.598  22.102  18.746  1.00  0.00    -0.550 OA
ENDBRANCH   6   7
ENDBRANCH   5   6
ENDBRANCH   4   5
ENDBRANCH   3   4
ENDBRANCH   2   3
ENDBRANCH   1   2
BRANCH   1  10
ATOM     10  C   UNL     1      -7.422  26.120  23.816  1.00  0.00     0.000 C 
BRANCH  10  11
ATOM     11  C   UNL     1      -8.557  25.727  24.780  1.00  0.00    -0.000 C 
BRANCH  11  12
ATOM     12  C   UNL     1      -9.835  25.301  24.041  1.00  0.00    -0.000 C 
BRANCH  12  13
ATOM     13  C   UNL     1     -11.042  26.193  24.380  1.00  0.00    -0.000 C 
BRANCH  13  14
ATOM     14  C   UNL     1     -10.704  27.289  25.405  1.00  0.00    -0.000 C 
BRANCH  14  15
ATOM     15  C   UNL     1     -10.973  28.731  24.930  1.00  0.00    -0.000 C 
BRANCH  15  16
ATOM     16  C   UNL     1     -10.201  29.154  23.668  1.00  0.00    -0.003 C 
ATOM     17  C   UNL     1      -8.845  29.784  23.984  1.00  0.00     0.004 C 
ENDBRANCH  15  16
ENDBRANCH  14  15
ENDBRANCH  13  14
ENDBRANCH  12  13
ENDBRANCH  11  12
ENDBRANCH  10  11
ENDBRANCH   1  10
TORSDOF 13
ENDMDL
MODEL 5
REMARK VINA RESULT:    -4.020      3.105      5.733
REMARK INTER + INTRA:          -8.784
REMARK INTER:                  -6.654
REMARK INTRA:                  -2.129
REMARK UNBOUND:                -1.709
REMARK SMILES CCCCCCCCCCCCCCC(=O)[O-]
REMARK SMILES IDX 9 1 10 2 11 3 12 4 13 5 14 6 15 7 16 8 17 9 8 10 7 11 6 12
REMARK SMILES IDX 5 13 4 14 3 15 2 16 1 17
REMARK H PARENT
REMARK Flexibility Score: inf
ROOT
ATOM      1  C   UNL     1      -9.636  29.231  22.922  1.00  0.00     0.000 C 
ENDROOT
BRANCH   1   2
ATOM      2  C   UNL     1     -10.919  28.420  22.670  1.00  0.00     0.000 C 
BRANCH   2   3
ATOM      3  C   UNL     1     -10.709  27.279  21.662  1.00  0.00     0.000 C 
BRANCH   3   4
ATOM      4  C   UNL     1      -9.278  27.238  21.102  1.00  0.00     0.000 C 
BRANCH   4   5
ATOM      5  C   UNL     1      -9.258  26.628  19.694  1.00  0.00     0.006 C 
BRANCH   5   6
ATOM      6  C   UNL     1     -10.559  25.873  19.405  1.00  0.00     0.053 C 
BRANCH   6   7
ATOM      7  C   UNL     1     -10.351  24.874  18.311  1.00  0.00     0.041 C 
ATOM      8  O   UNL     1     -10.081  25.261  17.143  1.00  0.00    -0.550 OA
ATOM      9  O   UNL     1     -10.503  23.517  18.569  1.00  0.00    -0.550 OA
ENDBRANCH   6   7
ENDBRANCH   5   6
ENDBRANCH   4   5
ENDBRANCH   3   4
ENDBRANCH   2   3
ENDBRANCH   1   2
BRANCH   1  10
ATOM     10  C   UNL     1      -9.104  29.064  24.354  1.00  0.00     0.000 C 
BRANCH  10  11
ATOM     11  C   UNL     1      -9.884  28.008  25.156  1.00  0.00    -0.000 C 
BRANCH  11  12
ATOM     12  C   UNL     1      -9.013  26.804  25.548  1.00  0.00    -0.000 C 
BRANCH  12  13
ATOM     13  C   UNL     1      -7.690  26.749  24.763  1.00  0.00    -0.000 C 
BRANCH  13  14
ATOM     14  C   UNL     1      -7.683  25.652  23.683  1.00  0.00    -0.000 C 
BRANCH  14  15
ATOM     15  C   UNL     1      -8.891  24.696  23.720  1.00  0.00    -0.000 C 
BRANCH  15  16
ATOM     16  C   UNL     1      -9.065  23.820  22.466  1.00  0.00    -0.003 C 
ATOM     17  C   UNL     1     -10.515  23.401  22.229  1.00  0.00     0.004 C 
ENDBRANCH  15  16
ENDBRANCH  14  15
ENDBRANCH  13  14
ENDBRANCH  12  13
ENDBRANCH  11  12
ENDBRANCH  10  11
ENDBRANCH   1  10
TORSDOF 13
ENDMDL
MODEL 6
REMARK VINA RESULT:    -3.987      2.787      6.171
REMARK INTER + INTRA:          -8.726
REMARK INTER:                  -7.072
REMARK INTRA:                  -1.655
REMARK UNBOUND:                -1.709
REMARK SMILES CCCCCCCCCCCCCCC(=O)[O-]
REMARK SMILES IDX 9 1 10 2 11 3 12 4 13 5 14 6 15 7 16 8 17 9 8 10 7 11 6 12
REMARK SMILES IDX 5 13 4 14 3 15 2 16 1 17
REMARK H PARENT
REMARK Flexibility Score: inf
ROOT
ATOM      1  C   UNL     1     -10.883  27.883  21.823  1.00  0.00     0.000 C 
ENDROOT
BRANCH   1   2
ATOM      2  C   UNL     1     -10.049  27.408  20.620  1.00  0.00     0.000 C 
BRANCH   2   3
ATOM      3  C   UNL     1     -10.734  26.277  19.837  1.00  0.00     0.000 C 
BRANCH   3   4
ATOM      4  C   UNL     1      -9.730  25.299  19.206  1.00  0.00     0.000 C 
BRANCH   4   5
ATOM      5  C   UNL     1     -10.123  23.845  19.499  1.00  0.00     0.006 C 
BRANCH   5   6
ATOM      6  C   UNL     1     -10.385  23.639  20.995  1.00  0.00     0.053 C 
BRANCH   6   7
ATOM      7  C   UNL     1      -9.873  22.303  21.435  1.00  0.00     0.041 C 
ATOM      8  O   UNL     1     -10.376  21.247  20.966  1.00  0.00    -0.550 OA
ATOM      9  O   UNL     1      -8.875  22.223  22.398  1.00  0.00    -0.550 OA
ENDBRANCH   6   7
ENDBRANCH   5   6
ENDBRANCH   4   5
ENDBRANCH   3   4
ENDBRANCH   2   3
ENDBRANCH   1   2
BRANCH   1  10
ATOM     10  C   UNL     1     -10.474  29.284  22.307  1.00  0.00     0.000 C 
BRANCH  10  11
ATOM     11  C   UNL     1      -9.449  29.238  23.454  1.00  0.00    -0.000 C 
BRANCH  11  12
ATOM     12  C   UNL     1     -10.083  28.833  24.794  1.00  0.00    -0.000 C 
BRANCH  12  13
ATOM     13  C   UNL     1      -9.974  27.324  25.072  1.00  0.00    -0.000 C 
BRANCH  13  14
ATOM     14  C   UNL     1      -8.595  26.917  25.621  1.00  0.00    -0.000 C 
BRANCH  14  15
ATOM     15  C   UNL     1      -7.625  26.331  24.576  1.00  0.00    -0.000 C 
BRANCH  15  16
ATOM     16  C   UNL     1      -8.298  25.600  23.402  1.00  0.00    -0.003 C 
ATOM     17  C   UNL     1      -7.369  25.419  22.202  1.00  0.00     0.004 C 
ENDBRANCH  15  16
ENDBRANCH  14  15
ENDBRANCH  13  14
ENDBRANCH  12  13
ENDBRANCH  11  12
ENDBRANCH  10  11
ENDBRANCH   1  10
TORSDOF 13
ENDMDL
MODEL 7
REMARK VINA RESULT:    -3.932      2.888      6.420
REMARK INTER + INTRA:          -8.629
REMARK INTER:                  -6.944
REMARK INTRA:                  -1.685
REMARK UNBOUND:                -1.709
REMARK SMILES CCCCCCCCCCCCCCC(=O)[O-]
REMARK SMILES IDX 9 1 10 2 11 3 12 4 13 5 14 6 15 7 16 8 17 9 8 10 7 11 6 12
REMARK SMILES IDX 5 13 4 14 3 15 2 16 1 17
REMARK H PARENT
REMARK Flexibility Score: inf
ROOT
ATOM      1  C   UNL     1      -7.994  27.087  21.571  1.00  0.00     0.000 C 
ENDROOT
BRANCH   1   2
ATOM      2  C   UNL     1      -9.421  26.965  21.008  1.00  0.00     0.000 C 
BRANCH   2   3
ATOM      3  C   UNL     1      -9.949  25.522  21.044  1.00  0.00     0.000 C 
BRANCH   3   4
ATOM      4  C   UNL     1     -11.026  25.310  22.120  1.00  0.00     0.000 C 
BRANCH   4   5
ATOM      5  C   UNL     1     -11.063  23.846  22.577  1.00  0.00     0.006 C 
BRANCH   5   6
ATOM      6  C   UNL     1     -11.124  22.898  21.376  1.00  0.00     0.053 C 
BRANCH   6   7
ATOM      7  C   UNL     1     -10.002  21.910  21.432  1.00  0.00     0.041 C 
ATOM      8  O   UNL     1     -10.053  20.854  20.747  1.00  0.00    -0.550 OA
ATOM      9  O   UNL     1      -8.921  22.131  22.276  1.00  0.00    -0.550 OA
ENDBRANCH   6   7
ENDBRANCH   5   6
ENDBRANCH   4   5
ENDBRANCH   3   4
ENDBRANCH   2   3
ENDBRANCH   1   2
BRANCH   1  10
ATOM     10  C   UNL     1      -7.520  25.798  22.262  1.00  0.00     0.000 C 
BRANCH  10  11
ATOM     11  C   UNL     1      -7.236  26.000  23.761  1.00  0.00    -0.000 C 
BRANCH  11  12
ATOM     12  C   UNL     1      -8.414  25.564  24.647  1.00  0.00    -0.000 C 
BRANCH  12  13
ATOM     13  C   UNL     1      -8.923  26.696  25.556  1.00  0.00    -0.000 C 
BRANCH  13  14
ATOM     14  C   UNL     1      -9.283  27.972  24.775  1.00  0.00    -0.000 C 
BRANCH  14  15
ATOM     15  C   UNL     1     -10.786  28.313  24.742  1.00  0.00    -0.000 C 
BRANCH  15  16
ATOM     16  C   UNL     1     -11.125  29.708  24.188  1.00  0.00    -0.003 C 
ATOM     17  C   UNL     1     -10.821  30.831  25.179  1.00  0.00     0.004 C 
ENDBRANCH  15  16
ENDBRANCH  14  15
ENDBRANCH  13  14
ENDBRANCH  12  13
ENDBRANCH  11  12
ENDBRANCH  10  11
ENDBRANCH   1  10
TORSDOF 13
ENDMDL
MODEL 8
REMARK VINA RESULT:    -3.869      3.160      6.144
REMARK INTER + INTRA:          -8.517
REMARK INTER:                  -6.760
REMARK INTRA:                  -1.757
REMARK UNBOUND:                -1.709
REMARK SMILES CCCCCCCCCCCCCCC(=O)[O-]
REMARK SMILES IDX 9 1 10 2 11 3 12 4 13 5 14 6 15 7 16 8 17 9 8 10 7 11 6 12
REMARK SMILES IDX 5 13 4 14 3 15 2 16 1 17
REMARK H PARENT
REMARK Flexibility Score: inf
ROOT
ATOM      1  C   UNL     1      -9.818  25.478  23.931  1.00  0.00     0.000 C 
ENDROOT
BRANCH   1   2
ATOM      2  C   UNL     1      -8.480  24.839  23.518  1.00  0.00     0.000 C 
BRANCH   2   3
ATOM      3  C   UNL     1      -8.574  24.082  22.184  1.00  0.00     0.000 C 
BRANCH   3   4
ATOM      4  C   UNL     1      -8.950  22.603  22.366  1.00  0.00     0.000 C 
BRANCH   4   5
ATOM      5  C   UNL     1     -10.439  22.376  22.072  1.00  0.00     0.006 C 
BRANCH   5   6
ATOM      6  C   UNL     1     -10.881  23.169  20.839  1.00  0.00     0.053 C 
BRANCH   6   7
ATOM      7  C   UNL     1     -10.771  22.326  19.608  1.00  0.00     0.041 C 
ATOM      8  O   UNL     1     -10.757  22.866  18.470  1.00  0.00    -0.550 OA
ATOM      9  O   UNL     1     -10.732  20.942  19.714  1.00  0.00    -0.550 OA
ENDBRANCH   6   7
ENDBRANCH   5   6
ENDBRANCH   4   5
ENDBRANCH   3   4
ENDBRANCH   2   3
ENDBRANCH   1   2
BRANCH   1  10
ATOM     10  C   UNL     1      -9.660  26.490  25.077  1.00  0.00     0.000 C 
BRANCH  10  11
ATOM     11  C   UNL     1      -8.581  27.548  24.787  1.00  0.00    -0.000 C 
BRANCH  11  12
ATOM     12  C   UNL     1      -9.180  28.900  24.367  1.00  0.00    -0.000 C 
BRANCH  12  13
ATOM     13  C   UNL     1      -9.266  29.063  22.839  1.00  0.00    -0.000 C 
BRANCH  13  14
ATOM     14  C   UNL     1     -10.682  28.810  22.292  1.00  0.00    -0.000 C 
BRANCH  14  15
ATOM     15  C   UNL     1     -10.739  27.994  20.986  1.00  0.00    -0.000 C 
BRANCH  15  16
ATOM     16  C   UNL     1      -9.498  27.129  20.705  1.00  0.00    -0.003 C 
ATOM     17  C   UNL     1      -9.602  26.345  19.398  1.00  0.00     0.004 C 
ENDBRANCH  15  16
ENDBRANCH  14  15
ENDBRANCH  13  14
ENDBRANCH  12  13
ENDBRANCH  11  12
ENDBRANCH  10  11
ENDBRANCH   1  10
TORSDOF 13
ENDMDL
MODEL 9
REMARK VINA RESULT:    -3.783      1.491      2.993
REMARK INTER + INTRA:          -8.367
REMARK INTER:                  -6.833
REMARK INTRA:                  -1.533
REMARK UNBOUND:                -1.709
REMARK SMILES CCCCCCCCCCCCCCC(=O)[O-]
REMARK SMILES IDX 9 1 10 2 11 3 12 4 13 5 14 6 15 7 16 8 17 9 8 10 7 11 6 12
REMARK SMILES IDX 5 13 4 14 3 15 2 16 1 17
REMARK H PARENT
REMARK Flexibility Score: inf
ROOT
ATOM      1  C   UNL     1      -8.128  26.903  21.704  1.00  0.00     0.000 C 
ENDROOT
BRANCH   1   2
ATOM      2  C   UNL     1      -9.402  26.730  20.858  1.00  0.00     0.000 C 
BRANCH   2   3
ATOM      3  C   UNL     1     -10.601  27.502  21.432  1.00  0.00     0.000 C 
BRANCH   3   4
ATOM      4  C   UNL     1     -10.185  28.789  22.161  1.00  0.00     0.000 C 
BRANCH   4   5
ATOM      5  C   UNL     1     -11.014  28.987  23.437  1.00  0.00     0.006 C 
BRANCH   5   6
ATOM      6  C   UNL     1     -10.110  29.055  24.673  1.00  0.00     0.053 C 
BRANCH   6   7
ATOM      7  C   UNL     1      -9.651  27.685  25.060  1.00  0.00     0.041 C 
ATOM      8  O   UNL     1      -8.476  27.506  25.477  1.00  0.00    -0.550 OA
ATOM      9  O   UNL     1     -10.504  26.598  24.914  1.00  0.00    -0.550 OA
ENDBRANCH   6   7
ENDBRANCH   5   6
ENDBRANCH   4   5
ENDBRANCH   3   4
ENDBRANCH   2   3
ENDBRANCH   1   2
BRANCH   1  10
ATOM     10  C   UNL     1      -7.801  25.656  22.541  1.00  0.00     0.000 C 
BRANCH  10  11
ATOM     11  C   UNL     1      -8.086  24.345  21.785  1.00  0.00    -0.000 C 
BRANCH  11  12
ATOM     12  C   UNL     1      -9.235  23.542  22.413  1.00  0.00    -0.000 C 
BRANCH  12  13
ATOM     13  C   UNL     1      -9.117  22.030  22.149  1.00  0.00    -0.000 C 
BRANCH  13  14
ATOM     14  C   UNL     1     -10.145  21.522  21.123  1.00  0.00    -0.000 C 
BRANCH  14  15
ATOM     15  C   UNL     1     -10.956  22.624  20.414  1.00  0.00    -0.000 C 
BRANCH  15  16
ATOM     16  C   UNL     1     -10.720  22.731  18.897  1.00  0.00    -0.003 C 
ATOM     17  C   UNL     1     -10.249  24.119  18.465  1.00  0.00     0.004 C 
ENDBRANCH  15  16
ENDBRANCH  14  15
ENDBRANCH  13  14
ENDBRANCH  12  13
ENDBRANCH  11  12
ENDBRANCH  10  11
ENDBRANCH   1  10
TORSDOF 13
ENDMDL
