MODEL 1
REMARK VINA RESULT:    -3.808      0.000      0.000
REMARK INTER + INTRA:          -5.552
REMARK INTER:                  -5.144
REMARK INTRA:                  -0.408
REMARK UNBOUND:                -0.408
REMARK SMILES CCCCCCC=CC(=O)[O-]
REMARK SMILES IDX 5 1 6 2 7 3 8 4 9 5 10 6 11 7 4 8 3 9 2 10 1 11
REMARK H PARENT
REMARK Flexibility Score: inf
ROOT
ATOM      1  C   UNL     1      12.218  -3.773  30.559  1.00  0.00     0.004 C 
ENDROOT
BRANCH   1   2
ATOM      2  C   UNL     1      10.992  -4.634  30.214  1.00  0.00     0.027 C 
BRANCH   2   3
ATOM      3  C   UNL     1      11.148  -5.285  28.870  1.00  0.00    -0.025 C 
ATOM      4  C   UNL     1      10.430  -4.886  27.813  1.00  0.00     0.020 C 
BRANCH   4   5
ATOM      5  C   UNL     1      10.575  -5.499  26.484  1.00  0.00     0.064 C 
ATOM      6  O   UNL     1      11.712  -5.703  25.981  1.00  0.00    -0.545 OA
ATOM      7  O   UNL     1       9.438  -5.861  25.772  1.00  0.00    -0.545 OA
ENDBRANCH   4   5
ENDBRANCH   2   3
ENDBRANCH   1   2
BRANCH   1   8
ATOM      8  C   UNL     1      13.298  -4.559  31.317  1.00  0.00     0.000 C 
BRANCH   8   9
ATOM      9  C   UNL     1      12.707  -5.599  32.281  1.00  0.00    -0.000 C 
BRANCH   9  10
ATOM     10  C   UNL     1      12.550  -5.014  33.689  1.00  0.00    -0.003 C 
ATOM     11  C   UNL     1      11.079  -4.927  34.089  1.00  0.00     0.004 C 
ENDBRANCH   9  10
ENDBRANCH   8   9
ENDBRANCH   1   8
TORSDOF 6
ENDMDL
MODEL 2
REMARK VINA RESULT:    -3.794      1.697      2.280
REMARK INTER + INTRA:          -5.532
REMARK INTER:                  -5.055
REMARK INTRA:                  -0.477
REMARK UNBOUND:                -0.408
REMARK SMILES CCCCCCC=CC(=O)[O-]
REMARK SMILES IDX 5 1 6 2 7 3 8 4 9 5 10 6 11 7 4 8 3 9 2 10 1 11
REMARK H PARENT
REMARK Flexibility Score: inf
ROOT
ATOM      1  C   UNL     1      12.481  -4.905  31.133  1.00  0.00     0.004 C 
ENDROOT
BRANCH   1   2
ATOM      2  C   UNL     1      12.677  -3.605  30.337  1.00  0.00     0.027 C 
BRANCH   2   3
ATOM      3  C   UNL     1      11.528  -3.365  29.399  1.00  0.00    -0.025 C 
ATOM      4  C   UNL     1      10.492  -4.209  29.335  1.00  0.00     0.020 C 
BRANCH   4   5
ATOM      5  C   UNL     1       9.350  -3.988  28.434  1.00  0.00     0.064 C 
ATOM      6  O   UNL     1       8.419  -3.197  28.744  1.00  0.00    -0.545 OA
ATOM      7  O   UNL     1       9.297  -4.662  27.221  1.00  0.00    -0.545 OA
ENDBRANCH   4   5
ENDBRANCH   2   3
ENDBRANCH   1   2
BRANCH   1   8
ATOM      8  C   UNL     1      13.351  -4.961  32.397  1.00  0.00     0.000 C 
BRANCH   8   9
ATOM      9  C   UNL     1      12.534  -5.243  33.667  1.00  0.00    -0.000 C 
BRANCH   9  10
ATOM     10  C   UNL     1      11.144  -4.603  33.577  1.00  0.00    -0.003 C 
ATOM     11  C   UNL     1      11.185  -3.134  33.991  1.00  0.00     0.004 C 
ENDBRANCH   9  10
ENDBRANCH   8   9
ENDBRANCH   1   8
TORSDOF 6
ENDMDL
MODEL 3
REMARK VINA RESULT:    -3.780      2.255      3.176
REMARK INTER + INTRA:          -5.514
REMARK INTER:                  -4.817
REMARK INTRA:                  -0.697
REMARK UNBOUND:                -0.408
REMARK SMILES CCCCCCC=CC(=O)[O-]
REMARK SMILES IDX 5 1 6 2 7 3 8 4 9 5 10 6 11 7 4 8 3 9 2 10 1 11
REMARK H PARENT
REMARK Flexibility Score: inf
ROOT
ATOM      1  C   UNL     1      13.052  -5.199  32.263  1.00  0.00     0.004 C 
ENDROOT
BRANCH   1   2
ATOM      2  C   UNL     1      11.928  -5.662  31.322  1.00  0.00     0.027 C 
BRANCH   2   3
ATOM      3  C   UNL     1      11.727  -4.687  30.197  1.00  0.00    -0.025 C 
ATOM      4  C   UNL     1      12.583  -3.681  29.984  1.00  0.00     0.020 C 
BRANCH   4   5
ATOM      5  C   UNL     1      12.414  -2.722  28.881  1.00  0.00     0.064 C 
ATOM      6  O   UNL     1      12.643  -1.494  29.043  1.00  0.00    -0.545 OA
ATOM      7  O   UNL     1      11.994  -3.180  27.638  1.00  0.00    -0.545 OA
ENDBRANCH   4   5
ENDBRANCH   2   3
ENDBRANCH   1   2
BRANCH   1   8
ATOM      8  C   UNL     1      12.595  -5.097  33.726  1.00  0.00     0.000 C 
BRANCH   8   9
ATOM      9  C   UNL     1      11.149  -4.596  33.860  1.00  0.00    -0.000 C 
BRANCH   9  10
ATOM     10  C   UNL     1      11.115  -3.093  34.159  1.00  0.00    -0.003 C 
ATOM     11  C   UNL     1      10.747  -2.291  32.913  1.00  0.00     0.004 C 
ENDBRANCH   9  10
ENDBRANCH   8   9
ENDBRANCH   1   8
TORSDOF 6
ENDMDL
MODEL 4
REMARK VINA RESULT:    -3.771      3.424      5.835
REMARK INTER + INTRA:          -5.502
REMARK INTER:                  -5.125
REMARK INTRA:                  -0.377
REMARK UNBOUND:                -0.408
REMARK SMILES CCCCCCC=CC(=O)[O-]
REMARK SMILES IDX 5 1 6 2 7 3 8 4 9 5 10 6 11 7 4 8 3 9 2 10 1 11
REMARK H PARENT
REMARK Flexibility Score: inf
ROOT
ATOM      1  C   UNL     1      12.180  -3.420  28.131  1.00  0.00     0.004 C 
ENDROOT
BRANCH   1   2
ATOM      2  C   UNL     1      12.203  -2.894  29.575  1.00  0.00     0.027 C 
BRANCH   2   3
ATOM      3  C   UNL     1      12.940  -3.835  30.483  1.00  0.00    -0.025 C 
ATOM      4  C   UNL     1      12.471  -4.145  31.697  1.00  0.00     0.020 C 
BRANCH   4   5
ATOM      5  C   UNL     1      13.168  -5.075  32.599  1.00  0.00     0.064 C 
ATOM      6  O   UNL     1      14.238  -5.642  32.250  1.00  0.00    -0.545 OA
ATOM      7  O   UNL     1      12.639  -5.331  33.857  1.00  0.00    -0.545 OA
ENDBRANCH   4   5
ENDBRANCH   2   3
ENDBRANCH   1   2
BRANCH   1   8
ATOM      8  C   UNL     1      11.368  -4.716  27.986  1.00  0.00     0.000 C 
BRANCH   8   9
ATOM      9  C   UNL     1       9.862  -4.496  28.192  1.00  0.00    -0.000 C 
BRANCH   9  10
ATOM     10  C   UNL     1       9.152  -4.279  26.851  1.00  0.00    -0.003 C 
ATOM     11  C   UNL     1       9.451  -5.416  25.877  1.00  0.00     0.004 C 
ENDBRANCH   9  10
ENDBRANCH   8   9
ENDBRANCH   1   8
TORSDOF 6
ENDMDL
MODEL 5
REMARK VINA RESULT:    -3.736      3.338      6.435
REMARK INTER + INTRA:          -5.454
REMARK INTER:                  -5.198
REMARK INTRA:                  -0.256
REMARK UNBOUND:                -0.408
REMARK SMILES CCCCCCC=CC(=O)[O-]
REMARK SMILES IDX 5 1 6 2 7 3 8 4 9 5 10 6 11 7 4 8 3 9 2 10 1 11
REMARK H PARENT
REMARK Flexibility Score: inf
ROOT
ATOM      1  C   UNL     1      10.572  -4.127  27.639  1.00  0.00     0.004 C 
ENDROOT
BRANCH   1   2
ATOM      2  C   UNL     1      11.095  -5.289  28.499  1.00  0.00     0.027 C 
BRANCH   2   3
ATOM      3  C   UNL     1      11.507  -4.813  29.862  1.00  0.00    -0.025 C 
ATOM      4  C   UNL     1      11.413  -5.606  30.936  1.00  0.00     0.020 C 
BRANCH   4   5
ATOM      5  C   UNL     1      11.823  -5.166  32.279  1.00  0.00     0.064 C 
ATOM      6  O   UNL     1      12.996  -4.764  32.503  1.00  0.00    -0.545 OA
ATOM      7  O   UNL     1      10.900  -5.193  33.316  1.00  0.00    -0.545 OA
ENDBRANCH   4   5
ENDBRANCH   2   3
ENDBRANCH   1   2
BRANCH   1   8
ATOM      8  C   UNL     1       9.221  -4.440  26.979  1.00  0.00     0.000 C 
BRANCH   8   9
ATOM      9  C   UNL     1       9.375  -5.033  25.570  1.00  0.00    -0.000 C 
BRANCH   9  10
ATOM     10  C   UNL     1      10.114  -4.060  24.644  1.00  0.00    -0.003 C 
ATOM     11  C   UNL     1      11.064  -4.802  23.708  1.00  0.00     0.004 C 
ENDBRANCH   9  10
ENDBRANCH   8   9
ENDBRANCH   1   8
TORSDOF 6
ENDMDL
MODEL 6
REMARK VINA RESULT:    -3.728      3.175      5.077
REMARK INTER + INTRA:          -5.444
REMARK INTER:                  -4.738
REMARK INTRA:                  -0.705
REMARK UNBOUND:                -0.408
REMARK SMILES CCCCCCC=CC(=O)[O-]
REMARK SMILES IDX 5 1 6 2 7 3 8 4 9 5 10 6 11 7 4 8 3 9 2 10 1 11
REMARK H PARENT
REMARK Flexibility Score: inf
ROOT
ATOM      1  C   UNL     1      12.170  -3.373  27.976  1.00  0.00     0.004 C 
ENDROOT
BRANCH   1   2
ATOM      2  C   UNL     1      12.487  -2.587  29.258  1.00  0.00     0.027 C 
BRANCH   2   3
ATOM      3  C   UNL     1      12.371  -3.462  30.472  1.00  0.00    -0.025 C 
ATOM      4  C   UNL     1      11.868  -4.700  30.396  1.00  0.00     0.020 C 
BRANCH   4   5
ATOM      5  C   UNL     1      11.757  -5.580  31.569  1.00  0.00     0.064 C 
ATOM      6  O   UNL     1      12.739  -6.258  31.971  1.00  0.00    -0.545 OA
ATOM      7  O   UNL     1      10.547  -5.663  32.247  1.00  0.00    -0.545 OA
ENDBRANCH   4   5
ENDBRANCH   2   3
ENDBRANCH   1   2
BRANCH   1   8
ATOM      8  C   UNL     1      10.883  -2.891  27.289  1.00  0.00     0.000 C 
BRANCH   8   9
ATOM      9  C   UNL     1       9.758  -3.935  27.342  1.00  0.00    -0.000 C 
BRANCH   9  10
ATOM     10  C   UNL     1       8.787  -3.636  28.490  1.00  0.00    -0.003 C 
ATOM     11  C   UNL     1       8.712  -2.138  28.773  1.00  0.00     0.004 C 
ENDBRANCH   9  10
ENDBRANCH   8   9
ENDBRANCH   1   8
TORSDOF 6
ENDMDL
MODEL 7
REMARK VINA RESULT:    -3.720      3.536      4.412
REMARK INTER + INTRA:          -5.433
REMARK INTER:                  -4.783
REMARK INTRA:                  -0.650
REMARK UNBOUND:                -0.408
REMARK SMILES CCCCCCC=CC(=O)[O-]
REMARK SMILES IDX 5 1 6 2 7 3 8 4 9 5 10 6 11 7 4 8 3 9 2 10 1 11
REMARK H PARENT
REMARK Flexibility Score: inf
ROOT
ATOM      1  C   UNL     1      11.068  -4.652  28.372  1.00  0.00     0.004 C 
ENDROOT
BRANCH   1   2
ATOM      2  C   UNL     1       9.590  -4.344  28.088  1.00  0.00     0.027 C 
BRANCH   2   3
ATOM      3  C   UNL     1       9.344  -2.864  28.038  1.00  0.00    -0.025 C 
ATOM      4  C   UNL     1       8.503  -2.266  28.891  1.00  0.00     0.020 C 
BRANCH   4   5
ATOM      5  C   UNL     1       8.257  -0.816  28.870  1.00  0.00     0.064 C 
ATOM      6  O   UNL     1       8.441  -0.139  27.824  1.00  0.00    -0.545 OA
ATOM      7  O   UNL     1       7.813  -0.183  30.023  1.00  0.00    -0.545 OA
ENDBRANCH   4   5
ENDBRANCH   2   3
ENDBRANCH   1   2
BRANCH   1   8
ATOM      8  C   UNL     1      11.286  -5.280  29.757  1.00  0.00     0.000 C 
BRANCH   8   9
ATOM      9  C   UNL     1      12.254  -4.467  30.630  1.00  0.00    -0.000 C 
BRANCH   9  10
ATOM     10  C   UNL     1      12.499  -3.079  30.029  1.00  0.00    -0.003 C 
ATOM     11  C   UNL     1      11.745  -2.001  30.802  1.00  0.00     0.004 C 
ENDBRANCH   9  10
ENDBRANCH   8   9
ENDBRANCH   1   8
TORSDOF 6
ENDMDL
MODEL 8
REMARK VINA RESULT:    -3.708      3.917      5.830
REMARK INTER + INTRA:          -5.416
REMARK INTER:                  -4.931
REMARK INTRA:                  -0.485
REMARK UNBOUND:                -0.408
REMARK SMILES CCCCCCC=CC(=O)[O-]
REMARK SMILES IDX 5 1 6 2 7 3 8 4 9 5 10 6 11 7 4 8 3 9 2 10 1 11
REMARK H PARENT
REMARK Flexibility Score: inf
ROOT
ATOM      1  C   UNL     1      11.148  -5.010  29.426  1.00  0.00     0.004 C 
ENDROOT
BRANCH   1   2
ATOM      2  C   UNL     1      12.266  -4.107  29.971  1.00  0.00     0.027 C 
BRANCH   2   3
ATOM      3  C   UNL     1      12.033  -3.768  31.415  1.00  0.00    -0.025 C 
ATOM      4  C   UNL     1      11.355  -4.590  32.225  1.00  0.00     0.020 C 
BRANCH   4   5
ATOM      5  C   UNL     1      11.127  -4.285  33.646  1.00  0.00     0.064 C 
ATOM      6  O   UNL     1      10.907  -5.201  34.482  1.00  0.00    -0.545 OA
ATOM      7  O   UNL     1      11.156  -2.964  34.073  1.00  0.00    -0.545 OA
ENDBRANCH   4   5
ENDBRANCH   2   3
ENDBRANCH   1   2
BRANCH   1   8
ATOM      8  C   UNL     1      10.984  -4.895  27.903  1.00  0.00     0.000 C 
BRANCH   8   9
ATOM      9  C   UNL     1       9.735  -4.097  27.501  1.00  0.00    -0.000 C 
BRANCH   9  10
ATOM     10  C   UNL     1       8.870  -3.778  28.726  1.00  0.00    -0.003 C 
ATOM     11  C   UNL     1       8.600  -2.280  28.836  1.00  0.00     0.004 C 
ENDBRANCH   9  10
ENDBRANCH   8   9
ENDBRANCH   1   8
TORSDOF 6
ENDMDL
MODEL 9
REMARK VINA RESULT:    -3.687      3.201      6.099
REMARK INTER + INTRA:          -5.388
REMARK INTER:                  -4.976
REMARK INTRA:                  -0.412
REMARK UNBOUND:                -0.408
REMARK SMILES CCCCCCC=CC(=O)[O-]
REMARK SMILES IDX 5 1 6 2 7 3 8 4 9 5 10 6 11 7 4 8 3 9 2 10 1 11
REMARK H PARENT
REMARK Flexibility Score: inf
ROOT
ATOM      1  C   UNL     1       9.621  -3.728  27.170  1.00  0.00     0.004 C 
ENDROOT
BRANCH   1   2
ATOM      2  C   UNL     1       8.848  -3.674  28.497  1.00  0.00     0.027 C 
BRANCH   2   3
ATOM      3  C   UNL     1       9.781  -3.521  29.663  1.00  0.00    -0.025 C 
ATOM      4  C   UNL     1      11.107  -3.634  29.516  1.00  0.00     0.020 C 
BRANCH   4   5
ATOM      5  C   UNL     1      12.041  -3.474  30.641  1.00  0.00     0.064 C 
ATOM      6  O   UNL     1      11.736  -2.783  31.649  1.00  0.00    -0.545 OA
ATOM      7  O   UNL     1      13.281  -4.098  30.590  1.00  0.00    -0.545 OA
ENDBRANCH   4   5
ENDBRANCH   2   3
ENDBRANCH   1   2
BRANCH   1   8
ATOM      8  C   UNL     1       9.229  -4.935  26.305  1.00  0.00     0.000 C 
BRANCH   8   9
ATOM      9  C   UNL     1      10.441  -5.777  25.881  1.00  0.00    -0.000 C 
BRANCH   9  10
ATOM     10  C   UNL     1      11.529  -4.895  25.257  1.00  0.00    -0.003 C 
ATOM     11  C   UNL     1      11.275  -4.675  23.768  1.00  0.00     0.004 C 
ENDBRANCH   9  10
ENDBRANCH   8   9
ENDBRANCH   1   8
TORSDOF 6
ENDMDL
