MODEL 1
REMARK VINA RESULT:    -3.573      0.000      0.000
REMARK INTER + INTRA:          -5.438
REMARK INTER:                  -4.827
REMARK INTRA:                  -0.611
REMARK UNBOUND:                -0.611
REMARK SMILES CCCCCCC=CC(=O)[O-]
REMARK SMILES IDX 5 1 6 2 7 3 8 4 9 5 10 6 11 7 4 8 3 9 2 10 1 11
REMARK H PARENT
REMARK Flexibility Score: inf
ROOT
ATOM      1  C   UNL     1       2.465   8.977 -12.840  1.00  0.00     0.004 C 
ENDROOT
BRANCH   1   2
ATOM      2  C   UNL     1       2.860   9.240 -14.299  1.00  0.00     0.027 C 
BRANCH   2   3
ATOM      3  C   UNL     1       3.577   8.061 -14.890  1.00  0.00    -0.025 C 
ATOM      4  C   UNL     1       3.506   6.848 -14.330  1.00  0.00     0.020 C 
BRANCH   4   5
ATOM      5  C   UNL     1       4.190   5.680 -14.905  1.00  0.00     0.064 C 
ATOM      6  O   UNL     1       4.635   4.783 -14.143  1.00  0.00    -0.545 OA
ATOM      7  O   UNL     1       4.354   5.552 -16.280  1.00  0.00    -0.545 OA
ENDBRANCH   4   5
ENDBRANCH   2   3
ENDBRANCH   1   2
BRANCH   1   8
ATOM      8  C   UNL     1       3.243   9.891 -11.886  1.00  0.00     0.000 C 
BRANCH   8   9
ATOM      9  C   UNL     1       3.782   9.103 -10.687  1.00  0.00    -0.000 C 
BRANCH   9  10
ATOM     10  C   UNL     1       3.343   7.636 -10.751  1.00  0.00    -0.003 C 
ATOM     11  C   UNL     1       4.542   6.709 -10.920  1.00  0.00     0.004 C 
ENDBRANCH   9  10
ENDBRANCH   8   9
ENDBRANCH   1   8
TORSDOF 6
ENDMDL
MODEL 2
REMARK VINA RESULT:    -3.518      3.161      5.277
REMARK INTER + INTRA:          -5.363
REMARK INTER:                  -4.886
REMARK INTRA:                  -0.478
REMARK UNBOUND:                -0.611
REMARK SMILES CCCCCCC=CC(=O)[O-]
REMARK SMILES IDX 5 1 6 2 7 3 8 4 9 5 10 6 11 7 4 8 3 9 2 10 1 11
REMARK H PARENT
REMARK Flexibility Score: inf
ROOT
ATOM      1  C   UNL     1       3.381   5.945 -12.745  1.00  0.00     0.004 C 
ENDROOT
BRANCH   1   2
ATOM      2  C   UNL     1       4.350   5.887 -11.558  1.00  0.00     0.027 C 
BRANCH   2   3
ATOM      3  C   UNL     1       4.508   7.236 -10.918  1.00  0.00    -0.025 C 
ATOM      4  C   UNL     1       3.451   7.937 -10.496  1.00  0.00     0.020 C 
BRANCH   4   5
ATOM      5  C   UNL     1       3.591   9.253  -9.854  1.00  0.00     0.064 C 
ATOM      6  O   UNL     1       4.293  10.141 -10.404  1.00  0.00    -0.545 OA
ATOM      7  O   UNL     1       2.957   9.533  -8.648  1.00  0.00    -0.545 OA
ENDBRANCH   4   5
ENDBRANCH   2   3
ENDBRANCH   1   2
BRANCH   1   8
ATOM      8  C   UNL     1       4.137   5.883 -14.077  1.00  0.00     0.000 C 
BRANCH   8   9
ATOM      9  C   UNL     1       3.712   7.027 -15.006  1.00  0.00    -0.000 C 
BRANCH   9  10
ATOM     10  C   UNL     1       3.358   8.283 -14.203  1.00  0.00    -0.003 C 
ATOM     11  C   UNL     1       2.867   9.402 -15.117  1.00  0.00     0.004 C 
ENDBRANCH   9  10
ENDBRANCH   8   9
ENDBRANCH   1   8
TORSDOF 6
ENDMDL
MODEL 3
REMARK VINA RESULT:    -3.448     11.633     13.921
REMARK INTER + INTRA:          -5.268
REMARK INTER:                  -4.613
REMARK INTRA:                  -0.655
REMARK UNBOUND:                -0.611
REMARK SMILES CCCCCCC=CC(=O)[O-]
REMARK SMILES IDX 5 1 6 2 7 3 8 4 9 5 10 6 11 7 4 8 3 9 2 10 1 11
REMARK H PARENT
REMARK Flexibility Score: inf
ROOT
ATOM      1  C   UNL     1       7.317  -5.593  -8.111  1.00  0.00     0.004 C 
ENDROOT
BRANCH   1   2
ATOM      2  C   UNL     1       7.847  -5.515  -6.673  1.00  0.00     0.027 C 
BRANCH   2   3
ATOM      3  C   UNL     1       7.611  -4.157  -6.079  1.00  0.00    -0.025 C 
ATOM      4  C   UNL     1       6.737  -3.300  -6.619  1.00  0.00     0.020 C 
BRANCH   4   5
ATOM      5  C   UNL     1       6.484  -1.972  -6.040  1.00  0.00     0.064 C 
ATOM      6  O   UNL     1       6.380  -1.848  -4.792  1.00  0.00    -0.545 OA
ATOM      7  O   UNL     1       6.360  -0.850  -6.852  1.00  0.00    -0.545 OA
ENDBRANCH   4   5
ENDBRANCH   2   3
ENDBRANCH   1   2
BRANCH   1   8
ATOM      8  C   UNL     1       8.450  -5.892  -9.100  1.00  0.00     0.000 C 
BRANCH   8   9
ATOM      9  C   UNL     1       8.492  -4.847 -10.221  1.00  0.00    -0.000 C 
BRANCH   9  10
ATOM     10  C   UNL     1       7.230  -3.977 -10.209  1.00  0.00    -0.003 C 
ATOM     11  C   UNL     1       7.581  -2.497 -10.094  1.00  0.00     0.004 C 
ENDBRANCH   9  10
ENDBRANCH   8   9
ENDBRANCH   1   8
TORSDOF 6
ENDMDL
MODEL 4
REMARK VINA RESULT:    -3.436      2.636      3.670
REMARK INTER + INTRA:          -5.251
REMARK INTER:                  -4.618
REMARK INTRA:                  -0.634
REMARK UNBOUND:                -0.611
REMARK SMILES CCCCCCC=CC(=O)[O-]
REMARK SMILES IDX 5 1 6 2 7 3 8 4 9 5 10 6 11 7 4 8 3 9 2 10 1 11
REMARK H PARENT
REMARK Flexibility Score: inf
ROOT
ATOM      1  C   UNL     1       3.241   6.196 -13.170  1.00  0.00     0.004 C 
ENDROOT
BRANCH   1   2
ATOM      2  C   UNL     1       3.960   6.540 -14.480  1.00  0.00     0.027 C 
BRANCH   2   3
ATOM      3  C   UNL     1       3.506   7.865 -15.018  1.00  0.00    -0.025 C 
ATOM      4  C   UNL     1       3.115   8.853 -14.205  1.00  0.00     0.020 C 
BRANCH   4   5
ATOM      5  C   UNL     1       2.681  10.161 -14.717  1.00  0.00     0.064 C 
ATOM      6  O   UNL     1       3.069  11.212 -14.144  1.00  0.00    -0.545 OA
ATOM      7  O   UNL     1       1.848  10.256 -15.826  1.00  0.00    -0.545 OA
ENDBRANCH   4   5
ENDBRANCH   2   3
ENDBRANCH   1   2
BRANCH   1   8
ATOM      8  C   UNL     1       4.216   5.601 -12.147  1.00  0.00     0.000 C 
BRANCH   8   9
ATOM      9  C   UNL     1       4.675   6.664 -11.141  1.00  0.00    -0.000 C 
BRANCH   9  10
ATOM     10  C   UNL     1       3.508   7.566 -10.725  1.00  0.00    -0.003 C 
ATOM     11  C   UNL     1       3.971   9.004 -10.512  1.00  0.00     0.004 C 
ENDBRANCH   9  10
ENDBRANCH   8   9
ENDBRANCH   1   8
TORSDOF 6
ENDMDL
MODEL 5
REMARK VINA RESULT:    -3.425     11.923     13.458
REMARK INTER + INTRA:          -5.238
REMARK INTER:                  -4.739
REMARK INTRA:                  -0.498
REMARK UNBOUND:                -0.611
REMARK SMILES CCCCCCC=CC(=O)[O-]
REMARK SMILES IDX 5 1 6 2 7 3 8 4 9 5 10 6 11 7 4 8 3 9 2 10 1 11
REMARK H PARENT
REMARK Flexibility Score: inf
ROOT
ATOM      1  C   UNL     1       6.357  -3.280  -8.353  1.00  0.00     0.004 C 
ENDROOT
BRANCH   1   2
ATOM      2  C   UNL     1       7.018  -2.556  -9.533  1.00  0.00     0.027 C 
BRANCH   2   3
ATOM      3  C   UNL     1       8.120  -3.383 -10.129  1.00  0.00    -0.025 C 
ATOM      4  C   UNL     1       7.915  -4.646 -10.518  1.00  0.00     0.020 C 
BRANCH   4   5
ATOM      5  C   UNL     1       8.981  -5.462 -11.116  1.00  0.00     0.064 C 
ATOM      6  O   UNL     1       8.841  -5.908 -12.284  1.00  0.00    -0.545 OA
ATOM      7  O   UNL     1      10.145  -5.750 -10.410  1.00  0.00    -0.545 OA
ENDBRANCH   4   5
ENDBRANCH   2   3
ENDBRANCH   1   2
BRANCH   1   8
ATOM      8  C   UNL     1       6.823  -2.693  -7.016  1.00  0.00     0.000 C 
BRANCH   8   9
ATOM      9  C   UNL     1       7.192  -3.803  -6.025  1.00  0.00    -0.000 C 
BRANCH   9  10
ATOM     10  C   UNL     1       7.806  -5.005  -6.752  1.00  0.00    -0.003 C 
ATOM     11  C   UNL     1       8.166  -6.117  -5.771  1.00  0.00     0.004 C 
ENDBRANCH   9  10
ENDBRANCH   8   9
ENDBRANCH   1   8
TORSDOF 6
ENDMDL
MODEL 6
REMARK VINA RESULT:    -3.404      1.552      2.314
REMARK INTER + INTRA:          -5.209
REMARK INTER:                  -4.712
REMARK INTRA:                  -0.497
REMARK UNBOUND:                -0.611
REMARK SMILES CCCCCCC=CC(=O)[O-]
REMARK SMILES IDX 5 1 6 2 7 3 8 4 9 5 10 6 11 7 4 8 3 9 2 10 1 11
REMARK H PARENT
REMARK Flexibility Score: inf
ROOT
ATOM      1  C   UNL     1       2.970   9.339 -14.552  1.00  0.00     0.004 C 
ENDROOT
BRANCH   1   2
ATOM      2  C   UNL     1       3.403   7.933 -14.988  1.00  0.00     0.027 C 
BRANCH   2   3
ATOM      3  C   UNL     1       3.766   7.085 -13.804  1.00  0.00    -0.025 C 
ATOM      4  C   UNL     1       4.138   5.808 -13.946  1.00  0.00     0.020 C 
BRANCH   4   5
ATOM      5  C   UNL     1       4.510   4.969 -12.798  1.00  0.00     0.064 C 
ATOM      6  O   UNL     1       4.975   3.817 -12.994  1.00  0.00    -0.545 OA
ATOM      7  O   UNL     1       4.356   5.431 -11.495  1.00  0.00    -0.545 OA
ENDBRANCH   4   5
ENDBRANCH   2   3
ENDBRANCH   1   2
BRANCH   1   8
ATOM      8  C   UNL     1       2.533   9.350 -13.082  1.00  0.00     0.000 C 
BRANCH   8   9
ATOM      9  C   UNL     1       3.206  10.495 -12.316  1.00  0.00    -0.000 C 
BRANCH   9  10
ATOM     10  C   UNL     1       3.272  10.189 -10.816  1.00  0.00    -0.003 C 
ATOM     11  C   UNL     1       4.093   8.932 -10.545  1.00  0.00     0.004 C 
ENDBRANCH   9  10
ENDBRANCH   8   9
ENDBRANCH   1   8
TORSDOF 6
ENDMDL
MODEL 7
REMARK VINA RESULT:    -3.393     12.218     14.363
REMARK INTER + INTRA:          -5.194
REMARK INTER:                  -4.864
REMARK INTRA:                  -0.330
REMARK UNBOUND:                -0.611
REMARK SMILES CCCCCCC=CC(=O)[O-]
REMARK SMILES IDX 5 1 6 2 7 3 8 4 9 5 10 6 11 7 4 8 3 9 2 10 1 11
REMARK H PARENT
REMARK Flexibility Score: inf
ROOT
ATOM      1  C   UNL     1       7.925  -5.148  -5.887  1.00  0.00     0.004 C 
ENDROOT
BRANCH   1   2
ATOM      2  C   UNL     1       6.968  -3.956  -5.762  1.00  0.00     0.027 C 
BRANCH   2   3
ATOM      3  C   UNL     1       6.954  -3.136  -7.020  1.00  0.00    -0.025 C 
ATOM      4  C   UNL     1       6.360  -1.939  -7.067  1.00  0.00     0.020 C 
BRANCH   4   5
ATOM      5  C   UNL     1       6.350  -1.118  -8.287  1.00  0.00     0.064 C 
ATOM      6  O   UNL     1       6.820  -1.588  -9.355  1.00  0.00    -0.545 OA
ATOM      7  O   UNL     1       5.830   0.172  -8.278  1.00  0.00    -0.545 OA
ENDBRANCH   4   5
ENDBRANCH   2   3
ENDBRANCH   1   2
BRANCH   1   8
ATOM      8  C   UNL     1       8.021  -5.627  -7.340  1.00  0.00     0.000 C 
BRANCH   8   9
ATOM      9  C   UNL     1       8.844  -6.917  -7.442  1.00  0.00    -0.000 C 
BRANCH   9  10
ATOM     10  C   UNL     1       9.323  -7.373  -6.059  1.00  0.00    -0.003 C 
ATOM     11  C   UNL     1      10.789  -7.794  -6.095  1.00  0.00     0.004 C 
ENDBRANCH   9  10
ENDBRANCH   8   9
ENDBRANCH   1   8
TORSDOF 6
ENDMDL
MODEL 8
REMARK VINA RESULT:    -3.379      2.092      3.887
REMARK INTER + INTRA:          -5.175
REMARK INTER:                  -4.458
REMARK INTRA:                  -0.717
REMARK UNBOUND:                -0.611
REMARK SMILES CCCCCCC=CC(=O)[O-]
REMARK SMILES IDX 5 1 6 2 7 3 8 4 9 5 10 6 11 7 4 8 3 9 2 10 1 11
REMARK H PARENT
REMARK Flexibility Score: inf
ROOT
ATOM      1  C   UNL     1       2.874   7.355 -12.403  1.00  0.00     0.004 C 
ENDROOT
BRANCH   1   2
ATOM      2  C   UNL     1       4.065   7.062 -11.482  1.00  0.00     0.027 C 
BRANCH   2   3
ATOM      3  C   UNL     1       4.521   5.638 -11.620  1.00  0.00    -0.025 C 
ATOM      4  C   UNL     1       3.653   4.643 -11.827  1.00  0.00     0.020 C 
BRANCH   4   5
ATOM      5  C   UNL     1       4.086   3.246 -11.978  1.00  0.00     0.064 C 
ATOM      6  O   UNL     1       4.950   2.954 -12.845  1.00  0.00    -0.545 OA
ATOM      7  O   UNL     1       3.556   2.241 -11.176  1.00  0.00    -0.545 OA
ENDBRANCH   4   5
ENDBRANCH   2   3
ENDBRANCH   1   2
BRANCH   1   8
ATOM      8  C   UNL     1       3.192   8.507 -13.364  1.00  0.00     0.000 C 
BRANCH   8   9
ATOM      9  C   UNL     1       3.561   7.979 -14.755  1.00  0.00    -0.000 C 
BRANCH   9  10
ATOM     10  C   UNL     1       3.040   6.551 -14.956  1.00  0.00    -0.003 C 
ATOM     11  C   UNL     1       4.134   5.636 -15.498  1.00  0.00     0.004 C 
ENDBRANCH   9  10
ENDBRANCH   8   9
ENDBRANCH   1   8
TORSDOF 6
ENDMDL
MODEL 9
REMARK VINA RESULT:    -3.359      9.882     11.952
REMARK INTER + INTRA:          -5.147
REMARK INTER:                  -4.408
REMARK INTRA:                  -0.739
REMARK UNBOUND:                -0.611
REMARK SMILES CCCCCCC=CC(=O)[O-]
REMARK SMILES IDX 5 1 6 2 7 3 8 4 9 5 10 6 11 7 4 8 3 9 2 10 1 11
REMARK H PARENT
REMARK Flexibility Score: inf
ROOT
ATOM      1  C   UNL     1       6.519  -4.102  -8.386  1.00  0.00     0.004 C 
ENDROOT
BRANCH   1   2
ATOM      2  C   UNL     1       7.252  -3.194  -9.383  1.00  0.00     0.027 C 
BRANCH   2   3
ATOM      3  C   UNL     1       6.910  -1.750  -9.156  1.00  0.00    -0.025 C 
ATOM      4  C   UNL     1       5.651  -1.355  -8.943  1.00  0.00     0.020 C 
BRANCH   4   5
ATOM      5  C   UNL     1       5.303   0.054  -8.705  1.00  0.00     0.064 C 
ATOM      6  O   UNL     1       5.712   0.627  -7.662  1.00  0.00    -0.545 OA
ATOM      7  O   UNL     1       4.528   0.764  -9.616  1.00  0.00    -0.545 OA
ENDBRANCH   4   5
ENDBRANCH   2   3
ENDBRANCH   1   2
BRANCH   1   8
ATOM      8  C   UNL     1       7.505  -4.764  -7.417  1.00  0.00     0.000 C 
BRANCH   8   9
ATOM      9  C   UNL     1       7.486  -4.068  -6.051  1.00  0.00    -0.000 C 
BRANCH   9  10
ATOM     10  C   UNL     1       6.157  -3.337  -5.826  1.00  0.00    -0.003 C 
ATOM     11  C   UNL     1       6.382  -1.965  -5.198  1.00  0.00     0.004 C 
ENDBRANCH   9  10
ENDBRANCH   8   9
ENDBRANCH   1   8
TORSDOF 6
ENDMDL
