MODEL 1
REMARK VINA RESULT:    -5.474      0.000      0.000
REMARK INTER + INTRA:          -6.322
REMARK INTER:                  -6.274
REMARK INTRA:                  -0.047
REMARK UNBOUND:                -0.047
REMARK SMILES O=C([O-])c1cc(O)c(O)c(O)c1
REMARK SMILES IDX 4 1 5 2 12 3 6 4 10 5 8 6 2 7 1 8 3 9 7 10 11 12 9 14
REMARK H PARENT 7 11 11 13 9 15
REMARK Flexibility Score: inf
ROOT
ATOM      1  C   UNL     1       8.206 -16.772 -28.311  1.00  0.00     0.005 A 
ATOM      2  C   UNL     1       9.504 -17.312 -28.337  1.00  0.00     0.060 A 
ATOM      3  C   UNL     1       7.645 -16.288 -29.504  1.00  0.00     0.060 A 
ATOM      4  C   UNL     1      10.231 -17.366 -29.534  1.00  0.00     0.162 A 
ATOM      5  C   UNL     1       8.365 -16.338 -30.703  1.00  0.00     0.162 A 
ATOM      6  C   UNL     1       9.662 -16.879 -30.722  1.00  0.00     0.200 A 
ENDROOT
BRANCH   1   7
ATOM      7  C   UNL     1       7.437 -16.715 -27.048  1.00  0.00     0.072 C 
ATOM      8  O   UNL     1       7.283 -17.749 -26.344  1.00  0.00    -0.545 OA
ATOM      9  O   UNL     1       6.875 -15.519 -26.619  1.00  0.00    -0.545 OA
ENDBRANCH   1   7
BRANCH   4  10
ATOM     10  O   UNL     1      11.517 -17.903 -29.547  1.00  0.00    -0.504 OA
ATOM     11  H   UNL     1      12.146 -17.757 -30.328  1.00  0.00     0.293 HD
ENDBRANCH   4  10
BRANCH   5  12
ATOM     12  O   UNL     1       7.772 -15.846 -31.866  1.00  0.00    -0.504 OA
ATOM     13  H   UNL     1       7.784 -14.861 -32.102  1.00  0.00     0.293 HD
ENDBRANCH   5  12
BRANCH   6  14
ATOM     14  O   UNL     1      10.372 -16.925 -31.923  1.00  0.00    -0.502 OA
ATOM     15  H   UNL     1      11.383 -16.886 -31.955  1.00  0.00     0.293 HD
ENDBRANCH   6  14
TORSDOF 4
ENDMDL
MODEL 2
REMARK VINA RESULT:    -5.444      0.054      2.430
REMARK INTER + INTRA:          -6.287
REMARK INTER:                  -6.239
REMARK INTRA:                  -0.047
REMARK UNBOUND:                -0.047
REMARK SMILES O=C([O-])c1cc(O)c(O)c(O)c1
REMARK SMILES IDX 4 1 5 2 12 3 6 4 10 5 8 6 2 7 1 8 3 9 7 10 11 12 9 14
REMARK H PARENT 7 11 11 13 9 15
REMARK Flexibility Score: inf
ROOT
ATOM      1  C   UNL     1       8.177 -16.761 -28.343  1.00  0.00     0.005 A 
ATOM      2  C   UNL     1       7.631 -16.266 -29.540  1.00  0.00     0.060 A 
ATOM      3  C   UNL     1       9.463 -17.326 -28.363  1.00  0.00     0.060 A 
ATOM      4  C   UNL     1       8.354 -16.336 -30.738  1.00  0.00     0.162 A 
ATOM      5  C   UNL     1      10.192 -17.401 -29.555  1.00  0.00     0.162 A 
ATOM      6  C   UNL     1       9.639 -16.905 -30.748  1.00  0.00     0.200 A 
ENDROOT
BRANCH   1   7
ATOM      7  C   UNL     1       7.415 -16.686 -27.077  1.00  0.00     0.072 C 
ATOM      8  O   UNL     1       7.242 -17.716 -26.372  1.00  0.00    -0.545 OA
ATOM      9  O   UNL     1       6.878 -15.479 -26.647  1.00  0.00    -0.545 OA
ENDBRANCH   1   7
BRANCH   4  10
ATOM     10  O   UNL     1       7.801 -15.843 -31.918  1.00  0.00    -0.504 OA
ATOM     11  H   UNL     1       8.265 -15.960 -32.812  1.00  0.00     0.293 HD
ENDBRANCH   4  10
BRANCH   5  12
ATOM     12  O   UNL     1      11.464 -17.971 -29.533  1.00  0.00    -0.504 OA
ATOM     13  H   UNL     1      11.607 -18.964 -29.394  1.00  0.00     0.293 HD
ENDBRANCH   5  12
BRANCH   6  14
ATOM     14  O   UNL     1      10.374 -16.983 -31.933  1.00  0.00    -0.502 OA
ATOM     15  H   UNL     1      11.370 -16.806 -31.963  1.00  0.00     0.293 HD
ENDBRANCH   6  14
TORSDOF 4
ENDMDL
MODEL 3
REMARK VINA RESULT:    -5.438      1.534      3.551
REMARK INTER + INTRA:          -6.281
REMARK INTER:                  -6.229
REMARK INTRA:                  -0.052
REMARK UNBOUND:                -0.047
REMARK SMILES O=C([O-])c1cc(O)c(O)c(O)c1
REMARK SMILES IDX 4 1 5 2 12 3 6 4 10 5 8 6 2 7 1 8 3 9 7 10 11 12 9 14
REMARK H PARENT 7 11 11 13 9 15
REMARK Flexibility Score: inf
ROOT
ATOM      1  C   UNL     1       9.608 -17.694 -28.431  1.00  0.00     0.005 A 
ATOM      2  C   UNL     1       8.728 -17.153 -27.477  1.00  0.00     0.060 A 
ATOM      3  C   UNL     1       9.573 -17.202 -29.746  1.00  0.00     0.060 A 
ATOM      4  C   UNL     1       7.827 -16.139 -27.830  1.00  0.00     0.162 A 
ATOM      5  C   UNL     1       8.676 -16.190 -30.107  1.00  0.00     0.162 A 
ATOM      6  C   UNL     1       7.799 -15.654 -29.148  1.00  0.00     0.200 A 
ENDROOT
BRANCH   1   7
ATOM      7  C   UNL     1      10.560 -18.764 -28.059  1.00  0.00     0.072 C 
ATOM      8  O   UNL     1      11.043 -19.525 -28.939  1.00  0.00    -0.545 OA
ATOM      9  O   UNL     1      10.936 -18.943 -26.733  1.00  0.00    -0.545 OA
ENDBRANCH   1   7
BRANCH   4  10
ATOM     10  O   UNL     1       6.959 -15.612 -26.875  1.00  0.00    -0.504 OA
ATOM     11  H   UNL     1       5.955 -15.610 -27.014  1.00  0.00     0.293 HD
ENDBRANCH   4  10
BRANCH   5  12
ATOM     12  O   UNL     1       8.672 -15.731 -31.423  1.00  0.00    -0.504 OA
ATOM     13  H   UNL     1       9.383 -15.102 -31.777  1.00  0.00     0.293 HD
ENDBRANCH   5  12
BRANCH   6  14
ATOM     14  O   UNL     1       6.908 -14.645 -29.517  1.00  0.00    -0.502 OA
ATOM     15  H   UNL     1       6.866 -13.758 -29.031  1.00  0.00     0.293 HD
ENDBRANCH   6  14
TORSDOF 4
ENDMDL
MODEL 4
REMARK VINA RESULT:    -5.409      1.527      3.689
REMARK INTER + INTRA:          -6.247
REMARK INTER:                  -6.195
REMARK INTRA:                  -0.052
REMARK UNBOUND:                -0.047
REMARK SMILES O=C([O-])c1cc(O)c(O)c(O)c1
REMARK SMILES IDX 4 1 5 2 12 3 6 4 10 5 8 6 2 7 1 8 3 9 7 10 11 12 9 14
REMARK H PARENT 7 11 11 13 9 15
REMARK Flexibility Score: inf
ROOT
ATOM      1  C   UNL     1       9.620 -17.718 -28.426  1.00  0.00     0.005 A 
ATOM      2  C   UNL     1       9.515 -17.318 -29.770  1.00  0.00     0.060 A 
ATOM      3  C   UNL     1       8.797 -17.104 -27.467  1.00  0.00     0.060 A 
ATOM      4  C   UNL     1       8.604 -16.323 -30.150  1.00  0.00     0.162 A 
ATOM      5  C   UNL     1       7.887 -16.109 -27.838  1.00  0.00     0.162 A 
ATOM      6  C   UNL     1       7.787 -15.714 -29.183  1.00  0.00     0.200 A 
ENDROOT
BRANCH   1   7
ATOM      7  C   UNL     1      10.580 -18.769 -28.023  1.00  0.00     0.072 C 
ATOM      8  O   UNL     1      11.069 -19.552 -28.881  1.00  0.00    -0.545 OA
ATOM      9  O   UNL     1      10.957 -18.908 -26.693  1.00  0.00    -0.545 OA
ENDBRANCH   1   7
BRANCH   4  10
ATOM     10  O   UNL     1       8.511 -15.935 -31.486  1.00  0.00    -0.504 OA
ATOM     11  H   UNL     1       9.256 -16.123 -32.147  1.00  0.00     0.293 HD
ENDBRANCH   4  10
BRANCH   5  12
ATOM     12  O   UNL     1       7.089 -15.524 -26.855  1.00  0.00    -0.504 OA
ATOM     13  H   UNL     1       7.104 -14.528 -26.670  1.00  0.00     0.293 HD
ENDBRANCH   5  12
BRANCH   6  14
ATOM     14  O   UNL     1       6.875 -14.721 -29.544  1.00  0.00    -0.502 OA
ATOM     15  H   UNL     1       7.117 -13.973 -30.182  1.00  0.00     0.293 HD
ENDBRANCH   6  14
TORSDOF 4
ENDMDL
MODEL 5
REMARK VINA RESULT:    -5.367      1.304      3.981
REMARK INTER + INTRA:          -6.198
REMARK INTER:                  -6.147
REMARK INTRA:                  -0.052
REMARK UNBOUND:                -0.047
REMARK SMILES O=C([O-])c1cc(O)c(O)c(O)c1
REMARK SMILES IDX 4 1 5 2 12 3 6 4 10 5 8 6 2 7 1 8 3 9 7 10 11 12 9 14
REMARK H PARENT 7 11 11 13 9 15
REMARK Flexibility Score: inf
ROOT
ATOM      1  C   UNL     1       9.032 -17.144 -29.711  1.00  0.00     0.005 A 
ATOM      2  C   UNL     1      10.352 -17.499 -29.381  1.00  0.00     0.060 A 
ATOM      3  C   UNL     1       8.047 -17.179 -28.711  1.00  0.00     0.060 A 
ATOM      4  C   UNL     1      10.682 -17.884 -28.075  1.00  0.00     0.162 A 
ATOM      5  C   UNL     1       8.368 -17.563 -27.405  1.00  0.00     0.162 A 
ATOM      6  C   UNL     1       9.689 -17.917 -27.081  1.00  0.00     0.200 A 
ENDROOT
BRANCH   1   7
ATOM      7  C   UNL     1       8.683 -16.736 -31.090  1.00  0.00     0.072 C 
ATOM      8  O   UNL     1       9.439 -17.026 -32.055  1.00  0.00    -0.545 OA
ATOM      9  O   UNL     1       7.514 -16.027 -31.340  1.00  0.00    -0.545 OA
ENDBRANCH   1   7
BRANCH   4  10
ATOM     10  O   UNL     1      11.994 -18.236 -27.760  1.00  0.00    -0.504 OA
ATOM     11  H   UNL     1      12.217 -18.764 -26.924  1.00  0.00     0.293 HD
ENDBRANCH   4  10
BRANCH   5  12
ATOM     12  O   UNL     1       7.360 -17.586 -26.441  1.00  0.00    -0.504 OA
ATOM     13  H   UNL     1       6.700 -18.351 -26.370  1.00  0.00     0.293 HD
ENDBRANCH   5  12
BRANCH   6  14
ATOM     14  O   UNL     1      10.000 -18.299 -25.775  1.00  0.00    -0.502 OA
ATOM     15  H   UNL     1      10.589 -19.098 -25.572  1.00  0.00     0.293 HD
ENDBRANCH   6  14
TORSDOF 4
ENDMDL
MODEL 6
REMARK VINA RESULT:    -5.342      1.313      4.444
REMARK INTER + INTRA:          -6.170
REMARK INTER:                  -6.118
REMARK INTRA:                  -0.052
REMARK UNBOUND:                -0.047
REMARK SMILES O=C([O-])c1cc(O)c(O)c(O)c1
REMARK SMILES IDX 4 1 5 2 12 3 6 4 10 5 8 6 2 7 1 8 3 9 7 10 11 12 9 14
REMARK H PARENT 7 11 11 13 9 15
REMARK Flexibility Score: inf
ROOT
ATOM      1  C   UNL     1       9.064 -17.149 -29.715  1.00  0.00     0.005 A 
ATOM      2  C   UNL     1       8.079 -17.183 -28.712  1.00  0.00     0.060 A 
ATOM      3  C   UNL     1      10.386 -17.490 -29.383  1.00  0.00     0.060 A 
ATOM      4  C   UNL     1       8.408 -17.550 -27.400  1.00  0.00     0.162 A 
ATOM      5  C   UNL     1      10.722 -17.858 -28.076  1.00  0.00     0.162 A 
ATOM      6  C   UNL     1       9.733 -17.889 -27.078  1.00  0.00     0.200 A 
ENDROOT
BRANCH   1   7
ATOM      7  C   UNL     1       8.718 -16.762 -31.100  1.00  0.00     0.072 C 
ATOM      8  O   UNL     1       9.477 -17.066 -32.059  1.00  0.00    -0.545 OA
ATOM      9  O   UNL     1       7.550 -16.057 -31.364  1.00  0.00    -0.545 OA
ENDBRANCH   1   7
BRANCH   4  10
ATOM     10  O   UNL     1       7.423 -17.579 -26.414  1.00  0.00    -0.504 OA
ATOM     11  H   UNL     1       7.634 -17.366 -25.446  1.00  0.00     0.293 HD
ENDBRANCH   4  10
BRANCH   5  12
ATOM     12  O   UNL     1      12.046 -18.188 -27.788  1.00  0.00    -0.504 OA
ATOM     13  H   UNL     1      12.290 -18.871 -27.081  1.00  0.00     0.293 HD
ENDBRANCH   5  12
BRANCH   6  14
ATOM     14  O   UNL     1      10.078 -18.257 -25.776  1.00  0.00    -0.502 OA
ATOM     15  H   UNL     1       9.984 -19.208 -25.441  1.00  0.00     0.293 HD
ENDBRANCH   6  14
TORSDOF 4
ENDMDL
MODEL 7
REMARK VINA RESULT:    -5.261      2.795      4.235
REMARK INTER + INTRA:          -6.077
REMARK INTER:                  -6.026
REMARK INTRA:                  -0.051
REMARK UNBOUND:                -0.047
REMARK SMILES O=C([O-])c1cc(O)c(O)c(O)c1
REMARK SMILES IDX 4 1 5 2 12 3 6 4 10 5 8 6 2 7 1 8 3 9 7 10 11 12 9 14
REMARK H PARENT 7 11 11 13 9 15
REMARK Flexibility Score: inf
ROOT
ATOM      1  C   UNL     1      11.274 -18.068 -26.436  1.00  0.00     0.005 A 
ATOM      2  C   UNL     1       9.877 -17.939 -26.345  1.00  0.00     0.060 A 
ATOM      3  C   UNL     1      11.878 -18.062 -27.704  1.00  0.00     0.060 A 
ATOM      4  C   UNL     1       9.095 -17.806 -27.501  1.00  0.00     0.162 A 
ATOM      5  C   UNL     1      11.105 -17.930 -28.863  1.00  0.00     0.162 A 
ATOM      6  C   UNL     1       9.709 -17.801 -28.765  1.00  0.00     0.200 A 
ENDROOT
BRANCH   1   7
ATOM      7  C   UNL     1      12.100 -18.208 -25.216  1.00  0.00     0.072 C 
ATOM      8  O   UNL     1      13.208 -18.806 -25.258  1.00  0.00    -0.545 OA
ATOM      9  O   UNL     1      11.665 -17.680 -24.006  1.00  0.00    -0.545 OA
ENDBRANCH   1   7
BRANCH   4  10
ATOM     10  O   UNL     1       7.711 -17.679 -27.398  1.00  0.00    -0.504 OA
ATOM     11  H   UNL     1       7.135 -18.426 -27.025  1.00  0.00     0.293 HD
ENDBRANCH   4  10
BRANCH   5  12
ATOM     12  O   UNL     1      11.743 -17.929 -30.103  1.00  0.00    -0.504 OA
ATOM     13  H   UNL     1      11.289 -17.591 -30.943  1.00  0.00     0.293 HD
ENDBRANCH   5  12
BRANCH   6  14
ATOM     14  O   UNL     1       8.946 -17.670 -29.927  1.00  0.00    -0.502 OA
ATOM     15  H   UNL     1       9.097 -16.921 -30.590  1.00  0.00     0.293 HD
ENDBRANCH   6  14
TORSDOF 4
ENDMDL
MODEL 8
REMARK VINA RESULT:    -5.243      2.798      3.942
REMARK INTER + INTRA:          -6.056
REMARK INTER:                  -6.005
REMARK INTRA:                  -0.051
REMARK UNBOUND:                -0.047
REMARK SMILES O=C([O-])c1cc(O)c(O)c(O)c1
REMARK SMILES IDX 4 1 5 2 12 3 6 4 10 5 8 6 2 7 1 8 3 9 7 10 11 12 9 14
REMARK H PARENT 7 11 11 13 9 15
REMARK Flexibility Score: inf
ROOT
ATOM      1  C   UNL     1      11.306 -18.061 -26.445  1.00  0.00     0.005 A 
ATOM      2  C   UNL     1      11.931 -18.068 -27.704  1.00  0.00     0.060 A 
ATOM      3  C   UNL     1       9.911 -17.914 -26.378  1.00  0.00     0.060 A 
ATOM      4  C   UNL     1      11.176 -17.931 -28.877  1.00  0.00     0.162 A 
ATOM      5  C   UNL     1       9.150 -17.775 -27.544  1.00  0.00     0.162 A 
ATOM      6  C   UNL     1       9.781 -17.783 -28.799  1.00  0.00     0.200 A 
ENDROOT
BRANCH   1   7
ATOM      7  C   UNL     1      12.102 -18.207 -25.206  1.00  0.00     0.072 C 
ATOM      8  O   UNL     1      13.202 -18.821 -25.219  1.00  0.00    -0.545 OA
ATOM      9  O   UNL     1      11.647 -17.668 -24.008  1.00  0.00    -0.545 OA
ENDBRANCH   1   7
BRANCH   4  10
ATOM     10  O   UNL     1      11.808 -17.939 -30.119  1.00  0.00    -0.504 OA
ATOM     11  H   UNL     1      12.688 -17.458 -30.271  1.00  0.00     0.293 HD
ENDBRANCH   4  10
BRANCH   5  12
ATOM     12  O   UNL     1       7.767 -17.630 -27.433  1.00  0.00    -0.504 OA
ATOM     13  H   UNL     1       7.340 -16.774 -27.100  1.00  0.00     0.293 HD
ENDBRANCH   5  12
BRANCH   6  14
ATOM     14  O   UNL     1       9.014 -17.644 -29.957  1.00  0.00    -0.502 OA
ATOM     15  H   UNL     1       8.611 -18.440 -30.436  1.00  0.00     0.293 HD
ENDBRANCH   6  14
TORSDOF 4
ENDMDL
MODEL 9
REMARK VINA RESULT:    -5.149      3.972      5.903
REMARK INTER + INTRA:          -5.949
REMARK INTER:                  -5.897
REMARK INTRA:                  -0.052
REMARK UNBOUND:                -0.047
REMARK SMILES O=C([O-])c1cc(O)c(O)c(O)c1
REMARK SMILES IDX 4 1 5 2 12 3 6 4 10 5 8 6 2 7 1 8 3 9 7 10 11 12 9 14
REMARK H PARENT 7 11 11 13 9 15
REMARK Flexibility Score: inf
ROOT
ATOM      1  C   UNL     1      12.126 -20.695 -27.361  1.00  0.00     0.005 A 
ATOM      2  C   UNL     1      11.927 -20.223 -26.052  1.00  0.00     0.060 A 
ATOM      3  C   UNL     1      11.692 -19.909 -28.442  1.00  0.00     0.060 A 
ATOM      4  C   UNL     1      11.306 -18.987 -25.825  1.00  0.00     0.162 A 
ATOM      5  C   UNL     1      11.070 -18.675 -28.224  1.00  0.00     0.162 A 
ATOM      6  C   UNL     1      10.875 -18.209 -26.912  1.00  0.00     0.200 A 
ENDROOT
BRANCH   1   7
ATOM      7  C   UNL     1      12.783 -21.999 -27.602  1.00  0.00     0.072 C 
ATOM      8  O   UNL     1      13.341 -22.240 -28.706  1.00  0.00    -0.545 OA
ATOM      9  O   UNL     1      12.793 -22.976 -26.614  1.00  0.00    -0.545 OA
ENDBRANCH   1   7
BRANCH   4  10
ATOM     10  O   UNL     1      11.113 -18.531 -24.522  1.00  0.00    -0.504 OA
ATOM     11  H   UNL     1      10.217 -18.615 -24.056  1.00  0.00     0.293 HD
ENDBRANCH   4  10
BRANCH   5  12
ATOM     12  O   UNL     1      10.654 -17.926 -29.324  1.00  0.00    -0.504 OA
ATOM     13  H   UNL     1       9.769 -18.095 -29.788  1.00  0.00     0.293 HD
ENDBRANCH   5  12
BRANCH   6  14
ATOM     14  O   UNL     1      10.253 -16.976 -26.704  1.00  0.00    -0.502 OA
ATOM     15  H   UNL     1       9.246 -16.880 -26.658  1.00  0.00     0.293 HD
ENDBRANCH   6  14
TORSDOF 4
ENDMDL
