MODEL 1
REMARK VINA RESULT:    -3.491      0.000      0.000
REMARK INTER + INTRA:          -4.120
REMARK INTER:                  -4.103
REMARK INTRA:                  -0.017
REMARK UNBOUND:                -0.017
REMARK SMILES CCCCC(=O)[O-]
REMARK SMILES IDX 4 1 5 2 6 3 7 4 3 5 2 6 1 7
REMARK H PARENT
REMARK Flexibility Score: inf
ROOT
ATOM      1  C   UNL     1      -3.480   2.617   2.873  1.00  0.00     0.053 C 
ENDROOT
BRANCH   1   2
ATOM      2  C   UNL     1      -3.259   1.962   4.199  1.00  0.00     0.041 C 
ATOM      3  O   UNL     1      -2.422   1.026   4.312  1.00  0.00    -0.550 OA
ATOM      4  O   UNL     1      -4.011   2.349   5.301  1.00  0.00    -0.550 OA
ENDBRANCH   1   2
BRANCH   1   5
ATOM      5  C   UNL     1      -3.519   4.143   3.030  1.00  0.00     0.006 C 
BRANCH   5   6
ATOM      6  C   UNL     1      -3.730   4.869   1.692  1.00  0.00    -0.003 C 
ATOM      7  C   UNL     1      -3.392   6.358   1.768  1.00  0.00     0.004 C 
ENDBRANCH   5   6
ENDBRANCH   1   5
TORSDOF 3
ENDMDL
MODEL 2
REMARK VINA RESULT:    -3.378      1.065      1.285
REMARK INTER + INTRA:          -3.988
REMARK INTER:                  -3.969
REMARK INTRA:                  -0.018
REMARK UNBOUND:                -0.017
REMARK SMILES CCCCC(=O)[O-]
REMARK SMILES IDX 4 1 5 2 6 3 7 4 3 5 2 6 1 7
REMARK H PARENT
REMARK Flexibility Score: inf
ROOT
ATOM      1  C   UNL     1      -3.441   3.278   3.945  1.00  0.00     0.053 C 
ENDROOT
BRANCH   1   2
ATOM      2  C   UNL     1      -3.227   1.803   4.074  1.00  0.00     0.041 C 
ATOM      3  O   UNL     1      -2.502   1.346   4.997  1.00  0.00    -0.550 OA
ATOM      4  O   UNL     1      -3.789   0.935   3.146  1.00  0.00    -0.550 OA
ENDBRANCH   1   2
BRANCH   1   5
ATOM      5  C   UNL     1      -3.625   3.666   2.471  1.00  0.00     0.006 C 
BRANCH   5   6
ATOM      6  C   UNL     1      -3.398   5.165   2.224  1.00  0.00    -0.003 C 
ATOM      7  C   UNL     1      -4.043   5.654   0.927  1.00  0.00     0.004 C 
ENDBRANCH   5   6
ENDBRANCH   1   5
TORSDOF 3
ENDMDL
MODEL 3
REMARK VINA RESULT:    -3.278      3.008      4.462
REMARK INTER + INTRA:          -3.871
REMARK INTER:                  -3.845
REMARK INTRA:                  -0.026
REMARK UNBOUND:                -0.017
REMARK SMILES CCCCC(=O)[O-]
REMARK SMILES IDX 4 1 5 2 6 3 7 4 3 5 2 6 1 7
REMARK H PARENT
REMARK Flexibility Score: inf
ROOT
ATOM      1  C   UNL     1      -3.420   4.640   2.555  1.00  0.00     0.053 C 
ENDROOT
BRANCH   1   2
ATOM      2  C   UNL     1      -4.316   5.201   1.497  1.00  0.00     0.041 C 
ATOM      3  O   UNL     1      -5.548   5.339   1.718  1.00  0.00    -0.550 OA
ATOM      4  O   UNL     1      -3.799   5.527   0.249  1.00  0.00    -0.550 OA
ENDBRANCH   1   2
BRANCH   1   5
ATOM      5  C   UNL     1      -3.602   3.120   2.660  1.00  0.00     0.006 C 
BRANCH   5   6
ATOM      6  C   UNL     1      -3.552   2.619   4.112  1.00  0.00    -0.003 C 
ATOM      7  C   UNL     1      -3.221   1.130   4.212  1.00  0.00     0.004 C 
ENDBRANCH   5   6
ENDBRANCH   1   5
TORSDOF 3
ENDMDL
MODEL 4
REMARK VINA RESULT:    -2.857      3.210      4.400
REMARK INTER + INTRA:          -3.376
REMARK INTER:                  -3.360
REMARK INTRA:                  -0.016
REMARK UNBOUND:                -0.017
REMARK SMILES CCCCC(=O)[O-]
REMARK SMILES IDX 4 1 5 2 6 3 7 4 3 5 2 6 1 7
REMARK H PARENT
REMARK Flexibility Score: inf
ROOT
ATOM      1  C   UNL     1      -4.370   4.453   2.007  1.00  0.00     0.053 C 
ENDROOT
BRANCH   1   2
ATOM      2  C   UNL     1      -3.829   5.628   1.257  1.00  0.00     0.041 C 
ATOM      3  O   UNL     1      -3.793   5.615  -0.003  1.00  0.00    -0.550 OA
ATOM      4  O   UNL     1      -3.318   6.720   1.948  1.00  0.00    -0.550 OA
ENDBRANCH   1   2
BRANCH   1   5
ATOM      5  C   UNL     1      -3.285   3.847   2.907  1.00  0.00     0.006 C 
BRANCH   5   6
ATOM      6  C   UNL     1      -3.577   2.385   3.280  1.00  0.00    -0.003 C 
ATOM      7  C   UNL     1      -3.506   2.133   4.786  1.00  0.00     0.004 C 
ENDBRANCH   5   6
ENDBRANCH   1   5
TORSDOF 3
ENDMDL
MODEL 5
REMARK VINA RESULT:    -2.292      5.997      7.012
REMARK INTER + INTRA:          -2.711
REMARK INTER:                  -2.675
REMARK INTRA:                  -0.036
REMARK UNBOUND:                -0.017
REMARK SMILES CCCCC(=O)[O-]
REMARK SMILES IDX 4 1 5 2 6 3 7 4 3 5 2 6 1 7
REMARK H PARENT
REMARK Flexibility Score: inf
ROOT
ATOM      1  C   UNL     1      -2.743   6.671   8.028  1.00  0.00     0.053 C 
ENDROOT
BRANCH   1   2
ATOM      2  C   UNL     1      -3.143   7.598   6.924  1.00  0.00     0.041 C 
ATOM      3  O   UNL     1      -4.089   7.292   6.151  1.00  0.00    -0.550 OA
ATOM      4  O   UNL     1      -2.439   8.778   6.718  1.00  0.00    -0.550 OA
ENDBRANCH   1   2
BRANCH   1   5
ATOM      5  C   UNL     1      -1.268   6.880   8.395  1.00  0.00     0.006 C 
BRANCH   5   6
ATOM      6  C   UNL     1      -0.691   5.710   9.207  1.00  0.00    -0.003 C 
ATOM      7  C   UNL     1      -1.621   4.498   9.241  1.00  0.00     0.004 C 
ENDBRANCH   5   6
ENDBRANCH   1   5
TORSDOF 3
ENDMDL
MODEL 6
REMARK VINA RESULT:    -2.273      4.177      5.401
REMARK INTER + INTRA:          -2.689
REMARK INTER:                  -2.642
REMARK INTRA:                  -0.047
REMARK UNBOUND:                -0.017
REMARK SMILES CCCCC(=O)[O-]
REMARK SMILES IDX 4 1 5 2 6 3 7 4 3 5 2 6 1 7
REMARK H PARENT
REMARK Flexibility Score: inf
ROOT
ATOM      1  C   UNL     1      -4.317   6.859   1.677  1.00  0.00     0.053 C 
ENDROOT
BRANCH   1   2
ATOM      2  C   UNL     1      -3.375   7.681   0.856  1.00  0.00     0.041 C 
ATOM      3  O   UNL     1      -2.277   8.061   1.342  1.00  0.00    -0.550 OA
ATOM      4  O   UNL     1      -3.730   8.069  -0.430  1.00  0.00    -0.550 OA
ENDBRANCH   1   2
BRANCH   1   5
ATOM      5  C   UNL     1      -4.092   5.364   1.413  1.00  0.00     0.006 C 
BRANCH   5   6
ATOM      6  C   UNL     1      -3.291   4.681   2.533  1.00  0.00    -0.003 C 
ATOM      7  C   UNL     1      -3.737   3.241   2.785  1.00  0.00     0.004 C 
ENDBRANCH   5   6
ENDBRANCH   1   5
TORSDOF 3
ENDMDL
MODEL 7
REMARK VINA RESULT:    -2.257      6.344      6.915
REMARK INTER + INTRA:          -2.670
REMARK INTER:                  -2.599
REMARK INTRA:                  -0.071
REMARK UNBOUND:                -0.017
REMARK SMILES CCCCC(=O)[O-]
REMARK SMILES IDX 4 1 5 2 6 3 7 4 3 5 2 6 1 7
REMARK H PARENT
REMARK Flexibility Score: inf
ROOT
ATOM      1  C   UNL     1      -2.452   4.702   8.817  1.00  0.00     0.053 C 
ENDROOT
BRANCH   1   2
ATOM      2  C   UNL     1      -3.506   4.548   9.868  1.00  0.00     0.041 C 
ATOM      3  O   UNL     1      -4.701   4.858   9.616  1.00  0.00    -0.550 OA
ATOM      4  O   UNL     1      -3.161   4.109  11.140  1.00  0.00    -0.550 OA
ENDBRANCH   1   2
BRANCH   1   5
ATOM      5  C   UNL     1      -1.054   4.624   9.446  1.00  0.00     0.006 C 
BRANCH   5   6
ATOM      6  C   UNL     1      -0.266   5.934   9.296  1.00  0.00    -0.003 C 
ATOM      7  C   UNL     1      -1.001   6.972   8.447  1.00  0.00     0.004 C 
ENDBRANCH   5   6
ENDBRANCH   1   5
TORSDOF 3
ENDMDL
MODEL 8
REMARK VINA RESULT:    -2.215      3.600      4.831
REMARK INTER + INTRA:          -2.620
REMARK INTER:                  -2.525
REMARK INTRA:                  -0.095
REMARK UNBOUND:                -0.017
REMARK SMILES CCCCC(=O)[O-]
REMARK SMILES IDX 4 1 5 2 6 3 7 4 3 5 2 6 1 7
REMARK H PARENT
REMARK Flexibility Score: inf
ROOT
ATOM      1  C   UNL     1      -5.160   6.410   1.123  1.00  0.00     0.053 C 
ENDROOT
BRANCH   1   2
ATOM      2  C   UNL     1      -6.443   5.654   0.992  1.00  0.00     0.041 C 
ATOM      3  O   UNL     1      -7.158   5.437   2.007  1.00  0.00    -0.550 OA
ATOM      4  O   UNL     1      -6.828   5.145  -0.242  1.00  0.00    -0.550 OA
ENDBRANCH   1   2
BRANCH   1   5
ATOM      5  C   UNL     1      -3.962   5.461   0.986  1.00  0.00     0.006 C 
BRANCH   5   6
ATOM      6  C   UNL     1      -3.392   5.031   2.347  1.00  0.00    -0.003 C 
ATOM      7  C   UNL     1      -3.674   3.563   2.668  1.00  0.00     0.004 C 
ENDBRANCH   5   6
ENDBRANCH   1   5
TORSDOF 3
ENDMDL
MODEL 9
REMARK VINA RESULT:    -2.134      6.174      7.266
REMARK INTER + INTRA:          -2.525
REMARK INTER:                  -2.490
REMARK INTRA:                  -0.035
REMARK UNBOUND:                -0.017
REMARK SMILES CCCCC(=O)[O-]
REMARK SMILES IDX 4 1 5 2 6 3 7 4 3 5 2 6 1 7
REMARK H PARENT
REMARK Flexibility Score: inf
ROOT
ATOM      1  C   UNL     1      -1.437   6.451   8.524  1.00  0.00     0.053 C 
ENDROOT
BRANCH   1   2
ATOM      2  C   UNL     1      -2.385   7.293   7.731  1.00  0.00     0.041 C 
ATOM      3  O   UNL     1      -3.443   6.790   7.268  1.00  0.00    -0.550 OA
ATOM      4  O   UNL     1      -2.077   8.620   7.460  1.00  0.00    -0.550 OA
ENDBRANCH   1   2
BRANCH   1   5
ATOM      5  C   UNL     1      -2.047   5.071   8.799  1.00  0.00     0.006 C 
BRANCH   5   6
ATOM      6  C   UNL     1      -1.127   4.176   9.644  1.00  0.00    -0.003 C 
ATOM      7  C   UNL     1       0.306   4.704   9.717  1.00  0.00     0.004 C 
ENDBRANCH   5   6
ENDBRANCH   1   5
TORSDOF 3
ENDMDL
