MODEL 1
REMARK VINA RESULT:    -2.677      0.000      0.000
REMARK INTER + INTRA:          -7.487
REMARK INTER:                  -6.355
REMARK INTRA:                  -1.132
REMARK UNBOUND:                -1.132
REMARK SMILES O=C(OC[C@H]1O[C@H](OC(=O)c2cc(O)c(O)c(O)c2)[C@H](OC(=O)c2cc(O)c(O)c(O)c2)[C@@H](OC(=O)c2cc(O)c(O)c(O)c2)[C@H]1OC(=O)c1cc(O)c(O)c(O)c1)c1cc(O)c(O)c(O)c1
REMARK SMILES IDX 5 1 46 2 33 3 20 4 7 5 6 6 4 7 3 8 2 9 1 10 59 11 60 12
REMARK SMILES IDX 61 13 67 14 63 15 65 16 62 17 64 19 66 21 47 23 48 24 49 25
REMARK SMILES IDX 50 26 58 27 51 28 56 29 52 30 54 31 57 32 53 34 55 36 34 38
REMARK SMILES IDX 35 39 36 40 37 41 45 42 38 43 43 44 39 45 41 46 44 47 40 49
REMARK SMILES IDX 42 51 8 53 9 54 10 55 11 56 19 57 12 58 17 59 13 60 15 61
REMARK SMILES IDX 18 62 14 64 16 66 21 68 22 69 23 70 24 71 32 72 25 73 30 74
REMARK SMILES IDX 26 75 28 76 31 77 27 79 29 81
REMARK H PARENT 62 18 64 20 66 22 57 33 53 35 55 37 44 48 40 50 42 52 18 63
REMARK H PARENT 14 65 16 67 31 78 27 80 29 82
REMARK Flexibility Score: inf
ROOT
ATOM      1  C   UNL     1     -21.579  57.442   1.864  1.00  0.00     0.205 C 
ATOM      2  C   UNL     1     -22.346  57.004   0.603  1.00  0.00     0.254 C 
ATOM      3  C   UNL     1     -23.798  57.466   0.764  1.00  0.00     0.267 C 
ATOM      4  C   UNL     1     -23.835  58.990   0.983  1.00  0.00     0.290 C 
ATOM      5  C   UNL     1     -22.892  59.369   2.149  1.00  0.00     0.357 C 
ATOM      6  O   UNL     1     -21.577  58.859   1.967  1.00  0.00    -0.329 OA
ENDROOT
BRANCH   1   7
ATOM      7  C   UNL     1     -20.126  56.933   1.871  1.00  0.00     0.269 C 
BRANCH   7   8
ATOM      8  O   UNL     1     -19.320  57.785   1.063  1.00  0.00    -0.459 OA
BRANCH   8   9
ATOM      9  C   UNL     1     -17.920  57.724   1.072  1.00  0.00     0.338 C 
ATOM     10  O   UNL     1     -17.261  58.483   1.839  1.00  0.00    -0.246 OA
BRANCH   9  11
ATOM     11  C   UNL     1     -17.215  56.797   0.162  1.00  0.00     0.067 A 
ATOM     12  C   UNL     1     -17.109  57.093  -1.204  1.00  0.00     0.066 A 
ATOM     13  C   UNL     1     -16.492  56.202  -2.085  1.00  0.00     0.162 A 
ATOM     14  C   UNL     1     -16.681  55.587   0.649  1.00  0.00     0.066 A 
ATOM     15  C   UNL     1     -15.989  54.971  -1.602  1.00  0.00     0.200 A 
ATOM     16  C   UNL     1     -16.083  54.676  -0.229  1.00  0.00     0.162 A 
BRANCH  13  17
ATOM     17  O   UNL     1     -16.390  56.584  -3.424  1.00  0.00    -0.504 OA
ATOM     18  H   UNL     1     -17.102  57.098  -3.912  1.00  0.00     0.293 HD
ENDBRANCH  13  17
BRANCH  15  19
ATOM     19  O   UNL     1     -15.401  54.026  -2.449  1.00  0.00    -0.502 OA
ATOM     20  H   UNL     1     -14.831  54.253  -3.249  1.00  0.00     0.293 HD
ENDBRANCH  15  19
BRANCH  16  21
ATOM     21  O   UNL     1     -15.591  53.477   0.286  1.00  0.00    -0.504 OA
ATOM     22  H   UNL     1     -15.564  52.627  -0.264  1.00  0.00     0.293 HD
ENDBRANCH  16  21
ENDBRANCH   9  11
ENDBRANCH   8   9
ENDBRANCH   7   8
ENDBRANCH   1   7
BRANCH   2  23
ATOM     23  O   UNL     1     -21.788  57.625  -0.557  1.00  0.00    -0.452 OA
BRANCH  23  24
ATOM     24  C   UNL     1     -21.676  57.002  -1.807  1.00  0.00     0.338 C 
ATOM     25  O   UNL     1     -22.394  57.388  -2.766  1.00  0.00    -0.246 OA
BRANCH  24  26
ATOM     26  C   UNL     1     -20.699  55.907  -1.991  1.00  0.00     0.067 A 
ATOM     27  C   UNL     1     -20.207  55.586  -3.270  1.00  0.00     0.066 A 
ATOM     28  C   UNL     1     -20.291  55.136  -0.890  1.00  0.00     0.066 A 
ATOM     29  C   UNL     1     -19.332  54.501  -3.447  1.00  0.00     0.162 A 
ATOM     30  C   UNL     1     -19.412  54.061  -1.061  1.00  0.00     0.162 A 
ATOM     31  C   UNL     1     -18.931  53.738  -2.338  1.00  0.00     0.200 A 
BRANCH  29  32
ATOM     32  O   UNL     1     -18.867  54.176  -4.719  1.00  0.00    -0.504 OA
ATOM     33  H   UNL     1     -17.919  54.389  -5.006  1.00  0.00     0.293 HD
ENDBRANCH  29  32
BRANCH  30  34
ATOM     34  O   UNL     1     -19.033  53.319   0.055  1.00  0.00    -0.504 OA
ATOM     35  H   UNL     1     -18.551  52.429  -0.026  1.00  0.00     0.293 HD
ENDBRANCH  30  34
BRANCH  31  36
ATOM     36  O   UNL     1     -18.066  52.655  -2.487  1.00  0.00    -0.502 OA
ATOM     37  H   UNL     1     -18.355  51.702  -2.308  1.00  0.00     0.293 HD
ENDBRANCH  31  36
ENDBRANCH  24  26
ENDBRANCH  23  24
ENDBRANCH   2  23
BRANCH   3  38
ATOM     38  O   UNL     1     -24.570  57.088  -0.375  1.00  0.00    -0.450 OA
BRANCH  38  39
ATOM     39  C   UNL     1     -24.578  55.782  -0.882  1.00  0.00     0.338 C 
ATOM     40  O   UNL     1     -25.204  55.521  -1.946  1.00  0.00    -0.246 OA
BRANCH  39  41
ATOM     41  C   UNL     1     -23.835  54.708  -0.185  1.00  0.00     0.067 A 
ATOM     42  C   UNL     1     -23.030  53.814  -0.911  1.00  0.00     0.066 A 
ATOM     43  C   UNL     1     -23.925  54.574   1.210  1.00  0.00     0.066 A 
ATOM     44  C   UNL     1     -22.327  52.799  -0.257  1.00  0.00     0.162 A 
ATOM     45  C   UNL     1     -23.230  53.559   1.876  1.00  0.00     0.162 A 
ATOM     46  C   UNL     1     -22.428  52.652   1.136  1.00  0.00     0.200 A 
BRANCH  44  47
ATOM     47  O   UNL     1     -21.522  51.929  -0.994  1.00  0.00    -0.504 OA
ATOM     48  H   UNL     1     -21.791  51.608  -1.921  1.00  0.00     0.293 HD
ENDBRANCH  44  47
BRANCH  45  49
ATOM     49  O   UNL     1     -23.367  53.487   3.263  1.00  0.00    -0.504 OA
ATOM     50  H   UNL     1     -22.599  53.573   3.913  1.00  0.00     0.293 HD
ENDBRANCH  45  49
BRANCH  46  51
ATOM     51  O   UNL     1     -21.726  51.602   1.733  1.00  0.00    -0.502 OA
ATOM     52  H   UNL     1     -21.044  51.730   2.472  1.00  0.00     0.293 HD
ENDBRANCH  46  51
ENDBRANCH  39  41
ENDBRANCH  38  39
ENDBRANCH   3  38
BRANCH   5  53
ATOM     53  O   UNL     1     -23.439  58.937   3.393  1.00  0.00    -0.428 OA
BRANCH  53  54
ATOM     54  C   UNL     1     -23.541  59.764   4.517  1.00  0.00     0.340 C 
ATOM     55  O   UNL     1     -24.555  60.486   4.693  1.00  0.00    -0.246 OA
BRANCH  54  56
ATOM     56  C   UNL     1     -22.448  59.778   5.503  1.00  0.00     0.067 A 
ATOM     57  C   UNL     1     -22.617  60.390   6.752  1.00  0.00     0.066 A 
ATOM     58  C   UNL     1     -21.229  59.162   5.201  1.00  0.00     0.066 A 
ATOM     59  C   UNL     1     -21.596  60.365   7.711  1.00  0.00     0.162 A 
ATOM     60  C   UNL     1     -20.188  59.150   6.130  1.00  0.00     0.162 A 
ATOM     61  C   UNL     1     -20.363  59.736   7.401  1.00  0.00     0.200 A 
BRANCH  59  62
ATOM     62  O   UNL     1     -21.856  60.968   8.945  1.00  0.00    -0.504 OA
ATOM     63  H   UNL     1     -21.245  61.649   9.383  1.00  0.00     0.293 HD
ENDBRANCH  59  62
BRANCH  60  64
ATOM     64  O   UNL     1     -18.979  58.555   5.767  1.00  0.00    -0.504 OA
ATOM     65  H   UNL     1     -18.489  58.812   4.917  1.00  0.00     0.293 HD
ENDBRANCH  60  64
BRANCH  61  66
ATOM     66  O   UNL     1     -19.306  59.671   8.322  1.00  0.00    -0.502 OA
ATOM     67  H   UNL     1     -19.109  58.868   8.903  1.00  0.00     0.293 HD
ENDBRANCH  61  66
ENDBRANCH  54  56
ENDBRANCH  53  54
ENDBRANCH   5  53
BRANCH   4  68
ATOM     68  O   UNL     1     -25.155  59.405   1.326  1.00  0.00    -0.448 OA
BRANCH  68  69
ATOM     69  C   UNL     1     -26.009  60.102   0.466  1.00  0.00     0.339 C 
ATOM     70  O   UNL     1     -27.123  60.527   0.881  1.00  0.00    -0.246 OA
BRANCH  69  71
ATOM     71  C   UNL     1     -25.605  60.324  -0.938  1.00  0.00     0.067 A 
ATOM     72  C   UNL     1     -26.557  60.603  -1.927  1.00  0.00     0.066 A 
ATOM     73  C   UNL     1     -24.249  60.265  -1.300  1.00  0.00     0.066 A 
ATOM     74  C   UNL     1     -26.167  60.835  -3.254  1.00  0.00     0.162 A 
ATOM     75  C   UNL     1     -23.849  60.498  -2.619  1.00  0.00     0.162 A 
ATOM     76  C   UNL     1     -24.807  60.785  -3.603  1.00  0.00     0.200 A 
BRANCH  74  77
ATOM     77  O   UNL     1     -27.125  61.125  -4.227  1.00  0.00    -0.504 OA
ATOM     78  H   UNL     1     -27.861  61.804  -4.060  1.00  0.00     0.293 HD
ENDBRANCH  74  77
BRANCH  75  79
ATOM     79  O   UNL     1     -22.491  60.443  -2.935  1.00  0.00    -0.504 OA
ATOM     80  H   UNL     1     -21.788  60.914  -2.382  1.00  0.00     0.293 HD
ENDBRANCH  75  79
BRANCH  76  81
ATOM     81  O   UNL     1     -24.400  61.017  -4.918  1.00  0.00    -0.502 OA
ATOM     82  H   UNL     1     -24.630  60.392  -5.676  1.00  0.00     0.293 HD
ENDBRANCH  76  81
ENDBRANCH  69  71
ENDBRANCH  68  69
ENDBRANCH   4  68
TORSDOF 31
ENDMDL
MODEL 2
REMARK VINA RESULT:    -2.639      1.208      1.838
REMARK INTER + INTRA:          -7.397
REMARK INTER:                  -5.147
REMARK INTRA:                  -2.250
REMARK UNBOUND:                -1.132
REMARK SMILES O=C(OC[C@H]1O[C@H](OC(=O)c2cc(O)c(O)c(O)c2)[C@H](OC(=O)c2cc(O)c(O)c(O)c2)[C@@H](OC(=O)c2cc(O)c(O)c(O)c2)[C@H]1OC(=O)c1cc(O)c(O)c(O)c1)c1cc(O)c(O)c(O)c1
REMARK SMILES IDX 5 1 46 2 33 3 20 4 7 5 6 6 4 7 3 8 2 9 1 10 59 11 60 12
REMARK SMILES IDX 61 13 67 14 63 15 65 16 62 17 64 19 66 21 47 23 48 24 49 25
REMARK SMILES IDX 50 26 58 27 51 28 56 29 52 30 54 31 57 32 53 34 55 36 34 38
REMARK SMILES IDX 35 39 36 40 37 41 45 42 38 43 43 44 39 45 41 46 44 47 40 49
REMARK SMILES IDX 42 51 8 53 9 54 10 55 11 56 19 57 12 58 17 59 13 60 15 61
REMARK SMILES IDX 18 62 14 64 16 66 21 68 22 69 23 70 24 71 32 72 25 73 30 74
REMARK SMILES IDX 26 75 28 76 31 77 27 79 29 81
REMARK H PARENT 62 18 64 20 66 22 57 33 53 35 55 37 44 48 40 50 42 52 18 63
REMARK H PARENT 14 65 16 67 31 78 27 80 29 82
REMARK Flexibility Score: inf
ROOT
ATOM      1  C   UNL     1     -21.693  57.493   1.869  1.00  0.00     0.205 C 
ATOM      2  C   UNL     1     -22.443  56.967   0.632  1.00  0.00     0.254 C 
ATOM      3  C   UNL     1     -23.893  57.452   0.731  1.00  0.00     0.267 C 
ATOM      4  C   UNL     1     -23.918  58.988   0.832  1.00  0.00     0.290 C 
ATOM      5  C   UNL     1     -22.993  59.448   1.981  1.00  0.00     0.357 C 
ATOM      6  O   UNL     1     -21.680  58.914   1.863  1.00  0.00    -0.329 OA
ENDROOT
BRANCH   1   7
ATOM      7  C   UNL     1     -20.246  56.974   1.942  1.00  0.00     0.269 C 
BRANCH   7   8
ATOM      8  O   UNL     1     -19.352  58.002   1.527  1.00  0.00    -0.459 OA
BRANCH   8   9
ATOM      9  C   UNL     1     -18.017  58.052   1.953  1.00  0.00     0.338 C 
ATOM     10  O   UNL     1     -17.749  58.019   3.189  1.00  0.00    -0.246 OA
BRANCH   9  11
ATOM     11  C   UNL     1     -16.929  58.177   0.961  1.00  0.00     0.067 A 
ATOM     12  C   UNL     1     -17.114  57.719  -0.351  1.00  0.00     0.066 A 
ATOM     13  C   UNL     1     -16.078  57.783  -1.286  1.00  0.00     0.162 A 
ATOM     14  C   UNL     1     -15.681  58.716   1.333  1.00  0.00     0.066 A 
ATOM     15  C   UNL     1     -14.815  58.290  -0.901  1.00  0.00     0.200 A 
ATOM     16  C   UNL     1     -14.629  58.761   0.412  1.00  0.00     0.162 A 
BRANCH  13  17
ATOM     17  O   UNL     1     -16.350  57.344  -2.582  1.00  0.00    -0.504 OA
ATOM     18  H   UNL     1     -16.272  56.385  -2.874  1.00  0.00     0.293 HD
ENDBRANCH  13  17
BRANCH  15  19
ATOM     19  O   UNL     1     -13.733  58.335  -1.785  1.00  0.00    -0.502 OA
ATOM     20  H   UNL     1     -12.976  57.669  -1.797  1.00  0.00     0.293 HD
ENDBRANCH  15  19
BRANCH  16  21
ATOM     21  O   UNL     1     -13.401  59.276   0.826  1.00  0.00    -0.504 OA
ATOM     22  H   UNL     1     -12.605  58.680   1.019  1.00  0.00     0.293 HD
ENDBRANCH  16  21
ENDBRANCH   9  11
ENDBRANCH   8   9
ENDBRANCH   7   8
ENDBRANCH   1   7
BRANCH   2  23
ATOM     23  O   UNL     1     -21.859  57.492  -0.562  1.00  0.00    -0.452 OA
BRANCH  23  24
ATOM     24  C   UNL     1     -21.663  56.750  -1.735  1.00  0.00     0.338 C 
ATOM     25  O   UNL     1     -22.565  56.716  -2.612  1.00  0.00    -0.246 OA
BRANCH  24  26
ATOM     26  C   UNL     1     -20.386  56.030  -1.938  1.00  0.00     0.067 A 
ATOM     27  C   UNL     1     -19.772  55.338  -0.878  1.00  0.00     0.066 A 
ATOM     28  C   UNL     1     -19.743  56.077  -3.186  1.00  0.00     0.066 A 
ATOM     29  C   UNL     1     -18.526  54.715  -1.058  1.00  0.00     0.162 A 
ATOM     30  C   UNL     1     -18.507  55.449  -3.373  1.00  0.00     0.162 A 
ATOM     31  C   UNL     1     -17.893  54.768  -2.311  1.00  0.00     0.200 A 
BRANCH  29  32
ATOM     32  O   UNL     1     -17.915  54.051   0.002  1.00  0.00    -0.504 OA
ATOM     33  H   UNL     1     -17.644  54.539   0.847  1.00  0.00     0.293 HD
ENDBRANCH  29  32
BRANCH  30  34
ATOM     34  O   UNL     1     -17.900  55.520  -4.624  1.00  0.00    -0.504 OA
ATOM     35  H   UNL     1     -18.429  55.434  -5.487  1.00  0.00     0.293 HD
ENDBRANCH  30  34
BRANCH  31  36
ATOM     36  O   UNL     1     -16.656  54.160  -2.517  1.00  0.00    -0.502 OA
ATOM     37  H   UNL     1     -15.789  54.575  -2.202  1.00  0.00     0.293 HD
ENDBRANCH  31  36
ENDBRANCH  24  26
ENDBRANCH  23  24
ENDBRANCH   2  23
BRANCH   3  38
ATOM     38  O   UNL     1     -24.649  56.994  -0.389  1.00  0.00    -0.450 OA
BRANCH  38  39
ATOM     39  C   UNL     1     -24.865  55.633  -0.650  1.00  0.00     0.338 C 
ATOM     40  O   UNL     1     -25.853  55.273  -1.346  1.00  0.00    -0.246 OA
BRANCH  39  41
ATOM     41  C   UNL     1     -23.923  54.618  -0.128  1.00  0.00     0.067 A 
ATOM     42  C   UNL     1     -23.070  53.924  -1.003  1.00  0.00     0.066 A 
ATOM     43  C   UNL     1     -23.869  54.340   1.247  1.00  0.00     0.066 A 
ATOM     44  C   UNL     1     -22.181  52.963  -0.515  1.00  0.00     0.162 A 
ATOM     45  C   UNL     1     -22.986  53.378   1.748  1.00  0.00     0.162 A 
ATOM     46  C   UNL     1     -22.137  52.672   0.857  1.00  0.00     0.200 A 
BRANCH  44  47
ATOM     47  O   UNL     1     -21.332  52.293  -1.399  1.00  0.00    -0.504 OA
ATOM     48  H   UNL     1     -20.351  52.546  -1.491  1.00  0.00     0.293 HD
ENDBRANCH  44  47
BRANCH  45  49
ATOM     49  O   UNL     1     -22.988  53.155   3.125  1.00  0.00    -0.504 OA
ATOM     50  H   UNL     1     -22.154  53.039   3.681  1.00  0.00     0.293 HD
ENDBRANCH  45  49
BRANCH  46  51
ATOM     51  O   UNL     1     -21.247  51.682   1.285  1.00  0.00    -0.502 OA
ATOM     52  H   UNL     1     -21.047  51.490   2.260  1.00  0.00     0.293 HD
ENDBRANCH  46  51
ENDBRANCH  39  41
ENDBRANCH  38  39
ENDBRANCH   3  38
BRANCH   5  53
ATOM     53  O   UNL     1     -23.565  59.117   3.246  1.00  0.00    -0.428 OA
BRANCH  53  54
ATOM     54  C   UNL     1     -23.832  60.064   4.241  1.00  0.00     0.340 C 
ATOM     55  O   UNL     1     -24.786  60.874   4.116  1.00  0.00    -0.246 OA
BRANCH  54  56
ATOM     56  C   UNL     1     -22.987  60.101   5.445  1.00  0.00     0.067 A 
ATOM     57  C   UNL     1     -23.553  59.995   6.722  1.00  0.00     0.066 A 
ATOM     58  C   UNL     1     -21.599  60.230   5.320  1.00  0.00     0.066 A 
ATOM     59  C   UNL     1     -22.749  59.983   7.868  1.00  0.00     0.162 A 
ATOM     60  C   UNL     1     -20.781  60.250   6.450  1.00  0.00     0.162 A 
ATOM     61  C   UNL     1     -21.343  60.110   7.736  1.00  0.00     0.200 A 
BRANCH  59  62
ATOM     62  O   UNL     1     -23.389  59.839   9.104  1.00  0.00    -0.504 OA
ATOM     63  H   UNL     1     -22.913  59.891   9.998  1.00  0.00     0.293 HD
ENDBRANCH  59  62
BRANCH  60  64
ATOM     64  O   UNL     1     -19.407  60.417   6.273  1.00  0.00    -0.504 OA
ATOM     65  H   UNL     1     -19.026  61.168   5.707  1.00  0.00     0.293 HD
ENDBRANCH  60  64
BRANCH  61  66
ATOM     66  O   UNL     1     -20.484  60.097   8.846  1.00  0.00    -0.502 OA
ATOM     67  H   UNL     1     -20.316  60.896   9.442  1.00  0.00     0.293 HD
ENDBRANCH  61  66
ENDBRANCH  54  56
ENDBRANCH  53  54
ENDBRANCH   5  53
BRANCH   4  68
ATOM     68  O   UNL     1     -25.241  59.440   1.118  1.00  0.00    -0.448 OA
BRANCH  68  69
ATOM     69  C   UNL     1     -26.038  60.156   0.221  1.00  0.00     0.339 C 
ATOM     70  O   UNL     1     -27.089  60.730   0.622  1.00  0.00    -0.246 OA
BRANCH  69  71
ATOM     71  C   UNL     1     -25.651  60.224  -1.204  1.00  0.00     0.067 A 
ATOM     72  C   UNL     1     -26.565  59.905  -2.215  1.00  0.00     0.066 A 
ATOM     73  C   UNL     1     -24.353  60.621  -1.564  1.00  0.00     0.066 A 
ATOM     74  C   UNL     1     -26.200  59.992  -3.567  1.00  0.00     0.162 A 
ATOM     75  C   UNL     1     -23.979  60.715  -2.908  1.00  0.00     0.162 A 
ATOM     76  C   UNL     1     -24.903  60.401  -3.916  1.00  0.00     0.200 A 
BRANCH  74  77
ATOM     77  O   UNL     1     -27.125  59.684  -4.565  1.00  0.00    -0.504 OA
ATOM     78  H   UNL     1     -27.310  60.322  -5.332  1.00  0.00     0.293 HD
ENDBRANCH  74  77
BRANCH  75  79
ATOM     79  O   UNL     1     -22.683  61.125  -3.223  1.00  0.00    -0.504 OA
ATOM     80  H   UNL     1     -21.868  60.745  -2.761  1.00  0.00     0.293 HD
ENDBRANCH  75  79
BRANCH  76  81
ATOM     81  O   UNL     1     -24.522  60.498  -5.256  1.00  0.00    -0.502 OA
ATOM     82  H   UNL     1     -25.172  60.737  -5.989  1.00  0.00     0.293 HD
ENDBRANCH  76  81
ENDBRANCH  69  71
ENDBRANCH  68  69
ENDBRANCH   4  68
TORSDOF 31
ENDMDL
MODEL 3
REMARK VINA RESULT:    -2.194      1.908      7.305
REMARK INTER + INTRA:          -6.341
REMARK INTER:                  -7.371
REMARK INTRA:                   1.030
REMARK UNBOUND:                -1.132
REMARK SMILES O=C(OC[C@H]1O[C@H](OC(=O)c2cc(O)c(O)c(O)c2)[C@H](OC(=O)c2cc(O)c(O)c(O)c2)[C@@H](OC(=O)c2cc(O)c(O)c(O)c2)[C@H]1OC(=O)c1cc(O)c(O)c(O)c1)c1cc(O)c(O)c(O)c1
REMARK SMILES IDX 5 1 46 2 33 3 20 4 7 5 6 6 4 7 3 8 2 9 1 10 59 11 60 12
REMARK SMILES IDX 61 13 67 14 63 15 65 16 62 17 64 19 66 21 47 23 48 24 49 25
REMARK SMILES IDX 50 26 58 27 51 28 56 29 52 30 54 31 57 32 53 34 55 36 34 38
REMARK SMILES IDX 35 39 36 40 37 41 45 42 38 43 43 44 39 45 41 46 44 47 40 49
REMARK SMILES IDX 42 51 8 53 9 54 10 55 11 56 19 57 12 58 17 59 13 60 15 61
REMARK SMILES IDX 18 62 14 64 16 66 21 68 22 69 23 70 24 71 32 72 25 73 30 74
REMARK SMILES IDX 26 75 28 76 31 77 27 79 29 81
REMARK H PARENT 62 18 64 20 66 22 57 33 53 35 55 37 44 48 40 50 42 52 18 63
REMARK H PARENT 14 65 16 67 31 78 27 80 29 82
REMARK Flexibility Score: inf
ROOT
ATOM      1  C   UNL     1     -23.288  59.474  -1.437  1.00  0.00     0.205 C 
ATOM      2  C   UNL     1     -22.726  58.220  -2.133  1.00  0.00     0.254 C 
ATOM      3  C   UNL     1     -21.551  57.714  -1.289  1.00  0.00     0.267 C 
ATOM      4  C   UNL     1     -22.029  57.433   0.147  1.00  0.00     0.290 C 
ATOM      5  C   UNL     1     -22.749  58.680   0.708  1.00  0.00     0.357 C 
ATOM      6  O   UNL     1     -23.788  59.135  -0.151  1.00  0.00    -0.329 OA
ENDROOT
BRANCH   1   7
ATOM      7  C   UNL     1     -24.408  60.144  -2.254  1.00  0.00     0.269 C 
BRANCH   7   8
ATOM      8  O   UNL     1     -24.933  59.212  -3.193  1.00  0.00    -0.459 OA
BRANCH   8   9
ATOM      9  C   UNL     1     -26.215  58.659  -3.065  1.00  0.00     0.338 C 
ATOM     10  O   UNL     1     -27.125  58.981  -3.883  1.00  0.00    -0.246 OA
BRANCH   9  11
ATOM     11  C   UNL     1     -26.510  57.728  -1.956  1.00  0.00     0.067 A 
ATOM     12  C   UNL     1     -26.683  58.214  -0.653  1.00  0.00     0.066 A 
ATOM     13  C   UNL     1     -26.911  57.342   0.414  1.00  0.00     0.162 A 
ATOM     14  C   UNL     1     -26.577  56.339  -2.188  1.00  0.00     0.066 A 
ATOM     15  C   UNL     1     -26.941  55.946   0.186  1.00  0.00     0.200 A 
ATOM     16  C   UNL     1     -26.779  55.455  -1.123  1.00  0.00     0.162 A 
BRANCH  13  17
ATOM     17  O   UNL     1     -27.112  57.903   1.676  1.00  0.00    -0.504 OA
ATOM     18  H   UNL     1     -27.445  58.841   1.822  1.00  0.00     0.293 HD
ENDBRANCH  13  17
BRANCH  15  19
ATOM     19  O   UNL     1     -27.122  55.028   1.226  1.00  0.00    -0.502 OA
ATOM     20  H   UNL     1     -27.989  54.554   1.424  1.00  0.00     0.293 HD
ENDBRANCH  15  19
BRANCH  16  21
ATOM     21  O   UNL     1     -26.812  54.086  -1.388  1.00  0.00    -0.504 OA
ATOM     22  H   UNL     1     -26.055  53.613  -1.866  1.00  0.00     0.293 HD
ENDBRANCH  16  21
ENDBRANCH   9  11
ENDBRANCH   8   9
ENDBRANCH   7   8
ENDBRANCH   1   7
BRANCH   2  23
ATOM     23  O   UNL     1     -23.724  57.200  -2.197  1.00  0.00    -0.452 OA
BRANCH  23  24
ATOM     24  C   UNL     1     -23.471  55.873  -2.572  1.00  0.00     0.338 C 
ATOM     25  O   UNL     1     -23.491  55.552  -3.788  1.00  0.00    -0.246 OA
BRANCH  24  26
ATOM     26  C   UNL     1     -23.165  54.868  -1.531  1.00  0.00     0.067 A 
ATOM     27  C   UNL     1     -23.875  54.848  -0.316  1.00  0.00     0.066 A 
ATOM     28  C   UNL     1     -22.118  53.952  -1.724  1.00  0.00     0.066 A 
ATOM     29  C   UNL     1     -23.534  53.935   0.696  1.00  0.00     0.162 A 
ATOM     30  C   UNL     1     -21.781  53.035  -0.723  1.00  0.00     0.162 A 
ATOM     31  C   UNL     1     -22.485  53.023   0.490  1.00  0.00     0.200 A 
BRANCH  29  32
ATOM     32  O   UNL     1     -24.227  53.936   1.903  1.00  0.00    -0.504 OA
ATOM     33  H   UNL     1     -23.822  54.327   2.746  1.00  0.00     0.293 HD
ENDBRANCH  29  32
BRANCH  30  34
ATOM     34  O   UNL     1     -20.735  52.144  -0.952  1.00  0.00    -0.504 OA
ATOM     35  H   UNL     1     -20.551  51.358  -0.336  1.00  0.00     0.293 HD
ENDBRANCH  30  34
BRANCH  31  36
ATOM     36  O   UNL     1     -22.125  52.109   1.478  1.00  0.00    -0.502 OA
ATOM     37  H   UNL     1     -21.309  51.516   1.396  1.00  0.00     0.293 HD
ENDBRANCH  31  36
ENDBRANCH  24  26
ENDBRANCH  23  24
ENDBRANCH   2  23
BRANCH   3  38
ATOM     38  O   UNL     1     -20.978  56.549  -1.882  1.00  0.00    -0.450 OA
BRANCH  38  39
ATOM     39  C   UNL     1     -20.079  56.612  -2.956  1.00  0.00     0.338 C 
ATOM     40  O   UNL     1     -20.374  57.275  -3.988  1.00  0.00    -0.246 OA
BRANCH  39  41
ATOM     41  C   UNL     1     -18.774  55.920  -2.875  1.00  0.00     0.067 A 
ATOM     42  C   UNL     1     -18.645  54.730  -2.138  1.00  0.00     0.066 A 
ATOM     43  C   UNL     1     -17.650  56.442  -3.536  1.00  0.00     0.066 A 
ATOM     44  C   UNL     1     -17.415  54.073  -2.057  1.00  0.00     0.162 A 
ATOM     45  C   UNL     1     -16.412  55.797  -3.460  1.00  0.00     0.162 A 
ATOM     46  C   UNL     1     -16.286  54.603  -2.703  1.00  0.00     0.200 A 
BRANCH  44  47
ATOM     47  O   UNL     1     -17.310  52.885  -1.331  1.00  0.00    -0.504 OA
ATOM     48  H   UNL     1     -18.082  52.225  -1.274  1.00  0.00     0.293 HD
ENDBRANCH  44  47
BRANCH  45  49
ATOM     49  O   UNL     1     -15.341  56.374  -4.142  1.00  0.00    -0.504 OA
ATOM     50  H   UNL     1     -15.400  56.746  -5.079  1.00  0.00     0.293 HD
ENDBRANCH  45  49
BRANCH  46  51
ATOM     51  O   UNL     1     -15.076  53.918  -2.565  1.00  0.00    -0.502 OA
ATOM     52  H   UNL     1     -14.312  53.987  -3.229  1.00  0.00     0.293 HD
ENDBRANCH  46  51
ENDBRANCH  39  41
ENDBRANCH  38  39
ENDBRANCH   3  38
BRANCH   5  53
ATOM     53  O   UNL     1     -21.811  59.722   0.969  1.00  0.00    -0.428 OA
BRANCH  53  54
ATOM     54  C   UNL     1     -21.728  60.393   2.195  1.00  0.00     0.340 C 
ATOM     55  O   UNL     1     -20.738  61.122   2.461  1.00  0.00    -0.246 OA
BRANCH  54  56
ATOM     56  C   UNL     1     -22.816  60.243   3.174  1.00  0.00     0.067 A 
ATOM     57  C   UNL     1     -24.151  60.443   2.799  1.00  0.00     0.066 A 
ATOM     58  C   UNL     1     -22.522  59.883   4.494  1.00  0.00     0.066 A 
ATOM     59  C   UNL     1     -25.193  60.256   3.716  1.00  0.00     0.162 A 
ATOM     60  C   UNL     1     -23.542  59.719   5.432  1.00  0.00     0.162 A 
ATOM     61  C   UNL     1     -24.890  59.887   5.052  1.00  0.00     0.200 A 
BRANCH  59  62
ATOM     62  O   UNL     1     -26.500  60.441   3.254  1.00  0.00    -0.504 OA
ATOM     63  H   UNL     1     -26.814  60.184   2.325  1.00  0.00     0.293 HD
ENDBRANCH  59  62
BRANCH  60  64
ATOM     64  O   UNL     1     -23.194  59.395   6.743  1.00  0.00    -0.504 OA
ATOM     65  H   UNL     1     -23.614  59.861   7.541  1.00  0.00     0.293 HD
ENDBRANCH  60  64
BRANCH  61  66
ATOM     66  O   UNL     1     -25.890  59.677   6.013  1.00  0.00    -0.502 OA
ATOM     67  H   UNL     1     -26.877  59.812   5.843  1.00  0.00     0.293 HD
ENDBRANCH  61  66
ENDBRANCH  54  56
ENDBRANCH  53  54
ENDBRANCH   5  53
BRANCH   4  68
ATOM     68  O   UNL     1     -20.913  57.147   0.989  1.00  0.00    -0.448 OA
BRANCH  68  69
ATOM     69  C   UNL     1     -19.926  56.202   0.694  1.00  0.00     0.339 C 
ATOM     70  O   UNL     1     -20.244  55.003   0.458  1.00  0.00    -0.246 OA
BRANCH  69  71
ATOM     71  C   UNL     1     -18.507  56.613   0.674  1.00  0.00     0.067 A 
ATOM     72  C   UNL     1     -17.482  55.663   0.582  1.00  0.00     0.066 A 
ATOM     73  C   UNL     1     -18.165  57.974   0.740  1.00  0.00     0.066 A 
ATOM     74  C   UNL     1     -16.137  56.059   0.541  1.00  0.00     0.162 A 
ATOM     75  C   UNL     1     -16.828  58.380   0.697  1.00  0.00     0.162 A 
ATOM     76  C   UNL     1     -15.807  57.423   0.596  1.00  0.00     0.200 A 
BRANCH  74  77
ATOM     77  O   UNL     1     -15.127  55.102   0.436  1.00  0.00    -0.504 OA
ATOM     78  H   UNL     1     -14.351  55.076   1.090  1.00  0.00     0.293 HD
ENDBRANCH  74  77
BRANCH  75  79
ATOM     79  O   UNL     1     -16.532  59.743   0.752  1.00  0.00    -0.504 OA
ATOM     80  H   UNL     1     -17.012  60.375   1.377  1.00  0.00     0.293 HD
ENDBRANCH  75  79
BRANCH  76  81
ATOM     81  O   UNL     1     -14.474  57.836   0.553  1.00  0.00    -0.502 OA
ATOM     82  H   UNL     1     -14.193  58.722   0.159  1.00  0.00     0.293 HD
ENDBRANCH  76  81
ENDBRANCH  69  71
ENDBRANCH  68  69
ENDBRANCH   4  68
TORSDOF 31
ENDMDL
MODEL 4
REMARK VINA RESULT:    -1.835      1.953      3.770
REMARK INTER + INTRA:          -5.488
REMARK INTER:                  -5.581
REMARK INTRA:                   0.093
REMARK UNBOUND:                -1.132
REMARK SMILES O=C(OC[C@H]1O[C@H](OC(=O)c2cc(O)c(O)c(O)c2)[C@H](OC(=O)c2cc(O)c(O)c(O)c2)[C@@H](OC(=O)c2cc(O)c(O)c(O)c2)[C@H]1OC(=O)c1cc(O)c(O)c(O)c1)c1cc(O)c(O)c(O)c1
REMARK SMILES IDX 5 1 46 2 33 3 20 4 7 5 6 6 4 7 3 8 2 9 1 10 59 11 60 12
REMARK SMILES IDX 61 13 67 14 63 15 65 16 62 17 64 19 66 21 47 23 48 24 49 25
REMARK SMILES IDX 50 26 58 27 51 28 56 29 52 30 54 31 57 32 53 34 55 36 34 38
REMARK SMILES IDX 35 39 36 40 37 41 45 42 38 43 43 44 39 45 41 46 44 47 40 49
REMARK SMILES IDX 42 51 8 53 9 54 10 55 11 56 19 57 12 58 17 59 13 60 15 61
REMARK SMILES IDX 18 62 14 64 16 66 21 68 22 69 23 70 24 71 32 72 25 73 30 74
REMARK SMILES IDX 26 75 28 76 31 77 27 79 29 81
REMARK H PARENT 62 18 64 20 66 22 57 33 53 35 55 37 44 48 40 50 42 52 18 63
REMARK H PARENT 14 65 16 67 31 78 27 80 29 82
REMARK Flexibility Score: inf
ROOT
ATOM      1  C   UNL     1     -21.432  57.830   0.488  1.00  0.00     0.205 C 
ATOM      2  C   UNL     1     -21.612  57.051  -0.827  1.00  0.00     0.254 C 
ATOM      3  C   UNL     1     -23.055  57.267  -1.296  1.00  0.00     0.267 C 
ATOM      4  C   UNL     1     -23.326  58.774  -1.457  1.00  0.00     0.290 C 
ATOM      5  C   UNL     1     -22.943  59.511  -0.153  1.00  0.00     0.357 C 
ATOM      6  O   UNL     1     -21.614  59.221   0.260  1.00  0.00    -0.329 OA
ENDROOT
BRANCH   1   7
ATOM      7  C   UNL     1     -20.048  57.598   1.122  1.00  0.00     0.269 C 
BRANCH   7   8
ATOM      8  O   UNL     1     -19.576  56.301   0.770  1.00  0.00    -0.459 OA
BRANCH   8   9
ATOM      9  C   UNL     1     -18.237  55.922   0.930  1.00  0.00     0.338 C 
ATOM     10  O   UNL     1     -17.951  54.722   1.211  1.00  0.00    -0.246 OA
BRANCH   9  11
ATOM     11  C   UNL     1     -17.163  56.929   0.804  1.00  0.00     0.067 A 
ATOM     12  C   UNL     1     -16.618  57.227  -0.452  1.00  0.00     0.066 A 
ATOM     13  C   UNL     1     -15.568  58.139  -0.580  1.00  0.00     0.162 A 
ATOM     14  C   UNL     1     -16.647  57.569   1.949  1.00  0.00     0.066 A 
ATOM     15  C   UNL     1     -15.026  58.753   0.573  1.00  0.00     0.200 A 
ATOM     16  C   UNL     1     -15.578  58.465   1.835  1.00  0.00     0.162 A 
BRANCH  13  17
ATOM     17  O   UNL     1     -15.104  58.414  -1.868  1.00  0.00    -0.504 OA
ATOM     18  H   UNL     1     -15.090  59.335  -2.270  1.00  0.00     0.293 HD
ENDBRANCH  13  17
BRANCH  15  19
ATOM     19  O   UNL     1     -13.946  59.640   0.504  1.00  0.00    -0.502 OA
ATOM     20  H   UNL     1     -12.985  59.360   0.382  1.00  0.00     0.293 HD
ENDBRANCH  15  19
BRANCH  16  21
ATOM     21  O   UNL     1     -15.076  59.057   2.994  1.00  0.00    -0.504 OA
ATOM     22  H   UNL     1     -14.641  58.515   3.730  1.00  0.00     0.293 HD
ENDBRANCH  16  21
ENDBRANCH   9  11
ENDBRANCH   8   9
ENDBRANCH   7   8
ENDBRANCH   1   7
BRANCH   2  23
ATOM     23  O   UNL     1     -20.720  57.551  -1.825  1.00  0.00    -0.452 OA
BRANCH  23  24
ATOM     24  C   UNL     1     -20.284  56.813  -2.934  1.00  0.00     0.338 C 
ATOM     25  O   UNL     1     -20.969  56.804  -3.989  1.00  0.00    -0.246 OA
BRANCH  24  26
ATOM     26  C   UNL     1     -19.009  56.066  -2.856  1.00  0.00     0.067 A 
ATOM     27  C   UNL     1     -18.908  54.890  -2.090  1.00  0.00     0.066 A 
ATOM     28  C   UNL     1     -17.865  56.557  -3.506  1.00  0.00     0.066 A 
ATOM     29  C   UNL     1     -17.678  54.222  -1.964  1.00  0.00     0.162 A 
ATOM     30  C   UNL     1     -16.640  55.890  -3.391  1.00  0.00     0.162 A 
ATOM     31  C   UNL     1     -16.541  54.723  -2.619  1.00  0.00     0.200 A 
BRANCH  29  32
ATOM     32  O   UNL     1     -17.581  53.071  -1.186  1.00  0.00    -0.504 OA
ATOM     33  H   UNL     1     -17.448  52.159  -1.606  1.00  0.00     0.293 HD
ENDBRANCH  29  32
BRANCH  30  34
ATOM     34  O   UNL     1     -15.528  56.410  -4.049  1.00  0.00    -0.504 OA
ATOM     35  H   UNL     1     -14.636  56.539  -3.581  1.00  0.00     0.293 HD
ENDBRANCH  30  34
BRANCH  31  36
ATOM     36  O   UNL     1     -15.308  54.082  -2.510  1.00  0.00    -0.502 OA
ATOM     37  H   UNL     1     -15.081  53.475  -1.733  1.00  0.00     0.293 HD
ENDBRANCH  31  36
ENDBRANCH  24  26
ENDBRANCH  23  24
ENDBRANCH   2  23
BRANCH   3  38
ATOM     38  O   UNL     1     -23.292  56.565  -2.517  1.00  0.00    -0.450 OA
BRANCH  38  39
ATOM     39  C   UNL     1     -23.552  55.188  -2.558  1.00  0.00     0.338 C 
ATOM     40  O   UNL     1     -24.480  54.743  -3.288  1.00  0.00    -0.246 OA
BRANCH  39  41
ATOM     41  C   UNL     1     -22.727  54.251  -1.764  1.00  0.00     0.067 A 
ATOM     42  C   UNL     1     -21.712  53.501  -2.381  1.00  0.00     0.066 A 
ATOM     43  C   UNL     1     -22.948  54.105  -0.385  1.00  0.00     0.066 A 
ATOM     44  C   UNL     1     -20.931  52.614  -1.635  1.00  0.00     0.162 A 
ATOM     45  C   UNL     1     -22.176  53.218   0.372  1.00  0.00     0.162 A 
ATOM     46  C   UNL     1     -21.160  52.453  -0.259  1.00  0.00     0.200 A 
BRANCH  44  47
ATOM     47  O   UNL     1     -19.918  51.886  -2.263  1.00  0.00    -0.504 OA
ATOM     48  H   UNL     1     -20.107  51.003  -2.731  1.00  0.00     0.293 HD
ENDBRANCH  44  47
BRANCH  45  49
ATOM     49  O   UNL     1     -22.452  53.125   1.736  1.00  0.00    -0.504 OA
ATOM     50  H   UNL     1     -22.104  52.390   2.336  1.00  0.00     0.293 HD
ENDBRANCH  45  49
BRANCH  46  51
ATOM     51  O   UNL     1     -20.368  51.532   0.430  1.00  0.00    -0.502 OA
ATOM     52  H   UNL     1     -20.589  51.182   1.356  1.00  0.00     0.293 HD
ENDBRANCH  46  51
ENDBRANCH  39  41
ENDBRANCH  38  39
ENDBRANCH   3  38
BRANCH   5  53
ATOM     53  O   UNL     1     -23.877  59.210   0.883  1.00  0.00    -0.428 OA
BRANCH  53  54
ATOM     54  C   UNL     1     -24.268  60.134   1.858  1.00  0.00     0.340 C 
ATOM     55  O   UNL     1     -24.982  61.124   1.553  1.00  0.00    -0.246 OA
BRANCH  54  56
ATOM     56  C   UNL     1     -23.843  59.935   3.252  1.00  0.00     0.067 A 
ATOM     57  C   UNL     1     -22.506  59.655   3.561  1.00  0.00     0.066 A 
ATOM     58  C   UNL     1     -24.778  60.040   4.288  1.00  0.00     0.066 A 
ATOM     59  C   UNL     1     -22.088  59.512   4.891  1.00  0.00     0.162 A 
ATOM     60  C   UNL     1     -24.389  59.872   5.618  1.00  0.00     0.162 A 
ATOM     61  C   UNL     1     -23.039  59.623   5.937  1.00  0.00     0.200 A 
BRANCH  59  62
ATOM     62  O   UNL     1     -20.730  59.268   5.117  1.00  0.00    -0.504 OA
ATOM     63  H   UNL     1     -20.166  59.778   5.788  1.00  0.00     0.293 HD
ENDBRANCH  59  62
BRANCH  60  64
ATOM     64  O   UNL     1     -25.366  59.950   6.611  1.00  0.00    -0.504 OA
ATOM     65  H   UNL     1     -26.334  60.165   6.396  1.00  0.00     0.293 HD
ENDBRANCH  60  64
BRANCH  61  66
ATOM     66  O   UNL     1     -22.680  59.497   7.288  1.00  0.00    -0.502 OA
ATOM     67  H   UNL     1     -22.924  58.706   7.868  1.00  0.00     0.293 HD
ENDBRANCH  61  66
ENDBRANCH  54  56
ENDBRANCH  53  54
ENDBRANCH   5  53
BRANCH   4  68
ATOM     68  O   UNL     1     -24.713  58.999  -1.704  1.00  0.00    -0.448 OA
BRANCH  68  69
ATOM     69  C   UNL     1     -25.741  58.585  -0.853  1.00  0.00     0.339 C 
ATOM     70  O   UNL     1     -26.664  59.385  -0.533  1.00  0.00    -0.246 OA
BRANCH  69  71
ATOM     71  C   UNL     1     -25.733  57.207  -0.320  1.00  0.00     0.067 A 
ATOM     72  C   UNL     1     -26.448  56.183  -0.956  1.00  0.00     0.066 A 
ATOM     73  C   UNL     1     -24.997  56.902   0.836  1.00  0.00     0.066 A 
ATOM     74  C   UNL     1     -26.420  54.872  -0.459  1.00  0.00     0.162 A 
ATOM     75  C   UNL     1     -24.959  55.597   1.338  1.00  0.00     0.162 A 
ATOM     76  C   UNL     1     -25.670  54.575   0.692  1.00  0.00     0.200 A 
BRANCH  74  77
ATOM     77  O   UNL     1     -27.125  53.859  -1.110  1.00  0.00    -0.504 OA
ATOM     78  H   UNL     1     -26.650  53.152  -1.662  1.00  0.00     0.293 HD
ENDBRANCH  74  77
BRANCH  75  79
ATOM     79  O   UNL     1     -24.205  55.334   2.483  1.00  0.00    -0.504 OA
ATOM     80  H   UNL     1     -23.547  54.568   2.532  1.00  0.00     0.293 HD
ENDBRANCH  75  79
BRANCH  76  81
ATOM     81  O   UNL     1     -25.627  53.275   1.199  1.00  0.00    -0.502 OA
ATOM     82  H   UNL     1     -26.186  52.981   1.986  1.00  0.00     0.293 HD
ENDBRANCH  76  81
ENDBRANCH  69  71
ENDBRANCH  68  69
ENDBRANCH   4  68
TORSDOF 31
ENDMDL
MODEL 5
REMARK VINA RESULT:    -1.528      1.922      8.360
REMARK INTER + INTRA:          -4.759
REMARK INTER:                  -3.734
REMARK INTRA:                  -1.025
REMARK UNBOUND:                -1.132
REMARK SMILES O=C(OC[C@H]1O[C@H](OC(=O)c2cc(O)c(O)c(O)c2)[C@H](OC(=O)c2cc(O)c(O)c(O)c2)[C@@H](OC(=O)c2cc(O)c(O)c(O)c2)[C@H]1OC(=O)c1cc(O)c(O)c(O)c1)c1cc(O)c(O)c(O)c1
REMARK SMILES IDX 5 1 46 2 33 3 20 4 7 5 6 6 4 7 3 8 2 9 1 10 59 11 60 12
REMARK SMILES IDX 61 13 67 14 63 15 65 16 62 17 64 19 66 21 47 23 48 24 49 25
REMARK SMILES IDX 50 26 58 27 51 28 56 29 52 30 54 31 57 32 53 34 55 36 34 38
REMARK SMILES IDX 35 39 36 40 37 41 45 42 38 43 43 44 39 45 41 46 44 47 40 49
REMARK SMILES IDX 42 51 8 53 9 54 10 55 11 56 19 57 12 58 17 59 13 60 15 61
REMARK SMILES IDX 18 62 14 64 16 66 21 68 22 69 23 70 24 71 32 72 25 73 30 74
REMARK SMILES IDX 26 75 28 76 31 77 27 79 29 81
REMARK H PARENT 62 18 64 20 66 22 57 33 53 35 55 37 44 48 40 50 42 52 18 63
REMARK H PARENT 14 65 16 67 31 78 27 80 29 82
REMARK Flexibility Score: inf
ROOT
ATOM      1  C   UNL     1     -22.553  56.526   1.856  1.00  0.00     0.205 C 
ATOM      2  C   UNL     1     -22.714  57.988   2.309  1.00  0.00     0.254 C 
ATOM      3  C   UNL     1     -21.329  58.642   2.255  1.00  0.00     0.267 C 
ATOM      4  C   UNL     1     -20.756  58.521   0.831  1.00  0.00     0.290 C 
ATOM      5  C   UNL     1     -20.802  57.044   0.376  1.00  0.00     0.357 C 
ATOM      6  O   UNL     1     -22.101  56.480   0.509  1.00  0.00    -0.329 OA
ENDROOT
BRANCH   1   7
ATOM      7  C   UNL     1     -23.864  55.728   1.977  1.00  0.00     0.269 C 
BRANCH   7   8
ATOM      8  O   UNL     1     -23.919  54.746   0.947  1.00  0.00    -0.459 OA
BRANCH   8   9
ATOM      9  C   UNL     1     -23.072  53.629   0.929  1.00  0.00     0.338 C 
ATOM     10  O   UNL     1     -23.053  52.837   1.915  1.00  0.00    -0.246 OA
BRANCH   9  11
ATOM     11  C   UNL     1     -22.180  53.398  -0.226  1.00  0.00     0.067 A 
ATOM     12  C   UNL     1     -21.123  52.483  -0.129  1.00  0.00     0.066 A 
ATOM     13  C   UNL     1     -20.240  52.291  -1.194  1.00  0.00     0.162 A 
ATOM     14  C   UNL     1     -22.354  54.126  -1.420  1.00  0.00     0.066 A 
ATOM     15  C   UNL     1     -20.394  53.049  -2.379  1.00  0.00     0.200 A 
ATOM     16  C   UNL     1     -21.460  53.961  -2.484  1.00  0.00     0.162 A 
BRANCH  13  17
ATOM     17  O   UNL     1     -19.236  51.334  -1.038  1.00  0.00    -0.504 OA
ATOM     18  H   UNL     1     -18.894  50.758  -1.787  1.00  0.00     0.293 HD
ENDBRANCH  13  17
BRANCH  15  19
ATOM     19  O   UNL     1     -19.511  52.928  -3.457  1.00  0.00    -0.502 OA
ATOM     20  H   UNL     1     -19.710  52.416  -4.303  1.00  0.00     0.293 HD
ENDBRANCH  15  19
BRANCH  16  21
ATOM     21  O   UNL     1     -21.649  54.719  -3.639  1.00  0.00    -0.504 OA
ATOM     22  H   UNL     1     -21.407  55.702  -3.683  1.00  0.00     0.293 HD
ENDBRANCH  16  21
ENDBRANCH   9  11
ENDBRANCH   8   9
ENDBRANCH   7   8
ENDBRANCH   1   7
BRANCH   2  23
ATOM     23  O   UNL     1     -23.592  58.688   1.425  1.00  0.00    -0.452 OA
BRANCH  23  24
ATOM     24  C   UNL     1     -24.976  58.476   1.359  1.00  0.00     0.338 C 
ATOM     25  O   UNL     1     -25.691  58.695   2.370  1.00  0.00    -0.246 OA
BRANCH  24  26
ATOM     26  C   UNL     1     -25.583  58.016   0.091  1.00  0.00     0.067 A 
ATOM     27  C   UNL     1     -26.072  56.703  -0.039  1.00  0.00     0.066 A 
ATOM     28  C   UNL     1     -25.626  58.873  -1.020  1.00  0.00     0.066 A 
ATOM     29  C   UNL     1     -26.585  56.250  -1.266  1.00  0.00     0.162 A 
ATOM     30  C   UNL     1     -26.145  58.429  -2.241  1.00  0.00     0.162 A 
ATOM     31  C   UNL     1     -26.624  57.117  -2.370  1.00  0.00     0.200 A 
BRANCH  29  32
ATOM     32  O   UNL     1     -27.047  54.942  -1.393  1.00  0.00    -0.504 OA
ATOM     33  H   UNL     1     -27.905  54.639  -0.946  1.00  0.00     0.293 HD
ENDBRANCH  29  32
BRANCH  30  34
ATOM     34  O   UNL     1     -26.169  59.309  -3.321  1.00  0.00    -0.504 OA
ATOM     35  H   UNL     1     -26.311  60.307  -3.200  1.00  0.00     0.293 HD
ENDBRANCH  30  34
BRANCH  31  36
ATOM     36  O   UNL     1     -27.125  56.693  -3.599  1.00  0.00    -0.502 OA
ATOM     37  H   UNL     1     -27.514  55.769  -3.736  1.00  0.00     0.293 HD
ENDBRANCH  31  36
ENDBRANCH  24  26
ENDBRANCH  23  24
ENDBRANCH   2  23
BRANCH   3  38
ATOM     38  O   UNL     1     -21.405  60.005   2.668  1.00  0.00    -0.450 OA
BRANCH  38  39
ATOM     39  C   UNL     1     -22.243  60.434   3.707  1.00  0.00     0.338 C 
ATOM     40  O   UNL     1     -23.268  61.121   3.448  1.00  0.00    -0.246 OA
BRANCH  39  41
ATOM     41  C   UNL     1     -21.940  60.065   5.107  1.00  0.00     0.067 A 
ATOM     42  C   UNL     1     -22.800  60.458   6.148  1.00  0.00     0.066 A 
ATOM     43  C   UNL     1     -20.793  59.316   5.412  1.00  0.00     0.066 A 
ATOM     44  C   UNL     1     -22.518  60.113   7.472  1.00  0.00     0.162 A 
ATOM     45  C   UNL     1     -20.496  58.967   6.734  1.00  0.00     0.162 A 
ATOM     46  C   UNL     1     -21.362  59.378   7.780  1.00  0.00     0.200 A 
BRANCH  44  47
ATOM     47  O   UNL     1     -23.391  60.501   8.490  1.00  0.00    -0.504 OA
ATOM     48  H   UNL     1     -24.367  60.717   8.302  1.00  0.00     0.293 HD
ENDBRANCH  44  47
BRANCH  45  49
ATOM     49  O   UNL     1     -19.339  58.222   6.960  1.00  0.00    -0.504 OA
ATOM     50  H   UNL     1     -18.678  57.970   6.240  1.00  0.00     0.293 HD
ENDBRANCH  45  49
BRANCH  46  51
ATOM     51  O   UNL     1     -21.116  59.085   9.125  1.00  0.00    -0.502 OA
ATOM     52  H   UNL     1     -20.478  59.616   9.708  1.00  0.00     0.293 HD
ENDBRANCH  46  51
ENDBRANCH  39  41
ENDBRANCH  38  39
ENDBRANCH   3  38
BRANCH   5  53
ATOM     53  O   UNL     1     -19.836  56.272   1.088  1.00  0.00    -0.428 OA
BRANCH  53  54
ATOM     54  C   UNL     1     -18.968  55.367   0.468  1.00  0.00     0.340 C 
ATOM     55  O   UNL     1     -18.550  54.354   1.086  1.00  0.00    -0.246 OA
BRANCH  54  56
ATOM     56  C   UNL     1     -18.549  55.605  -0.922  1.00  0.00     0.067 A 
ATOM     57  C   UNL     1     -17.321  55.126  -1.394  1.00  0.00     0.066 A 
ATOM     58  C   UNL     1     -19.391  56.305  -1.793  1.00  0.00     0.066 A 
ATOM     59  C   UNL     1     -16.939  55.310  -2.729  1.00  0.00     0.162 A 
ATOM     60  C   UNL     1     -19.019  56.526  -3.120  1.00  0.00     0.162 A 
ATOM     61  C   UNL     1     -17.798  56.017  -3.609  1.00  0.00     0.200 A 
BRANCH  59  62
ATOM     62  O   UNL     1     -15.713  54.771  -3.129  1.00  0.00    -0.504 OA
ATOM     63  H   UNL     1     -15.053  54.331  -2.497  1.00  0.00     0.293 HD
ENDBRANCH  59  62
BRANCH  60  64
ATOM     64  O   UNL     1     -19.877  57.261  -3.938  1.00  0.00    -0.504 OA
ATOM     65  H   UNL     1     -20.371  56.837  -4.717  1.00  0.00     0.293 HD
ENDBRANCH  60  64
BRANCH  61  66
ATOM     66  O   UNL     1     -17.475  56.226  -4.958  1.00  0.00    -0.502 OA
ATOM     67  H   UNL     1     -17.780  55.628  -5.714  1.00  0.00     0.293 HD
ENDBRANCH  61  66
ENDBRANCH  54  56
ENDBRANCH  53  54
ENDBRANCH   5  53
BRANCH   4  68
ATOM     68  O   UNL     1     -19.395  58.949   0.810  1.00  0.00    -0.448 OA
BRANCH  68  69
ATOM     69  C   UNL     1     -18.376  58.368   1.570  1.00  0.00     0.339 C 
ATOM     70  O   UNL     1     -18.637  57.843   2.689  1.00  0.00    -0.246 OA
BRANCH  69  71
ATOM     71  C   UNL     1     -16.989  58.386   1.062  1.00  0.00     0.067 A 
ATOM     72  C   UNL     1     -16.723  58.293  -0.310  1.00  0.00     0.066 A 
ATOM     73  C   UNL     1     -15.911  58.505   1.955  1.00  0.00     0.066 A 
ATOM     74  C   UNL     1     -15.405  58.332  -0.790  1.00  0.00     0.162 A 
ATOM     75  C   UNL     1     -14.595  58.549   1.487  1.00  0.00     0.162 A 
ATOM     76  C   UNL     1     -14.336  58.464   0.111  1.00  0.00     0.200 A 
BRANCH  74  77
ATOM     77  O   UNL     1     -15.155  58.252  -2.161  1.00  0.00    -0.504 OA
ATOM     78  H   UNL     1     -15.638  58.849  -2.824  1.00  0.00     0.293 HD
ENDBRANCH  74  77
BRANCH  75  79
ATOM     79  O   UNL     1     -13.553  58.681   2.407  1.00  0.00    -0.504 OA
ATOM     80  H   UNL     1     -12.839  59.390   2.316  1.00  0.00     0.293 HD
ENDBRANCH  75  79
BRANCH  76  81
ATOM     81  O   UNL     1     -13.018  58.509  -0.349  1.00  0.00    -0.502 OA
ATOM     82  H   UNL     1     -12.675  59.249  -0.943  1.00  0.00     0.293 HD
ENDBRANCH  76  81
ENDBRANCH  69  71
ENDBRANCH  68  69
ENDBRANCH   4  68
TORSDOF 31
ENDMDL
MODEL 6
REMARK VINA RESULT:    -1.441      1.406      7.403
REMARK INTER + INTRA:          -4.553
REMARK INTER:                  -4.065
REMARK INTRA:                  -0.488
REMARK UNBOUND:                -1.132
REMARK SMILES O=C(OC[C@H]1O[C@H](OC(=O)c2cc(O)c(O)c(O)c2)[C@H](OC(=O)c2cc(O)c(O)c(O)c2)[C@@H](OC(=O)c2cc(O)c(O)c(O)c2)[C@H]1OC(=O)c1cc(O)c(O)c(O)c1)c1cc(O)c(O)c(O)c1
REMARK SMILES IDX 5 1 46 2 33 3 20 4 7 5 6 6 4 7 3 8 2 9 1 10 59 11 60 12
REMARK SMILES IDX 61 13 67 14 63 15 65 16 62 17 64 19 66 21 47 23 48 24 49 25
REMARK SMILES IDX 50 26 58 27 51 28 56 29 52 30 54 31 57 32 53 34 55 36 34 38
REMARK SMILES IDX 35 39 36 40 37 41 45 42 38 43 43 44 39 45 41 46 44 47 40 49
REMARK SMILES IDX 42 51 8 53 9 54 10 55 11 56 19 57 12 58 17 59 13 60 15 61
REMARK SMILES IDX 18 62 14 64 16 66 21 68 22 69 23 70 24 71 32 72 25 73 30 74
REMARK SMILES IDX 26 75 28 76 31 77 27 79 29 81
REMARK H PARENT 62 18 64 20 66 22 57 33 53 35 55 37 44 48 40 50 42 52 18 63
REMARK H PARENT 14 65 16 67 31 78 27 80 29 82
REMARK Flexibility Score: inf
ROOT
ATOM      1  C   UNL     1     -20.749  57.733   0.904  1.00  0.00     0.205 C 
ATOM      2  C   UNL     1     -21.816  58.694   1.460  1.00  0.00     0.254 C 
ATOM      3  C   UNL     1     -23.137  57.920   1.535  1.00  0.00     0.267 C 
ATOM      4  C   UNL     1     -22.953  56.666   2.409  1.00  0.00     0.290 C 
ATOM      5  C   UNL     1     -21.744  55.850   1.898  1.00  0.00     0.357 C 
ATOM      6  O   UNL     1     -20.565  56.641   1.793  1.00  0.00    -0.329 OA
ENDROOT
BRANCH   1   7
ATOM      7  C   UNL     1     -19.396  58.431   0.674  1.00  0.00     0.269 C 
BRANCH   7   8
ATOM      8  O   UNL     1     -18.515  58.124   1.750  1.00  0.00    -0.459 OA
BRANCH   8   9
ATOM      9  C   UNL     1     -17.212  57.650   1.540  1.00  0.00     0.338 C 
ATOM     10  O   UNL     1     -16.274  58.033   2.297  1.00  0.00    -0.246 OA
BRANCH   9  11
ATOM     11  C   UNL     1     -16.933  56.731   0.418  1.00  0.00     0.067 A 
ATOM     12  C   UNL     1     -16.789  55.357   0.649  1.00  0.00     0.066 A 
ATOM     13  C   UNL     1     -16.473  54.483  -0.394  1.00  0.00     0.162 A 
ATOM     14  C   UNL     1     -16.764  57.232  -0.889  1.00  0.00     0.066 A 
ATOM     15  C   UNL     1     -16.267  54.991  -1.698  1.00  0.00     0.200 A 
ATOM     16  C   UNL     1     -16.422  56.369  -1.936  1.00  0.00     0.162 A 
BRANCH  13  17
ATOM     17  O   UNL     1     -16.385  53.123  -0.093  1.00  0.00    -0.504 OA
ATOM     18  H   UNL     1     -16.893  52.683   0.656  1.00  0.00     0.293 HD
ENDBRANCH  13  17
BRANCH  15  19
ATOM     19  O   UNL     1     -15.907  54.165  -2.767  1.00  0.00    -0.502 OA
ATOM     20  H   UNL     1     -15.300  53.363  -2.690  1.00  0.00     0.293 HD
ENDBRANCH  15  19
BRANCH  16  21
ATOM     21  O   UNL     1     -16.236  56.905  -3.211  1.00  0.00    -0.504 OA
ATOM     22  H   UNL     1     -16.972  56.903  -3.907  1.00  0.00     0.293 HD
ENDBRANCH  16  21
ENDBRANCH   9  11
ENDBRANCH   8   9
ENDBRANCH   7   8
ENDBRANCH   1   7
BRANCH   2  23
ATOM     23  O   UNL     1     -21.457  59.126   2.773  1.00  0.00    -0.452 OA
BRANCH  23  24
ATOM     24  C   UNL     1     -22.103  60.159   3.467  1.00  0.00     0.338 C 
ATOM     25  O   UNL     1     -22.613  61.117   2.831  1.00  0.00    -0.246 OA
BRANCH  24  26
ATOM     26  C   UNL     1     -22.195  60.099   4.943  1.00  0.00     0.067 A 
ATOM     27  C   UNL     1     -21.132  59.590   5.711  1.00  0.00     0.066 A 
ATOM     28  C   UNL     1     -23.374  60.502   5.591  1.00  0.00     0.066 A 
ATOM     29  C   UNL     1     -21.252  59.471   7.106  1.00  0.00     0.162 A 
ATOM     30  C   UNL     1     -23.494  60.396   6.981  1.00  0.00     0.162 A 
ATOM     31  C   UNL     1     -22.436  59.879   7.743  1.00  0.00     0.200 A 
BRANCH  29  32
ATOM     32  O   UNL     1     -20.204  58.946   7.858  1.00  0.00    -0.504 OA
ATOM     33  H   UNL     1     -20.177  59.040   8.866  1.00  0.00     0.293 HD
ENDBRANCH  29  32
BRANCH  30  34
ATOM     34  O   UNL     1     -24.680  60.804   7.586  1.00  0.00    -0.504 OA
ATOM     35  H   UNL     1     -25.584  60.442   7.300  1.00  0.00     0.293 HD
ENDBRANCH  30  34
BRANCH  31  36
ATOM     36  O   UNL     1     -22.581  59.771   9.125  1.00  0.00    -0.502 OA
ATOM     37  H   UNL     1     -21.820  59.955   9.766  1.00  0.00     0.293 HD
ENDBRANCH  31  36
ENDBRANCH  24  26
ENDBRANCH  23  24
ENDBRANCH   2  23
BRANCH   3  38
ATOM     38  O   UNL     1     -24.176  58.757   2.042  1.00  0.00    -0.450 OA
BRANCH  38  39
ATOM     39  C   UNL     1     -25.282  59.140   1.270  1.00  0.00     0.338 C 
ATOM     40  O   UNL     1     -26.412  59.278   1.812  1.00  0.00    -0.246 OA
BRANCH  39  41
ATOM     41  C   UNL     1     -25.123  59.404  -0.177  1.00  0.00     0.067 A 
ATOM     42  C   UNL     1     -23.997  58.923  -0.867  1.00  0.00     0.066 A 
ATOM     43  C   UNL     1     -26.097  60.134  -0.877  1.00  0.00     0.066 A 
ATOM     44  C   UNL     1     -23.842  59.171  -2.234  1.00  0.00     0.162 A 
ATOM     45  C   UNL     1     -25.952  60.392  -2.244  1.00  0.00     0.162 A 
ATOM     46  C   UNL     1     -24.807  59.915  -2.932  1.00  0.00     0.200 A 
BRANCH  44  47
ATOM     47  O   UNL     1     -22.723  58.673  -2.905  1.00  0.00    -0.504 OA
ATOM     48  H   UNL     1     -22.491  58.973  -3.849  1.00  0.00     0.293 HD
ENDBRANCH  44  47
BRANCH  45  49
ATOM     49  O   UNL     1     -26.959  61.124  -2.872  1.00  0.00    -0.504 OA
ATOM     50  H   UNL     1     -27.658  61.664  -2.381  1.00  0.00     0.293 HD
ENDBRANCH  45  49
BRANCH  46  51
ATOM     51  O   UNL     1     -24.585  60.155  -4.291  1.00  0.00    -0.502 OA
ATOM     52  H   UNL     1     -24.698  59.451  -5.012  1.00  0.00     0.293 HD
ENDBRANCH  46  51
ENDBRANCH  39  41
ENDBRANCH  38  39
ENDBRANCH   3  38
BRANCH   5  53
ATOM     53  O   UNL     1     -22.052  55.229   0.651  1.00  0.00    -0.428 OA
BRANCH  53  54
ATOM     54  C   UNL     1     -21.269  54.219   0.081  1.00  0.00     0.340 C 
ATOM     55  O   UNL     1     -21.198  53.083   0.614  1.00  0.00    -0.246 OA
BRANCH  54  56
ATOM     56  C   UNL     1     -20.528  54.497  -1.160  1.00  0.00     0.067 A 
ATOM     57  C   UNL     1     -20.559  55.768  -1.746  1.00  0.00     0.066 A 
ATOM     58  C   UNL     1     -19.769  53.485  -1.760  1.00  0.00     0.066 A 
ATOM     59  C   UNL     1     -19.818  56.049  -2.901  1.00  0.00     0.162 A 
ATOM     60  C   UNL     1     -19.046  53.734  -2.927  1.00  0.00     0.162 A 
ATOM     61  C   UNL     1     -19.047  55.022  -3.503  1.00  0.00     0.200 A 
BRANCH  59  62
ATOM     62  O   UNL     1     -19.876  57.353  -3.403  1.00  0.00    -0.504 OA
ATOM     63  H   UNL     1     -19.072  57.860  -3.758  1.00  0.00     0.293 HD
ENDBRANCH  59  62
BRANCH  60  64
ATOM     64  O   UNL     1     -18.335  52.683  -3.506  1.00  0.00    -0.504 OA
ATOM     65  H   UNL     1     -18.231  52.594  -4.512  1.00  0.00     0.293 HD
ENDBRANCH  60  64
BRANCH  61  66
ATOM     66  O   UNL     1     -18.278  55.244  -4.655  1.00  0.00    -0.502 OA
ATOM     67  H   UNL     1     -18.271  56.111  -5.174  1.00  0.00     0.293 HD
ENDBRANCH  61  66
ENDBRANCH  54  56
ENDBRANCH  53  54
ENDBRANCH   5  53
BRANCH   4  68
ATOM     68  O   UNL     1     -24.112  55.838   2.331  1.00  0.00    -0.448 OA
BRANCH  68  69
ATOM     69  C   UNL     1     -24.264  54.780   1.430  1.00  0.00     0.339 C 
ATOM     70  O   UNL     1     -24.102  53.589   1.815  1.00  0.00    -0.246 OA
BRANCH  69  71
ATOM     71  C   UNL     1     -24.601  55.068   0.020  1.00  0.00     0.067 A 
ATOM     72  C   UNL     1     -25.713  55.853  -0.309  1.00  0.00     0.066 A 
ATOM     73  C   UNL     1     -23.799  54.560  -1.015  1.00  0.00     0.066 A 
ATOM     74  C   UNL     1     -26.016  56.142  -1.648  1.00  0.00     0.162 A 
ATOM     75  C   UNL     1     -24.091  54.844  -2.352  1.00  0.00     0.162 A 
ATOM     76  C   UNL     1     -25.201  55.638  -2.675  1.00  0.00     0.200 A 
BRANCH  74  77
ATOM     77  O   UNL     1     -27.119  56.937  -1.962  1.00  0.00    -0.504 OA
ATOM     78  H   UNL     1     -27.077  57.949  -1.908  1.00  0.00     0.293 HD
ENDBRANCH  74  77
BRANCH  75  79
ATOM     79  O   UNL     1     -23.261  54.330  -3.350  1.00  0.00    -0.504 OA
ATOM     80  H   UNL     1     -23.002  53.354  -3.388  1.00  0.00     0.293 HD
ENDBRANCH  75  79
BRANCH  76  81
ATOM     81  O   UNL     1     -25.485  55.918  -4.013  1.00  0.00    -0.502 OA
ATOM     82  H   UNL     1     -26.189  56.585  -4.290  1.00  0.00     0.293 HD
ENDBRANCH  76  81
ENDBRANCH  69  71
ENDBRANCH  68  69
ENDBRANCH   4  68
TORSDOF 31
ENDMDL
MODEL 7
REMARK VINA RESULT:    -1.432      1.691      7.175
REMARK INTER + INTRA:          -4.531
REMARK INTER:                  -2.969
REMARK INTRA:                  -1.562
REMARK UNBOUND:                -1.132
REMARK SMILES O=C(OC[C@H]1O[C@H](OC(=O)c2cc(O)c(O)c(O)c2)[C@H](OC(=O)c2cc(O)c(O)c(O)c2)[C@@H](OC(=O)c2cc(O)c(O)c(O)c2)[C@H]1OC(=O)c1cc(O)c(O)c(O)c1)c1cc(O)c(O)c(O)c1
REMARK SMILES IDX 5 1 46 2 33 3 20 4 7 5 6 6 4 7 3 8 2 9 1 10 59 11 60 12
REMARK SMILES IDX 61 13 67 14 63 15 65 16 62 17 64 19 66 21 47 23 48 24 49 25
REMARK SMILES IDX 50 26 58 27 51 28 56 29 52 30 54 31 57 32 53 34 55 36 34 38
REMARK SMILES IDX 35 39 36 40 37 41 45 42 38 43 43 44 39 45 41 46 44 47 40 49
REMARK SMILES IDX 42 51 8 53 9 54 10 55 11 56 19 57 12 58 17 59 13 60 15 61
REMARK SMILES IDX 18 62 14 64 16 66 21 68 22 69 23 70 24 71 32 72 25 73 30 74
REMARK SMILES IDX 26 75 28 76 31 77 27 79 29 81
REMARK H PARENT 62 18 64 20 66 22 57 33 53 35 55 37 44 48 40 50 42 52 18 63
REMARK H PARENT 14 65 16 67 31 78 27 80 29 82
REMARK Flexibility Score: inf
ROOT
ATOM      1  C   UNL     1     -22.988  60.088   0.545  1.00  0.00     0.205 C 
ATOM      2  C   UNL     1     -22.314  58.720   0.755  1.00  0.00     0.254 C 
ATOM      3  C   UNL     1     -22.709  57.827  -0.426  1.00  0.00     0.267 C 
ATOM      4  C   UNL     1     -22.288  58.500  -1.746  1.00  0.00     0.290 C 
ATOM      5  C   UNL     1     -22.849  59.939  -1.796  1.00  0.00     0.357 C 
ATOM      6  O   UNL     1     -22.499  60.695  -0.643  1.00  0.00    -0.329 OA
ENDROOT
BRANCH   1   7
ATOM      7  C   UNL     1     -22.758  61.042   1.732  1.00  0.00     0.269 C 
BRANCH   7   8
ATOM      8  O   UNL     1     -23.872  60.977   2.616  1.00  0.00    -0.459 OA
BRANCH   8   9
ATOM      9  C   UNL     1     -24.022  59.950   3.560  1.00  0.00     0.338 C 
ATOM     10  O   UNL     1     -24.780  58.969   3.308  1.00  0.00    -0.246 OA
BRANCH   9  11
ATOM     11  C   UNL     1     -23.322  60.033   4.858  1.00  0.00     0.067 A 
ATOM     12  C   UNL     1     -21.960  59.714   4.948  1.00  0.00     0.066 A 
ATOM     13  C   UNL     1     -21.297  59.738   6.177  1.00  0.00     0.162 A 
ATOM     14  C   UNL     1     -24.025  60.390   6.027  1.00  0.00     0.066 A 
ATOM     15  C   UNL     1     -22.012  60.060   7.354  1.00  0.00     0.200 A 
ATOM     16  C   UNL     1     -23.376  60.392   7.267  1.00  0.00     0.162 A 
BRANCH  13  17
ATOM     17  O   UNL     1     -19.932  59.446   6.181  1.00  0.00    -0.504 OA
ATOM     18  H   UNL     1     -19.484  58.886   6.885  1.00  0.00     0.293 HD
ENDBRANCH  13  17
BRANCH  15  19
ATOM     19  O   UNL     1     -21.406  60.055   8.615  1.00  0.00    -0.502 OA
ATOM     20  H   UNL     1     -21.433  60.826   9.264  1.00  0.00     0.293 HD
ENDBRANCH  15  19
BRANCH  16  21
ATOM     21  O   UNL     1     -24.112  60.724   8.405  1.00  0.00    -0.504 OA
ATOM     22  H   UNL     1     -24.220  60.082   9.181  1.00  0.00     0.293 HD
ENDBRANCH  16  21
ENDBRANCH   9  11
ENDBRANCH   8   9
ENDBRANCH   7   8
ENDBRANCH   1   7
BRANCH   2  23
ATOM     23  O   UNL     1     -20.893  58.865   0.773  1.00  0.00    -0.452 OA
BRANCH  23  24
ATOM     24  C   UNL     1     -20.035  58.118   1.592  1.00  0.00     0.338 C 
ATOM     25  O   UNL     1     -20.210  58.107   2.838  1.00  0.00    -0.246 OA
BRANCH  24  26
ATOM     26  C   UNL     1     -18.942  57.332   0.977  1.00  0.00     0.067 A 
ATOM     27  C   UNL     1     -19.148  55.998   0.579  1.00  0.00     0.066 A 
ATOM     28  C   UNL     1     -17.664  57.897   0.835  1.00  0.00     0.066 A 
ATOM     29  C   UNL     1     -18.089  55.236   0.059  1.00  0.00     0.162 A 
ATOM     30  C   UNL     1     -16.609  57.145   0.309  1.00  0.00     0.162 A 
ATOM     31  C   UNL     1     -16.815  55.813  -0.079  1.00  0.00     0.200 A 
BRANCH  29  32
ATOM     32  O   UNL     1     -18.295  53.910  -0.312  1.00  0.00    -0.504 OA
ATOM     33  H   UNL     1     -19.049  53.647  -0.936  1.00  0.00     0.293 HD
ENDBRANCH  29  32
BRANCH  30  34
ATOM     34  O   UNL     1     -15.355  57.740   0.186  1.00  0.00    -0.504 OA
ATOM     35  H   UNL     1     -14.546  57.405   0.700  1.00  0.00     0.293 HD
ENDBRANCH  30  34
BRANCH  31  36
ATOM     36  O   UNL     1     -15.746  55.078  -0.590  1.00  0.00    -0.502 OA
ATOM     37  H   UNL     1     -15.419  54.225  -0.155  1.00  0.00     0.293 HD
ENDBRANCH  31  36
ENDBRANCH  24  26
ENDBRANCH  23  24
ENDBRANCH   2  23
BRANCH   3  38
ATOM     38  O   UNL     1     -22.117  56.535  -0.293  1.00  0.00    -0.450 OA
BRANCH  38  39
ATOM     39  C   UNL     1     -22.698  55.514   0.472  1.00  0.00     0.338 C 
ATOM     40  O   UNL     1     -23.715  55.755   1.179  1.00  0.00    -0.246 OA
BRANCH  39  41
ATOM     41  C   UNL     1     -22.135  54.146   0.437  1.00  0.00     0.067 A 
ATOM     42  C   UNL     1     -21.696  53.590  -0.777  1.00  0.00     0.066 A 
ATOM     43  C   UNL     1     -22.029  53.390   1.616  1.00  0.00     0.066 A 
ATOM     44  C   UNL     1     -21.164  52.298  -0.816  1.00  0.00     0.162 A 
ATOM     45  C   UNL     1     -21.503  52.095   1.590  1.00  0.00     0.162 A 
ATOM     46  C   UNL     1     -21.073  51.535   0.359  1.00  0.00     0.200 A 
BRANCH  44  47
ATOM     47  O   UNL     1     -20.721  51.768  -2.029  1.00  0.00    -0.504 OA
ATOM     48  H   UNL     1     -20.986  50.834  -2.333  1.00  0.00     0.293 HD
ENDBRANCH  44  47
BRANCH  45  49
ATOM     49  O   UNL     1     -21.429  51.405   2.800  1.00  0.00    -0.504 OA
ATOM     50  H   UNL     1     -22.180  50.848   3.180  1.00  0.00     0.293 HD
ENDBRANCH  45  49
BRANCH  46  51
ATOM     51  O   UNL     1     -20.559  50.239   0.255  1.00  0.00    -0.502 OA
ATOM     52  H   UNL     1     -19.575  50.015   0.361  1.00  0.00     0.293 HD
ENDBRANCH  46  51
ENDBRANCH  39  41
ENDBRANCH  38  39
ENDBRANCH   3  38
BRANCH   5  53
ATOM     53  O   UNL     1     -24.264  59.917  -1.980  1.00  0.00    -0.428 OA
BRANCH  53  54
ATOM     54  C   UNL     1     -24.947  58.843  -2.561  1.00  0.00     0.340 C 
ATOM     55  O   UNL     1     -25.057  58.753  -3.811  1.00  0.00    -0.246 OA
BRANCH  54  56
ATOM     56  C   UNL     1     -25.533  57.807  -1.695  1.00  0.00     0.067 A 
ATOM     57  C   UNL     1     -25.573  56.468  -2.103  1.00  0.00     0.066 A 
ATOM     58  C   UNL     1     -26.045  58.156  -0.440  1.00  0.00     0.066 A 
ATOM     59  C   UNL     1     -26.087  55.473  -1.263  1.00  0.00     0.162 A 
ATOM     60  C   UNL     1     -26.589  57.186   0.402  1.00  0.00     0.162 A 
ATOM     61  C   UNL     1     -26.602  55.831   0.010  1.00  0.00     0.200 A 
BRANCH  59  62
ATOM     62  O   UNL     1     -26.059  54.156  -1.731  1.00  0.00    -0.504 OA
ATOM     63  H   UNL     1     -26.291  53.348  -1.164  1.00  0.00     0.293 HD
ENDBRANCH  59  62
BRANCH  60  64
ATOM     64  O   UNL     1     -27.120  57.590   1.627  1.00  0.00    -0.504 OA
ATOM     65  H   UNL     1     -26.945  57.075   2.484  1.00  0.00     0.293 HD
ENDBRANCH  60  64
BRANCH  61  66
ATOM     66  O   UNL     1     -27.122  54.879   0.899  1.00  0.00    -0.502 OA
ATOM     67  H   UNL     1     -28.109  54.730   1.057  1.00  0.00     0.293 HD
ENDBRANCH  61  66
ENDBRANCH  54  56
ENDBRANCH  53  54
ENDBRANCH   5  53
BRANCH   4  68
ATOM     68  O   UNL     1     -22.817  57.778  -2.856  1.00  0.00    -0.448 OA
BRANCH  68  69
ATOM     69  C   UNL     1     -22.446  56.473  -3.194  1.00  0.00     0.339 C 
ATOM     70  O   UNL     1     -23.329  55.597  -3.415  1.00  0.00    -0.246 OA
BRANCH  69  71
ATOM     71  C   UNL     1     -21.013  56.122  -3.278  1.00  0.00     0.067 A 
ATOM     72  C   UNL     1     -20.594  54.787  -3.229  1.00  0.00     0.066 A 
ATOM     73  C   UNL     1     -20.046  57.131  -3.416  1.00  0.00     0.066 A 
ATOM     74  C   UNL     1     -19.235  54.456  -3.331  1.00  0.00     0.162 A 
ATOM     75  C   UNL     1     -18.689  56.813  -3.521  1.00  0.00     0.162 A 
ATOM     76  C   UNL     1     -18.277  55.473  -3.481  1.00  0.00     0.200 A 
BRANCH  74  77
ATOM     77  O   UNL     1     -18.832  53.121  -3.295  1.00  0.00    -0.504 OA
ATOM     78  H   UNL     1     -18.719  52.624  -2.417  1.00  0.00     0.293 HD
ENDBRANCH  74  77
BRANCH  75  79
ATOM     79  O   UNL     1     -17.761  57.845  -3.670  1.00  0.00    -0.504 OA
ATOM     80  H   UNL     1     -17.173  58.157  -2.909  1.00  0.00     0.293 HD
ENDBRANCH  75  79
BRANCH  76  81
ATOM     81  O   UNL     1     -16.920  55.163  -3.587  1.00  0.00    -0.502 OA
ATOM     82  H   UNL     1     -16.557  54.240  -3.405  1.00  0.00     0.293 HD
ENDBRANCH  76  81
ENDBRANCH  69  71
ENDBRANCH  68  69
ENDBRANCH   4  68
TORSDOF 31
ENDMDL
MODEL 8
REMARK VINA RESULT:    -1.098      1.753      7.240
REMARK INTER + INTRA:          -3.738
REMARK INTER:                  -3.899
REMARK INTRA:                   0.161
REMARK UNBOUND:                -1.132
REMARK SMILES O=C(OC[C@H]1O[C@H](OC(=O)c2cc(O)c(O)c(O)c2)[C@H](OC(=O)c2cc(O)c(O)c(O)c2)[C@@H](OC(=O)c2cc(O)c(O)c(O)c2)[C@H]1OC(=O)c1cc(O)c(O)c(O)c1)c1cc(O)c(O)c(O)c1
REMARK SMILES IDX 5 1 46 2 33 3 20 4 7 5 6 6 4 7 3 8 2 9 1 10 59 11 60 12
REMARK SMILES IDX 61 13 67 14 63 15 65 16 62 17 64 19 66 21 47 23 48 24 49 25
REMARK SMILES IDX 50 26 58 27 51 28 56 29 52 30 54 31 57 32 53 34 55 36 34 38
REMARK SMILES IDX 35 39 36 40 37 41 45 42 38 43 43 44 39 45 41 46 44 47 40 49
REMARK SMILES IDX 42 51 8 53 9 54 10 55 11 56 19 57 12 58 17 59 13 60 15 61
REMARK SMILES IDX 18 62 14 64 16 66 21 68 22 69 23 70 24 71 32 72 25 73 30 74
REMARK SMILES IDX 26 75 28 76 31 77 27 79 29 81
REMARK H PARENT 62 18 64 20 66 22 57 33 53 35 55 37 44 48 40 50 42 52 18 63
REMARK H PARENT 14 65 16 67 31 78 27 80 29 82
REMARK Flexibility Score: inf
ROOT
ATOM      1  C   UNL     1     -20.948  57.158   0.390  1.00  0.00     0.205 C 
ATOM      2  C   UNL     1     -20.365  55.733   0.395  1.00  0.00     0.254 C 
ATOM      3  C   UNL     1     -21.180  54.899  -0.600  1.00  0.00     0.267 C 
ATOM      4  C   UNL     1     -21.128  55.558  -1.991  1.00  0.00     0.290 C 
ATOM      5  C   UNL     1     -21.550  57.041  -1.879  1.00  0.00     0.357 C 
ATOM      6  O   UNL     1     -20.797  57.743  -0.897  1.00  0.00    -0.329 OA
ENDROOT
BRANCH   1   7
ATOM      7  C   UNL     1     -20.282  58.066   1.439  1.00  0.00     0.269 C 
BRANCH   7   8
ATOM      8  O   UNL     1     -21.116  58.153   2.590  1.00  0.00    -0.459 OA
BRANCH   8   9
ATOM      9  C   UNL     1     -21.443  59.377   3.190  1.00  0.00     0.338 C 
ATOM     10  O   UNL     1     -21.676  60.389   2.468  1.00  0.00    -0.246 OA
BRANCH   9  11
ATOM     11  C   UNL     1     -21.482  59.491   4.662  1.00  0.00     0.067 A 
ATOM     12  C   UNL     1     -20.405  59.036   5.435  1.00  0.00     0.066 A 
ATOM     13  C   UNL     1     -20.449  59.089   6.830  1.00  0.00     0.162 A 
ATOM     14  C   UNL     1     -22.619  60.017   5.308  1.00  0.00     0.066 A 
ATOM     15  C   UNL     1     -21.605  59.583   7.478  1.00  0.00     0.200 A 
ATOM     16  C   UNL     1     -22.684  60.052   6.705  1.00  0.00     0.162 A 
BRANCH  13  17
ATOM     17  O   UNL     1     -19.322  58.653   7.529  1.00  0.00    -0.504 OA
ATOM     18  H   UNL     1     -18.386  58.957   7.322  1.00  0.00     0.293 HD
ENDBRANCH  13  17
BRANCH  15  19
ATOM     19  O   UNL     1     -21.717  59.617   8.871  1.00  0.00    -0.502 OA
ATOM     20  H   UNL     1     -21.939  58.819   9.446  1.00  0.00     0.293 HD
ENDBRANCH  15  19
BRANCH  16  21
ATOM     21  O   UNL     1     -23.837  60.554   7.308  1.00  0.00    -0.504 OA
ATOM     22  H   UNL     1     -23.835  61.419   7.836  1.00  0.00     0.293 HD
ENDBRANCH  16  21
ENDBRANCH   9  11
ENDBRANCH   8   9
ENDBRANCH   7   8
ENDBRANCH   1   7
BRANCH   2  23
ATOM     23  O   UNL     1     -19.000  55.755  -0.027  1.00  0.00    -0.452 OA
BRANCH  23  24
ATOM     24  C   UNL     1     -17.905  55.775   0.848  1.00  0.00     0.338 C 
ATOM     25  O   UNL     1     -17.768  54.860   1.699  1.00  0.00    -0.246 OA
BRANCH  24  26
ATOM     26  C   UNL     1     -16.911  56.866   0.745  1.00  0.00     0.067 A 
ATOM     27  C   UNL     1     -16.370  57.234  -0.500  1.00  0.00     0.066 A 
ATOM     28  C   UNL     1     -16.453  57.512   1.906  1.00  0.00     0.066 A 
ATOM     29  C   UNL     1     -15.376  58.224  -0.583  1.00  0.00     0.162 A 
ATOM     30  C   UNL     1     -15.471  58.504   1.827  1.00  0.00     0.162 A 
ATOM     31  C   UNL     1     -14.927  58.863   0.585  1.00  0.00     0.200 A 
BRANCH  29  32
ATOM     32  O   UNL     1     -14.830  58.567  -1.817  1.00  0.00    -0.504 OA
ATOM     33  H   UNL     1     -14.532  59.515  -2.019  1.00  0.00     0.293 HD
ENDBRANCH  29  32
BRANCH  30  34
ATOM     34  O   UNL     1     -15.042  59.120   3.001  1.00  0.00    -0.504 OA
ATOM     35  H   UNL     1     -15.383  58.837   3.914  1.00  0.00     0.293 HD
ENDBRANCH  30  34
BRANCH  31  36
ATOM     36  O   UNL     1     -13.941  59.846   0.531  1.00  0.00    -0.502 OA
ATOM     37  H   UNL     1     -14.155  60.832   0.602  1.00  0.00     0.293 HD
ENDBRANCH  31  36
ENDBRANCH  24  26
ENDBRANCH  23  24
ENDBRANCH   2  23
BRANCH   3  38
ATOM     38  O   UNL     1     -20.692  53.559  -0.644  1.00  0.00    -0.450 OA
BRANCH  38  39
ATOM     39  C   UNL     1     -19.934  53.066  -1.715  1.00  0.00     0.338 C 
ATOM     40  O   UNL     1     -20.223  51.952  -2.232  1.00  0.00    -0.246 OA
BRANCH  39  41
ATOM     41  C   UNL     1     -18.808  53.858  -2.256  1.00  0.00     0.067 A 
ATOM     42  C   UNL     1     -17.493  53.609  -1.826  1.00  0.00     0.066 A 
ATOM     43  C   UNL     1     -19.040  54.865  -3.207  1.00  0.00     0.066 A 
ATOM     44  C   UNL     1     -16.426  54.355  -2.334  1.00  0.00     0.162 A 
ATOM     45  C   UNL     1     -17.981  55.621  -3.720  1.00  0.00     0.162 A 
ATOM     46  C   UNL     1     -16.658  55.373  -3.272  1.00  0.00     0.200 A 
BRANCH  44  47
ATOM     47  O   UNL     1     -15.125  54.084  -1.904  1.00  0.00    -0.504 OA
ATOM     48  H   UNL     1     -14.368  54.748  -2.043  1.00  0.00     0.293 HD
ENDBRANCH  44  47
BRANCH  45  49
ATOM     49  O   UNL     1     -18.288  56.604  -4.661  1.00  0.00    -0.504 OA
ATOM     50  H   UNL     1     -18.492  57.566  -4.430  1.00  0.00     0.293 HD
ENDBRANCH  45  49
BRANCH  46  51
ATOM     51  O   UNL     1     -15.556  56.106  -3.724  1.00  0.00    -0.502 OA
ATOM     52  H   UNL     1     -15.609  56.804  -4.457  1.00  0.00     0.293 HD
ENDBRANCH  46  51
ENDBRANCH  39  41
ENDBRANCH  38  39
ENDBRANCH   3  38
BRANCH   5  53
ATOM     53  O   UNL     1     -22.948  57.144  -1.619  1.00  0.00    -0.428 OA
BRANCH  53  54
ATOM     54  C   UNL     1     -23.651  58.353  -1.659  1.00  0.00     0.340 C 
ATOM     55  O   UNL     1     -23.679  59.044  -2.710  1.00  0.00    -0.246 OA
BRANCH  54  56
ATOM     56  C   UNL     1     -24.368  58.812  -0.458  1.00  0.00     0.067 A 
ATOM     57  C   UNL     1     -24.020  58.333   0.811  1.00  0.00     0.066 A 
ATOM     58  C   UNL     1     -25.400  59.749  -0.578  1.00  0.00     0.066 A 
ATOM     59  C   UNL     1     -24.668  58.801   1.961  1.00  0.00     0.162 A 
ATOM     60  C   UNL     1     -26.079  60.208   0.552  1.00  0.00     0.162 A 
ATOM     61  C   UNL     1     -25.711  59.754   1.835  1.00  0.00     0.200 A 
BRANCH  59  62
ATOM     62  O   UNL     1     -24.239  58.299   3.193  1.00  0.00    -0.504 OA
ATOM     63  H   UNL     1     -23.486  58.703   3.739  1.00  0.00     0.293 HD
ENDBRANCH  59  62
BRANCH  60  64
ATOM     64  O   UNL     1     -27.125  61.115   0.376  1.00  0.00    -0.504 OA
ATOM     65  H   UNL     1     -27.358  61.808   1.079  1.00  0.00     0.293 HD
ENDBRANCH  60  64
BRANCH  61  66
ATOM     66  O   UNL     1     -26.392  60.267   2.950  1.00  0.00    -0.502 OA
ATOM     67  H   UNL     1     -26.997  61.076   2.922  1.00  0.00     0.293 HD
ENDBRANCH  61  66
ENDBRANCH  54  56
ENDBRANCH  53  54
ENDBRANCH   5  53
BRANCH   4  68
ATOM     68  O   UNL     1     -22.034  54.905  -2.878  1.00  0.00    -0.448 OA
BRANCH  68  69
ATOM     69  C   UNL     1     -23.068  54.059  -2.464  1.00  0.00     0.339 C 
ATOM     70  O   UNL     1     -23.105  52.860  -2.857  1.00  0.00    -0.246 OA
BRANCH  69  71
ATOM     71  C   UNL     1     -24.126  54.584  -1.576  1.00  0.00     0.067 A 
ATOM     72  C   UNL     1     -24.129  54.288  -0.207  1.00  0.00     0.066 A 
ATOM     73  C   UNL     1     -25.144  55.399  -2.096  1.00  0.00     0.066 A 
ATOM     74  C   UNL     1     -25.122  54.806   0.638  1.00  0.00     0.162 A 
ATOM     75  C   UNL     1     -26.137  55.923  -1.263  1.00  0.00     0.162 A 
ATOM     76  C   UNL     1     -26.130  55.630   0.109  1.00  0.00     0.200 A 
BRANCH  74  77
ATOM     77  O   UNL     1     -25.106  54.514   2.002  1.00  0.00    -0.504 OA
ATOM     78  H   UNL     1     -24.342  53.997   2.425  1.00  0.00     0.293 HD
ENDBRANCH  74  77
BRANCH  75  79
ATOM     79  O   UNL     1     -27.125  56.739  -1.817  1.00  0.00    -0.504 OA
ATOM     80  H   UNL     1     -28.064  56.408  -1.993  1.00  0.00     0.293 HD
ENDBRANCH  75  79
BRANCH  76  81
ATOM     81  O   UNL     1     -27.125  56.158   0.934  1.00  0.00    -0.502 OA
ATOM     82  H   UNL     1     -28.029  55.722   1.042  1.00  0.00     0.293 HD
ENDBRANCH  76  81
ENDBRANCH  69  71
ENDBRANCH  68  69
ENDBRANCH   4  68
TORSDOF 31
ENDMDL
MODEL 9
REMARK VINA RESULT:    -0.800      1.798      7.058
REMARK INTER + INTRA:          -3.032
REMARK INTER:                  -6.168
REMARK INTRA:                   3.136
REMARK UNBOUND:                -1.132
REMARK SMILES O=C(OC[C@H]1O[C@H](OC(=O)c2cc(O)c(O)c(O)c2)[C@H](OC(=O)c2cc(O)c(O)c(O)c2)[C@@H](OC(=O)c2cc(O)c(O)c(O)c2)[C@H]1OC(=O)c1cc(O)c(O)c(O)c1)c1cc(O)c(O)c(O)c1
REMARK SMILES IDX 5 1 46 2 33 3 20 4 7 5 6 6 4 7 3 8 2 9 1 10 59 11 60 12
REMARK SMILES IDX 61 13 67 14 63 15 65 16 62 17 64 19 66 21 47 23 48 24 49 25
REMARK SMILES IDX 50 26 58 27 51 28 56 29 52 30 54 31 57 32 53 34 55 36 34 38
REMARK SMILES IDX 35 39 36 40 37 41 45 42 38 43 43 44 39 45 41 46 44 47 40 49
REMARK SMILES IDX 42 51 8 53 9 54 10 55 11 56 19 57 12 58 17 59 13 60 15 61
REMARK SMILES IDX 18 62 14 64 16 66 21 68 22 69 23 70 24 71 32 72 25 73 30 74
REMARK SMILES IDX 26 75 28 76 31 77 27 79 29 81
REMARK H PARENT 62 18 64 20 66 22 57 33 53 35 55 37 44 48 40 50 42 52 18 63
REMARK H PARENT 14 65 16 67 31 78 27 80 29 82
REMARK Flexibility Score: inf
ROOT
ATOM      1  C   UNL     1     -22.268  55.937  -0.293  1.00  0.00     0.205 C 
ATOM      2  C   UNL     1     -22.045  57.460  -0.321  1.00  0.00     0.254 C 
ATOM      3  C   UNL     1     -22.706  58.045   0.932  1.00  0.00     0.267 C 
ATOM      4  C   UNL     1     -22.111  57.380   2.188  1.00  0.00     0.290 C 
ATOM      5  C   UNL     1     -22.203  55.843   2.054  1.00  0.00     0.357 C 
ATOM      6  O   UNL     1     -21.627  55.371   0.842  1.00  0.00    -0.329 OA
ENDROOT
BRANCH   1   7
ATOM      7  C   UNL     1     -21.745  55.246  -1.565  1.00  0.00     0.269 C 
BRANCH   7   8
ATOM      8  O   UNL     1     -21.866  56.133  -2.672  1.00  0.00    -0.459 OA
BRANCH   8   9
ATOM      9  C   UNL     1     -20.763  56.527  -3.443  1.00  0.00     0.338 C 
ATOM     10  O   UNL     1     -20.898  57.425  -4.323  1.00  0.00    -0.246 OA
BRANCH   9  11
ATOM     11  C   UNL     1     -19.455  55.868  -3.250  1.00  0.00     0.067 A 
ATOM     12  C   UNL     1     -19.387  54.575  -2.713  1.00  0.00     0.066 A 
ATOM     13  C   UNL     1     -18.156  53.960  -2.476  1.00  0.00     0.162 A 
ATOM     14  C   UNL     1     -18.260  56.549  -3.561  1.00  0.00     0.066 A 
ATOM     15  C   UNL     1     -16.957  54.658  -2.754  1.00  0.00     0.200 A 
ATOM     16  C   UNL     1     -17.021  55.952  -3.303  1.00  0.00     0.162 A 
BRANCH  13  17
ATOM     17  O   UNL     1     -18.170  52.657  -1.977  1.00  0.00    -0.504 OA
ATOM     18  H   UNL     1     -18.774  52.352  -1.233  1.00  0.00     0.293 HD
ENDBRANCH  13  17
BRANCH  15  19
ATOM     19  O   UNL     1     -15.699  54.105  -2.495  1.00  0.00    -0.502 OA
ATOM     20  H   UNL     1     -15.221  53.462  -3.107  1.00  0.00     0.293 HD
ENDBRANCH  15  19
BRANCH  16  21
ATOM     21  O   UNL     1     -15.861  56.668  -3.599  1.00  0.00    -0.504 OA
ATOM     22  H   UNL     1     -15.547  57.443  -3.028  1.00  0.00     0.293 HD
ENDBRANCH  16  21
ENDBRANCH   9  11
ENDBRANCH   8   9
ENDBRANCH   7   8
ENDBRANCH   1   7
BRANCH   2  23
ATOM     23  O   UNL     1     -20.648  57.757  -0.291  1.00  0.00    -0.452 OA
BRANCH  23  24
ATOM     24  C   UNL     1     -19.834  57.601   0.839  1.00  0.00     0.338 C 
ATOM     25  O   UNL     1     -20.234  58.009   1.960  1.00  0.00    -0.246 OA
BRANCH  24  26
ATOM     26  C   UNL     1     -18.517  56.940   0.703  1.00  0.00     0.067 A 
ATOM     27  C   UNL     1     -17.367  57.683   0.377  1.00  0.00     0.066 A 
ATOM     28  C   UNL     1     -18.411  55.547   0.845  1.00  0.00     0.066 A 
ATOM     29  C   UNL     1     -16.133  57.041   0.181  1.00  0.00     0.162 A 
ATOM     30  C   UNL     1     -17.183  54.904   0.661  1.00  0.00     0.162 A 
ATOM     31  C   UNL     1     -16.040  55.646   0.326  1.00  0.00     0.200 A 
BRANCH  29  32
ATOM     32  O   UNL     1     -15.005  57.780  -0.163  1.00  0.00    -0.504 OA
ATOM     33  H   UNL     1     -15.079  58.731  -0.505  1.00  0.00     0.293 HD
ENDBRANCH  29  32
BRANCH  30  34
ATOM     34  O   UNL     1     -17.120  53.520   0.808  1.00  0.00    -0.504 OA
ATOM     35  H   UNL     1     -16.380  52.966   0.387  1.00  0.00     0.293 HD
ENDBRANCH  30  34
BRANCH  31  36
ATOM     36  O   UNL     1     -14.829  54.984   0.136  1.00  0.00    -0.502 OA
ATOM     37  H   UNL     1     -14.666  54.046   0.478  1.00  0.00     0.293 HD
ENDBRANCH  31  36
ENDBRANCH  24  26
ENDBRANCH  23  24
ENDBRANCH   2  23
BRANCH   3  38
ATOM     38  O   UNL     1     -22.539  59.461   0.969  1.00  0.00    -0.450 OA
BRANCH  38  39
ATOM     39  C   UNL     1     -23.580  60.352   0.672  1.00  0.00     0.338 C 
ATOM     40  O   UNL     1     -24.150  60.989   1.600  1.00  0.00    -0.246 OA
BRANCH  39  41
ATOM     41  C   UNL     1     -23.999  60.565  -0.731  1.00  0.00     0.067 A 
ATOM     42  C   UNL     1     -25.364  60.588  -1.069  1.00  0.00     0.066 A 
ATOM     43  C   UNL     1     -23.040  60.750  -1.739  1.00  0.00     0.066 A 
ATOM     44  C   UNL     1     -25.765  60.787  -2.392  1.00  0.00     0.162 A 
ATOM     45  C   UNL     1     -23.428  60.946  -3.068  1.00  0.00     0.162 A 
ATOM     46  C   UNL     1     -24.807  60.956  -3.405  1.00  0.00     0.200 A 
BRANCH  44  47
ATOM     47  O   UNL     1     -27.125  60.820  -2.706  1.00  0.00    -0.504 OA
ATOM     48  H   UNL     1     -27.497  61.464  -3.400  1.00  0.00     0.293 HD
ENDBRANCH  44  47
BRANCH  45  49
ATOM     49  O   UNL     1     -22.419  61.123  -4.016  1.00  0.00    -0.504 OA
ATOM     50  H   UNL     1     -22.544  61.608  -4.892  1.00  0.00     0.293 HD
ENDBRANCH  45  49
BRANCH  46  51
ATOM     51  O   UNL     1     -25.265  61.124  -4.714  1.00  0.00    -0.502 OA
ATOM     52  H   UNL     1     -25.485  62.026  -5.121  1.00  0.00     0.293 HD
ENDBRANCH  46  51
ENDBRANCH  39  41
ENDBRANCH  38  39
ENDBRANCH   3  38
BRANCH   5  53
ATOM     53  O   UNL     1     -23.557  55.412   2.176  1.00  0.00    -0.428 OA
BRANCH  53  54
ATOM     54  C   UNL     1     -24.246  54.742   1.159  1.00  0.00     0.340 C 
ATOM     55  O   UNL     1     -24.222  53.486   1.087  1.00  0.00    -0.246 OA
BRANCH  54  56
ATOM     56  C   UNL     1     -25.008  55.521   0.170  1.00  0.00     0.067 A 
ATOM     57  C   UNL     1     -25.749  56.644   0.558  1.00  0.00     0.066 A 
ATOM     58  C   UNL     1     -24.985  55.147  -1.179  1.00  0.00     0.066 A 
ATOM     59  C   UNL     1     -26.438  57.415  -0.387  1.00  0.00     0.162 A 
ATOM     60  C   UNL     1     -25.688  55.884  -2.133  1.00  0.00     0.162 A 
ATOM     61  C   UNL     1     -26.409  57.035  -1.753  1.00  0.00     0.200 A 
BRANCH  59  62
ATOM     62  O   UNL     1     -27.125  58.541   0.077  1.00  0.00    -0.504 OA
ATOM     63  H   UNL     1     -27.247  59.392  -0.461  1.00  0.00     0.293 HD
ENDBRANCH  59  62
BRANCH  60  64
ATOM     64  O   UNL     1     -25.663  55.450  -3.459  1.00  0.00    -0.504 OA
ATOM     65  H   UNL     1     -24.845  55.568  -4.047  1.00  0.00     0.293 HD
ENDBRANCH  60  64
BRANCH  61  66
ATOM     66  O   UNL     1     -27.071  57.771  -2.747  1.00  0.00    -0.502 OA
ATOM     67  H   UNL     1     -27.095  58.781  -2.784  1.00  0.00     0.293 HD
ENDBRANCH  61  66
ENDBRANCH  54  56
ENDBRANCH  53  54
ENDBRANCH   5  53
BRANCH   4  68
ATOM     68  O   UNL     1     -22.846  57.771   3.346  1.00  0.00    -0.448 OA
BRANCH  68  69
ATOM     69  C   UNL     1     -22.481  58.822   4.192  1.00  0.00     0.339 C 
ATOM     70  O   UNL     1     -21.305  59.281   4.165  1.00  0.00    -0.246 OA
BRANCH  69  71
ATOM     71  C   UNL     1     -23.476  59.381   5.130  1.00  0.00     0.067 A 
ATOM     72  C   UNL     1     -24.825  59.490   4.769  1.00  0.00     0.066 A 
ATOM     73  C   UNL     1     -23.081  59.805   6.409  1.00  0.00     0.066 A 
ATOM     74  C   UNL     1     -25.771  60.000   5.670  1.00  0.00     0.162 A 
ATOM     75  C   UNL     1     -24.016  60.312   7.316  1.00  0.00     0.162 A 
ATOM     76  C   UNL     1     -25.367  60.411   6.951  1.00  0.00     0.200 A 
BRANCH  74  77
ATOM     77  O   UNL     1     -27.114  60.091   5.302  1.00  0.00    -0.504 OA
ATOM     78  H   UNL     1     -27.498  60.940   4.900  1.00  0.00     0.293 HD
ENDBRANCH  74  77
BRANCH  75  79
ATOM     79  O   UNL     1     -23.584  60.712   8.582  1.00  0.00    -0.504 OA
ATOM     80  H   UNL     1     -23.734  61.647   8.934  1.00  0.00     0.293 HD
ENDBRANCH  75  79
BRANCH  76  81
ATOM     81  O   UNL     1     -26.294  60.918   7.863  1.00  0.00    -0.502 OA
ATOM     82  H   UNL     1     -26.855  60.323   8.455  1.00  0.00     0.293 HD
ENDBRANCH  76  81
ENDBRANCH  69  71
ENDBRANCH  68  69
ENDBRANCH   4  68
TORSDOF 31
ENDMDL
