MODEL 1
REMARK VINA RESULT:    -3.451      0.000      0.000
REMARK INTER + INTRA:          -6.084
REMARK INTER:                  -5.064
REMARK INTRA:                  -1.019
REMARK UNBOUND:                -1.019
REMARK SMILES O=c1c(O[C@H]2O[C@H](CO)[C@@H](O)[C@@H](O)[C@@H]2O)c(-c2ccc(O)c(O)c2)oc2cc(O)cc(O)c12
REMARK SMILES IDX 4 1 3 2 16 3 25 4 2 5 26 6 1 7 33 8 27 9 31 10 28 11 30 12
REMARK SMILES IDX 17 13 18 14 19 15 20 16 24 17 22 18 21 19 23 21 32 23 29 25
REMARK SMILES IDX 5 27 14 28 6 29 12 30 7 31 10 32 15 33 13 35 8 37 9 38 11 40
REMARK H PARENT 21 20 23 22 32 24 29 26 15 34 13 36 9 39 11 41
REMARK Flexibility Score: inf
ROOT
ATOM      1  O   UNL     1      10.845  14.235  -0.909  1.00  0.00    -0.454 OA
ENDROOT
BRANCH   1   2
ATOM      2  C   UNL     1      11.464  13.060  -1.361  1.00  0.00     0.214 A 
ATOM      3  C   UNL     1      12.804  13.074  -1.783  1.00  0.00     0.180 A 
ATOM      4  O   UNL     1      13.392  11.942  -2.155  1.00  0.00    -0.452 OA
ATOM      5  C   UNL     1      10.749  11.854  -1.417  1.00  0.00     0.239 A 
ATOM      6  C   UNL     1      12.772  10.767  -2.169  1.00  0.00     0.146 A 
ATOM      7  O   UNL     1       9.509  11.878  -1.198  1.00  0.00    -0.285 OA
ATOM      8  C   UNL     1      11.414  10.657  -1.769  1.00  0.00     0.111 A 
ATOM      9  C   UNL     1      13.479   9.643  -2.603  1.00  0.00     0.094 A 
ATOM     10  C   UNL     1      10.806   9.366  -1.777  1.00  0.00     0.134 A 
ATOM     11  C   UNL     1      12.858   8.398  -2.663  1.00  0.00     0.123 A 
ATOM     12  C   UNL     1      11.527   8.265  -2.258  1.00  0.00     0.093 A 
BRANCH   3  13
ATOM     13  C   UNL     1      13.600  14.319  -1.828  1.00  0.00     0.025 A 
ATOM     14  C   UNL     1      14.460  14.594  -2.903  1.00  0.00     0.016 A 
ATOM     15  C   UNL     1      15.210  15.771  -2.920  1.00  0.00     0.051 A 
ATOM     16  C   UNL     1      15.126  16.688  -1.867  1.00  0.00     0.157 A 
ATOM     17  C   UNL     1      13.532  15.224  -0.757  1.00  0.00     0.062 A 
ATOM     18  C   UNL     1      14.278  16.408  -0.768  1.00  0.00     0.158 A 
BRANCH  16  19
ATOM     19  O   UNL     1      15.896  17.849  -1.949  1.00  0.00    -0.504 OA
ATOM     20  H   UNL     1      16.820  17.943  -1.553  1.00  0.00     0.293 HD
ENDBRANCH  16  19
BRANCH  18  21
ATOM     21  O   UNL     1      14.149  17.269   0.324  1.00  0.00    -0.504 OA
ATOM     22  H   UNL     1      13.473  18.016   0.378  1.00  0.00     0.293 HD
ENDBRANCH  18  21
ENDBRANCH   3  13
BRANCH  10  23
ATOM     23  O   UNL     1       9.521   9.109  -1.294  1.00  0.00    -0.507 OA
ATOM     24  H   UNL     1       8.784   8.673  -1.827  1.00  0.00     0.293 HD
ENDBRANCH  10  23
BRANCH  11  25
ATOM     25  O   UNL     1      13.577   7.295  -3.117  1.00  0.00    -0.508 OA
ATOM     26  H   UNL     1      14.442   7.007  -2.673  1.00  0.00     0.293 HD
ENDBRANCH  11  25
ENDBRANCH   1   2
BRANCH   1  27
ATOM     27  C   UNL     1       9.869  14.960  -1.667  1.00  0.00     0.339 C 
ATOM     28  C   UNL     1      10.346  16.417  -1.915  1.00  0.00     0.214 C 
ATOM     29  O   UNL     1       8.618  14.945  -1.000  1.00  0.00    -0.332 OA
ATOM     30  C   UNL     1       9.151  17.374  -2.110  1.00  0.00     0.180 C 
ATOM     31  C   UNL     1       7.557  15.430  -1.819  1.00  0.00     0.179 C 
ATOM     32  C   UNL     1       7.968  16.615  -2.740  1.00  0.00     0.177 C 
BRANCH  28  33
ATOM     33  O   UNL     1      11.161  16.459  -3.060  1.00  0.00    -0.384 OA
ATOM     34  H   UNL     1      10.881  15.704  -3.639  1.00  0.00     0.211 HD
ENDBRANCH  28  33
BRANCH  30  35
ATOM     35  O   UNL     1       8.775  17.908  -0.864  1.00  0.00    -0.387 OA
ATOM     36  H   UNL     1       8.791  18.897  -0.955  1.00  0.00     0.211 HD
ENDBRANCH  30  35
BRANCH  31  37
ATOM     37  C   UNL     1       6.915  14.269  -2.598  1.00  0.00     0.191 C 
BRANCH  37  38
ATOM     38  O   UNL     1       6.895  13.102  -1.820  1.00  0.00    -0.394 OA
ATOM     39  H   UNL     1       7.689  12.567  -2.083  1.00  0.00     0.210 HD
ENDBRANCH  37  38
ENDBRANCH  31  37
BRANCH  32  40
ATOM     40  O   UNL     1       6.875  17.477  -2.925  1.00  0.00    -0.387 OA
ATOM     41  H   UNL     1       6.317  17.412  -2.107  1.00  0.00     0.211 HD
ENDBRANCH  32  40
ENDBRANCH   1  27
TORSDOF 12
ENDMDL
MODEL 2
REMARK VINA RESULT:    -2.890      2.000      3.471
REMARK INTER + INTRA:          -5.261
REMARK INTER:                  -5.309
REMARK INTRA:                   0.048
REMARK UNBOUND:                -1.019
REMARK SMILES O=c1c(O[C@H]2O[C@H](CO)[C@@H](O)[C@@H](O)[C@@H]2O)c(-c2ccc(O)c(O)c2)oc2cc(O)cc(O)c12
REMARK SMILES IDX 4 1 3 2 16 3 25 4 2 5 26 6 1 7 33 8 27 9 31 10 28 11 30 12
REMARK SMILES IDX 17 13 18 14 19 15 20 16 24 17 22 18 21 19 23 21 32 23 29 25
REMARK SMILES IDX 5 27 14 28 6 29 12 30 7 31 10 32 15 33 13 35 8 37 9 38 11 40
REMARK H PARENT 21 20 23 22 32 24 29 26 15 34 13 36 9 39 11 41
REMARK Flexibility Score: inf
ROOT
ATOM      1  O   UNL     1      10.963  12.914  -2.964  1.00  0.00    -0.454 OA
ENDROOT
BRANCH   1   2
ATOM      2  C   UNL     1      10.989  11.557  -2.610  1.00  0.00     0.214 A 
ATOM      3  C   UNL     1      12.212  10.896  -2.399  1.00  0.00     0.180 A 
ATOM      4  O   UNL     1      12.218   9.626  -2.010  1.00  0.00    -0.452 OA
ATOM      5  C   UNL     1       9.796  10.830  -2.480  1.00  0.00     0.239 A 
ATOM      6  C   UNL     1      11.113   8.915  -1.817  1.00  0.00     0.146 A 
ATOM      7  O   UNL     1       8.717  11.377  -2.830  1.00  0.00    -0.285 OA
ATOM      8  C   UNL     1       9.832   9.494  -2.016  1.00  0.00     0.111 A 
ATOM      9  C   UNL     1      11.236   7.578  -1.432  1.00  0.00     0.094 A 
ATOM     10  C   UNL     1       8.677   8.694  -1.768  1.00  0.00     0.134 A 
ATOM     11  C   UNL     1      10.103   6.788  -1.250  1.00  0.00     0.123 A 
ATOM     12  C   UNL     1       8.833   7.344  -1.425  1.00  0.00     0.093 A 
BRANCH   3  13
ATOM     13  C   UNL     1      13.512  11.572  -2.594  1.00  0.00     0.025 A 
ATOM     14  C   UNL     1      14.690  10.836  -2.800  1.00  0.00     0.016 A 
ATOM     15  C   UNL     1      15.909  11.493  -2.971  1.00  0.00     0.051 A 
ATOM     16  C   UNL     1      15.980  12.890  -2.930  1.00  0.00     0.157 A 
ATOM     17  C   UNL     1      13.583  12.971  -2.526  1.00  0.00     0.062 A 
ATOM     18  C   UNL     1      14.801  13.639  -2.700  1.00  0.00     0.158 A 
BRANCH  16  19
ATOM     19  O   UNL     1      17.228  13.485  -3.116  1.00  0.00    -0.504 OA
ATOM     20  H   UNL     1      18.097  12.973  -3.164  1.00  0.00     0.293 HD
ENDBRANCH  16  19
BRANCH  18  21
ATOM     21  O   UNL     1      14.794  15.034  -2.635  1.00  0.00    -0.504 OA
ATOM     22  H   UNL     1      15.377  15.628  -3.206  1.00  0.00     0.293 HD
ENDBRANCH  18  21
ENDBRANCH   3  13
BRANCH  10  23
ATOM     23  O   UNL     1       7.369   9.181  -1.810  1.00  0.00    -0.507 OA
ATOM     24  H   UNL     1       6.628   8.890  -1.190  1.00  0.00     0.293 HD
ENDBRANCH  10  23
BRANCH  11  25
ATOM     25  O   UNL     1      10.251   5.453  -0.886  1.00  0.00    -0.508 OA
ATOM     26  H   UNL     1       9.452   4.831  -0.818  1.00  0.00     0.293 HD
ENDBRANCH  11  25
ENDBRANCH   1   2
BRANCH   1  27
ATOM     27  C   UNL     1      10.719  13.974  -2.032  1.00  0.00     0.339 C 
ATOM     28  C   UNL     1       9.221  14.383  -2.055  1.00  0.00     0.214 C 
ATOM     29  O   UNL     1      11.551  15.084  -2.321  1.00  0.00    -0.332 OA
ATOM     30  C   UNL     1       9.035  15.853  -1.620  1.00  0.00     0.180 C 
ATOM     31  C   UNL     1      11.535  16.063  -1.285  1.00  0.00     0.179 C 
ATOM     32  C   UNL     1      10.139  16.249  -0.622  1.00  0.00     0.177 C 
BRANCH  28  33
ATOM     33  O   UNL     1       8.490  13.551  -1.190  1.00  0.00    -0.384 OA
ATOM     34  H   UNL     1       7.835  13.061  -1.750  1.00  0.00     0.211 HD
ENDBRANCH  28  33
BRANCH  30  35
ATOM     35  O   UNL     1       9.086  16.684  -2.753  1.00  0.00    -0.387 OA
ATOM     36  H   UNL     1       8.790  16.138  -3.528  1.00  0.00     0.211 HD
ENDBRANCH  30  35
BRANCH  31  37
ATOM     37  C   UNL     1      12.644  15.770  -0.260  1.00  0.00     0.191 C 
BRANCH  37  38
ATOM     38  O   UNL     1      12.897  16.902   0.530  1.00  0.00    -0.394 OA
ATOM     39  H   UNL     1      12.030  17.371   0.647  1.00  0.00     0.210 HD
ENDBRANCH  37  38
ENDBRANCH  31  37
BRANCH  32  40
ATOM     40  O   UNL     1       9.977  17.584  -0.216  1.00  0.00    -0.387 OA
ATOM     41  H   UNL     1       9.132  17.625   0.302  1.00  0.00     0.211 HD
ENDBRANCH  32  40
ENDBRANCH   1  27
TORSDOF 12
ENDMDL
MODEL 3
REMARK VINA RESULT:    -2.692      1.770      5.061
REMARK INTER + INTRA:          -4.971
REMARK INTER:                  -3.556
REMARK INTRA:                  -1.415
REMARK UNBOUND:                -1.019
REMARK SMILES O=c1c(O[C@H]2O[C@H](CO)[C@@H](O)[C@@H](O)[C@@H]2O)c(-c2ccc(O)c(O)c2)oc2cc(O)cc(O)c12
REMARK SMILES IDX 4 1 3 2 16 3 25 4 2 5 26 6 1 7 33 8 27 9 31 10 28 11 30 12
REMARK SMILES IDX 17 13 18 14 19 15 20 16 24 17 22 18 21 19 23 21 32 23 29 25
REMARK SMILES IDX 5 27 14 28 6 29 12 30 7 31 10 32 15 33 13 35 8 37 9 38 11 40
REMARK H PARENT 21 20 23 22 32 24 29 26 15 34 13 36 9 39 11 41
REMARK Flexibility Score: inf
ROOT
ATOM      1  O   UNL     1      11.256  13.605  -0.677  1.00  0.00    -0.454 OA
ENDROOT
BRANCH   1   2
ATOM      2  C   UNL     1      10.471  12.535  -1.132  1.00  0.00     0.214 A 
ATOM      3  C   UNL     1       9.182  12.760  -1.646  1.00  0.00     0.180 A 
ATOM      4  O   UNL     1       8.474  11.743  -2.124  1.00  0.00    -0.452 OA
ATOM      5  C   UNL     1      10.951  11.219  -1.063  1.00  0.00     0.239 A 
ATOM      6  C   UNL     1       8.912  10.489  -2.133  1.00  0.00     0.146 A 
ATOM      7  O   UNL     1      12.032  11.003  -0.453  1.00  0.00    -0.285 OA
ATOM      8  C   UNL     1      10.196  10.163  -1.625  1.00  0.00     0.111 A 
ATOM      9  C   UNL     1       8.073   9.492  -2.637  1.00  0.00     0.094 A 
ATOM     10  C   UNL     1      10.627   8.804  -1.685  1.00  0.00     0.134 A 
ATOM     11  C   UNL     1       8.479   8.160  -2.636  1.00  0.00     0.123 A 
ATOM     12  C   UNL     1       9.747   7.820  -2.156  1.00  0.00     0.093 A 
BRANCH   3  13
ATOM     13  C   UNL     1       8.575  14.108  -1.679  1.00  0.00     0.025 A 
ATOM     14  C   UNL     1       8.361  14.779  -2.893  1.00  0.00     0.016 A 
ATOM     15  C   UNL     1       7.796  16.055  -2.901  1.00  0.00     0.051 A 
ATOM     16  C   UNL     1       7.444  16.688  -1.704  1.00  0.00     0.157 A 
ATOM     17  C   UNL     1       8.247  14.749  -0.475  1.00  0.00     0.062 A 
ATOM     18  C   UNL     1       7.677  16.028  -0.473  1.00  0.00     0.158 A 
BRANCH  16  19
ATOM     19  O   UNL     1       6.876  17.961  -1.781  1.00  0.00    -0.504 OA
ATOM     20  H   UNL     1       6.049  18.179  -2.318  1.00  0.00     0.293 HD
ENDBRANCH  16  19
BRANCH  18  21
ATOM     21  O   UNL     1       7.362  16.600   0.761  1.00  0.00    -0.504 OA
ATOM     22  H   UNL     1       6.740  16.179   1.436  1.00  0.00     0.293 HD
ENDBRANCH  18  21
ENDBRANCH   3  13
BRANCH  10  23
ATOM     23  O   UNL     1      11.909   8.378  -1.331  1.00  0.00    -0.507 OA
ATOM     24  H   UNL     1      12.354   7.544  -1.683  1.00  0.00     0.293 HD
ENDBRANCH  10  23
BRANCH  11  25
ATOM     25  O   UNL     1       7.619   7.180  -3.125  1.00  0.00    -0.508 OA
ATOM     26  H   UNL     1       7.945   6.454  -3.754  1.00  0.00     0.293 HD
ENDBRANCH  11  25
ENDBRANCH   1   2
BRANCH   1  27
ATOM     27  C   UNL     1      12.027  14.448  -1.541  1.00  0.00     0.339 C 
ATOM     28  C   UNL     1      13.518  14.011  -1.536  1.00  0.00     0.214 C 
ATOM     29  O   UNL     1      11.897  15.804  -1.150  1.00  0.00    -0.332 OA
ATOM     30  C   UNL     1      14.451  15.194  -1.874  1.00  0.00     0.180 C 
ATOM     31  C   UNL     1      12.434  16.704  -2.116  1.00  0.00     0.179 C 
ATOM     32  C   UNL     1      13.727  16.182  -2.807  1.00  0.00     0.177 C 
BRANCH  28  33
ATOM     33  O   UNL     1      13.714  12.987  -2.478  1.00  0.00    -0.384 OA
ATOM     34  H   UNL     1      12.854  12.871  -2.959  1.00  0.00     0.211 HD
ENDBRANCH  28  33
BRANCH  30  35
ATOM     35  O   UNL     1      14.830  15.841  -0.684  1.00  0.00    -0.387 OA
ATOM     36  H   UNL     1      15.339  16.653  -0.944  1.00  0.00     0.211 HD
ENDBRANCH  30  35
BRANCH  31  37
ATOM     37  C   UNL     1      11.347  17.112  -3.125  1.00  0.00     0.191 C 
BRANCH  37  38
ATOM     38  O   UNL     1      10.524  18.114  -2.587  1.00  0.00    -0.394 OA
ATOM     39  H   UNL     1       9.730  18.183  -3.180  1.00  0.00     0.210 HD
ENDBRANCH  37  38
ENDBRANCH  31  37
BRANCH  32  40
ATOM     40  O   UNL     1      14.568  17.262  -3.124  1.00  0.00    -0.387 OA
ATOM     41  H   UNL     1      14.366  17.517  -4.062  1.00  0.00     0.211 HD
ENDBRANCH  32  40
ENDBRANCH   1  27
TORSDOF 12
ENDMDL
MODEL 4
REMARK VINA RESULT:    -2.579      2.596      4.276
REMARK INTER + INTRA:          -4.805
REMARK INTER:                  -5.207
REMARK INTRA:                   0.402
REMARK UNBOUND:                -1.019
REMARK SMILES O=c1c(O[C@H]2O[C@H](CO)[C@@H](O)[C@@H](O)[C@@H]2O)c(-c2ccc(O)c(O)c2)oc2cc(O)cc(O)c12
REMARK SMILES IDX 4 1 3 2 16 3 25 4 2 5 26 6 1 7 33 8 27 9 31 10 28 11 30 12
REMARK SMILES IDX 17 13 18 14 19 15 20 16 24 17 22 18 21 19 23 21 32 23 29 25
REMARK SMILES IDX 5 27 14 28 6 29 12 30 7 31 10 32 15 33 13 35 8 37 9 38 11 40
REMARK H PARENT 21 20 23 22 32 24 29 26 15 34 13 36 9 39 11 41
REMARK Flexibility Score: inf
ROOT
ATOM      1  O   UNL     1      10.757  10.599  -3.125  1.00  0.00    -0.454 OA
ENDROOT
BRANCH   1   2
ATOM      2  C   UNL     1      11.369   9.368  -2.841  1.00  0.00     0.214 A 
ATOM      3  C   UNL     1      12.758   9.289  -2.641  1.00  0.00     0.180 A 
ATOM      4  O   UNL     1      13.315   8.127  -2.319  1.00  0.00    -0.452 OA
ATOM      5  C   UNL     1      10.608   8.192  -2.773  1.00  0.00     0.239 A 
ATOM      6  C   UNL     1      12.625   6.999  -2.186  1.00  0.00     0.146 A 
ATOM      7  O   UNL     1       9.396   8.238  -3.115  1.00  0.00    -0.285 OA
ATOM      8  C   UNL     1      11.219   6.979  -2.379  1.00  0.00     0.111 A 
ATOM      9  C   UNL     1      13.316   5.827  -1.868  1.00  0.00     0.094 A 
ATOM     10  C   UNL     1      10.525   5.746  -2.196  1.00  0.00     0.134 A 
ATOM     11  C   UNL     1      12.637   4.617  -1.750  1.00  0.00     0.123 A 
ATOM     12  C   UNL     1      11.250   4.579  -1.920  1.00  0.00     0.093 A 
BRANCH   3  13
ATOM     13  C   UNL     1      13.638  10.470  -2.775  1.00  0.00     0.025 A 
ATOM     14  C   UNL     1      15.014  10.327  -3.012  1.00  0.00     0.016 A 
ATOM     15  C   UNL     1      15.830  11.454  -3.124  1.00  0.00     0.051 A 
ATOM     16  C   UNL     1      15.293  12.740  -2.993  1.00  0.00     0.157 A 
ATOM     17  C   UNL     1      13.101  11.756  -2.617  1.00  0.00     0.062 A 
ATOM     18  C   UNL     1      13.910  12.893  -2.731  1.00  0.00     0.158 A 
BRANCH  16  19
ATOM     19  O   UNL     1      16.161  13.825  -3.124  1.00  0.00    -0.504 OA
ATOM     20  H   UNL     1      17.007  13.809  -3.674  1.00  0.00     0.293 HD
ENDBRANCH  16  19
BRANCH  18  21
ATOM     21  O   UNL     1      13.305  14.142  -2.577  1.00  0.00    -0.504 OA
ATOM     22  H   UNL     1      13.066  14.752  -3.345  1.00  0.00     0.293 HD
ENDBRANCH  18  21
ENDBRANCH   3  13
BRANCH  10  23
ATOM     23  O   UNL     1       9.134   5.623  -2.238  1.00  0.00    -0.507 OA
ATOM     24  H   UNL     1       8.621   4.812  -1.927  1.00  0.00     0.293 HD
ENDBRANCH  10  23
BRANCH  11  25
ATOM     25  O   UNL     1      13.348   3.458  -1.453  1.00  0.00    -0.508 OA
ATOM     26  H   UNL     1      12.876   2.584  -1.248  1.00  0.00     0.293 HD
ENDBRANCH  11  25
ENDBRANCH   1   2
BRANCH   1  27
ATOM     27  C   UNL     1      10.110  11.410  -2.138  1.00  0.00     0.339 C 
ATOM     28  C   UNL     1       8.570  11.222  -2.204  1.00  0.00     0.214 C 
ATOM     29  O   UNL     1      10.461  12.772  -2.314  1.00  0.00    -0.332 OA
ATOM     30  C   UNL     1       7.829  12.472  -1.683  1.00  0.00     0.180 C 
ATOM     31  C   UNL     1      10.052  13.587  -1.218  1.00  0.00     0.179 C 
ATOM     32  C   UNL     1       8.679  13.177  -0.611  1.00  0.00     0.177 C 
BRANCH  28  33
ATOM     33  O   UNL     1       8.195  10.109  -1.431  1.00  0.00    -0.384 OA
ATOM     34  H   UNL     1       8.306  10.371  -0.481  1.00  0.00     0.211 HD
ENDBRANCH  28  33
BRANCH  30  35
ATOM     35  O   UNL     1       7.580  13.347  -2.757  1.00  0.00    -0.387 OA
ATOM     36  H   UNL     1       6.751  13.032  -3.202  1.00  0.00     0.211 HD
ENDBRANCH  30  35
BRANCH  31  37
ATOM     37  C   UNL     1      11.170  13.657  -0.162  1.00  0.00     0.191 C 
BRANCH  37  38
ATOM     38  O   UNL     1      11.389  12.395   0.410  1.00  0.00    -0.394 OA
ATOM     39  H   UNL     1      11.313  12.507   1.394  1.00  0.00     0.210 HD
ENDBRANCH  37  38
ENDBRANCH  31  37
BRANCH  32  40
ATOM     40  O   UNL     1       8.012  14.315  -0.127  1.00  0.00    -0.387 OA
ATOM     41  H   UNL     1       7.066  14.237  -0.417  1.00  0.00     0.211 HD
ENDBRANCH  32  40
ENDBRANCH   1  27
TORSDOF 12
ENDMDL
MODEL 5
REMARK VINA RESULT:    -2.515      3.310      7.912
REMARK INTER + INTRA:          -4.710
REMARK INTER:                  -4.725
REMARK INTRA:                   0.015
REMARK UNBOUND:                -1.019
REMARK SMILES O=c1c(O[C@H]2O[C@H](CO)[C@@H](O)[C@@H](O)[C@@H]2O)c(-c2ccc(O)c(O)c2)oc2cc(O)cc(O)c12
REMARK SMILES IDX 4 1 3 2 16 3 25 4 2 5 26 6 1 7 33 8 27 9 31 10 28 11 30 12
REMARK SMILES IDX 17 13 18 14 19 15 20 16 24 17 22 18 21 19 23 21 32 23 29 25
REMARK SMILES IDX 5 27 14 28 6 29 12 30 7 31 10 32 15 33 13 35 8 37 9 38 11 40
REMARK H PARENT 21 20 23 22 32 24 29 26 15 34 13 36 9 39 11 41
REMARK Flexibility Score: inf
ROOT
ATOM      1  O   UNL     1      12.029   7.926  -1.555  1.00  0.00    -0.454 OA
ENDROOT
BRANCH   1   2
ATOM      2  C   UNL     1      11.313   9.094  -1.860  1.00  0.00     0.214 A 
ATOM      3  C   UNL     1      11.971  10.219  -2.386  1.00  0.00     0.180 A 
ATOM      4  O   UNL     1      11.270  11.297  -2.723  1.00  0.00    -0.452 OA
ATOM      5  C   UNL     1       9.931   9.165  -1.627  1.00  0.00     0.239 A 
ATOM      6  C   UNL     1       9.954  11.388  -2.574  1.00  0.00     0.146 A 
ATOM      7  O   UNL     1       9.376   8.222  -1.004  1.00  0.00    -0.285 OA
ATOM      8  C   UNL     1       9.205  10.306  -2.041  1.00  0.00     0.111 A 
ATOM      9  C   UNL     1       9.321  12.580  -2.937  1.00  0.00     0.094 A 
ATOM     10  C   UNL     1       7.790  10.448  -1.929  1.00  0.00     0.134 A 
ATOM     11  C   UNL     1       7.946  12.729  -2.769  1.00  0.00     0.123 A 
ATOM     12  C   UNL     1       7.189  11.670  -2.261  1.00  0.00     0.093 A 
BRANCH   3  13
ATOM     13  C   UNL     1      13.435  10.250  -2.587  1.00  0.00     0.025 A 
ATOM     14  C   UNL     1      14.189   9.066  -2.620  1.00  0.00     0.016 A 
ATOM     15  C   UNL     1      15.572   9.117  -2.800  1.00  0.00     0.051 A 
ATOM     16  C   UNL     1      16.229  10.345  -2.940  1.00  0.00     0.157 A 
ATOM     17  C   UNL     1      14.093  11.484  -2.700  1.00  0.00     0.062 A 
ATOM     18  C   UNL     1      15.480  11.545  -2.884  1.00  0.00     0.158 A 
BRANCH  16  19
ATOM     19  O   UNL     1      17.612  10.327  -3.124  1.00  0.00    -0.504 OA
ATOM     20  H   UNL     1      18.082  10.744  -3.915  1.00  0.00     0.293 HD
ENDBRANCH  16  19
BRANCH  18  21
ATOM     21  O   UNL     1      16.066  12.807  -3.004  1.00  0.00    -0.504 OA
ATOM     22  H   UNL     1      15.657  13.572  -3.519  1.00  0.00     0.293 HD
ENDBRANCH  18  21
ENDBRANCH   3  13
BRANCH  10  23
ATOM     23  O   UNL     1       6.934   9.417  -1.536  1.00  0.00    -0.507 OA
ATOM     24  H   UNL     1       7.154   8.434  -1.597  1.00  0.00     0.293 HD
ENDBRANCH  10  23
BRANCH  11  25
ATOM     25  O   UNL     1       7.340  13.932  -3.119  1.00  0.00    -0.508 OA
ATOM     26  H   UNL     1       7.710  14.516  -3.861  1.00  0.00     0.293 HD
ENDBRANCH  11  25
ENDBRANCH   1   2
BRANCH   1  27
ATOM     27  C   UNL     1      11.483   6.607  -1.673  1.00  0.00     0.339 C 
ATOM     28  C   UNL     1      12.528   5.547  -1.230  1.00  0.00     0.214 C 
ATOM     29  O   UNL     1      11.054   6.370  -3.003  1.00  0.00    -0.332 OA
ATOM     30  C   UNL     1      12.278   4.190  -1.923  1.00  0.00     0.180 C 
ATOM     31  C   UNL     1      10.281   5.178  -3.122  1.00  0.00     0.179 C 
ATOM     32  C   UNL     1      10.776   4.017  -2.212  1.00  0.00     0.177 C 
BRANCH  28  33
ATOM     33  O   UNL     1      12.463   5.371   0.163  1.00  0.00    -0.384 OA
ATOM     34  H   UNL     1      12.370   6.274   0.561  1.00  0.00     0.211 HD
ENDBRANCH  28  33
BRANCH  30  35
ATOM     35  O   UNL     1      13.011   4.137  -3.122  1.00  0.00    -0.387 OA
ATOM     36  H   UNL     1      12.356   4.012  -3.858  1.00  0.00     0.211 HD
ENDBRANCH  30  35
BRANCH  31  37
ATOM     37  C   UNL     1       8.788   5.492  -2.923  1.00  0.00     0.191 C 
BRANCH  37  38
ATOM     38  O   UNL     1       8.025   4.316  -2.970  1.00  0.00    -0.394 OA
ATOM     39  H   UNL     1       8.588   3.592  -2.587  1.00  0.00     0.210 HD
ENDBRANCH  37  38
ENDBRANCH  31  37
BRANCH  32  40
ATOM     40  O   UNL     1      10.536   2.783  -2.839  1.00  0.00    -0.387 OA
ATOM     41  H   UNL     1      10.276   2.145  -2.125  1.00  0.00     0.211 HD
ENDBRANCH  32  40
ENDBRANCH   1  27
TORSDOF 12
ENDMDL
MODEL 6
REMARK VINA RESULT:    -2.301      2.343      6.854
REMARK INTER + INTRA:          -4.397
REMARK INTER:                  -5.033
REMARK INTRA:                   0.637
REMARK UNBOUND:                -1.019
REMARK SMILES O=c1c(O[C@H]2O[C@H](CO)[C@@H](O)[C@@H](O)[C@@H]2O)c(-c2ccc(O)c(O)c2)oc2cc(O)cc(O)c12
REMARK SMILES IDX 4 1 3 2 16 3 25 4 2 5 26 6 1 7 33 8 27 9 31 10 28 11 30 12
REMARK SMILES IDX 17 13 18 14 19 15 20 16 24 17 22 18 21 19 23 21 32 23 29 25
REMARK SMILES IDX 5 27 14 28 6 29 12 30 7 31 10 32 15 33 13 35 8 37 9 38 11 40
REMARK H PARENT 21 20 23 22 32 24 29 26 15 34 13 36 9 39 11 41
REMARK Flexibility Score: inf
ROOT
ATOM      1  O   UNL     1      10.862  10.599  -1.019  1.00  0.00    -0.454 OA
ENDROOT
BRANCH   1   2
ATOM      2  C   UNL     1      10.983  11.934  -1.435  1.00  0.00     0.214 A 
ATOM      3  C   UNL     1      12.135  12.371  -2.112  1.00  0.00     0.180 A 
ATOM      4  O   UNL     1      12.211  13.623  -2.548  1.00  0.00    -0.452 OA
ATOM      5  C   UNL     1       9.966  12.860  -1.164  1.00  0.00     0.239 A 
ATOM      6  C   UNL     1      11.247  14.519  -2.365  1.00  0.00     0.146 A 
ATOM      7  O   UNL     1       9.015  12.509  -0.415  1.00  0.00    -0.285 OA
ATOM      8  C   UNL     1      10.051  14.173  -1.682  1.00  0.00     0.111 A 
ATOM      9  C   UNL     1      11.442  15.818  -2.843  1.00  0.00     0.094 A 
ATOM     10  C   UNL     1       9.038  15.167  -1.538  1.00  0.00     0.134 A 
ATOM     11  C   UNL     1      10.471  16.796  -2.645  1.00  0.00     0.123 A 
ATOM     12  C   UNL     1       9.280  16.471  -1.990  1.00  0.00     0.093 A 
BRANCH   3  13
ATOM     13  C   UNL     1      13.283  11.475  -2.365  1.00  0.00     0.025 A 
ATOM     14  C   UNL     1      14.570  11.988  -2.589  1.00  0.00     0.016 A 
ATOM     15  C   UNL     1      15.639  11.126  -2.837  1.00  0.00     0.051 A 
ATOM     16  C   UNL     1      15.445   9.740  -2.876  1.00  0.00     0.157 A 
ATOM     17  C   UNL     1      13.079  10.088  -2.430  1.00  0.00     0.062 A 
ATOM     18  C   UNL     1      14.146   9.214  -2.674  1.00  0.00     0.158 A 
BRANCH  16  19
ATOM     19  O   UNL     1      16.556   8.932  -3.121  1.00  0.00    -0.504 OA
ATOM     20  H   UNL     1      17.015   8.374  -2.416  1.00  0.00     0.293 HD
ENDBRANCH  16  19
BRANCH  18  21
ATOM     21  O   UNL     1      13.872   7.846  -2.710  1.00  0.00    -0.504 OA
ATOM     22  H   UNL     1      13.710   7.281  -1.889  1.00  0.00     0.293 HD
ENDBRANCH  18  21
ENDBRANCH   3  13
BRANCH  10  23
ATOM     23  O   UNL     1       7.775  14.917  -0.997  1.00  0.00    -0.507 OA
ATOM     24  H   UNL     1       7.388  13.998  -0.845  1.00  0.00     0.293 HD
ENDBRANCH  10  23
BRANCH  11  25
ATOM     25  O   UNL     1      10.696  18.089  -3.112  1.00  0.00    -0.508 OA
ATOM     26  H   UNL     1      11.361  18.707  -2.661  1.00  0.00     0.293 HD
ENDBRANCH  11  25
ENDBRANCH   1   2
BRANCH   1  27
ATOM     27  C   UNL     1      10.161   9.596  -1.764  1.00  0.00     0.339 C 
ATOM     28  C   UNL     1       8.661   9.974  -1.904  1.00  0.00     0.214 C 
ATOM     29  O   UNL     1      10.307   8.331  -1.143  1.00  0.00    -0.332 OA
ATOM     30  C   UNL     1       7.780   8.719  -2.081  1.00  0.00     0.180 C 
ATOM     31  C   UNL     1       9.846   7.262  -1.967  1.00  0.00     0.179 C 
ATOM     32  C   UNL     1       8.578   7.614  -2.797  1.00  0.00     0.177 C 
BRANCH  28  33
ATOM     33  O   UNL     1       8.487  10.818  -3.015  1.00  0.00    -0.384 OA
ATOM     34  H   UNL     1       9.160  10.544  -3.690  1.00  0.00     0.211 HD
ENDBRANCH  28  33
BRANCH  30  35
ATOM     35  O   UNL     1       7.355   8.267  -0.818  1.00  0.00    -0.387 OA
ATOM     36  H   UNL     1       7.923   8.719  -0.141  1.00  0.00     0.211 HD
ENDBRANCH  30  35
BRANCH  31  37
ATOM     37  C   UNL     1      10.997   6.730  -2.839  1.00  0.00     0.191 C 
BRANCH  37  38
ATOM     38  O   UNL     1      11.841   5.897  -2.089  1.00  0.00    -0.394 OA
ATOM     39  H   UNL     1      12.668   5.768  -2.625  1.00  0.00     0.210 HD
ENDBRANCH  37  38
ENDBRANCH  31  37
BRANCH  32  40
ATOM     40  O   UNL     1       7.785   6.467  -2.967  1.00  0.00    -0.387 OA
ATOM     41  H   UNL     1       8.375   5.764  -3.345  1.00  0.00     0.211 HD
ENDBRANCH  32  40
ENDBRANCH   1  27
TORSDOF 12
ENDMDL
MODEL 7
REMARK VINA RESULT:    -0.758      2.133      3.589
REMARK INTER + INTRA:          -2.132
REMARK INTER:                  -2.096
REMARK INTRA:                  -0.035
REMARK UNBOUND:                -1.019
REMARK SMILES O=c1c(O[C@H]2O[C@H](CO)[C@@H](O)[C@@H](O)[C@@H]2O)c(-c2ccc(O)c(O)c2)oc2cc(O)cc(O)c12
REMARK SMILES IDX 4 1 3 2 16 3 25 4 2 5 26 6 1 7 33 8 27 9 31 10 28 11 30 12
REMARK SMILES IDX 17 13 18 14 19 15 20 16 24 17 22 18 21 19 23 21 32 23 29 25
REMARK SMILES IDX 5 27 14 28 6 29 12 30 7 31 10 32 15 33 13 35 8 37 9 38 11 40
REMARK H PARENT 21 20 23 22 32 24 29 26 15 34 13 36 9 39 11 41
REMARK Flexibility Score: inf
ROOT
ATOM      1  O   UNL     1      10.861  12.031  -3.121  1.00  0.00    -0.454 OA
ENDROOT
BRANCH   1   2
ATOM      2  C   UNL     1      11.032  10.686  -2.759  1.00  0.00     0.214 A 
ATOM      3  C   UNL     1      12.315  10.169  -2.512  1.00  0.00     0.180 A 
ATOM      4  O   UNL     1      12.456   8.908  -2.117  1.00  0.00    -0.452 OA
ATOM      5  C   UNL     1       9.926   9.828  -2.658  1.00  0.00     0.239 A 
ATOM      6  C   UNL     1      11.433   8.077  -1.951  1.00  0.00     0.146 A 
ATOM      7  O   UNL     1       8.801  10.248  -3.040  1.00  0.00    -0.285 OA
ATOM      8  C   UNL     1      10.101   8.506  -2.187  1.00  0.00     0.111 A 
ATOM      9  C   UNL     1      11.697   6.763  -1.557  1.00  0.00     0.094 A 
ATOM     10  C   UNL     1       9.038   7.579  -1.967  1.00  0.00     0.134 A 
ATOM     11  C   UNL     1      10.657   5.850  -1.402  1.00  0.00     0.123 A 
ATOM     12  C   UNL     1       9.337   6.257  -1.613  1.00  0.00     0.093 A 
BRANCH   3  13
ATOM     13  C   UNL     1      13.536  10.988  -2.675  1.00  0.00     0.025 A 
ATOM     14  C   UNL     1      14.771  10.397  -2.986  1.00  0.00     0.016 A 
ATOM     15  C   UNL     1      15.913  11.187  -3.125  1.00  0.00     0.051 A 
ATOM     16  C   UNL     1      15.849  12.574  -2.947  1.00  0.00     0.157 A 
ATOM     17  C   UNL     1      13.472  12.374  -2.470  1.00  0.00     0.062 A 
ATOM     18  C   UNL     1      14.611  13.175  -2.611  1.00  0.00     0.158 A 
BRANCH  16  19
ATOM     19  O   UNL     1      17.025  13.307  -3.108  1.00  0.00    -0.504 OA
ATOM     20  H   UNL     1      17.796  13.019  -3.693  1.00  0.00     0.293 HD
ENDBRANCH  16  19
BRANCH  18  21
ATOM     21  O   UNL     1      14.471  14.549  -2.407  1.00  0.00    -0.504 OA
ATOM     22  H   UNL     1      14.853  15.253  -3.022  1.00  0.00     0.293 HD
ENDBRANCH  18  21
ENDBRANCH   3  13
BRANCH  10  23
ATOM     23  O   UNL     1       7.685   7.915  -2.047  1.00  0.00    -0.507 OA
ATOM     24  H   UNL     1       7.124   8.226  -1.267  1.00  0.00     0.293 HD
ENDBRANCH  10  23
BRANCH  11  25
ATOM     25  O   UNL     1      10.945   4.540  -1.027  1.00  0.00    -0.508 OA
ATOM     26  H   UNL     1      11.054   4.280  -0.053  1.00  0.00     0.293 HD
ENDBRANCH  11  25
ENDBRANCH   1   2
BRANCH   1  27
ATOM     27  C   UNL     1      10.307  13.023  -2.249  1.00  0.00     0.339 C 
ATOM     28  C   UNL     1       9.944  12.396  -0.875  1.00  0.00     0.214 C 
ATOM     29  O   UNL     1       9.171  13.623  -2.847  1.00  0.00    -0.332 OA
ATOM     30  C   UNL     1       8.805  13.178  -0.185  1.00  0.00     0.180 C 
ATOM     31  C   UNL     1       8.731  14.782  -2.142  1.00  0.00     0.179 C 
ATOM     32  C   UNL     1       8.863  14.661  -0.596  1.00  0.00     0.177 C 
BRANCH  28  33
ATOM     33  O   UNL     1      11.075  12.398  -0.040  1.00  0.00    -0.384 OA
ATOM     34  H   UNL     1      10.746  12.526   0.887  1.00  0.00     0.211 HD
ENDBRANCH  28  33
BRANCH  30  35
ATOM     35  O   UNL     1       7.568  12.622  -0.555  1.00  0.00    -0.387 OA
ATOM     36  H   UNL     1       7.073  13.321  -1.057  1.00  0.00     0.211 HD
ENDBRANCH  30  35
BRANCH  31  37
ATOM     37  C   UNL     1       9.423  16.037  -2.699  1.00  0.00     0.191 C 
BRANCH  37  38
ATOM     38  O   UNL     1       9.974  16.802  -1.659  1.00  0.00    -0.394 OA
ATOM     39  H   UNL     1       9.224  17.302  -1.242  1.00  0.00     0.210 HD
ENDBRANCH  37  38
ENDBRANCH  31  37
BRANCH  32  40
ATOM     40  O   UNL     1       7.834  15.384   0.030  1.00  0.00    -0.387 OA
ATOM     41  H   UNL     1       7.339  15.857  -0.689  1.00  0.00     0.211 HD
ENDBRANCH  32  40
ENDBRANCH   1  27
TORSDOF 12
ENDMDL
