MODEL 1
REMARK VINA RESULT:    -4.845      0.000      0.000
REMARK INTER + INTRA:          -8.541
REMARK INTER:                  -7.395
REMARK INTRA:                  -1.146
REMARK UNBOUND:                -1.146
REMARK SMILES CC(=O)CCC=C(C)CCC=C(C)CCC=C(C)C
REMARK SMILES IDX 10 1 11 2 12 3 13 4 14 5 15 6 16 7 18 8 17 9 19 10 9 11 7 12
REMARK SMILES IDX 6 13 8 14 5 15 4 16 2 17 3 18 1 19
REMARK H PARENT
REMARK Flexibility Score: inf
ROOT
ATOM      1  C   UNL     1     150.306 155.233 165.101  1.00  0.00     0.032 C 
ENDROOT
BRANCH   1   2
ATOM      2  C   UNL     1     150.485 155.558 163.636  1.00  0.00    -0.028 C 
ATOM      3  C   UNL     1     149.981 156.637 162.995  1.00  0.00    -0.077 C 
ATOM      4  C   UNL     1     150.313 156.807 161.533  1.00  0.00     0.039 C 
BRANCH   3   5
ATOM      5  C   UNL     1     149.093 157.674 163.665  1.00  0.00     0.034 C 
BRANCH   5   6
ATOM      6  C   UNL     1     148.816 158.897 162.776  1.00  0.00     0.032 C 
BRANCH   6   7
ATOM      7  C   UNL     1     147.858 159.874 163.417  1.00  0.00    -0.028 C 
ATOM      8  C   UNL     1     145.699 160.921 163.939  1.00  0.00     0.039 C 
ATOM      9  C   UNL     1     146.515 159.849 163.266  1.00  0.00    -0.080 C 
ATOM     10  C   UNL     1     145.818 158.775 162.465  1.00  0.00     0.039 C 
ENDBRANCH   6   7
ENDBRANCH   5   6
ENDBRANCH   3   5
ENDBRANCH   1   2
BRANCH   1  11
ATOM     11  C   UNL     1     149.659 153.853 165.292  1.00  0.00     0.034 C 
BRANCH  11  12
ATOM     12  C   UNL     1     148.144 153.926 165.398  1.00  0.00    -0.077 C 
ATOM     13  C   UNL     1     147.466 153.710 166.550  1.00  0.00    -0.028 C 
ATOM     14  C   UNL     1     147.346 154.237 164.156  1.00  0.00     0.039 C 
BRANCH  13  15
ATOM     15  C   UNL     1     148.084 153.396 167.894  1.00  0.00     0.035 C 
BRANCH  15  16
ATOM     16  C   UNL     1     147.709 151.983 168.361  1.00  0.00     0.079 C 
BRANCH  16  17
ATOM     17  C   UNL     1     148.872 151.277 169.007  1.00  0.00     0.130 C 
ATOM     18  O   UNL     1     148.672 150.499 169.928  1.00  0.00    -0.300 OA
ATOM     19  C   UNL     1     150.273 151.486 168.515  1.00  0.00     0.087 C 
ENDBRANCH  16  17
ENDBRANCH  15  16
ENDBRANCH  13  15
ENDBRANCH  11  12
ENDBRANCH   1  11
TORSDOF 9
ENDMDL
MODEL 2
REMARK VINA RESULT:    -4.819      3.368      7.127
REMARK INTER + INTRA:          -8.501
REMARK INTER:                  -5.779
REMARK INTRA:                  -2.722
REMARK UNBOUND:                -1.146
REMARK SMILES CC(=O)CCC=C(C)CCC=C(C)CCC=C(C)C
REMARK SMILES IDX 10 1 11 2 12 3 13 4 14 5 15 6 16 7 18 8 17 9 19 10 9 11 7 12
REMARK SMILES IDX 6 13 8 14 5 15 4 16 2 17 3 18 1 19
REMARK H PARENT
REMARK Flexibility Score: inf
ROOT
ATOM      1  C   UNL     1     147.252 153.152 166.758  1.00  0.00     0.032 C 
ENDROOT
BRANCH   1   2
ATOM      2  C   UNL     1     146.954 153.721 165.390  1.00  0.00    -0.028 C 
ATOM      3  C   UNL     1     147.022 153.047 164.218  1.00  0.00    -0.077 C 
ATOM      4  C   UNL     1     146.638 153.783 162.959  1.00  0.00     0.039 C 
BRANCH   3   5
ATOM      5  C   UNL     1     147.476 151.599 164.107  1.00  0.00     0.034 C 
BRANCH   5   6
ATOM      6  C   UNL     1     148.390 151.345 162.897  1.00  0.00     0.032 C 
BRANCH   6   7
ATOM      7  C   UNL     1     149.841 151.192 163.291  1.00  0.00    -0.028 C 
ATOM      8  C   UNL     1     151.896 150.029 163.964  1.00  0.00     0.039 C 
ATOM      9  C   UNL     1     150.451 150.012 163.540  1.00  0.00    -0.080 C 
ATOM     10  C   UNL     1     149.736 148.690 163.385  1.00  0.00     0.039 C 
ENDBRANCH   6   7
ENDBRANCH   5   6
ENDBRANCH   3   5
ENDBRANCH   1   2
BRANCH   1  11
ATOM     11  C   UNL     1     148.595 153.670 167.296  1.00  0.00     0.034 C 
BRANCH  11  12
ATOM     12  C   UNL     1     149.788 152.965 166.671  1.00  0.00    -0.077 C 
ATOM     13  C   UNL     1     150.576 153.528 165.726  1.00  0.00    -0.028 C 
ATOM     14  C   UNL     1     150.107 151.557 167.110  1.00  0.00     0.039 C 
BRANCH  13  15
ATOM     15  C   UNL     1     150.424 154.925 165.165  1.00  0.00     0.035 C 
BRANCH  15  16
ATOM     16  C   UNL     1     150.257 154.896 163.640  1.00  0.00     0.079 C 
BRANCH  16  17
ATOM     17  C   UNL     1     150.033 156.273 163.072  1.00  0.00     0.130 C 
ATOM     18  O   UNL     1     150.449 156.543 161.956  1.00  0.00    -0.300 OA
ATOM     19  C   UNL     1     149.274 157.312 163.843  1.00  0.00     0.087 C 
ENDBRANCH  16  17
ENDBRANCH  15  16
ENDBRANCH  13  15
ENDBRANCH  11  12
ENDBRANCH   1  11
TORSDOF 9
ENDMDL
MODEL 3
REMARK VINA RESULT:    -4.815      3.649      6.839
REMARK INTER + INTRA:          -8.494
REMARK INTER:                  -6.341
REMARK INTRA:                  -2.153
REMARK UNBOUND:                -1.146
REMARK SMILES CC(=O)CCC=C(C)CCC=C(C)CCC=C(C)C
REMARK SMILES IDX 10 1 11 2 12 3 13 4 14 5 15 6 16 7 18 8 17 9 19 10 9 11 7 12
REMARK SMILES IDX 6 13 8 14 5 15 4 16 2 17 3 18 1 19
REMARK H PARENT
REMARK Flexibility Score: inf
ROOT
ATOM      1  C   UNL     1     147.474 154.263 163.827  1.00  0.00     0.032 C 
ENDROOT
BRANCH   1   2
ATOM      2  C   UNL     1     146.647 153.067 164.236  1.00  0.00    -0.028 C 
ATOM      3  C   UNL     1     146.210 152.794 165.488  1.00  0.00    -0.077 C 
ATOM      4  C   UNL     1     145.354 151.568 165.684  1.00  0.00     0.039 C 
BRANCH   3   5
ATOM      5  C   UNL     1     146.547 153.650 166.700  1.00  0.00     0.034 C 
BRANCH   5   6
ATOM      6  C   UNL     1     147.875 153.254 167.367  1.00  0.00     0.032 C 
BRANCH   6   7
ATOM      7  C   UNL     1     147.702 152.158 168.393  1.00  0.00    -0.028 C 
ATOM      8  C   UNL     1     148.362 150.308 169.866  1.00  0.00     0.039 C 
ATOM      9  C   UNL     1     148.704 151.390 168.876  1.00  0.00    -0.080 C 
ATOM     10  C   UNL     1     150.143 151.599 168.468  1.00  0.00     0.039 C 
ENDBRANCH   6   7
ENDBRANCH   5   6
ENDBRANCH   3   5
ENDBRANCH   1   2
BRANCH   1  11
ATOM     11  C   UNL     1     148.846 153.835 163.285  1.00  0.00     0.034 C 
BRANCH  11  12
ATOM     12  C   UNL     1     149.893 153.702 164.380  1.00  0.00    -0.077 C 
ATOM     13  C   UNL     1     150.288 152.514 164.894  1.00  0.00    -0.028 C 
ATOM     14  C   UNL     1     150.515 154.957 164.940  1.00  0.00     0.039 C 
BRANCH  13  15
ATOM     15  C   UNL     1     149.789 151.153 164.461  1.00  0.00     0.035 C 
BRANCH  15  16
ATOM     16  C   UNL     1     150.810 150.056 164.792  1.00  0.00     0.079 C 
BRANCH  16  17
ATOM     17  C   UNL     1     151.893 149.963 163.750  1.00  0.00     0.130 C 
ATOM     18  O   UNL     1     153.066 150.003 164.090  1.00  0.00    -0.300 OA
ATOM     19  C   UNL     1     151.556 149.786 162.299  1.00  0.00     0.087 C 
ENDBRANCH  16  17
ENDBRANCH  15  16
ENDBRANCH  13  15
ENDBRANCH  11  12
ENDBRANCH   1  11
TORSDOF 9
ENDMDL
MODEL 4
REMARK VINA RESULT:    -4.790      1.407      2.012
REMARK INTER + INTRA:          -8.456
REMARK INTER:                  -6.294
REMARK INTRA:                  -2.162
REMARK UNBOUND:                -1.146
REMARK SMILES CC(=O)CCC=C(C)CCC=C(C)CCC=C(C)C
REMARK SMILES IDX 10 1 11 2 12 3 13 4 14 5 15 6 16 7 18 8 17 9 19 10 9 11 7 12
REMARK SMILES IDX 6 13 8 14 5 15 4 16 2 17 3 18 1 19
REMARK H PARENT
REMARK Flexibility Score: inf
ROOT
ATOM      1  C   UNL     1     149.853 152.592 164.199  1.00  0.00     0.032 C 
ENDROOT
BRANCH   1   2
ATOM      2  C   UNL     1     149.727 153.278 162.858  1.00  0.00    -0.028 C 
ATOM      3  C   UNL     1     150.032 154.570 162.597  1.00  0.00    -0.077 C 
ATOM      4  C   UNL     1     149.882 155.057 161.177  1.00  0.00     0.039 C 
BRANCH   3   5
ATOM      5  C   UNL     1     150.505 155.554 163.657  1.00  0.00     0.034 C 
BRANCH   5   6
ATOM      6  C   UNL     1     149.355 156.351 164.295  1.00  0.00     0.032 C 
BRANCH   6   7
ATOM      7  C   UNL     1     149.182 157.716 163.671  1.00  0.00    -0.028 C 
ATOM      8  C   UNL     1     148.165 159.453 162.264  1.00  0.00     0.039 C 
ATOM      9  C   UNL     1     148.175 158.061 162.838  1.00  0.00    -0.080 C 
ATOM     10  C   UNL     1     147.060 157.103 162.489  1.00  0.00     0.039 C 
ENDBRANCH   6   7
ENDBRANCH   5   6
ENDBRANCH   3   5
ENDBRANCH   1   2
BRANCH   1  11
ATOM     11  C   UNL     1     148.511 151.996 164.648  1.00  0.00     0.034 C 
BRANCH  11  12
ATOM     12  C   UNL     1     147.468 153.062 164.949  1.00  0.00    -0.077 C 
ATOM     13  C   UNL     1     147.456 153.792 166.088  1.00  0.00    -0.028 C 
ATOM     14  C   UNL     1     146.377 153.311 163.937  1.00  0.00     0.039 C 
BRANCH  13  15
ATOM     15  C   UNL     1     148.462 153.696 167.212  1.00  0.00     0.035 C 
BRANCH  15  16
ATOM     16  C   UNL     1     147.905 152.885 168.389  1.00  0.00     0.079 C 
BRANCH  16  17
ATOM     17  C   UNL     1     148.745 151.670 168.684  1.00  0.00     0.130 C 
ATOM     18  O   UNL     1     148.281 150.761 169.355  1.00  0.00    -0.300 OA
ATOM     19  C   UNL     1     150.135 151.541 168.136  1.00  0.00     0.087 C 
ENDBRANCH  16  17
ENDBRANCH  15  16
ENDBRANCH  13  15
ENDBRANCH  11  12
ENDBRANCH   1  11
TORSDOF 9
ENDMDL
MODEL 5
REMARK VINA RESULT:    -4.782      1.957      3.074
REMARK INTER + INTRA:          -8.443
REMARK INTER:                  -5.951
REMARK INTRA:                  -2.492
REMARK UNBOUND:                -1.146
REMARK SMILES CC(=O)CCC=C(C)CCC=C(C)CCC=C(C)C
REMARK SMILES IDX 10 1 11 2 12 3 13 4 14 5 15 6 16 7 18 8 17 9 19 10 9 11 7 12
REMARK SMILES IDX 6 13 8 14 5 15 4 16 2 17 3 18 1 19
REMARK H PARENT
REMARK Flexibility Score: inf
ROOT
ATOM      1  C   UNL     1     147.779 154.180 163.106  1.00  0.00     0.032 C 
ENDROOT
BRANCH   1   2
ATOM      2  C   UNL     1     148.447 154.790 164.317  1.00  0.00    -0.028 C 
ATOM      3  C   UNL     1     149.579 155.532 164.309  1.00  0.00    -0.077 C 
ATOM      4  C   UNL     1     150.063 156.093 165.623  1.00  0.00     0.039 C 
BRANCH   3   5
ATOM      5  C   UNL     1     150.388 155.817 163.053  1.00  0.00     0.034 C 
BRANCH   5   6
ATOM      6  C   UNL     1     149.711 156.830 162.116  1.00  0.00     0.032 C 
BRANCH   6   7
ATOM      7  C   UNL     1     149.274 158.084 162.838  1.00  0.00    -0.028 C 
ATOM      8  C   UNL     1     147.724 159.794 163.674  1.00  0.00     0.039 C 
ATOM      9  C   UNL     1     147.993 158.497 162.959  1.00  0.00    -0.080 C 
ATOM     10  C   UNL     1     146.836 157.690 162.419  1.00  0.00     0.039 C 
ENDBRANCH   6   7
ENDBRANCH   5   6
ENDBRANCH   3   5
ENDBRANCH   1   2
BRANCH   1  11
ATOM     11  C   UNL     1     147.972 152.657 163.071  1.00  0.00     0.034 C 
BRANCH  11  12
ATOM     12  C   UNL     1     149.374 152.253 162.644  1.00  0.00    -0.077 C 
ATOM     13  C   UNL     1     150.263 151.657 163.473  1.00  0.00    -0.028 C 
ATOM     14  C   UNL     1     149.812 152.546 161.231  1.00  0.00     0.039 C 
BRANCH  13  15
ATOM     15  C   UNL     1     150.011 151.277 164.915  1.00  0.00     0.035 C 
BRANCH  15  16
ATOM     16  C   UNL     1     150.807 152.172 165.873  1.00  0.00     0.079 C 
BRANCH  16  17
ATOM     17  C   UNL     1     150.134 152.299 167.215  1.00  0.00     0.130 C 
ATOM     18  O   UNL     1     150.782 152.127 168.236  1.00  0.00    -0.300 OA
ATOM     19  C   UNL     1     148.684 152.668 167.320  1.00  0.00     0.087 C 
ENDBRANCH  16  17
ENDBRANCH  15  16
ENDBRANCH  13  15
ENDBRANCH  11  12
ENDBRANCH   1  11
TORSDOF 9
ENDMDL
MODEL 6
REMARK VINA RESULT:    -4.726      2.834      7.269
REMARK INTER + INTRA:          -8.358
REMARK INTER:                  -6.272
REMARK INTRA:                  -2.086
REMARK UNBOUND:                -1.146
REMARK SMILES CC(=O)CCC=C(C)CCC=C(C)CCC=C(C)C
REMARK SMILES IDX 10 1 11 2 12 3 13 4 14 5 15 6 16 7 18 8 17 9 19 10 9 11 7 12
REMARK SMILES IDX 6 13 8 14 5 15 4 16 2 17 3 18 1 19
REMARK H PARENT
REMARK Flexibility Score: inf
ROOT
ATOM      1  C   UNL     1     147.226 153.527 164.075  1.00  0.00     0.032 C 
ENDROOT
BRANCH   1   2
ATOM      2  C   UNL     1     146.458 152.344 164.617  1.00  0.00    -0.028 C 
ATOM      3  C   UNL     1     145.975 152.221 165.875  1.00  0.00    -0.077 C 
ATOM      4  C   UNL     1     145.191 150.976 166.210  1.00  0.00     0.039 C 
BRANCH   3   5
ATOM      5  C   UNL     1     146.192 153.260 166.964  1.00  0.00     0.034 C 
BRANCH   5   6
ATOM      6  C   UNL     1     146.749 152.662 168.267  1.00  0.00     0.032 C 
BRANCH   6   7
ATOM      7  C   UNL     1     148.251 152.497 168.232  1.00  0.00    -0.028 C 
ATOM      8  C   UNL     1     150.435 151.507 168.758  1.00  0.00     0.039 C 
ATOM      9  C   UNL     1     148.932 151.510 168.854  1.00  0.00    -0.080 C 
ATOM     10  C   UNL     1     148.232 150.410 169.618  1.00  0.00     0.039 C 
ENDBRANCH   6   7
ENDBRANCH   5   6
ENDBRANCH   3   5
ENDBRANCH   1   2
BRANCH   1  11
ATOM     11  C   UNL     1     148.630 153.114 163.609  1.00  0.00     0.034 C 
BRANCH  11  12
ATOM     12  C   UNL     1     149.578 152.848 164.768  1.00  0.00    -0.077 C 
ATOM     13  C   UNL     1     149.882 153.772 165.709  1.00  0.00    -0.028 C 
ATOM     14  C   UNL     1     150.231 151.492 164.871  1.00  0.00     0.039 C 
BRANCH  13  15
ATOM     15  C   UNL     1     149.327 155.177 165.781  1.00  0.00     0.035 C 
BRANCH  15  16
ATOM     16  C   UNL     1     150.324 156.199 165.218  1.00  0.00     0.079 C 
BRANCH  16  17
ATOM     17  C   UNL     1     150.003 156.573 163.795  1.00  0.00     0.130 C 
ATOM     18  O   UNL     1     150.558 155.990 162.876  1.00  0.00    -0.300 OA
ATOM     19  C   UNL     1     148.985 157.629 163.485  1.00  0.00     0.087 C 
ENDBRANCH  16  17
ENDBRANCH  15  16
ENDBRANCH  13  15
ENDBRANCH  11  12
ENDBRANCH   1  11
TORSDOF 9
ENDMDL
MODEL 7
REMARK VINA RESULT:    -4.700      3.092      7.113
REMARK INTER + INTRA:          -8.318
REMARK INTER:                  -5.711
REMARK INTRA:                  -2.607
REMARK UNBOUND:                -1.146
REMARK SMILES CC(=O)CCC=C(C)CCC=C(C)CCC=C(C)C
REMARK SMILES IDX 10 1 11 2 12 3 13 4 14 5 15 6 16 7 18 8 17 9 19 10 9 11 7 12
REMARK SMILES IDX 6 13 8 14 5 15 4 16 2 17 3 18 1 19
REMARK H PARENT
REMARK Flexibility Score: inf
ROOT
ATOM      1  C   UNL     1     148.315 154.076 166.303  1.00  0.00     0.032 C 
ENDROOT
BRANCH   1   2
ATOM      2  C   UNL     1     148.634 153.027 167.343  1.00  0.00    -0.028 C 
ATOM      3  C   UNL     1     149.694 152.187 167.323  1.00  0.00    -0.077 C 
ATOM      4  C   UNL     1     149.864 151.238 168.483  1.00  0.00     0.039 C 
BRANCH   3   5
ATOM      5  C   UNL     1     150.710 152.143 166.192  1.00  0.00     0.034 C 
BRANCH   5   6
ATOM      6  C   UNL     1     150.680 150.823 165.404  1.00  0.00     0.032 C 
BRANCH   6   7
ATOM      7  C   UNL     1     150.745 151.039 163.910  1.00  0.00    -0.028 C 
ATOM      8  C   UNL     1     150.493 150.499 161.528  1.00  0.00     0.039 C 
ATOM      9  C   UNL     1     150.320 150.152 162.983  1.00  0.00    -0.080 C 
ATOM     10  C   UNL     1     149.664 148.846 163.365  1.00  0.00     0.039 C 
ENDBRANCH   6   7
ENDBRANCH   5   6
ENDBRANCH   3   5
ENDBRANCH   1   2
BRANCH   1  11
ATOM     11  C   UNL     1     147.074 153.691 165.484  1.00  0.00     0.034 C 
BRANCH  11  12
ATOM     12  C   UNL     1     147.397 152.740 164.342  1.00  0.00    -0.077 C 
ATOM     13  C   UNL     1     148.000 153.131 163.195  1.00  0.00    -0.028 C 
ATOM     14  C   UNL     1     147.014 151.288 164.480  1.00  0.00     0.039 C 
BRANCH  13  15
ATOM     15  C   UNL     1     148.465 154.534 162.874  1.00  0.00     0.035 C 
BRANCH  15  16
ATOM     16  C   UNL     1     149.986 154.664 163.029  1.00  0.00     0.079 C 
BRANCH  16  17
ATOM     17  C   UNL     1     150.359 155.683 164.074  1.00  0.00     0.130 C 
ATOM     18  O   UNL     1     151.249 155.432 164.873  1.00  0.00    -0.300 OA
ATOM     19  C   UNL     1     149.679 157.018 164.129  1.00  0.00     0.087 C 
ENDBRANCH  16  17
ENDBRANCH  15  16
ENDBRANCH  13  15
ENDBRANCH  11  12
ENDBRANCH   1  11
TORSDOF 9
ENDMDL
MODEL 8
REMARK VINA RESULT:    -4.660      3.149      5.587
REMARK INTER + INTRA:          -8.258
REMARK INTER:                  -5.662
REMARK INTRA:                  -2.597
REMARK UNBOUND:                -1.146
REMARK SMILES CC(=O)CCC=C(C)CCC=C(C)CCC=C(C)C
REMARK SMILES IDX 10 1 11 2 12 3 13 4 14 5 15 6 16 7 18 8 17 9 19 10 9 11 7 12
REMARK SMILES IDX 6 13 8 14 5 15 4 16 2 17 3 18 1 19
REMARK H PARENT
REMARK Flexibility Score: inf
ROOT
ATOM      1  C   UNL     1     149.895 153.605 162.222  1.00  0.00     0.032 C 
ENDROOT
BRANCH   1   2
ATOM      2  C   UNL     1     149.585 155.083 162.245  1.00  0.00    -0.028 C 
ATOM      3  C   UNL     1     149.937 155.953 163.219  1.00  0.00    -0.077 C 
ATOM      4  C   UNL     1     149.573 157.405 163.034  1.00  0.00     0.039 C 
BRANCH   3   5
ATOM      5  C   UNL     1     150.666 155.542 164.490  1.00  0.00     0.034 C 
BRANCH   5   6
ATOM      6  C   UNL     1     149.719 155.047 165.595  1.00  0.00     0.032 C 
BRANCH   6   7
ATOM      7  C   UNL     1     150.088 153.672 166.101  1.00  0.00    -0.028 C 
ATOM      8  C   UNL     1     149.906 151.628 167.449  1.00  0.00     0.039 C 
ATOM      9  C   UNL     1     149.382 152.972 167.016  1.00  0.00    -0.080 C 
ATOM     10  C   UNL     1     148.085 153.487 167.594  1.00  0.00     0.039 C 
ENDBRANCH   6   7
ENDBRANCH   5   6
ENDBRANCH   3   5
ENDBRANCH   1   2
BRANCH   1  11
ATOM     11  C   UNL     1     148.622 152.771 162.019  1.00  0.00     0.034 C 
BRANCH  11  12
ATOM     12  C   UNL     1     147.973 152.362 163.332  1.00  0.00    -0.077 C 
ATOM     13  C   UNL     1     148.205 151.176 163.941  1.00  0.00    -0.028 C 
ATOM     14  C   UNL     1     147.005 153.316 163.987  1.00  0.00     0.039 C 
BRANCH  13  15
ATOM     15  C   UNL     1     149.142 150.096 163.447  1.00  0.00     0.035 C 
BRANCH  15  16
ATOM     16  C   UNL     1     150.518 150.206 164.118  1.00  0.00     0.079 C 
BRANCH  16  17
ATOM     17  C   UNL     1     151.640 149.950 163.146  1.00  0.00     0.130 C 
ATOM     18  O   UNL     1     152.794 149.941 163.543  1.00  0.00    -0.300 OA
ATOM     19  C   UNL     1     151.360 149.671 161.699  1.00  0.00     0.087 C 
ENDBRANCH  16  17
ENDBRANCH  15  16
ENDBRANCH  13  15
ENDBRANCH  11  12
ENDBRANCH   1  11
TORSDOF 9
ENDMDL
MODEL 9
REMARK VINA RESULT:    -4.648      1.525      4.277
REMARK INTER + INTRA:          -8.239
REMARK INTER:                  -6.010
REMARK INTRA:                  -2.229
REMARK UNBOUND:                -1.146
REMARK SMILES CC(=O)CCC=C(C)CCC=C(C)CCC=C(C)C
REMARK SMILES IDX 10 1 11 2 12 3 13 4 14 5 15 6 16 7 18 8 17 9 19 10 9 11 7 12
REMARK SMILES IDX 6 13 8 14 5 15 4 16 2 17 3 18 1 19
REMARK H PARENT
REMARK Flexibility Score: inf
ROOT
ATOM      1  C   UNL     1     149.062 158.758 162.867  1.00  0.00     0.032 C 
ENDROOT
BRANCH   1   2
ATOM      2  C   UNL     1     147.982 159.656 163.423  1.00  0.00    -0.028 C 
ATOM      3  C   UNL     1     146.764 159.867 162.872  1.00  0.00    -0.077 C 
ATOM      4  C   UNL     1     145.804 160.768 163.608  1.00  0.00     0.039 C 
BRANCH   3   5
ATOM      5  C   UNL     1     146.322 159.254 161.552  1.00  0.00     0.034 C 
BRANCH   5   6
ATOM      6  C   UNL     1     145.242 158.172 161.720  1.00  0.00     0.032 C 
BRANCH   6   7
ATOM      7  C   UNL     1     145.688 157.046 162.624  1.00  0.00    -0.028 C 
ATOM      8  C   UNL     1     146.666 154.876 163.226  1.00  0.00     0.039 C 
ATOM      9  C   UNL     1     146.324 155.929 162.206  1.00  0.00    -0.080 C 
ATOM     10  C   UNL     1     146.716 155.722 160.762  1.00  0.00     0.039 C 
ENDBRANCH   6   7
ENDBRANCH   5   6
ENDBRANCH   3   5
ENDBRANCH   1   2
BRANCH   1  11
ATOM     11  C   UNL     1     149.286 157.532 163.767  1.00  0.00     0.034 C 
BRANCH  11  12
ATOM     12  C   UNL     1     149.992 156.396 163.044  1.00  0.00    -0.077 C 
ATOM     13  C   UNL     1     150.414 155.268 163.661  1.00  0.00    -0.028 C 
ATOM     14  C   UNL     1     150.257 156.535 161.565  1.00  0.00     0.039 C 
BRANCH  13  15
ATOM     15  C   UNL     1     150.235 154.942 165.127  1.00  0.00     0.035 C 
BRANCH  15  16
ATOM     16  C   UNL     1     150.154 153.427 165.353  1.00  0.00     0.079 C 
BRANCH  16  17
ATOM     17  C   UNL     1     149.535 153.089 166.684  1.00  0.00     0.130 C 
ATOM     18  O   UNL     1     150.101 152.307 167.433  1.00  0.00    -0.300 OA
ATOM     19  C   UNL     1     148.250 153.725 167.122  1.00  0.00     0.087 C 
ENDBRANCH  16  17
ENDBRANCH  15  16
ENDBRANCH  13  15
ENDBRANCH  11  12
ENDBRANCH   1  11
TORSDOF 9
ENDMDL
