MODEL 1
REMARK VINA RESULT:    -5.026      0.000      0.000
REMARK INTER + INTRA:         -10.959
REMARK INTER:                  -8.846
REMARK INTRA:                  -2.113
REMARK UNBOUND:                -2.113
REMARK SMILES CCCCCCC=CCCCCCCCC(=O)[O-]
REMARK SMILES IDX 10 1 11 2 12 3 13 4 14 5 15 6 16 7 17 8 18 9 9 10 8 11 7 12
REMARK SMILES IDX 6 13 5 14 4 15 3 16 2 17 1 18
REMARK H PARENT
REMARK Flexibility Score: inf
ROOT
ATOM      1  C   UNL     1     -35.021  42.615  44.389  1.00  0.00     0.004 C 
ENDROOT
BRANCH   1   2
ATOM      2  C   UNL     1     -35.852  42.530  43.098  1.00  0.00     0.000 C 
BRANCH   2   3
ATOM      3  C   UNL     1     -35.314  43.450  41.990  1.00  0.00     0.000 C 
BRANCH   3   4
ATOM      4  C   UNL     1     -35.146  42.719  40.646  1.00  0.00     0.000 C 
BRANCH   4   5
ATOM      5  C   UNL     1     -33.790  42.999  39.973  1.00  0.00     0.006 C 
BRANCH   5   6
ATOM      6  C   UNL     1     -33.545  44.485  39.659  1.00  0.00     0.053 C 
BRANCH   6   7
ATOM      7  C   UNL     1     -34.253  44.940  38.419  1.00  0.00     0.041 C 
ATOM      8  O   UNL     1     -35.197  45.769  38.494  1.00  0.00    -0.550 OA
ATOM      9  O   UNL     1     -33.849  44.470  37.176  1.00  0.00    -0.550 OA
ENDBRANCH   6   7
ENDBRANCH   5   6
ENDBRANCH   4   5
ENDBRANCH   3   4
ENDBRANCH   2   3
ENDBRANCH   1   2
BRANCH   1  10
ATOM     10  C   UNL     1     -34.112  41.390  44.574  1.00  0.00     0.027 C 
BRANCH  10  11
ATOM     11  C   UNL     1     -32.779  41.572  43.890  1.00  0.00    -0.031 C 
ATOM     12  C   UNL     1     -32.242  40.702  43.014  1.00  0.00    -0.031 C 
BRANCH  12  13
ATOM     13  C   UNL     1     -32.842  39.365  42.656  1.00  0.00     0.027 C 
BRANCH  13  14
ATOM     14  C   UNL     1     -33.605  39.416  41.324  1.00  0.00     0.004 C 
BRANCH  14  15
ATOM     15  C   UNL     1     -35.109  39.148  41.508  1.00  0.00     0.000 C 
BRANCH  15  16
ATOM     16  C   UNL     1     -35.428  38.396  42.813  1.00  0.00    -0.000 C 
BRANCH  16  17
ATOM     17  C   UNL     1     -36.876  37.890  42.931  1.00  0.00    -0.003 C 
ATOM     18  C   UNL     1     -36.974  36.367  43.007  1.00  0.00     0.004 C 
ENDBRANCH  16  17
ENDBRANCH  15  16
ENDBRANCH  14  15
ENDBRANCH  13  14
ENDBRANCH  12  13
ENDBRANCH  10  11
ENDBRANCH   1  10
TORSDOF 13
ENDMDL
MODEL 2
REMARK VINA RESULT:    -4.982      5.614      8.255
REMARK INTER + INTRA:         -10.881
REMARK INTER:                  -8.241
REMARK INTRA:                  -2.640
REMARK UNBOUND:                -2.113
REMARK SMILES CCCCCCC=CCCCCCCCC(=O)[O-]
REMARK SMILES IDX 10 1 11 2 12 3 13 4 14 5 15 6 16 7 17 8 18 9 9 10 8 11 7 12
REMARK SMILES IDX 6 13 5 14 4 15 3 16 2 17 1 18
REMARK H PARENT
REMARK Flexibility Score: inf
ROOT
ATOM      1  C   UNL     1     -36.996  37.155  43.107  1.00  0.00     0.004 C 
ENDROOT
BRANCH   1   2
ATOM      2  C   UNL     1     -36.509  37.255  44.562  1.00  0.00     0.000 C 
BRANCH   2   3
ATOM      3  C   UNL     1     -36.982  36.074  45.424  1.00  0.00     0.000 C 
BRANCH   3   4
ATOM      4  C   UNL     1     -37.842  36.524  46.620  1.00  0.00     0.000 C 
BRANCH   4   5
ATOM      5  C   UNL     1     -37.867  38.052  46.802  1.00  0.00     0.006 C 
BRANCH   5   6
ATOM      6  C   UNL     1     -39.275  38.630  47.032  1.00  0.00     0.053 C 
BRANCH   6   7
ATOM      7  C   UNL     1     -39.893  38.156  48.312  1.00  0.00     0.041 C 
ATOM      8  O   UNL     1     -41.098  37.792  48.340  1.00  0.00    -0.550 OA
ATOM      9  O   UNL     1     -39.128  38.087  49.470  1.00  0.00    -0.550 OA
ENDBRANCH   6   7
ENDBRANCH   5   6
ENDBRANCH   4   5
ENDBRANCH   3   4
ENDBRANCH   2   3
ENDBRANCH   1   2
BRANCH   1  10
ATOM     10  C   UNL     1     -37.340  38.531  42.516  1.00  0.00     0.027 C 
BRANCH  10  11
ATOM     11  C   UNL     1     -38.508  39.171  43.228  1.00  0.00    -0.031 C 
ATOM     12  C   UNL     1     -38.474  40.378  43.822  1.00  0.00    -0.031 C 
BRANCH  12  13
ATOM     13  C   UNL     1     -37.239  41.234  43.957  1.00  0.00     0.027 C 
BRANCH  13  14
ATOM     14  C   UNL     1     -36.618  41.129  45.358  1.00  0.00     0.004 C 
BRANCH  14  15
ATOM     15  C   UNL     1     -35.126  40.756  45.303  1.00  0.00     0.000 C 
BRANCH  15  16
ATOM     16  C   UNL     1     -34.576  40.694  43.866  1.00  0.00    -0.000 C 
BRANCH  16  17
ATOM     17  C   UNL     1     -33.762  39.430  43.539  1.00  0.00    -0.003 C 
ATOM     18  C   UNL     1     -33.678  39.145  42.040  1.00  0.00     0.004 C 
ENDBRANCH  16  17
ENDBRANCH  15  16
ENDBRANCH  14  15
ENDBRANCH  13  14
ENDBRANCH  12  13
ENDBRANCH  10  11
ENDBRANCH   1  10
TORSDOF 13
ENDMDL
MODEL 3
REMARK VINA RESULT:    -4.966      1.535      3.873
REMARK INTER + INTRA:         -10.853
REMARK INTER:                  -8.644
REMARK INTRA:                  -2.209
REMARK UNBOUND:                -2.113
REMARK SMILES CCCCCCC=CCCCCCCCC(=O)[O-]
REMARK SMILES IDX 10 1 11 2 12 3 13 4 14 5 15 6 16 7 17 8 18 9 9 10 8 11 7 12
REMARK SMILES IDX 6 13 5 14 4 15 3 16 2 17 1 18
REMARK H PARENT
REMARK Flexibility Score: inf
ROOT
ATOM      1  C   UNL     1     -33.975  40.448  39.503  1.00  0.00     0.004 C 
ENDROOT
BRANCH   1   2
ATOM      2  C   UNL     1     -32.960  41.174  40.402  1.00  0.00     0.000 C 
BRANCH   2   3
ATOM      3  C   UNL     1     -33.162  42.698  40.407  1.00  0.00     0.000 C 
BRANCH   3   4
ATOM      4  C   UNL     1     -34.456  43.123  39.690  1.00  0.00     0.000 C 
BRANCH   4   5
ATOM      5  C   UNL     1     -34.201  44.044  38.483  1.00  0.00     0.006 C 
BRANCH   5   6
ATOM      6  C   UNL     1     -32.982  44.968  38.650  1.00  0.00     0.053 C 
BRANCH   6   7
ATOM      7  C   UNL     1     -32.627  45.692  37.387  1.00  0.00     0.041 C 
ATOM      8  O   UNL     1     -31.422  45.829  37.050  1.00  0.00    -0.550 OA
ATOM      9  O   UNL     1     -33.631  46.190  36.565  1.00  0.00    -0.550 OA
ENDBRANCH   6   7
ENDBRANCH   5   6
ENDBRANCH   4   5
ENDBRANCH   3   4
ENDBRANCH   2   3
ENDBRANCH   1   2
BRANCH   1  10
ATOM     10  C   UNL     1     -34.280  39.029  40.004  1.00  0.00     0.027 C 
BRANCH  10  11
ATOM     11  C   UNL     1     -34.342  38.967  41.512  1.00  0.00    -0.031 C 
ATOM     12  C   UNL     1     -35.459  39.147  42.241  1.00  0.00    -0.031 C 
BRANCH  12  13
ATOM     13  C   UNL     1     -36.802  39.535  41.672  1.00  0.00     0.027 C 
BRANCH  13  14
ATOM     14  C   UNL     1     -36.997  41.058  41.649  1.00  0.00     0.004 C 
BRANCH  14  15
ATOM     15  C   UNL     1     -36.886  41.677  43.054  1.00  0.00     0.000 C 
BRANCH  15  16
ATOM     16  C   UNL     1     -35.684  42.628  43.196  1.00  0.00    -0.000 C 
BRANCH  16  17
ATOM     17  C   UNL     1     -34.790  42.363  44.420  1.00  0.00    -0.003 C 
ATOM     18  C   UNL     1     -33.451  41.723  44.055  1.00  0.00     0.004 C 
ENDBRANCH  16  17
ENDBRANCH  15  16
ENDBRANCH  14  15
ENDBRANCH  13  14
ENDBRANCH  12  13
ENDBRANCH  10  11
ENDBRANCH   1  10
TORSDOF 13
ENDMDL
MODEL 4
REMARK VINA RESULT:    -4.965      5.446      8.081
REMARK INTER + INTRA:         -10.852
REMARK INTER:                  -8.168
REMARK INTRA:                  -2.684
REMARK UNBOUND:                -2.113
REMARK SMILES CCCCCCC=CCCCCCCCC(=O)[O-]
REMARK SMILES IDX 10 1 11 2 12 3 13 4 14 5 15 6 16 7 17 8 18 9 9 10 8 11 7 12
REMARK SMILES IDX 6 13 5 14 4 15 3 16 2 17 1 18
REMARK H PARENT
REMARK Flexibility Score: inf
ROOT
ATOM      1  C   UNL     1     -35.010  38.143  44.639  1.00  0.00     0.004 C 
ENDROOT
BRANCH   1   2
ATOM      2  C   UNL     1     -36.216  37.894  45.560  1.00  0.00     0.000 C 
BRANCH   2   3
ATOM      3  C   UNL     1     -36.355  38.966  46.652  1.00  0.00     0.000 C 
BRANCH   3   4
ATOM      4  C   UNL     1     -37.757  39.600  46.682  1.00  0.00     0.000 C 
BRANCH   4   5
ATOM      5  C   UNL     1     -38.837  38.703  46.050  1.00  0.00     0.006 C 
BRANCH   5   6
ATOM      6  C   UNL     1     -40.051  38.452  46.962  1.00  0.00     0.053 C 
BRANCH   6   7
ATOM      7  C   UNL     1     -39.769  37.450  48.040  1.00  0.00     0.041 C 
ATOM      8  O   UNL     1     -39.789  36.218  47.784  1.00  0.00    -0.550 OA
ATOM      9  O   UNL     1     -39.452  37.880  49.322  1.00  0.00    -0.550 OA
ENDBRANCH   6   7
ENDBRANCH   5   6
ENDBRANCH   4   5
ENDBRANCH   3   4
ENDBRANCH   2   3
ENDBRANCH   1   2
BRANCH   1  10
ATOM     10  C   UNL     1     -35.411  38.182  43.157  1.00  0.00     0.027 C 
BRANCH  10  11
ATOM     11  C   UNL     1     -36.878  37.878  42.965  1.00  0.00    -0.031 C 
ATOM     12  C   UNL     1     -37.779  38.740  42.458  1.00  0.00    -0.031 C 
BRANCH  12  13
ATOM     13  C   UNL     1     -37.485  40.175  42.096  1.00  0.00     0.027 C 
BRANCH  13  14
ATOM     14  C   UNL     1     -37.744  41.128  43.272  1.00  0.00     0.004 C 
BRANCH  14  15
ATOM     15  C   UNL     1     -36.633  42.183  43.417  1.00  0.00     0.000 C 
BRANCH  15  16
ATOM     16  C   UNL     1     -35.708  41.917  44.619  1.00  0.00    -0.000 C 
BRANCH  16  17
ATOM     17  C   UNL     1     -34.208  41.859  44.280  1.00  0.00    -0.003 C 
ATOM     18  C   UNL     1     -33.938  41.591  42.800  1.00  0.00     0.004 C 
ENDBRANCH  16  17
ENDBRANCH  15  16
ENDBRANCH  14  15
ENDBRANCH  13  14
ENDBRANCH  12  13
ENDBRANCH  10  11
ENDBRANCH   1  10
TORSDOF 13
ENDMDL
MODEL 5
REMARK VINA RESULT:    -4.955      1.744      3.011
REMARK INTER + INTRA:         -10.834
REMARK INTER:                  -8.643
REMARK INTRA:                  -2.191
REMARK UNBOUND:                -2.113
REMARK SMILES CCCCCCC=CCCCCCCCC(=O)[O-]
REMARK SMILES IDX 10 1 11 2 12 3 13 4 14 5 15 6 16 7 17 8 18 9 9 10 8 11 7 12
REMARK SMILES IDX 6 13 5 14 4 15 3 16 2 17 1 18
REMARK H PARENT
REMARK Flexibility Score: inf
ROOT
ATOM      1  C   UNL     1     -32.230  40.748  40.630  1.00  0.00     0.004 C 
ENDROOT
BRANCH   1   2
ATOM      2  C   UNL     1     -33.543  41.485  40.314  1.00  0.00     0.000 C 
BRANCH   2   3
ATOM      3  C   UNL     1     -33.347  43.003  40.176  1.00  0.00     0.000 C 
BRANCH   3   4
ATOM      4  C   UNL     1     -34.675  43.753  39.966  1.00  0.00     0.000 C 
BRANCH   4   5
ATOM      5  C   UNL     1     -34.537  44.971  39.035  1.00  0.00     0.006 C 
BRANCH   5   6
ATOM      6  C   UNL     1     -34.105  44.616  37.602  1.00  0.00     0.053 C 
BRANCH   6   7
ATOM      7  C   UNL     1     -33.093  45.573  37.048  1.00  0.00     0.041 C 
ATOM      8  O   UNL     1     -33.464  46.580  36.391  1.00  0.00    -0.550 OA
ATOM      9  O   UNL     1     -31.740  45.367  37.285  1.00  0.00    -0.550 OA
ENDBRANCH   6   7
ENDBRANCH   5   6
ENDBRANCH   4   5
ENDBRANCH   3   4
ENDBRANCH   2   3
ENDBRANCH   1   2
BRANCH   1  10
ATOM     10  C   UNL     1     -32.202  40.204  42.066  1.00  0.00     0.027 C 
BRANCH  10  11
ATOM     11  C   UNL     1     -31.732  41.248  43.052  1.00  0.00    -0.031 C 
ATOM     12  C   UNL     1     -32.492  41.777  44.028  1.00  0.00    -0.031 C 
BRANCH  12  13
ATOM     13  C   UNL     1     -33.960  41.484  44.228  1.00  0.00     0.027 C 
BRANCH  13  14
ATOM     14  C   UNL     1     -34.851  42.565  43.597  1.00  0.00     0.004 C 
BRANCH  14  15
ATOM     15  C   UNL     1     -36.137  41.974  42.992  1.00  0.00     0.000 C 
BRANCH  15  16
ATOM     16  C   UNL     1     -36.118  40.436  42.931  1.00  0.00    -0.000 C 
BRANCH  16  17
ATOM     17  C   UNL     1     -36.439  39.839  41.549  1.00  0.00    -0.003 C 
ATOM     18  C   UNL     1     -37.178  40.814  40.633  1.00  0.00     0.004 C 
ENDBRANCH  16  17
ENDBRANCH  15  16
ENDBRANCH  14  15
ENDBRANCH  13  14
ENDBRANCH  12  13
ENDBRANCH  10  11
ENDBRANCH   1  10
TORSDOF 13
ENDMDL
MODEL 6
REMARK VINA RESULT:    -4.932      4.138      6.167
REMARK INTER + INTRA:         -10.794
REMARK INTER:                  -7.941
REMARK INTRA:                  -2.853
REMARK UNBOUND:                -2.113
REMARK SMILES CCCCCCC=CCCCCCCCC(=O)[O-]
REMARK SMILES IDX 10 1 11 2 12 3 13 4 14 5 15 6 16 7 17 8 18 9 9 10 8 11 7 12
REMARK SMILES IDX 6 13 5 14 4 15 3 16 2 17 1 18
REMARK H PARENT
REMARK Flexibility Score: inf
ROOT
ATOM      1  C   UNL     1     -33.776  41.761  44.106  1.00  0.00     0.004 C 
ENDROOT
BRANCH   1   2
ATOM      2  C   UNL     1     -35.110  42.463  44.410  1.00  0.00     0.000 C 
BRANCH   2   3
ATOM      3  C   UNL     1     -36.197  41.484  44.877  1.00  0.00     0.000 C 
BRANCH   3   4
ATOM      4  C   UNL     1     -37.472  41.563  44.018  1.00  0.00     0.000 C 
BRANCH   4   5
ATOM      5  C   UNL     1     -38.269  40.246  44.001  1.00  0.00     0.006 C 
BRANCH   5   6
ATOM      6  C   UNL     1     -37.555  39.075  44.698  1.00  0.00     0.053 C 
BRANCH   6   7
ATOM      7  C   UNL     1     -38.318  38.551  45.877  1.00  0.00     0.041 C 
ATOM      8  O   UNL     1     -39.231  39.240  46.401  1.00  0.00    -0.550 OA
ATOM      9  O   UNL     1     -38.040  37.285  46.377  1.00  0.00    -0.550 OA
ENDBRANCH   6   7
ENDBRANCH   5   6
ENDBRANCH   4   5
ENDBRANCH   3   4
ENDBRANCH   2   3
ENDBRANCH   1   2
BRANCH   1  10
ATOM     10  C   UNL     1     -33.893  40.232  44.198  1.00  0.00     0.027 C 
BRANCH  10  11
ATOM     11  C   UNL     1     -33.260  39.548  43.009  1.00  0.00    -0.031 C 
ATOM     12  C   UNL     1     -33.934  39.104  41.932  1.00  0.00    -0.031 C 
BRANCH  12  13
ATOM     13  C   UNL     1     -35.436  39.130  41.789  1.00  0.00     0.027 C 
BRANCH  13  14
ATOM     14  C   UNL     1     -35.873  39.719  40.439  1.00  0.00     0.004 C 
BRANCH  14  15
ATOM     15  C   UNL     1     -36.558  41.088  40.599  1.00  0.00     0.000 C 
BRANCH  15  16
ATOM     16  C   UNL     1     -35.555  42.247  40.744  1.00  0.00    -0.000 C 
BRANCH  16  17
ATOM     17  C   UNL     1     -34.342  42.174  39.801  1.00  0.00    -0.003 C 
ATOM     18  C   UNL     1     -33.015  42.439  40.511  1.00  0.00     0.004 C 
ENDBRANCH  16  17
ENDBRANCH  15  16
ENDBRANCH  14  15
ENDBRANCH  13  14
ENDBRANCH  12  13
ENDBRANCH  10  11
ENDBRANCH   1  10
TORSDOF 13
ENDMDL
MODEL 7
REMARK VINA RESULT:    -4.922      2.002      4.053
REMARK INTER + INTRA:         -10.777
REMARK INTER:                  -9.080
REMARK INTRA:                  -1.696
REMARK UNBOUND:                -2.113
REMARK SMILES CCCCCCC=CCCCCCCCC(=O)[O-]
REMARK SMILES IDX 10 1 11 2 12 3 13 4 14 5 15 6 16 7 17 8 18 9 9 10 8 11 7 12
REMARK SMILES IDX 6 13 5 14 4 15 3 16 2 17 1 18
REMARK H PARENT
REMARK Flexibility Score: inf
ROOT
ATOM      1  C   UNL     1     -33.789  41.451  39.388  1.00  0.00     0.004 C 
ENDROOT
BRANCH   1   2
ATOM      2  C   UNL     1     -33.887  42.482  40.525  1.00  0.00     0.000 C 
BRANCH   2   3
ATOM      3  C   UNL     1     -35.045  43.473  40.323  1.00  0.00     0.000 C 
BRANCH   3   4
ATOM      4  C   UNL     1     -34.559  44.925  40.170  1.00  0.00     0.000 C 
BRANCH   4   5
ATOM      5  C   UNL     1     -34.792  45.493  38.758  1.00  0.00     0.006 C 
BRANCH   5   6
ATOM      6  C   UNL     1     -33.992  44.775  37.657  1.00  0.00     0.053 C 
BRANCH   6   7
ATOM      7  C   UNL     1     -32.971  45.661  37.013  1.00  0.00     0.041 C 
ATOM      8  O   UNL     1     -31.745  45.498  37.250  1.00  0.00    -0.550 OA
ATOM      9  O   UNL     1     -33.371  46.651  36.123  1.00  0.00    -0.550 OA
ENDBRANCH   6   7
ENDBRANCH   5   6
ENDBRANCH   4   5
ENDBRANCH   3   4
ENDBRANCH   2   3
ENDBRANCH   1   2
BRANCH   1  10
ATOM     10  C   UNL     1     -33.383  40.061  39.901  1.00  0.00     0.027 C 
BRANCH  10  11
ATOM     11  C   UNL     1     -34.576  39.147  40.047  1.00  0.00    -0.031 C 
ATOM     12  C   UNL     1     -35.286  38.987  41.179  1.00  0.00    -0.031 C 
BRANCH  12  13
ATOM     13  C   UNL     1     -34.940  39.621  42.505  1.00  0.00     0.027 C 
BRANCH  13  14
ATOM     14  C   UNL     1     -33.977  38.749  43.324  1.00  0.00     0.004 C 
BRANCH  14  15
ATOM     15  C   UNL     1     -32.528  39.261  43.250  1.00  0.00     0.000 C 
BRANCH  15  16
ATOM     16  C   UNL     1     -32.418  40.781  43.473  1.00  0.00    -0.000 C 
BRANCH  16  17
ATOM     17  C   UNL     1     -31.000  41.357  43.311  1.00  0.00    -0.003 C 
ATOM     18  C   UNL     1     -30.526  41.378  41.858  1.00  0.00     0.004 C 
ENDBRANCH  16  17
ENDBRANCH  15  16
ENDBRANCH  14  15
ENDBRANCH  13  14
ENDBRANCH  12  13
ENDBRANCH  10  11
ENDBRANCH   1  10
TORSDOF 13
ENDMDL
MODEL 8
REMARK VINA RESULT:    -4.905      2.077      3.337
REMARK INTER + INTRA:         -10.745
REMARK INTER:                  -8.227
REMARK INTRA:                  -2.519
REMARK UNBOUND:                -2.113
REMARK SMILES CCCCCCC=CCCCCCCCC(=O)[O-]
REMARK SMILES IDX 10 1 11 2 12 3 13 4 14 5 15 6 16 7 17 8 18 9 9 10 8 11 7 12
REMARK SMILES IDX 6 13 5 14 4 15 3 16 2 17 1 18
REMARK H PARENT
REMARK Flexibility Score: inf
ROOT
ATOM      1  C   UNL     1     -34.933  40.041  45.469  1.00  0.00     0.004 C 
ENDROOT
BRANCH   1   2
ATOM      2  C   UNL     1     -34.005  41.028  44.741  1.00  0.00     0.000 C 
BRANCH   2   3
ATOM      3  C   UNL     1     -34.586  42.450  44.684  1.00  0.00     0.000 C 
BRANCH   3   4
ATOM      4  C   UNL     1     -35.437  42.690  43.424  1.00  0.00     0.000 C 
BRANCH   4   5
ATOM      5  C   UNL     1     -34.743  42.222  42.131  1.00  0.00     0.006 C 
BRANCH   5   6
ATOM      6  C   UNL     1     -35.359  42.804  40.847  1.00  0.00     0.053 C 
BRANCH   6   7
ATOM      7  C   UNL     1     -34.440  43.755  40.142  1.00  0.00     0.041 C 
ATOM      8  O   UNL     1     -34.870  44.860  39.721  1.00  0.00    -0.550 OA
ATOM      9  O   UNL     1     -33.098  43.432  39.979  1.00  0.00    -0.550 OA
ENDBRANCH   6   7
ENDBRANCH   5   6
ENDBRANCH   4   5
ENDBRANCH   3   4
ENDBRANCH   2   3
ENDBRANCH   1   2
BRANCH   1  10
ATOM     10  C   UNL     1     -34.805  38.613  44.917  1.00  0.00     0.027 C 
BRANCH  10  11
ATOM     11  C   UNL     1     -34.568  38.607  43.426  1.00  0.00    -0.031 C 
ATOM     12  C   UNL     1     -35.540  38.589  42.495  1.00  0.00    -0.031 C 
BRANCH  12  13
ATOM     13  C   UNL     1     -37.014  38.470  42.796  1.00  0.00     0.027 C 
BRANCH  13  14
ATOM     14  C   UNL     1     -37.760  39.789  42.540  1.00  0.00     0.004 C 
BRANCH  14  15
ATOM     15  C   UNL     1     -38.286  40.419  43.841  1.00  0.00     0.000 C 
BRANCH  15  16
ATOM     16  C   UNL     1     -39.090  39.429  44.704  1.00  0.00    -0.000 C 
BRANCH  16  17
ATOM     17  C   UNL     1     -38.532  39.203  46.120  1.00  0.00    -0.003 C 
ATOM     18  C   UNL     1     -38.105  37.758  46.372  1.00  0.00     0.004 C 
ENDBRANCH  16  17
ENDBRANCH  15  16
ENDBRANCH  14  15
ENDBRANCH  13  14
ENDBRANCH  12  13
ENDBRANCH  10  11
ENDBRANCH   1  10
TORSDOF 13
ENDMDL
MODEL 9
REMARK VINA RESULT:    -4.875      1.463      2.850
REMARK INTER + INTRA:         -10.694
REMARK INTER:                  -8.222
REMARK INTRA:                  -2.472
REMARK UNBOUND:                -2.113
REMARK SMILES CCCCCCC=CCCCCCCCC(=O)[O-]
REMARK SMILES IDX 10 1 11 2 12 3 13 4 14 5 15 6 16 7 17 8 18 9 9 10 8 11 7 12
REMARK SMILES IDX 6 13 5 14 4 15 3 16 2 17 1 18
REMARK H PARENT
REMARK Flexibility Score: inf
ROOT
ATOM      1  C   UNL     1     -32.568  40.139  42.921  1.00  0.00     0.004 C 
ENDROOT
BRANCH   1   2
ATOM      2  C   UNL     1     -32.462  41.377  42.015  1.00  0.00     0.000 C 
BRANCH   2   3
ATOM      3  C   UNL     1     -32.764  41.056  40.543  1.00  0.00     0.000 C 
BRANCH   3   4
ATOM      4  C   UNL     1     -34.023  41.776  40.028  1.00  0.00     0.000 C 
BRANCH   4   5
ATOM      5  C   UNL     1     -34.453  42.952  40.924  1.00  0.00     0.006 C 
BRANCH   5   6
ATOM      6  C   UNL     1     -34.718  44.258  40.156  1.00  0.00     0.053 C 
BRANCH   6   7
ATOM      7  C   UNL     1     -33.792  44.443  38.992  1.00  0.00     0.041 C 
ATOM      8  O   UNL     1     -32.596  44.787  39.180  1.00  0.00    -0.550 OA
ATOM      9  O   UNL     1     -34.244  44.205  37.700  1.00  0.00    -0.550 OA
ENDBRANCH   6   7
ENDBRANCH   5   6
ENDBRANCH   4   5
ENDBRANCH   3   4
ENDBRANCH   2   3
ENDBRANCH   1   2
BRANCH   1  10
ATOM     10  C   UNL     1     -33.635  40.311  44.013  1.00  0.00     0.027 C 
BRANCH  10  11
ATOM     11  C   UNL     1     -33.879  41.767  44.334  1.00  0.00    -0.031 C 
ATOM     12  C   UNL     1     -35.067  42.282  44.701  1.00  0.00    -0.031 C 
BRANCH  12  13
ATOM     13  C   UNL     1     -36.360  41.505  44.753  1.00  0.00     0.027 C 
BRANCH  13  14
ATOM     14  C   UNL     1     -37.279  41.840  43.568  1.00  0.00     0.004 C 
BRANCH  14  15
ATOM     15  C   UNL     1     -37.768  40.576  42.840  1.00  0.00     0.000 C 
BRANCH  15  16
ATOM     16  C   UNL     1     -37.018  40.316  41.521  1.00  0.00    -0.000 C 
BRANCH  16  17
ATOM     17  C   UNL     1     -36.128  39.061  41.519  1.00  0.00    -0.003 C 
ATOM     18  C   UNL     1     -36.384  38.144  42.715  1.00  0.00     0.004 C 
ENDBRANCH  16  17
ENDBRANCH  15  16
ENDBRANCH  14  15
ENDBRANCH  13  14
ENDBRANCH  12  13
ENDBRANCH  10  11
ENDBRANCH   1  10
TORSDOF 13
ENDMDL
