MODEL 1
REMARK VINA RESULT:    -3.878      0.000      0.000
REMARK INTER + INTRA:          -4.668
REMARK INTER:                  -4.558
REMARK INTRA:                  -0.110
REMARK UNBOUND:                -0.110
REMARK SMILES O=C([O-])CCC(=O)[O-]
REMARK SMILES IDX 4 1 2 2 1 3 3 4 5 5 6 6 7 7 8 8
REMARK H PARENT
REMARK Flexibility Score: inf
ROOT
ATOM      1  C   UNL     1      20.866  11.675  37.627  1.00  0.00     0.059 C 
ENDROOT
BRANCH   1   2
ATOM      2  C   UNL     1      20.547  12.115  39.021  1.00  0.00     0.042 C 
ATOM      3  O   UNL     1      21.231  11.692  39.991  1.00  0.00    -0.550 OA
ATOM      4  O   UNL     1      19.526  13.029  39.246  1.00  0.00    -0.550 OA
ENDBRANCH   1   2
BRANCH   1   5
ATOM      5  C   UNL     1      21.879  12.625  36.985  1.00  0.00     0.059 C 
BRANCH   5   6
ATOM      6  C   UNL     1      21.175  13.727  36.258  1.00  0.00     0.042 C 
ATOM      7  O   UNL     1      20.169  13.473  35.545  1.00  0.00    -0.550 OA
ATOM      8  O   UNL     1      21.658  15.027  36.329  1.00  0.00    -0.550 OA
ENDBRANCH   5   6
ENDBRANCH   1   5
TORSDOF 3
ENDMDL
MODEL 2
REMARK VINA RESULT:    -3.872      0.120      1.151
REMARK INTER + INTRA:          -4.661
REMARK INTER:                  -4.553
REMARK INTRA:                  -0.108
REMARK UNBOUND:                -0.110
REMARK SMILES O=C([O-])CCC(=O)[O-]
REMARK SMILES IDX 4 1 2 2 1 3 3 4 5 5 6 6 7 7 8 8
REMARK H PARENT
REMARK Flexibility Score: inf
ROOT
ATOM      1  C   UNL     1      20.871  11.758  37.581  1.00  0.00     0.059 C 
ENDROOT
BRANCH   1   2
ATOM      2  C   UNL     1      20.531  12.182  38.975  1.00  0.00     0.042 C 
ATOM      3  O   UNL     1      21.143  11.683  39.956  1.00  0.00    -0.550 OA
ATOM      4  O   UNL     1      19.573  13.164  39.189  1.00  0.00    -0.550 OA
ENDBRANCH   1   2
BRANCH   1   5
ATOM      5  C   UNL     1      21.892  12.717  36.964  1.00  0.00     0.059 C 
BRANCH   5   6
ATOM      6  C   UNL     1      21.199  13.778  36.170  1.00  0.00     0.042 C 
ATOM      7  O   UNL     1      21.580  14.976  36.246  1.00  0.00    -0.550 OA
ATOM      8  O   UNL     1      20.103  13.453  35.382  1.00  0.00    -0.550 OA
ENDBRANCH   5   6
ENDBRANCH   1   5
TORSDOF 3
ENDMDL
MODEL 3
REMARK VINA RESULT:    -3.865      0.147      3.630
REMARK INTER + INTRA:          -4.652
REMARK INTER:                  -4.550
REMARK INTRA:                  -0.102
REMARK UNBOUND:                -0.110
REMARK SMILES O=C([O-])CCC(=O)[O-]
REMARK SMILES IDX 4 1 2 2 1 3 3 4 5 5 6 6 7 7 8 8
REMARK H PARENT
REMARK Flexibility Score: inf
ROOT
ATOM      1  C   UNL     1      21.892  12.713  36.975  1.00  0.00     0.059 C 
ENDROOT
BRANCH   1   2
ATOM      2  C   UNL     1      21.224  13.827  36.233  1.00  0.00     0.042 C 
ATOM      3  O   UNL     1      21.648  15.007  36.345  1.00  0.00    -0.550 OA
ATOM      4  O   UNL     1      20.162  13.555  35.380  1.00  0.00    -0.550 OA
ENDBRANCH   1   2
BRANCH   1   5
ATOM      5  C   UNL     1      20.849  11.797  37.619  1.00  0.00     0.059 C 
BRANCH   5   6
ATOM      6  C   UNL     1      20.515  12.271  38.997  1.00  0.00     0.042 C 
ATOM      7  O   UNL     1      21.084  11.762  39.998  1.00  0.00    -0.550 OA
ATOM      8  O   UNL     1      19.539  13.242  39.181  1.00  0.00    -0.550 OA
ENDBRANCH   5   6
ENDBRANCH   1   5
TORSDOF 3
ENDMDL
MODEL 4
REMARK VINA RESULT:    -3.816      1.680      2.304
REMARK INTER + INTRA:          -4.595
REMARK INTER:                  -4.460
REMARK INTRA:                  -0.135
REMARK UNBOUND:                -0.110
REMARK SMILES O=C([O-])CCC(=O)[O-]
REMARK SMILES IDX 4 1 2 2 1 3 3 4 5 5 6 6 7 7 8 8
REMARK H PARENT
REMARK Flexibility Score: inf
ROOT
ATOM      1  C   UNL     1      20.654  12.015  39.703  1.00  0.00     0.059 C 
ENDROOT
BRANCH   1   2
ATOM      2  C   UNL     1      19.441  12.882  39.825  1.00  0.00     0.042 C 
ATOM      3  O   UNL     1      18.350  12.393  40.221  1.00  0.00    -0.550 OA
ATOM      4  O   UNL     1      19.527  14.240  39.549  1.00  0.00    -0.550 OA
ENDBRANCH   1   2
BRANCH   1   5
ATOM      5  C   UNL     1      20.668  11.303  38.348  1.00  0.00     0.059 C 
BRANCH   5   6
ATOM      6  C   UNL     1      21.379  12.134  37.327  1.00  0.00     0.042 C 
ATOM      7  O   UNL     1      22.638  12.155  37.293  1.00  0.00    -0.550 OA
ATOM      8  O   UNL     1      20.653  12.923  36.445  1.00  0.00    -0.550 OA
ENDBRANCH   5   6
ENDBRANCH   1   5
TORSDOF 3
ENDMDL
MODEL 5
REMARK VINA RESULT:    -3.802      1.700      3.569
REMARK INTER + INTRA:          -4.579
REMARK INTER:                  -4.449
REMARK INTRA:                  -0.130
REMARK UNBOUND:                -0.110
REMARK SMILES O=C([O-])CCC(=O)[O-]
REMARK SMILES IDX 4 1 2 2 1 3 3 4 5 5 6 6 7 7 8 8
REMARK H PARENT
REMARK Flexibility Score: inf
ROOT
ATOM      1  C   UNL     1      20.622  11.305  38.344  1.00  0.00     0.059 C 
ENDROOT
BRANCH   1   2
ATOM      2  C   UNL     1      21.352  12.132  37.335  1.00  0.00     0.042 C 
ATOM      3  O   UNL     1      20.714  12.881  36.548  1.00  0.00    -0.550 OA
ATOM      4  O   UNL     1      22.740  12.115  37.294  1.00  0.00    -0.550 OA
ENDBRANCH   1   2
BRANCH   1   5
ATOM      5  C   UNL     1      20.630  11.996  39.710  1.00  0.00     0.059 C 
BRANCH   5   6
ATOM      6  C   UNL     1      19.407  12.840  39.876  1.00  0.00     0.042 C 
ATOM      7  O   UNL     1      18.309  12.309  40.189  1.00  0.00    -0.550 OA
ATOM      8  O   UNL     1      19.467  14.207  39.639  1.00  0.00    -0.550 OA
ENDBRANCH   5   6
ENDBRANCH   1   5
TORSDOF 3
ENDMDL
MODEL 6
REMARK VINA RESULT:    -3.707     20.189     21.271
REMARK INTER + INTRA:          -4.467
REMARK INTER:                  -4.347
REMARK INTRA:                  -0.120
REMARK UNBOUND:                -0.110
REMARK SMILES O=C([O-])CCC(=O)[O-]
REMARK SMILES IDX 4 1 2 2 1 3 3 4 5 5 6 6 7 7 8 8
REMARK H PARENT
REMARK Flexibility Score: inf
ROOT
ATOM      1  C   UNL     1      37.215  26.842  34.125  1.00  0.00     0.059 C 
ENDROOT
BRANCH   1   2
ATOM      2  C   UNL     1      36.807  25.559  33.473  1.00  0.00     0.042 C 
ATOM      3  O   UNL     1      37.617  24.937  32.736  1.00  0.00    -0.550 OA
ATOM      4  O   UNL     1      35.549  25.024  33.717  1.00  0.00    -0.550 OA
ENDBRANCH   1   2
BRANCH   1   5
ATOM      5  C   UNL     1      37.801  26.574  35.513  1.00  0.00     0.059 C 
BRANCH   5   6
ATOM      6  C   UNL     1      36.876  27.075  36.577  1.00  0.00     0.042 C 
ATOM      7  O   UNL     1      35.743  26.547  36.731  1.00  0.00    -0.550 OA
ATOM      8  O   UNL     1      37.245  28.157  37.366  1.00  0.00    -0.550 OA
ENDBRANCH   5   6
ENDBRANCH   1   5
TORSDOF 3
ENDMDL
MODEL 7
REMARK VINA RESULT:    -3.693     20.527     21.331
REMARK INTER + INTRA:          -4.451
REMARK INTER:                  -4.347
REMARK INTRA:                  -0.104
REMARK UNBOUND:                -0.110
REMARK SMILES O=C([O-])CCC(=O)[O-]
REMARK SMILES IDX 4 1 2 2 1 3 3 4 5 5 6 6 7 7 8 8
REMARK H PARENT
REMARK Flexibility Score: inf
ROOT
ATOM      1  C   UNL     1      37.939  26.545  35.413  1.00  0.00     0.059 C 
ENDROOT
BRANCH   1   2
ATOM      2  C   UNL     1      36.983  27.000  36.468  1.00  0.00     0.042 C 
ATOM      3  O   UNL     1      35.875  26.419  36.614  1.00  0.00    -0.550 OA
ATOM      4  O   UNL     1      37.334  28.036  37.324  1.00  0.00    -0.550 OA
ENDBRANCH   1   2
BRANCH   1   5
ATOM      5  C   UNL     1      37.374  26.831  34.019  1.00  0.00     0.059 C 
BRANCH   5   6
ATOM      6  C   UNL     1      37.200  25.558  33.254  1.00  0.00     0.042 C 
ATOM      7  O   UNL     1      38.123  25.135  32.508  1.00  0.00    -0.550 OA
ATOM      8  O   UNL     1      36.000  24.862  33.326  1.00  0.00    -0.550 OA
ENDBRANCH   5   6
ENDBRANCH   1   5
TORSDOF 3
ENDMDL
MODEL 8
REMARK VINA RESULT:    -3.640      1.467      4.186
REMARK INTER + INTRA:          -4.388
REMARK INTER:                  -4.359
REMARK INTRA:                  -0.029
REMARK UNBOUND:                -0.110
REMARK SMILES O=C([O-])CCC(=O)[O-]
REMARK SMILES IDX 4 1 2 2 1 3 3 4 5 5 6 6 7 7 8 8
REMARK H PARENT
REMARK Flexibility Score: inf
ROOT
ATOM      1  C   UNL     1      20.464  13.227  37.629  1.00  0.00     0.059 C 
ENDROOT
BRANCH   1   2
ATOM      2  C   UNL     1      20.782  13.931  36.348  1.00  0.00     0.042 C 
ATOM      3  O   UNL     1      20.264  13.545  35.267  1.00  0.00    -0.550 OA
ATOM      4  O   UNL     1      21.612  15.045  36.354  1.00  0.00    -0.550 OA
ENDBRANCH   1   2
BRANCH   1   5
ATOM      5  C   UNL     1      19.955  14.222  38.675  1.00  0.00     0.059 C 
BRANCH   5   6
ATOM      6  C   UNL     1      19.630  13.517  39.953  1.00  0.00     0.042 C 
ATOM      7  O   UNL     1      20.123  13.916  41.041  1.00  0.00    -0.550 OA
ATOM      8  O   UNL     1      18.821  12.388  39.938  1.00  0.00    -0.550 OA
ENDBRANCH   5   6
ENDBRANCH   1   5
TORSDOF 3
ENDMDL
MODEL 9
REMARK VINA RESULT:    -3.590     18.211     19.870
REMARK INTER + INTRA:          -4.329
REMARK INTER:                  -4.233
REMARK INTRA:                  -0.096
REMARK UNBOUND:                -0.110
REMARK SMILES O=C([O-])CCC(=O)[O-]
REMARK SMILES IDX 4 1 2 2 1 3 3 4 5 5 6 6 7 7 8 8
REMARK H PARENT
REMARK Flexibility Score: inf
ROOT
ATOM      1  C   UNL     1      35.230  24.391  33.570  1.00  0.00     0.059 C 
ENDROOT
BRANCH   1   2
ATOM      2  C   UNL     1      34.046  25.018  32.905  1.00  0.00     0.042 C 
ATOM      3  O   UNL     1      34.177  26.085  32.251  1.00  0.00    -0.550 OA
ATOM      4  O   UNL     1      32.805  24.397  32.968  1.00  0.00    -0.550 OA
ENDBRANCH   1   2
BRANCH   1   5
ATOM      5  C   UNL     1      36.499  25.191  33.266  1.00  0.00     0.059 C 
BRANCH   5   6
ATOM      6  C   UNL     1      36.968  25.914  34.489  1.00  0.00     0.042 C 
ATOM      7  O   UNL     1      38.037  26.578  34.462  1.00  0.00    -0.550 OA
ATOM      8  O   UNL     1      36.249  25.815  35.673  1.00  0.00    -0.550 OA
ENDBRANCH   5   6
ENDBRANCH   1   5
TORSDOF 3
ENDMDL
