MODEL 1
REMARK VINA RESULT:    -3.112      0.000      0.000
REMARK INTER + INTRA:          -4.252
REMARK INTER:                  -4.022
REMARK INTRA:                  -0.230
REMARK UNBOUND:                -0.230
REMARK SMILES CCO[C@H]1O[C@H](CO)[C@H](O)[C@H](O)[C@@H]1O
REMARK SMILES IDX 4 1 13 2 11 3 9 4 6 5 5 6 3 7 2 8 1 9 14 10 12 12 7 14 8 15
REMARK SMILES IDX 10 17
REMARK H PARENT 14 11 12 13 8 16 10 18
REMARK Flexibility Score: inf
ROOT
ATOM      1  C   UNL     1     -13.671 -22.003  16.878  1.00  0.00     0.281 C 
ATOM      2  C   UNL     1     -13.320 -22.428  15.435  1.00  0.00     0.202 C 
ATOM      3  C   UNL     1     -11.846 -22.870  15.351  1.00  0.00     0.179 C 
ATOM      4  C   UNL     1     -10.924 -21.805  15.978  1.00  0.00     0.177 C 
ATOM      5  C   UNL     1     -11.438 -21.466  17.394  1.00  0.00     0.178 C 
ATOM      6  O   UNL     1     -12.779 -21.000  17.346  1.00  0.00    -0.341 OA
ENDROOT
BRANCH   1   7
ATOM      7  O   UNL     1     -13.651 -23.124  17.753  1.00  0.00    -0.350 OA
BRANCH   7   8
ATOM      8  C   UNL     1     -14.593 -22.973  18.796  1.00  0.00     0.160 C 
ATOM      9  C   UNL     1     -15.908 -22.482  18.211  1.00  0.00     0.035 C 
ENDBRANCH   7   8
ENDBRANCH   1   7
BRANCH   2  10
ATOM     10  O   UNL     1     -13.563 -21.347  14.569  1.00  0.00    -0.385 OA
ATOM     11  H   UNL     1     -12.766 -20.756  14.612  1.00  0.00     0.211 HD
ENDBRANCH   2  10
BRANCH   3  12
ATOM     12  O   UNL     1     -11.493 -23.111  14.014  1.00  0.00    -0.387 OA
ATOM     13  H   UNL     1     -11.961 -22.428  13.466  1.00  0.00     0.211 HD
ENDBRANCH   3  12
BRANCH   5  14
ATOM     14  C   UNL     1     -10.562 -20.395  18.053  1.00  0.00     0.191 C 
BRANCH  14  15
ATOM     15  O   UNL     1     -11.376 -19.450  18.692  1.00  0.00    -0.394 OA
ATOM     16  H   UNL     1     -12.308 -19.775  18.589  1.00  0.00     0.210 HD
ENDBRANCH  14  15
ENDBRANCH   5  14
BRANCH   4  17
ATOM     17  O   UNL     1     -10.901 -20.645  15.183  1.00  0.00    -0.387 OA
ATOM     18  H   UNL     1     -11.809 -20.247  15.225  1.00  0.00     0.211 HD
ENDBRANCH   4  17
TORSDOF 7
ENDMDL
MODEL 2
REMARK VINA RESULT:    -3.087      1.406      3.204
REMARK INTER + INTRA:          -4.218
REMARK INTER:                  -4.043
REMARK INTRA:                  -0.176
REMARK UNBOUND:                -0.230
REMARK SMILES CCO[C@H]1O[C@H](CO)[C@H](O)[C@H](O)[C@@H]1O
REMARK SMILES IDX 4 1 13 2 11 3 9 4 6 5 5 6 3 7 2 8 1 9 14 10 12 12 7 14 8 15
REMARK SMILES IDX 10 17
REMARK H PARENT 14 11 12 13 8 16 10 18
REMARK Flexibility Score: inf
ROOT
ATOM      1  C   UNL     1     -12.594 -22.396  17.882  1.00  0.00     0.281 C 
ATOM      2  C   UNL     1     -11.293 -21.571  17.763  1.00  0.00     0.202 C 
ATOM      3  C   UNL     1     -11.486 -20.410  16.768  1.00  0.00     0.179 C 
ATOM      4  C   UNL     1     -12.076 -20.925  15.441  1.00  0.00     0.177 C 
ATOM      5  C   UNL     1     -13.339 -21.760  15.742  1.00  0.00     0.178 C 
ATOM      6  O   UNL     1     -13.034 -22.844  16.608  1.00  0.00    -0.341 OA
ENDROOT
BRANCH   1   7
ATOM      7  O   UNL     1     -13.617 -21.635  18.515  1.00  0.00    -0.350 OA
BRANCH   7   8
ATOM      8  C   UNL     1     -14.634 -22.474  19.023  1.00  0.00     0.160 C 
ATOM      9  C   UNL     1     -15.975 -22.024  18.464  1.00  0.00     0.035 C 
ENDBRANCH   7   8
ENDBRANCH   1   7
BRANCH   2  10
ATOM     10  O   UNL     1     -10.254 -22.418  17.340  1.00  0.00    -0.385 OA
ATOM     11  H   UNL     1     -10.385 -23.290  17.796  1.00  0.00     0.211 HD
ENDBRANCH   2  10
BRANCH   3  12
ATOM     12  O   UNL     1     -10.262 -19.757  16.550  1.00  0.00    -0.387 OA
ATOM     13  H   UNL     1     -10.449 -18.782  16.580  1.00  0.00     0.211 HD
ENDBRANCH   3  12
BRANCH   5  14
ATOM     14  C   UNL     1     -13.954 -22.311  14.451  1.00  0.00     0.191 C 
BRANCH  14  15
ATOM     15  O   UNL     1     -14.711 -21.312  13.827  1.00  0.00    -0.394 OA
ATOM     16  H   UNL     1     -14.107 -20.530  13.728  1.00  0.00     0.210 HD
ENDBRANCH  14  15
ENDBRANCH   5  14
BRANCH   4  17
ATOM     17  O   UNL     1     -11.133 -21.711  14.754  1.00  0.00    -0.387 OA
ATOM     18  H   UNL     1     -10.828 -22.414  15.385  1.00  0.00     0.211 HD
ENDBRANCH   4  17
TORSDOF 7
ENDMDL
MODEL 3
REMARK VINA RESULT:    -2.948      2.038      4.276
REMARK INTER + INTRA:          -4.040
REMARK INTER:                  -3.915
REMARK INTRA:                  -0.124
REMARK UNBOUND:                -0.230
REMARK SMILES CCO[C@H]1O[C@H](CO)[C@H](O)[C@H](O)[C@@H]1O
REMARK SMILES IDX 4 1 13 2 11 3 9 4 6 5 5 6 3 7 2 8 1 9 14 10 12 12 7 14 8 15
REMARK SMILES IDX 10 17
REMARK H PARENT 14 11 12 13 8 16 10 18
REMARK Flexibility Score: inf
ROOT
ATOM      1  C   UNL     1     -11.119 -21.859  15.599  1.00  0.00     0.281 C 
ATOM      2  C   UNL     1     -12.481 -21.512  16.241  1.00  0.00     0.202 C 
ATOM      3  C   UNL     1     -13.553 -22.526  15.799  1.00  0.00     0.179 C 
ATOM      4  C   UNL     1     -13.557 -22.681  14.266  1.00  0.00     0.177 C 
ATOM      5  C   UNL     1     -12.120 -22.981  13.788  1.00  0.00     0.178 C 
ATOM      6  O   UNL     1     -11.229 -21.948  14.185  1.00  0.00    -0.341 OA
ENDROOT
BRANCH   1   7
ATOM      7  O   UNL     1     -10.607 -23.076  16.129  1.00  0.00    -0.350 OA
BRANCH   7   8
ATOM      8  C   UNL     1     -10.753 -23.120  17.534  1.00  0.00     0.160 C 
ATOM      9  C   UNL     1      -9.414 -22.811  18.183  1.00  0.00     0.035 C 
ENDBRANCH   7   8
ENDBRANCH   1   7
BRANCH   2  10
ATOM     10  O   UNL     1     -12.846 -20.209  15.860  1.00  0.00    -0.385 OA
ATOM     11  H   UNL     1     -13.426 -19.846  16.581  1.00  0.00     0.211 HD
ENDBRANCH   2  10
BRANCH   3  12
ATOM     12  O   UNL     1     -14.816 -22.122  16.263  1.00  0.00    -0.387 OA
ATOM     13  H   UNL     1     -14.740 -21.160  16.498  1.00  0.00     0.211 HD
ENDBRANCH   3  12
BRANCH   5  14
ATOM     14  C   UNL     1     -12.067 -23.125  12.263  1.00  0.00     0.191 C 
BRANCH  14  15
ATOM     15  O   UNL     1     -11.374 -22.040  11.712  1.00  0.00    -0.394 OA
ATOM     16  H   UNL     1     -11.563 -21.264  12.302  1.00  0.00     0.210 HD
ENDBRANCH  14  15
ENDBRANCH   5  14
BRANCH   4  17
ATOM     17  O   UNL     1     -14.032 -21.507  13.654  1.00  0.00    -0.387 OA
ATOM     18  H   UNL     1     -15.018 -21.596  13.584  1.00  0.00     0.211 HD
ENDBRANCH   4  17
TORSDOF 7
ENDMDL
MODEL 4
REMARK VINA RESULT:    -2.875      1.643      3.567
REMARK INTER + INTRA:          -3.945
REMARK INTER:                  -3.798
REMARK INTRA:                  -0.147
REMARK UNBOUND:                -0.230
REMARK SMILES CCO[C@H]1O[C@H](CO)[C@H](O)[C@H](O)[C@@H]1O
REMARK SMILES IDX 4 1 13 2 11 3 9 4 6 5 5 6 3 7 2 8 1 9 14 10 12 12 7 14 8 15
REMARK SMILES IDX 10 17
REMARK H PARENT 14 11 12 13 8 16 10 18
REMARK Flexibility Score: inf
ROOT
ATOM      1  C   UNL     1     -12.381 -22.550  17.765  1.00  0.00     0.281 C 
ATOM      2  C   UNL     1     -11.221 -21.951  16.938  1.00  0.00     0.202 C 
ATOM      3  C   UNL     1     -11.764 -20.931  15.918  1.00  0.00     0.179 C 
ATOM      4  C   UNL     1     -12.922 -21.541  15.104  1.00  0.00     0.177 C 
ATOM      5  C   UNL     1     -13.966 -22.128  16.078  1.00  0.00     0.178 C 
ATOM      6  O   UNL     1     -13.376 -23.109  16.920  1.00  0.00    -0.341 OA
ENDROOT
BRANCH   1   7
ATOM      7  O   UNL     1     -12.955 -21.564  18.615  1.00  0.00    -0.350 OA
BRANCH   7   8
ATOM      8  C   UNL     1     -11.969 -20.686  19.116  1.00  0.00     0.160 C 
ATOM      9  C   UNL     1     -12.520 -19.270  19.125  1.00  0.00     0.035 C 
ENDBRANCH   7   8
ENDBRANCH   1   7
BRANCH   2  10
ATOM     10  O   UNL     1     -10.543 -22.994  16.282  1.00  0.00    -0.385 OA
ATOM     11  H   UNL     1     -10.008 -22.580  15.555  1.00  0.00     0.211 HD
ENDBRANCH   2  10
BRANCH   3  12
ATOM     12  O   UNL     1     -10.729 -20.503  15.071  1.00  0.00    -0.387 OA
ATOM     13  H   UNL     1     -10.692 -19.513  15.142  1.00  0.00     0.211 HD
ENDBRANCH   3  12
BRANCH   5  14
ATOM     14  C   UNL     1     -15.132 -22.765  15.313  1.00  0.00     0.191 C 
BRANCH  14  15
ATOM     15  O   UNL     1     -15.406 -22.014  14.163  1.00  0.00    -0.394 OA
ATOM     16  H   UNL     1     -16.314 -22.286  13.867  1.00  0.00     0.210 HD
ENDBRANCH  14  15
ENDBRANCH   5  14
BRANCH   4  17
ATOM     17  O   UNL     1     -12.444 -22.548  14.246  1.00  0.00    -0.387 OA
ATOM     18  H   UNL     1     -11.671 -22.974  14.701  1.00  0.00     0.211 HD
ENDBRANCH   4  17
TORSDOF 7
ENDMDL
MODEL 5
REMARK VINA RESULT:    -2.853      1.480      3.324
REMARK INTER + INTRA:          -3.917
REMARK INTER:                  -3.538
REMARK INTRA:                  -0.379
REMARK UNBOUND:                -0.230
REMARK SMILES CCO[C@H]1O[C@H](CO)[C@H](O)[C@H](O)[C@@H]1O
REMARK SMILES IDX 4 1 13 2 11 3 9 4 6 5 5 6 3 7 2 8 1 9 14 10 12 12 7 14 8 15
REMARK SMILES IDX 10 17
REMARK H PARENT 14 11 12 13 8 16 10 18
REMARK Flexibility Score: inf
ROOT
ATOM      1  C   UNL     1     -13.750 -22.599  17.748  1.00  0.00     0.281 C 
ATOM      2  C   UNL     1     -12.807 -21.636  18.504  1.00  0.00     0.202 C 
ATOM      3  C   UNL     1     -12.304 -20.529  17.558  1.00  0.00     0.179 C 
ATOM      4  C   UNL     1     -11.737 -21.139  16.261  1.00  0.00     0.177 C 
ATOM      5  C   UNL     1     -12.783 -22.103  15.660  1.00  0.00     0.178 C 
ATOM      6  O   UNL     1     -13.119 -23.125  16.588  1.00  0.00    -0.341 OA
ENDROOT
BRANCH   1   7
ATOM      7  O   UNL     1     -14.962 -21.944  17.394  1.00  0.00    -0.350 OA
BRANCH   7   8
ATOM      8  C   UNL     1     -16.047 -22.849  17.388  1.00  0.00     0.160 C 
ATOM      9  C   UNL     1     -16.772 -22.748  16.056  1.00  0.00     0.035 C 
ENDBRANCH   7   8
ENDBRANCH   1   7
BRANCH   2  10
ATOM     10  O   UNL     1     -11.727 -22.370  19.025  1.00  0.00    -0.385 OA
ATOM     11  H   UNL     1     -11.952 -22.589  19.968  1.00  0.00     0.211 HD
ENDBRANCH   2  10
BRANCH   3  12
ATOM     12  O   UNL     1     -11.335 -19.747  18.207  1.00  0.00    -0.387 OA
ATOM     13  H   UNL     1     -10.675 -20.377  18.600  1.00  0.00     0.211 HD
ENDBRANCH   3  12
BRANCH   5  14
ATOM     14  C   UNL     1     -12.257 -22.752  14.375  1.00  0.00     0.191 C 
BRANCH  14  15
ATOM     15  O   UNL     1     -11.189 -21.998  13.871  1.00  0.00    -0.394 OA
ATOM     16  H   UNL     1     -11.564 -21.449  13.134  1.00  0.00     0.210 HD
ENDBRANCH  14  15
ENDBRANCH   5  14
BRANCH   4  17
ATOM     17  O   UNL     1     -10.540 -21.829  16.524  1.00  0.00    -0.387 OA
ATOM     18  H   UNL     1     -10.776 -22.788  16.628  1.00  0.00     0.211 HD
ENDBRANCH   4  17
TORSDOF 7
ENDMDL
MODEL 6
REMARK VINA RESULT:    -2.695      1.932      3.794
REMARK INTER + INTRA:          -3.712
REMARK INTER:                  -3.596
REMARK INTRA:                  -0.116
REMARK UNBOUND:                -0.230
REMARK SMILES CCO[C@H]1O[C@H](CO)[C@H](O)[C@H](O)[C@@H]1O
REMARK SMILES IDX 4 1 13 2 11 3 9 4 6 5 5 6 3 7 2 8 1 9 14 10 12 12 7 14 8 15
REMARK SMILES IDX 10 17
REMARK H PARENT 14 11 12 13 8 16 10 18
REMARK Flexibility Score: inf
ROOT
ATOM      1  C   UNL     1     -11.212 -22.770  15.695  1.00  0.00     0.281 C 
ATOM      2  C   UNL     1     -11.516 -22.973  17.197  1.00  0.00     0.202 C 
ATOM      3  C   UNL     1     -12.377 -21.811  17.729  1.00  0.00     0.179 C 
ATOM      4  C   UNL     1     -11.752 -20.454  17.351  1.00  0.00     0.177 C 
ATOM      5  C   UNL     1     -11.474 -20.435  15.832  1.00  0.00     0.178 C 
ATOM      6  O   UNL     1     -10.613 -21.503  15.463  1.00  0.00    -0.341 OA
ENDROOT
BRANCH   1   7
ATOM      7  O   UNL     1     -12.396 -22.903  14.918  1.00  0.00    -0.350 OA
BRANCH   7   8
ATOM      8  C   UNL     1     -12.090 -23.122  13.557  1.00  0.00     0.160 C 
ATOM      9  C   UNL     1     -13.379 -23.125  12.751  1.00  0.00     0.035 C 
ENDBRANCH   7   8
ENDBRANCH   1   7
BRANCH   2  10
ATOM     10  O   UNL     1     -10.303 -23.053  17.901  1.00  0.00    -0.385 OA
ATOM     11  H   UNL     1      -9.741 -23.729  17.438  1.00  0.00     0.211 HD
ENDBRANCH   2  10
BRANCH   3  12
ATOM     12  O   UNL     1     -12.525 -21.922  19.121  1.00  0.00    -0.387 OA
ATOM     13  H   UNL     1     -11.939 -22.669  19.412  1.00  0.00     0.211 HD
ENDBRANCH   3  12
BRANCH   5  14
ATOM     14  C   UNL     1     -10.832 -19.109  15.409  1.00  0.00     0.191 C 
BRANCH  14  15
ATOM     15  O   UNL     1     -11.802 -18.098  15.401  1.00  0.00    -0.394 OA
ATOM     16  H   UNL     1     -11.368 -17.297  15.796  1.00  0.00     0.210 HD
ENDBRANCH  14  15
ENDBRANCH   5  14
BRANCH   4  17
ATOM     17  O   UNL     1     -10.556 -20.248  18.062  1.00  0.00    -0.387 OA
ATOM     18  H   UNL     1     -10.739 -20.481  19.009  1.00  0.00     0.211 HD
ENDBRANCH   4  17
TORSDOF 7
ENDMDL
MODEL 7
REMARK VINA RESULT:    -2.330      1.931      4.426
REMARK INTER + INTRA:          -3.241
REMARK INTER:                  -2.853
REMARK INTRA:                  -0.389
REMARK UNBOUND:                -0.230
REMARK SMILES CCO[C@H]1O[C@H](CO)[C@H](O)[C@H](O)[C@@H]1O
REMARK SMILES IDX 4 1 13 2 11 3 9 4 6 5 5 6 3 7 2 8 1 9 14 10 12 12 7 14 8 15
REMARK SMILES IDX 10 17
REMARK H PARENT 14 11 12 13 8 16 10 18
REMARK Flexibility Score: inf
ROOT
ATOM      1  C   UNL     1     -12.532 -21.497  17.265  1.00  0.00     0.281 C 
ATOM      2  C   UNL     1     -13.579 -21.735  18.376  1.00  0.00     0.202 C 
ATOM      3  C   UNL     1     -14.408 -22.997  18.065  1.00  0.00     0.179 C 
ATOM      4  C   UNL     1     -14.958 -22.945  16.626  1.00  0.00     0.177 C 
ATOM      5  C   UNL     1     -13.794 -22.658  15.653  1.00  0.00     0.178 C 
ATOM      6  O   UNL     1     -13.147 -21.437  15.986  1.00  0.00    -0.341 OA
ENDROOT
BRANCH   1   7
ATOM      7  O   UNL     1     -11.536 -22.512  17.284  1.00  0.00    -0.350 OA
BRANCH   7   8
ATOM      8  C   UNL     1     -10.347 -22.048  17.889  1.00  0.00     0.160 C 
ATOM      9  C   UNL     1      -9.813 -23.121  18.825  1.00  0.00     0.035 C 
ENDBRANCH   7   8
ENDBRANCH   1   7
BRANCH   2  10
ATOM     10  O   UNL     1     -14.412 -20.607  18.467  1.00  0.00    -0.385 OA
ATOM     11  H   UNL     1     -15.301 -20.872  18.112  1.00  0.00     0.211 HD
ENDBRANCH   2  10
BRANCH   3  12
ATOM     12  O   UNL     1     -15.453 -23.125  18.995  1.00  0.00    -0.387 OA
ATOM     13  H   UNL     1     -15.133 -23.745  19.701  1.00  0.00     0.211 HD
ENDBRANCH   3  12
BRANCH   5  14
ATOM     14  C   UNL     1     -14.294 -22.578  14.207  1.00  0.00     0.191 C 
BRANCH  14  15
ATOM     15  O   UNL     1     -14.730 -21.275  13.932  1.00  0.00    -0.394 OA
ATOM     16  H   UNL     1     -13.940 -20.688  14.061  1.00  0.00     0.210 HD
ENDBRANCH  14  15
ENDBRANCH   5  14
BRANCH   4  17
ATOM     17  O   UNL     1     -15.940 -21.945  16.510  1.00  0.00    -0.387 OA
ATOM     18  H   UNL     1     -16.297 -21.997  15.585  1.00  0.00     0.211 HD
ENDBRANCH   4  17
TORSDOF 7
ENDMDL
