MODEL 1
REMARK VINA RESULT:    -5.569      0.000      0.000
REMARK INTER + INTRA:          -6.696
REMARK INTER:                  -6.545
REMARK INTRA:                  -0.151
REMARK UNBOUND:                -0.151
REMARK SMILES O=C([O-])C=Cc1ccc(O)c(O)c1
REMARK SMILES IDX 6 1 13 2 7 3 11 4 8 5 9 6 5 7 4 8 2 9 1 10 3 11 12 12 10 14
REMARK H PARENT 12 13 10 15
REMARK Flexibility Score: inf
ROOT
ATOM      1  C   UNL     1      10.104  14.005  22.189  1.00  0.00    -0.022 A 
ATOM      2  C   UNL     1      10.456  15.367  22.082  1.00  0.00     0.058 A 
ATOM      3  C   UNL     1      10.147  13.203  21.038  1.00  0.00     0.012 A 
ATOM      4  C   UNL     1      10.817  15.913  20.842  1.00  0.00     0.157 A 
ATOM      5  C   UNL     1      10.504  13.748  19.803  1.00  0.00     0.051 A 
ATOM      6  C   UNL     1      10.838  15.103  19.700  1.00  0.00     0.157 A 
ENDROOT
BRANCH   1   7
ATOM      7  C   UNL     1       9.727  13.377  23.480  1.00  0.00     0.010 C 
ATOM      8  C   UNL     1       9.842  12.065  23.731  1.00  0.00     0.025 C 
BRANCH   8   9
ATOM      9  C   UNL     1       9.470  11.478  25.029  1.00  0.00     0.064 C 
ATOM     10  O   UNL     1       8.767  12.117  25.857  1.00  0.00    -0.545 OA
ATOM     11  O   UNL     1       9.899  10.196  25.345  1.00  0.00    -0.545 OA
ENDBRANCH   8   9
ENDBRANCH   1   7
BRANCH   4  12
ATOM     12  O   UNL     1      11.161  17.260  20.737  1.00  0.00    -0.504 OA
ATOM     13  H   UNL     1      10.628  17.982  21.209  1.00  0.00     0.293 HD
ENDBRANCH   4  12
BRANCH   6  14
ATOM     14  O   UNL     1      11.194  15.652  18.469  1.00  0.00    -0.504 OA
ATOM     15  H   UNL     1      10.927  16.594  18.212  1.00  0.00     0.293 HD
ENDBRANCH   6  14
TORSDOF 4
ENDMDL
MODEL 2
REMARK VINA RESULT:    -5.385      0.822      1.881
REMARK INTER + INTRA:          -6.480
REMARK INTER:                  -6.356
REMARK INTRA:                  -0.124
REMARK UNBOUND:                -0.151
REMARK SMILES O=C([O-])C=Cc1ccc(O)c(O)c1
REMARK SMILES IDX 6 1 13 2 7 3 11 4 8 5 9 6 5 7 4 8 2 9 1 10 3 11 12 12 10 14
REMARK H PARENT 12 13 10 15
REMARK Flexibility Score: inf
ROOT
ATOM      1  C   UNL     1      10.099  14.176  22.336  1.00  0.00    -0.022 A 
ATOM      2  C   UNL     1      10.330  13.343  21.222  1.00  0.00     0.058 A 
ATOM      3  C   UNL     1      10.241  15.565  22.183  1.00  0.00     0.012 A 
ATOM      4  C   UNL     1      10.720  13.891  19.992  1.00  0.00     0.157 A 
ATOM      5  C   UNL     1      10.631  16.110  20.958  1.00  0.00     0.051 A 
ATOM      6  C   UNL     1      10.874  15.276  19.861  1.00  0.00     0.157 A 
ENDROOT
BRANCH   1   7
ATOM      7  C   UNL     1       9.672  13.646  23.656  1.00  0.00     0.010 C 
ATOM      8  C   UNL     1       9.842  12.372  24.036  1.00  0.00     0.025 C 
BRANCH   8   9
ATOM      9  C   UNL     1       9.418  11.884  25.359  1.00  0.00     0.064 C 
ATOM     10  O   UNL     1       8.591  12.529  26.058  1.00  0.00    -0.545 OA
ATOM     11  O   UNL     1       9.937  10.691  25.844  1.00  0.00    -0.545 OA
ENDBRANCH   8   9
ENDBRANCH   1   7
BRANCH   4  12
ATOM     12  O   UNL     1      10.951  13.065  18.893  1.00  0.00    -0.504 OA
ATOM     13  H   UNL     1      10.436  13.176  18.027  1.00  0.00     0.293 HD
ENDBRANCH   4  12
BRANCH   6  14
ATOM     14  O   UNL     1      11.265  15.816  18.637  1.00  0.00    -0.504 OA
ATOM     15  H   UNL     1      12.111  15.512  18.169  1.00  0.00     0.293 HD
ENDBRANCH   6  14
TORSDOF 4
ENDMDL
MODEL 3
REMARK VINA RESULT:    -5.367      2.891      5.267
REMARK INTER + INTRA:          -6.459
REMARK INTER:                  -6.335
REMARK INTRA:                  -0.124
REMARK UNBOUND:                -0.151
REMARK SMILES O=C([O-])C=Cc1ccc(O)c(O)c1
REMARK SMILES IDX 6 1 13 2 7 3 11 4 8 5 9 6 5 7 4 8 2 9 1 10 3 11 12 12 10 14
REMARK H PARENT 12 13 10 15
REMARK Flexibility Score: inf
ROOT
ATOM      1  C   UNL     1      10.773  16.172  22.295  1.00  0.00    -0.022 A 
ATOM      2  C   UNL     1      10.882  16.241  20.891  1.00  0.00     0.058 A 
ATOM      3  C   UNL     1      10.574  14.919  22.898  1.00  0.00     0.012 A 
ATOM      4  C   UNL     1      10.769  15.082  20.110  1.00  0.00     0.157 A 
ATOM      5  C   UNL     1      10.459  13.765  22.119  1.00  0.00     0.051 A 
ATOM      6  C   UNL     1      10.554  13.843  20.725  1.00  0.00     0.157 A 
ENDROOT
BRANCH   1   7
ATOM      7  C   UNL     1      10.898  17.368  23.167  1.00  0.00     0.010 C 
ATOM      8  C   UNL     1      10.841  18.628  22.714  1.00  0.00     0.025 C 
BRANCH   8   9
ATOM      9  C   UNL     1      10.955  19.791  23.609  1.00  0.00     0.064 C 
ATOM     10  O   UNL     1      11.361  20.906  23.183  1.00  0.00    -0.545 OA
ATOM     11  O   UNL     1      10.608  19.659  24.947  1.00  0.00    -0.545 OA
ENDBRANCH   8   9
ENDBRANCH   1   7
BRANCH   4  12
ATOM     12  O   UNL     1      10.874  15.153  18.722  1.00  0.00    -0.504 OA
ATOM     13  H   UNL     1      11.591  14.644  18.217  1.00  0.00     0.293 HD
ENDBRANCH   4  12
BRANCH   6  14
ATOM     14  O   UNL     1      10.438  12.694  19.944  1.00  0.00    -0.504 OA
ATOM     15  H   UNL     1      10.126  11.814  20.339  1.00  0.00     0.293 HD
ENDBRANCH   6  14
TORSDOF 4
ENDMDL
MODEL 4
REMARK VINA RESULT:    -5.195      3.044      5.421
REMARK INTER + INTRA:          -6.257
REMARK INTER:                  -6.125
REMARK INTRA:                  -0.132
REMARK UNBOUND:                -0.151
REMARK SMILES O=C([O-])C=Cc1ccc(O)c(O)c1
REMARK SMILES IDX 6 1 13 2 7 3 11 4 8 5 9 6 5 7 4 8 2 9 1 10 3 11 12 12 10 14
REMARK H PARENT 12 13 10 15
REMARK Flexibility Score: inf
ROOT
ATOM      1  C   UNL     1      10.887  16.267  22.220  1.00  0.00    -0.022 A 
ATOM      2  C   UNL     1      11.315  15.043  22.775  1.00  0.00     0.058 A 
ATOM      3  C   UNL     1      10.072  16.243  21.077  1.00  0.00     0.012 A 
ATOM      4  C   UNL     1      10.952  13.826  22.180  1.00  0.00     0.157 A 
ATOM      5  C   UNL     1       9.713  15.031  20.483  1.00  0.00     0.051 A 
ATOM      6  C   UNL     1      10.154  13.820  21.030  1.00  0.00     0.157 A 
ENDROOT
BRANCH   1   7
ATOM      7  C   UNL     1      11.233  17.580  22.820  1.00  0.00     0.010 C 
ATOM      8  C   UNL     1      10.333  18.405  23.375  1.00  0.00     0.025 C 
BRANCH   8   9
ATOM      9  C   UNL     1      10.714  19.696  23.973  1.00  0.00     0.064 C 
ATOM     10  O   UNL     1      10.562  19.915  25.204  1.00  0.00    -0.545 OA
ATOM     11  O   UNL     1      11.253  20.688  23.166  1.00  0.00    -0.545 OA
ENDBRANCH   8   9
ENDBRANCH   1   7
BRANCH   4  12
ATOM     12  O   UNL     1      11.380  12.618  22.728  1.00  0.00    -0.504 OA
ATOM     13  H   UNL     1      10.735  11.853  22.895  1.00  0.00     0.293 HD
ENDBRANCH   4  12
BRANCH   6  14
ATOM     14  O   UNL     1       9.799  12.609  20.440  1.00  0.00    -0.504 OA
ATOM     15  H   UNL     1       8.835  12.301  20.400  1.00  0.00     0.293 HD
ENDBRANCH   6  14
TORSDOF 4
ENDMDL
MODEL 5
REMARK VINA RESULT:    -5.157      1.396      2.303
REMARK INTER + INTRA:          -6.213
REMARK INTER:                  -6.082
REMARK INTRA:                  -0.131
REMARK UNBOUND:                -0.151
REMARK SMILES O=C([O-])C=Cc1ccc(O)c(O)c1
REMARK SMILES IDX 6 1 13 2 7 3 11 4 8 5 9 6 5 7 4 8 2 9 1 10 3 11 12 12 10 14
REMARK H PARENT 12 13 10 15
REMARK Flexibility Score: inf
ROOT
ATOM      1  C   UNL     1      10.319  14.110  22.751  1.00  0.00    -0.022 A 
ATOM      2  C   UNL     1       9.799  14.393  21.471  1.00  0.00     0.058 A 
ATOM      3  C   UNL     1      10.746  15.177  23.558  1.00  0.00     0.012 A 
ATOM      4  C   UNL     1       9.732  15.714  21.005  1.00  0.00     0.157 A 
ATOM      5  C   UNL     1      10.682  16.492  23.093  1.00  0.00     0.051 A 
ATOM      6  C   UNL     1      10.178  16.765  21.816  1.00  0.00     0.157 A 
ENDROOT
BRANCH   1   7
ATOM      7  C   UNL     1      10.399  12.731  23.294  1.00  0.00     0.010 C 
ATOM      8  C   UNL     1       9.592  12.262  24.257  1.00  0.00     0.025 C 
BRANCH   8   9
ATOM      9  C   UNL     1       9.691  10.884  24.763  1.00  0.00     0.064 C 
ATOM     10  O   UNL     1       9.708  10.642  26.000  1.00  0.00    -0.545 OA
ATOM     11  O   UNL     1       9.764   9.830  23.862  1.00  0.00    -0.545 OA
ENDBRANCH   8   9
ENDBRANCH   1   7
BRANCH   4  12
ATOM     12  O   UNL     1       9.221  15.991  19.738  1.00  0.00    -0.504 OA
ATOM     13  H   UNL     1       8.228  15.933  19.543  1.00  0.00     0.293 HD
ENDBRANCH   4  12
BRANCH   6  14
ATOM     14  O   UNL     1      10.113  18.076  21.347  1.00  0.00    -0.504 OA
ATOM     15  H   UNL     1      10.932  18.551  20.987  1.00  0.00     0.293 HD
ENDBRANCH   6  14
TORSDOF 4
ENDMDL
MODEL 6
REMARK VINA RESULT:    -5.098      2.534      5.658
REMARK INTER + INTRA:          -6.143
REMARK INTER:                  -5.998
REMARK INTRA:                  -0.145
REMARK UNBOUND:                -0.151
REMARK SMILES O=C([O-])C=Cc1ccc(O)c(O)c1
REMARK SMILES IDX 6 1 13 2 7 3 11 4 8 5 9 6 5 7 4 8 2 9 1 10 3 11 12 12 10 14
REMARK H PARENT 12 13 10 15
REMARK Flexibility Score: inf
ROOT
ATOM      1  C   UNL     1      10.133  15.610  22.435  1.00  0.00    -0.022 A 
ATOM      2  C   UNL     1       9.997  14.776  21.306  1.00  0.00     0.058 A 
ATOM      3  C   UNL     1      10.387  15.023  23.684  1.00  0.00     0.012 A 
ATOM      4  C   UNL     1      10.090  13.383  21.436  1.00  0.00     0.157 A 
ATOM      5  C   UNL     1      10.476  13.635  23.814  1.00  0.00     0.051 A 
ATOM      6  C   UNL     1      10.326  12.811  22.692  1.00  0.00     0.157 A 
ENDROOT
BRANCH   1   7
ATOM      7  C   UNL     1      10.057  17.090  22.348  1.00  0.00     0.010 C 
ATOM      8  C   UNL     1      10.859  17.919  23.032  1.00  0.00     0.025 C 
BRANCH   8   9
ATOM      9  C   UNL     1      10.763  19.383  22.912  1.00  0.00     0.064 C 
ATOM     10  O   UNL     1      11.666  20.136  23.367  1.00  0.00    -0.545 OA
ATOM     11  O   UNL     1       9.661  19.945  22.283  1.00  0.00    -0.545 OA
ENDBRANCH   8   9
ENDBRANCH   1   7
BRANCH   4  12
ATOM     12  O   UNL     1       9.951  12.560  20.320  1.00  0.00    -0.504 OA
ATOM     13  H   UNL     1      10.650  12.540  19.585  1.00  0.00     0.293 HD
ENDBRANCH   4  12
BRANCH   6  14
ATOM     14  O   UNL     1      10.413  11.426  22.816  1.00  0.00    -0.504 OA
ATOM     15  H   UNL     1      11.249  10.977  23.170  1.00  0.00     0.293 HD
ENDBRANCH   6  14
TORSDOF 4
ENDMDL
MODEL 7
REMARK VINA RESULT:    -4.920      3.403      5.253
REMARK INTER + INTRA:          -5.933
REMARK INTER:                  -5.792
REMARK INTRA:                  -0.141
REMARK UNBOUND:                -0.151
REMARK SMILES O=C([O-])C=Cc1ccc(O)c(O)c1
REMARK SMILES IDX 6 1 13 2 7 3 11 4 8 5 9 6 5 7 4 8 2 9 1 10 3 11 12 12 10 14
REMARK H PARENT 12 13 10 15
REMARK Flexibility Score: inf
ROOT
ATOM      1  C   UNL     1      10.438  16.945  22.326  1.00  0.00    -0.022 A 
ATOM      2  C   UNL     1      11.200  18.131  22.381  1.00  0.00     0.058 A 
ATOM      3  C   UNL     1       9.258  16.863  23.081  1.00  0.00     0.012 A 
ATOM      4  C   UNL     1      10.795  19.199  23.196  1.00  0.00     0.157 A 
ATOM      5  C   UNL     1       8.857  17.926  23.894  1.00  0.00     0.051 A 
ATOM      6  C   UNL     1       9.625  19.094  23.956  1.00  0.00     0.157 A 
ENDROOT
BRANCH   1   7
ATOM      7  C   UNL     1      10.816  15.792  21.470  1.00  0.00     0.010 C 
ATOM      8  C   UNL     1       9.946  15.115  20.706  1.00  0.00     0.025 C 
BRANCH   8   9
ATOM      9  C   UNL     1      10.359  13.985  19.859  1.00  0.00     0.064 C 
ATOM     10  O   UNL     1      10.948  14.173  18.761  1.00  0.00    -0.545 OA
ATOM     11  O   UNL     1      10.098  12.687  20.279  1.00  0.00    -0.545 OA
ENDBRANCH   8   9
ENDBRANCH   1   7
BRANCH   4  12
ATOM     12  O   UNL     1      11.551  20.369  23.252  1.00  0.00    -0.504 OA
ATOM     13  H   UNL     1      12.139  20.658  22.478  1.00  0.00     0.293 HD
ENDBRANCH   4  12
BRANCH   6  14
ATOM     14  O   UNL     1       9.230  20.157  24.767  1.00  0.00    -0.504 OA
ATOM     15  H   UNL     1       8.826  20.002  25.684  1.00  0.00     0.293 HD
ENDBRANCH   6  14
TORSDOF 4
ENDMDL
MODEL 8
REMARK VINA RESULT:    -4.892      1.276      6.129
REMARK INTER + INTRA:          -5.900
REMARK INTER:                  -5.777
REMARK INTRA:                  -0.124
REMARK UNBOUND:                -0.151
REMARK SMILES O=C([O-])C=Cc1ccc(O)c(O)c1
REMARK SMILES IDX 6 1 13 2 7 3 11 4 8 5 9 6 5 7 4 8 2 9 1 10 3 11 12 12 10 14
REMARK H PARENT 12 13 10 15
REMARK Flexibility Score: inf
ROOT
ATOM      1  C   UNL     1       9.555  13.215  23.142  1.00  0.00    -0.022 A 
ATOM      2  C   UNL     1       9.916  11.863  22.972  1.00  0.00     0.058 A 
ATOM      3  C   UNL     1       9.191  13.663  24.421  1.00  0.00     0.012 A 
ATOM      4  C   UNL     1       9.886  10.977  24.059  1.00  0.00     0.157 A 
ATOM      5  C   UNL     1       9.159  12.780  25.503  1.00  0.00     0.051 A 
ATOM      6  C   UNL     1       9.504  11.435  25.325  1.00  0.00     0.157 A 
ENDROOT
BRANCH   1   7
ATOM      7  C   UNL     1       9.582  14.195  22.027  1.00  0.00     0.010 C 
ATOM      8  C   UNL     1      10.160  13.958  20.841  1.00  0.00     0.025 C 
BRANCH   8   9
ATOM      9  C   UNL     1      10.156  14.949  19.752  1.00  0.00     0.064 C 
ATOM     10  O   UNL     1      11.108  15.019  18.929  1.00  0.00    -0.545 OA
ATOM     11  O   UNL     1       9.084  15.822  19.628  1.00  0.00    -0.545 OA
ENDBRANCH   8   9
ENDBRANCH   1   7
BRANCH   4  12
ATOM     12  O   UNL     1      10.240   9.639  23.888  1.00  0.00    -0.504 OA
ATOM     13  H   UNL     1      10.242   8.988  24.664  1.00  0.00     0.293 HD
ENDBRANCH   4  12
BRANCH   6  14
ATOM     14  O   UNL     1       9.473  10.550  26.401  1.00  0.00    -0.504 OA
ATOM     15  H   UNL     1      10.288  10.009  26.666  1.00  0.00     0.293 HD
ENDBRANCH   6  14
TORSDOF 4
ENDMDL
MODEL 9
REMARK VINA RESULT:    -4.845      1.429      2.079
REMARK INTER + INTRA:          -5.846
REMARK INTER:                  -5.694
REMARK INTRA:                  -0.152
REMARK UNBOUND:                -0.151
REMARK SMILES O=C([O-])C=Cc1ccc(O)c(O)c1
REMARK SMILES IDX 6 1 13 2 7 3 11 4 8 5 9 6 5 7 4 8 2 9 1 10 3 11 12 12 10 14
REMARK H PARENT 12 13 10 15
REMARK Flexibility Score: inf
ROOT
ATOM      1  C   UNL     1      10.183  13.912  23.382  1.00  0.00    -0.022 A 
ATOM      2  C   UNL     1      10.640  15.109  23.971  1.00  0.00     0.058 A 
ATOM      3  C   UNL     1       9.984  13.874  21.993  1.00  0.00     0.012 A 
ATOM      4  C   UNL     1      10.868  16.247  23.184  1.00  0.00     0.157 A 
ATOM      5  C   UNL     1      10.210  15.008  21.210  1.00  0.00     0.051 A 
ATOM      6  C   UNL     1      10.649  16.198  21.802  1.00  0.00     0.157 A 
ENDROOT
BRANCH   1   7
ATOM      7  C   UNL     1       9.939  12.677  24.169  1.00  0.00     0.010 C 
ATOM      8  C   UNL     1       9.795  11.462  23.622  1.00  0.00     0.025 C 
BRANCH   8   9
ATOM      9  C   UNL     1       9.567  10.256  24.435  1.00  0.00     0.064 C 
ATOM     10  O   UNL     1       9.184   9.177  23.908  1.00  0.00    -0.545 OA
ATOM     11  O   UNL     1       9.780  10.307  25.805  1.00  0.00    -0.545 OA
ENDBRANCH   8   9
ENDBRANCH   1   7
BRANCH   4  12
ATOM     12  O   UNL     1      11.317  17.431  23.769  1.00  0.00    -0.504 OA
ATOM     13  H   UNL     1      12.236  17.499  24.189  1.00  0.00     0.293 HD
ENDBRANCH   4  12
BRANCH   6  14
ATOM     14  O   UNL     1      10.874  17.333  21.025  1.00  0.00    -0.504 OA
ATOM     15  H   UNL     1      11.782  17.782  20.992  1.00  0.00     0.293 HD
ENDBRANCH   6  14
TORSDOF 4
ENDMDL
