MODEL 1
REMARK VINA RESULT:    -3.220      0.000      0.000
REMARK INTER + INTRA:          -3.502
REMARK INTER:                  -3.502
REMARK INTRA:                   0.000
REMARK UNBOUND:                 0.000
REMARK SMILES Cc1cc(O)c2c(c1)C(=O)c1cc(O)cc(O)c1C2=O
REMARK SMILES IDX 1 1 2 2 8 3 7 4 6 5 4 6 3 7 19 8 20 9 18 10 11 11 9 12 10 13
REMARK SMILES IDX 12 14 13 15 15 16 16 17 5 18 17 20 14 22
REMARK H PARENT 5 19 17 21 14 23
REMARK Flexibility Score: inf
ROOT
ATOM      1  C   UNL     1      -9.952 -20.178  13.804  1.00  0.00     0.044 C 
ATOM      2  C   UNL     1      -9.184 -20.756  14.956  1.00  0.00    -0.047 A 
ATOM      3  C   UNL     1      -9.848 -21.126  16.131  1.00  0.00     0.016 A 
ATOM      4  C   UNL     1      -9.133 -21.641  17.225  1.00  0.00     0.038 A 
ATOM      5  C   UNL     1      -7.730 -21.788  17.143  1.00  0.00     0.076 A 
ATOM      6  C   UNL     1      -7.054 -21.333  15.982  1.00  0.00     0.127 A 
ATOM      7  C   UNL     1      -7.788 -20.842  14.898  1.00  0.00     0.050 A 
ATOM      8  C   UNL     1      -7.029 -22.473  18.260  1.00  0.00     0.201 C 
ATOM      9  O   UNL     1      -5.975 -23.125  18.033  1.00  0.00    -0.288 OA
ATOM     10  C   UNL     1      -7.668 -22.543  19.600  1.00  0.00     0.076 A 
ATOM     11  C   UNL     1      -9.071 -22.393  19.678  1.00  0.00     0.041 A 
ATOM     12  C   UNL     1      -9.843 -22.023  18.468  1.00  0.00     0.194 C 
ATOM     13  O   UNL     1     -11.105 -22.012  18.504  1.00  0.00    -0.289 OA
ATOM     14  C   UNL     1      -9.728 -22.589  20.906  1.00  0.00     0.059 A 
ATOM     15  C   UNL     1      -9.001 -22.917  22.053  1.00  0.00     0.120 A 
ATOM     16  C   UNL     1      -7.612 -23.026  21.988  1.00  0.00     0.093 A 
ATOM     17  C   UNL     1      -6.933 -22.816  20.784  1.00  0.00     0.131 A 
ENDROOT
BRANCH   6  18
ATOM     18  O   UNL     1      -5.661 -21.315  15.878  1.00  0.00    -0.507 OA
ATOM     19  H   UNL     1      -5.142 -20.555  15.461  1.00  0.00     0.293 HD
ENDBRANCH   6  18
BRANCH  17  20
ATOM     20  O   UNL     1      -5.538 -22.853  20.815  1.00  0.00    -0.507 OA
ATOM     21  H   UNL     1      -4.954 -22.574  20.039  1.00  0.00     0.293 HD
ENDBRANCH  17  20
BRANCH  15  22
ATOM     22  O   UNL     1      -9.649 -23.125  23.269  1.00  0.00    -0.508 OA
ATOM     23  H   UNL     1     -10.364 -23.835  23.374  1.00  0.00     0.293 HD
ENDBRANCH  15  22
TORSDOF 3
ENDMDL
MODEL 2
REMARK VINA RESULT:    -1.565      1.688      5.557
REMARK INTER + INTRA:          -1.702
REMARK INTER:                  -1.702
REMARK INTRA:                   0.000
REMARK UNBOUND:                 0.000
REMARK SMILES Cc1cc(O)c2c(c1)C(=O)c1cc(O)cc(O)c1C2=O
REMARK SMILES IDX 1 1 2 2 8 3 7 4 6 5 4 6 3 7 19 8 20 9 18 10 11 11 9 12 10 13
REMARK SMILES IDX 12 14 13 15 15 16 16 17 5 18 17 20 14 22
REMARK H PARENT 5 19 17 21 14 23
REMARK Flexibility Score: inf
ROOT
ATOM      1  C   UNL     1      -9.535 -21.579  23.498  1.00  0.00     0.044 C 
ATOM      2  C   UNL     1      -9.008 -21.617  22.094  1.00  0.00    -0.047 A 
ATOM      3  C   UNL     1      -9.754 -21.063  21.047  1.00  0.00     0.016 A 
ATOM      4  C   UNL     1      -9.281 -21.119  19.725  1.00  0.00     0.038 A 
ATOM      5  C   UNL     1      -8.044 -21.739  19.445  1.00  0.00     0.076 A 
ATOM      6  C   UNL     1      -7.334 -22.372  20.498  1.00  0.00     0.127 A 
ATOM      7  C   UNL     1      -7.812 -22.286  21.809  1.00  0.00     0.050 A 
ATOM      8  C   UNL     1      -7.509 -21.648  18.062  1.00  0.00     0.201 C 
ATOM      9  O   UNL     1      -6.263 -21.643  17.870  1.00  0.00    -0.288 OA
ATOM     10  C   UNL     1      -8.432 -21.375  16.930  1.00  0.00     0.076 A 
ATOM     11  C   UNL     1      -9.671 -20.757  17.214  1.00  0.00     0.041 A 
ATOM     12  C   UNL     1     -10.081 -20.537  18.621  1.00  0.00     0.194 C 
ATOM     13  O   UNL     1     -11.125 -19.874  18.877  1.00  0.00    -0.289 OA
ATOM     14  C   UNL     1     -10.511 -20.358  16.159  1.00  0.00     0.059 A 
ATOM     15  C   UNL     1     -10.137 -20.582  14.832  1.00  0.00     0.120 A 
ATOM     16  C   UNL     1      -8.934 -21.229  14.550  1.00  0.00     0.093 A 
ATOM     17  C   UNL     1      -8.090 -21.653  15.580  1.00  0.00     0.131 A 
ENDROOT
BRANCH   6  18
ATOM     18  O   UNL     1      -6.176 -23.123  20.283  1.00  0.00    -0.507 OA
ATOM     19  H   UNL     1      -5.270 -22.714  20.097  1.00  0.00     0.293 HD
ENDBRANCH   6  18
BRANCH  17  20
ATOM     20  O   UNL     1      -6.948 -22.373  15.224  1.00  0.00    -0.507 OA
ATOM     21  H   UNL     1      -6.952 -23.362  15.016  1.00  0.00     0.293 HD
ENDBRANCH  17  20
BRANCH  15  22
ATOM     22  O   UNL     1     -10.961 -20.178  13.784  1.00  0.00    -0.508 OA
ATOM     23  H   UNL     1     -10.601 -20.053  12.845  1.00  0.00     0.293 HD
ENDBRANCH  15  22
TORSDOF 3
ENDMDL
MODEL 3
REMARK VINA RESULT:    -1.286      1.970      5.946
REMARK INTER + INTRA:          -1.399
REMARK INTER:                  -1.399
REMARK INTRA:                   0.000
REMARK UNBOUND:                 0.000
REMARK SMILES Cc1cc(O)c2c(c1)C(=O)c1cc(O)cc(O)c1C2=O
REMARK SMILES IDX 1 1 2 2 8 3 7 4 6 5 4 6 3 7 19 8 20 9 18 10 11 11 9 12 10 13
REMARK SMILES IDX 12 14 13 15 15 16 16 17 5 18 17 20 14 22
REMARK H PARENT 5 19 17 21 14 23
REMARK Flexibility Score: inf
ROOT
ATOM      1  C   UNL     1      -9.297 -22.231  23.849  1.00  0.00     0.044 C 
ATOM      2  C   UNL     1      -9.126 -22.221  22.359  1.00  0.00    -0.047 A 
ATOM      3  C   UNL     1      -7.875 -22.488  21.791  1.00  0.00     0.016 A 
ATOM      4  C   UNL     1      -7.699 -22.454  20.397  1.00  0.00     0.038 A 
ATOM      5  C   UNL     1      -8.793 -22.147  19.557  1.00  0.00     0.076 A 
ATOM      6  C   UNL     1     -10.037 -21.796  20.143  1.00  0.00     0.127 A 
ATOM      7  C   UNL     1     -10.194 -21.857  21.531  1.00  0.00     0.050 A 
ATOM      8  C   UNL     1      -8.606 -22.266  18.088  1.00  0.00     0.201 C 
ATOM      9  O   UNL     1      -9.583 -22.571  17.354  1.00  0.00    -0.288 OA
ATOM     10  C   UNL     1      -7.237 -22.211  17.512  1.00  0.00     0.076 A 
ATOM     11  C   UNL     1      -6.145 -22.515  18.356  1.00  0.00     0.041 A 
ATOM     12  C   UNL     1      -6.369 -22.730  19.805  1.00  0.00     0.194 C 
ATOM     13  O   UNL     1      -5.420 -23.125  20.539  1.00  0.00    -0.289 OA
ATOM     14  C   UNL     1      -4.849 -22.608  17.817  1.00  0.00     0.059 A 
ATOM     15  C   UNL     1      -4.631 -22.386  16.455  1.00  0.00     0.120 A 
ATOM     16  C   UNL     1      -5.701 -22.046  15.628  1.00  0.00     0.093 A 
ATOM     17  C   UNL     1      -6.996 -21.927  16.142  1.00  0.00     0.131 A 
ENDROOT
BRANCH   6  18
ATOM     18  O   UNL     1     -11.125 -21.347  19.390  1.00  0.00    -0.507 OA
ATOM     19  H   UNL     1     -11.922 -21.925  19.160  1.00  0.00     0.293 HD
ENDBRANCH   6  18
BRANCH  17  20
ATOM     20  O   UNL     1      -7.999 -21.494  15.272  1.00  0.00    -0.507 OA
ATOM     21  H   UNL     1      -8.829 -21.007  15.575  1.00  0.00     0.293 HD
ENDBRANCH  17  20
BRANCH  15  22
ATOM     22  O   UNL     1      -3.351 -22.489  15.915  1.00  0.00    -0.508 OA
ATOM     23  H   UNL     1      -2.523 -22.381  16.489  1.00  0.00     0.293 HD
ENDBRANCH  15  22
TORSDOF 3
ENDMDL
MODEL 4
REMARK VINA RESULT:    -0.540     12.972     14.920
REMARK INTER + INTRA:          -0.587
REMARK INTER:                  -0.587
REMARK INTRA:                   0.000
REMARK UNBOUND:                 0.000
REMARK SMILES Cc1cc(O)c2c(c1)C(=O)c1cc(O)cc(O)c1C2=O
REMARK SMILES IDX 1 1 2 2 8 3 7 4 6 5 4 6 3 7 19 8 20 9 18 10 11 11 9 12 10 13
REMARK SMILES IDX 12 14 13 15 15 16 16 17 5 18 17 20 14 22
REMARK H PARENT 5 19 17 21 14 23
REMARK Flexibility Score: inf
ROOT
ATOM      1  C   UNL     1       9.025 -21.720  10.197  1.00  0.00     0.044 C 
ATOM      2  C   UNL     1       8.349 -21.878  11.528  1.00  0.00    -0.047 A 
ATOM      3  C   UNL     1       7.003 -22.256  11.593  1.00  0.00     0.016 A 
ATOM      4  C   UNL     1       6.355 -22.379  12.833  1.00  0.00     0.038 A 
ATOM      5  C   UNL     1       7.063 -22.120  14.028  1.00  0.00     0.076 A 
ATOM      6  C   UNL     1       8.402 -21.657  13.950  1.00  0.00     0.127 A 
ATOM      7  C   UNL     1       9.034 -21.561  12.707  1.00  0.00     0.050 A 
ATOM      8  C   UNL     1       6.389 -22.404  15.321  1.00  0.00     0.201 C 
ATOM      9  O   UNL     1       7.073 -22.745  16.322  1.00  0.00    -0.288 OA
ATOM     10  C   UNL     1       4.906 -22.467  15.381  1.00  0.00     0.076 A 
ATOM     11  C   UNL     1       4.199 -22.724  14.184  1.00  0.00     0.041 A 
ATOM     12  C   UNL     1       4.927 -22.772  12.893  1.00  0.00     0.194 C 
ATOM     13  O   UNL     1       4.323 -23.125  11.842  1.00  0.00    -0.289 OA
ATOM     14  C   UNL     1       2.808 -22.928  14.222  1.00  0.00     0.059 A 
ATOM     15  C   UNL     1       2.116 -22.863  15.434  1.00  0.00     0.120 A 
ATOM     16  C   UNL     1       2.804 -22.570  16.611  1.00  0.00     0.093 A 
ATOM     17  C   UNL     1       4.184 -22.343  16.598  1.00  0.00     0.131 A 
ENDROOT
BRANCH   6  18
ATOM     18  O   UNL     1       9.125 -21.247  15.073  1.00  0.00    -0.507 OA
ATOM     19  H   UNL     1       8.773 -20.587  15.754  1.00  0.00     0.293 HD
ENDBRANCH   6  18
BRANCH  17  20
ATOM     20  O   UNL     1       4.788 -21.965  17.799  1.00  0.00    -0.507 OA
ATOM     21  H   UNL     1       5.492 -21.245  17.868  1.00  0.00     0.293 HD
ENDBRANCH  17  20
BRANCH  15  22
ATOM     22  O   UNL     1       0.741 -23.077  15.478  1.00  0.00    -0.508 OA
ATOM     23  H   UNL     1       0.227 -23.398  14.665  1.00  0.00     0.293 HD
ENDBRANCH  15  22
TORSDOF 3
ENDMDL
MODEL 5
REMARK VINA RESULT:    -0.509      1.855      3.704
REMARK INTER + INTRA:          -0.554
REMARK INTER:                  -0.554
REMARK INTRA:                   0.000
REMARK UNBOUND:                 0.000
REMARK SMILES Cc1cc(O)c2c(c1)C(=O)c1cc(O)cc(O)c1C2=O
REMARK SMILES IDX 1 1 2 2 8 3 7 4 6 5 4 6 3 7 19 8 20 9 18 10 11 11 9 12 10 13
REMARK SMILES IDX 12 14 13 15 15 16 16 17 5 18 17 20 14 22
REMARK H PARENT 5 19 17 21 14 23
REMARK Flexibility Score: inf
ROOT
ATOM      1  C   UNL     1      -3.640 -23.124  15.929  1.00  0.00     0.044 C 
ATOM      2  C   UNL     1      -4.900 -22.741  16.648  1.00  0.00    -0.047 A 
ATOM      3  C   UNL     1      -4.998 -22.907  18.034  1.00  0.00     0.016 A 
ATOM      4  C   UNL     1      -6.183 -22.578  18.712  1.00  0.00     0.038 A 
ATOM      5  C   UNL     1      -7.290 -22.075  17.992  1.00  0.00     0.076 A 
ATOM      6  C   UNL     1      -7.213 -21.989  16.578  1.00  0.00     0.127 A 
ATOM      7  C   UNL     1      -6.016 -22.303  15.927  1.00  0.00     0.050 A 
ATOM      8  C   UNL     1      -8.470 -21.600  18.759  1.00  0.00     0.201 C 
ATOM      9  O   UNL     1      -9.187 -20.673  18.296  1.00  0.00    -0.288 OA
ATOM     10  C   UNL     1      -8.694 -22.085  20.145  1.00  0.00     0.076 A 
ATOM     11  C   UNL     1      -7.585 -22.590  20.862  1.00  0.00     0.041 A 
ATOM     12  C   UNL     1      -6.281 -22.764  20.179  1.00  0.00     0.194 C 
ATOM     13  O   UNL     1      -5.260 -23.094  20.844  1.00  0.00    -0.289 OA
ATOM     14  C   UNL     1      -7.726 -22.931  22.219  1.00  0.00     0.059 A 
ATOM     15  C   UNL     1      -8.958 -22.787  22.861  1.00  0.00     0.120 A 
ATOM     16  C   UNL     1     -10.064 -22.327  22.146  1.00  0.00     0.093 A 
ATOM     17  C   UNL     1      -9.956 -22.001  20.791  1.00  0.00     0.131 A 
ENDROOT
BRANCH   6  18
ATOM     18  O   UNL     1      -8.306 -21.635  15.783  1.00  0.00    -0.507 OA
ATOM     19  H   UNL     1      -8.486 -22.032  14.871  1.00  0.00     0.293 HD
ENDBRANCH   6  18
BRANCH  17  20
ATOM     20  O   UNL     1     -11.124 -21.635  20.120  1.00  0.00    -0.507 OA
ATOM     21  H   UNL     1     -11.980 -21.376  20.588  1.00  0.00     0.293 HD
ENDBRANCH  17  20
BRANCH  15  22
ATOM     22  O   UNL     1      -9.099 -23.111  24.209  1.00  0.00    -0.508 OA
ATOM     23  H   UNL     1      -8.700 -22.531  24.938  1.00  0.00     0.293 HD
ENDBRANCH  15  22
TORSDOF 3
ENDMDL
