MODEL 1
REMARK VINA RESULT:    -5.259      0.000      0.000
REMARK INTER + INTRA:         -11.457
REMARK INTER:                  -9.563
REMARK INTRA:                  -1.895
REMARK UNBOUND:                -1.895
REMARK SMILES CCCCCCCCCCCCCCCC(=O)[O-]
REMARK SMILES IDX 9 1 10 2 11 3 12 4 13 5 14 6 15 7 16 8 17 9 18 10 8 11 7 12
REMARK SMILES IDX 6 13 5 14 4 15 3 16 2 17 1 18
REMARK H PARENT
REMARK Flexibility Score: inf
ROOT
ATOM      1  C   UNL     1     101.710 -82.303  21.769  1.00  0.00     0.000 C 
ENDROOT
BRANCH   1   2
ATOM      2  C   UNL     1     102.438 -82.973  22.944  1.00  0.00     0.000 C 
BRANCH   2   3
ATOM      3  C   UNL     1     103.955 -82.758  22.841  1.00  0.00     0.000 C 
BRANCH   3   4
ATOM      4  C   UNL     1     104.746 -84.074  22.910  1.00  0.00     0.000 C 
BRANCH   4   5
ATOM      5  C   UNL     1     106.041 -83.946  23.726  1.00  0.00     0.000 C 
BRANCH   5   6
ATOM      6  C   UNL     1     106.244 -82.502  24.210  1.00  0.00     0.006 C 
BRANCH   6   7
ATOM      7  C   UNL     1     107.723 -82.174  24.454  1.00  0.00     0.053 C 
BRANCH   7   8
ATOM      8  C   UNL     1     108.022 -82.018  25.914  1.00  0.00     0.041 C 
ATOM      9  O   UNL     1     107.124 -82.230  26.771  1.00  0.00    -0.550 OA
ATOM     10  O   UNL     1     109.284 -81.607  26.324  1.00  0.00    -0.550 OA
ENDBRANCH   7   8
ENDBRANCH   6   7
ENDBRANCH   5   6
ENDBRANCH   4   5
ENDBRANCH   3   4
ENDBRANCH   2   3
ENDBRANCH   1   2
BRANCH   1  11
ATOM     11  C   UNL     1     101.077 -83.321  20.805  1.00  0.00     0.000 C 
BRANCH  11  12
ATOM     12  C   UNL     1     102.123 -84.052  19.947  1.00  0.00    -0.000 C 
BRANCH  12  13
ATOM     13  C   UNL     1     103.204 -83.097  19.410  1.00  0.00    -0.000 C 
BRANCH  13  14
ATOM     14  C   UNL     1     104.580 -83.775  19.218  1.00  0.00    -0.000 C 
BRANCH  14  15
ATOM     15  C   UNL     1     105.751 -82.778  19.117  1.00  0.00    -0.000 C 
BRANCH  15  16
ATOM     16  C   UNL     1     105.331 -81.310  18.938  1.00  0.00    -0.000 C 
BRANCH  16  17
ATOM     17  C   UNL     1     105.571 -80.466  20.199  1.00  0.00    -0.003 C 
ATOM     18  C   UNL     1     106.795 -80.960  20.964  1.00  0.00     0.004 C 
ENDBRANCH  16  17
ENDBRANCH  15  16
ENDBRANCH  14  15
ENDBRANCH  13  14
ENDBRANCH  12  13
ENDBRANCH  11  12
ENDBRANCH   1  11
TORSDOF 14
ENDMDL
MODEL 2
REMARK VINA RESULT:    -5.150      8.411     11.393
REMARK INTER + INTRA:         -11.260
REMARK INTER:                  -9.607
REMARK INTRA:                  -1.653
REMARK UNBOUND:                -1.895
REMARK SMILES CCCCCCCCCCCCCCCC(=O)[O-]
REMARK SMILES IDX 9 1 10 2 11 3 12 4 13 5 14 6 15 7 16 8 17 9 18 10 8 11 7 12
REMARK SMILES IDX 6 13 5 14 4 15 3 16 2 17 1 18
REMARK H PARENT
REMARK Flexibility Score: inf
ROOT
ATOM      1  C   UNL     1     118.173 -81.919  22.207  1.00  0.00     0.000 C 
ENDROOT
BRANCH   1   2
ATOM      2  C   UNL     1     117.415 -83.111  21.604  1.00  0.00     0.000 C 
BRANCH   2   3
ATOM      3  C   UNL     1     115.897 -82.924  21.752  1.00  0.00     0.000 C 
BRANCH   3   4
ATOM      4  C   UNL     1     115.156 -83.015  20.409  1.00  0.00     0.000 C 
BRANCH   4   5
ATOM      5  C   UNL     1     113.896 -83.891  20.484  1.00  0.00     0.000 C 
BRANCH   5   6
ATOM      6  C   UNL     1     112.973 -83.426  21.621  1.00  0.00     0.006 C 
BRANCH   6   7
ATOM      7  C   UNL     1     112.129 -82.208  21.223  1.00  0.00     0.053 C 
BRANCH   7   8
ATOM      8  C   UNL     1     110.928 -82.053  22.106  1.00  0.00     0.041 C 
ATOM      9  O   UNL     1     110.895 -82.612  23.234  1.00  0.00    -0.550 OA
ATOM     10  O   UNL     1     109.834 -81.318  21.667  1.00  0.00    -0.550 OA
ENDBRANCH   7   8
ENDBRANCH   6   7
ENDBRANCH   5   6
ENDBRANCH   4   5
ENDBRANCH   3   4
ENDBRANCH   2   3
ENDBRANCH   1   2
BRANCH   1  11
ATOM     11  C   UNL     1     119.047 -81.188  21.174  1.00  0.00     0.000 C 
BRANCH  11  12
ATOM     12  C   UNL     1     118.432 -79.852  20.719  1.00  0.00    -0.000 C 
BRANCH  12  13
ATOM     13  C   UNL     1     118.080 -78.941  21.908  1.00  0.00    -0.000 C 
BRANCH  13  14
ATOM     14  C   UNL     1     116.601 -78.491  21.919  1.00  0.00    -0.000 C 
BRANCH  14  15
ATOM     15  C   UNL     1     115.697 -79.314  20.980  1.00  0.00    -0.000 C 
BRANCH  15  16
ATOM     16  C   UNL     1     114.224 -79.395  21.415  1.00  0.00    -0.000 C 
BRANCH  16  17
ATOM     17  C   UNL     1     113.283 -78.636  20.467  1.00  0.00    -0.003 C 
ATOM     18  C   UNL     1     112.837 -77.313  21.082  1.00  0.00     0.004 C 
ENDBRANCH  16  17
ENDBRANCH  15  16
ENDBRANCH  14  15
ENDBRANCH  13  14
ENDBRANCH  12  13
ENDBRANCH  11  12
ENDBRANCH   1  11
TORSDOF 14
ENDMDL
MODEL 3
REMARK VINA RESULT:    -5.093      9.130     12.057
REMARK INTER + INTRA:         -11.157
REMARK INTER:                  -9.365
REMARK INTRA:                  -1.791
REMARK UNBOUND:                -1.895
REMARK SMILES CCCCCCCCCCCCCCCC(=O)[O-]
REMARK SMILES IDX 9 1 10 2 11 3 12 4 13 5 14 6 15 7 16 8 17 9 18 10 8 11 7 12
REMARK SMILES IDX 6 13 5 14 4 15 3 16 2 17 1 18
REMARK H PARENT
REMARK Flexibility Score: inf
ROOT
ATOM      1  C   UNL     1     118.699 -80.585  21.450  1.00  0.00     0.000 C 
ENDROOT
BRANCH   1   2
ATOM      2  C   UNL     1     117.729 -79.395  21.488  1.00  0.00     0.000 C 
BRANCH   2   3
ATOM      3  C   UNL     1     116.303 -79.863  21.817  1.00  0.00     0.000 C 
BRANCH   3   4
ATOM      4  C   UNL     1     115.330 -79.666  20.644  1.00  0.00     0.000 C 
BRANCH   4   5
ATOM      5  C   UNL     1     114.193 -78.687  20.974  1.00  0.00     0.000 C 
BRANCH   5   6
ATOM      6  C   UNL     1     114.254 -78.252  22.445  1.00  0.00     0.006 C 
BRANCH   6   7
ATOM      7  C   UNL     1     114.748 -76.808  22.604  1.00  0.00     0.053 C 
BRANCH   7   8
ATOM      8  C   UNL     1     115.747 -76.683  23.714  1.00  0.00     0.041 C 
ATOM      9  O   UNL     1     116.532 -75.699  23.752  1.00  0.00    -0.550 OA
ATOM     10  O   UNL     1     115.833 -77.671  24.686  1.00  0.00    -0.550 OA
ENDBRANCH   7   8
ENDBRANCH   6   7
ENDBRANCH   5   6
ENDBRANCH   4   5
ENDBRANCH   3   4
ENDBRANCH   2   3
ENDBRANCH   1   2
BRANCH   1  11
ATOM     11  C   UNL     1     118.595 -81.476  22.699  1.00  0.00     0.000 C 
BRANCH  11  12
ATOM     12  C   UNL     1     118.575 -82.976  22.354  1.00  0.00    -0.000 C 
BRANCH  12  13
ATOM     13  C   UNL     1     117.700 -83.278  21.125  1.00  0.00    -0.000 C 
BRANCH  13  14
ATOM     14  C   UNL     1     116.200 -83.429  21.463  1.00  0.00    -0.000 C 
BRANCH  14  15
ATOM     15  C   UNL     1     115.279 -83.368  20.229  1.00  0.00    -0.000 C 
BRANCH  15  16
ATOM     16  C   UNL     1     113.832 -83.824  20.485  1.00  0.00    -0.000 C 
BRANCH  16  17
ATOM     17  C   UNL     1     113.155 -83.039  21.619  1.00  0.00    -0.003 C 
ATOM     18  C   UNL     1     112.207 -81.982  21.063  1.00  0.00     0.004 C 
ENDBRANCH  16  17
ENDBRANCH  15  16
ENDBRANCH  14  15
ENDBRANCH  13  14
ENDBRANCH  12  13
ENDBRANCH  11  12
ENDBRANCH   1  11
TORSDOF 14
ENDMDL
MODEL 4
REMARK VINA RESULT:    -5.075      9.143     12.231
REMARK INTER + INTRA:         -11.123
REMARK INTER:                  -9.308
REMARK INTRA:                  -1.815
REMARK UNBOUND:                -1.895
REMARK SMILES CCCCCCCCCCCCCCCC(=O)[O-]
REMARK SMILES IDX 9 1 10 2 11 3 12 4 13 5 14 6 15 7 16 8 17 9 18 10 8 11 7 12
REMARK SMILES IDX 6 13 5 14 4 15 3 16 2 17 1 18
REMARK H PARENT
REMARK Flexibility Score: inf
ROOT
ATOM      1  C   UNL     1     118.036 -80.535  22.296  1.00  0.00     0.000 C 
ENDROOT
BRANCH   1   2
ATOM      2  C   UNL     1     119.100 -81.522  21.793  1.00  0.00     0.000 C 
BRANCH   2   3
ATOM      3  C   UNL     1     118.510 -82.932  21.643  1.00  0.00     0.000 C 
BRANCH   3   4
ATOM      4  C   UNL     1     117.007 -82.982  21.959  1.00  0.00     0.000 C 
BRANCH   4   5
ATOM      5  C   UNL     1     116.198 -83.716  20.878  1.00  0.00     0.000 C 
BRANCH   5   6
ATOM      6  C   UNL     1     114.970 -82.894  20.460  1.00  0.00     0.006 C 
BRANCH   6   7
ATOM      7  C   UNL     1     113.684 -83.730  20.459  1.00  0.00     0.053 C 
BRANCH   7   8
ATOM      8  C   UNL     1     112.585 -83.058  21.225  1.00  0.00     0.041 C 
ATOM      9  O   UNL     1     112.070 -81.993  20.792  1.00  0.00    -0.550 OA
ATOM     10  O   UNL     1     112.154 -83.591  22.433  1.00  0.00    -0.550 OA
ENDBRANCH   7   8
ENDBRANCH   6   7
ENDBRANCH   5   6
ENDBRANCH   4   5
ENDBRANCH   3   4
ENDBRANCH   2   3
ENDBRANCH   1   2
BRANCH   1  11
ATOM     11  C   UNL     1     117.674 -79.468  21.249  1.00  0.00     0.000 C 
BRANCH  11  12
ATOM     12  C   UNL     1     116.184 -79.499  20.865  1.00  0.00    -0.000 C 
BRANCH  12  13
ATOM     13  C   UNL     1     115.267 -79.582  22.098  1.00  0.00    -0.000 C 
BRANCH  13  14
ATOM     14  C   UNL     1     114.406 -78.316  22.308  1.00  0.00    -0.000 C 
BRANCH  14  15
ATOM     15  C   UNL     1     114.694 -77.585  23.634  1.00  0.00    -0.000 C 
BRANCH  15  16
ATOM     16  C   UNL     1     115.699 -76.426  23.523  1.00  0.00    -0.000 C 
BRANCH  16  17
ATOM     17  C   UNL     1     117.144 -76.864  23.808  1.00  0.00    -0.003 C 
ATOM     18  C   UNL     1     117.249 -77.553  25.165  1.00  0.00     0.004 C 
ENDBRANCH  16  17
ENDBRANCH  15  16
ENDBRANCH  14  15
ENDBRANCH  13  14
ENDBRANCH  12  13
ENDBRANCH  11  12
ENDBRANCH   1  11
TORSDOF 14
ENDMDL
MODEL 5
REMARK VINA RESULT:    -5.069      8.106     10.992
REMARK INTER + INTRA:         -11.111
REMARK INTER:                  -9.367
REMARK INTRA:                  -1.744
REMARK UNBOUND:                -1.895
REMARK SMILES CCCCCCCCCCCCCCCC(=O)[O-]
REMARK SMILES IDX 9 1 10 2 11 3 12 4 13 5 14 6 15 7 16 8 17 9 18 10 8 11 7 12
REMARK SMILES IDX 6 13 5 14 4 15 3 16 2 17 1 18
REMARK H PARENT
REMARK Flexibility Score: inf
ROOT
ATOM      1  C   UNL     1     115.900 -83.025  21.491  1.00  0.00     0.000 C 
ENDROOT
BRANCH   1   2
ATOM      2  C   UNL     1     115.222 -83.384  20.160  1.00  0.00     0.000 C 
BRANCH   2   3
ATOM      3  C   UNL     1     113.704 -83.533  20.341  1.00  0.00     0.000 C 
BRANCH   3   4
ATOM      4  C   UNL     1     113.261 -83.345  21.801  1.00  0.00     0.000 C 
BRANCH   4   5
ATOM      5  C   UNL     1     111.836 -82.785  21.921  1.00  0.00     0.000 C 
BRANCH   5   6
ATOM      6  C   UNL     1     111.609 -81.644  20.918  1.00  0.00     0.006 C 
BRANCH   6   7
ATOM      7  C   UNL     1     110.546 -80.648  21.400  1.00  0.00     0.053 C 
BRANCH   7   8
ATOM      8  C   UNL     1     110.916 -80.038  22.718  1.00  0.00     0.041 C 
ATOM      9  O   UNL     1     111.847 -79.194  22.787  1.00  0.00    -0.550 OA
ATOM     10  O   UNL     1     110.251 -80.427  23.874  1.00  0.00    -0.550 OA
ENDBRANCH   7   8
ENDBRANCH   6   7
ENDBRANCH   5   6
ENDBRANCH   4   5
ENDBRANCH   3   4
ENDBRANCH   2   3
ENDBRANCH   1   2
BRANCH   1  11
ATOM     11  C   UNL     1     117.413 -83.298  21.479  1.00  0.00     0.000 C 
BRANCH  11  12
ATOM     12  C   UNL     1     118.220 -82.181  22.164  1.00  0.00    -0.000 C 
BRANCH  12  13
ATOM     13  C   UNL     1     118.923 -81.265  21.145  1.00  0.00    -0.000 C 
BRANCH  13  14
ATOM     14  C   UNL     1     118.458 -79.793  21.222  1.00  0.00    -0.000 C 
BRANCH  14  15
ATOM     15  C   UNL     1     117.270 -79.569  22.178  1.00  0.00    -0.000 C 
BRANCH  15  16
ATOM     16  C   UNL     1     116.328 -78.422  21.772  1.00  0.00    -0.000 C 
BRANCH  16  17
ATOM     17  C   UNL     1     114.902 -78.907  21.466  1.00  0.00    -0.003 C 
ATOM     18  C   UNL     1     114.865 -79.716  20.173  1.00  0.00     0.004 C 
ENDBRANCH  16  17
ENDBRANCH  15  16
ENDBRANCH  14  15
ENDBRANCH  13  14
ENDBRANCH  12  13
ENDBRANCH  11  12
ENDBRANCH   1  11
TORSDOF 14
ENDMDL
MODEL 6
REMARK VINA RESULT:    -5.053     10.479     13.150
REMARK INTER + INTRA:         -11.083
REMARK INTER:                  -9.276
REMARK INTRA:                  -1.806
REMARK UNBOUND:                -1.895
REMARK SMILES CCCCCCCCCCCCCCCC(=O)[O-]
REMARK SMILES IDX 9 1 10 2 11 3 12 4 13 5 14 6 15 7 16 8 17 9 18 10 8 11 7 12
REMARK SMILES IDX 6 13 5 14 4 15 3 16 2 17 1 18
REMARK H PARENT
REMARK Flexibility Score: inf
ROOT
ATOM      1  C   UNL     1     118.511 -82.638  21.584  1.00  0.00     0.000 C 
ENDROOT
BRANCH   1   2
ATOM      2  C   UNL     1     118.859 -81.222  21.102  1.00  0.00     0.000 C 
BRANCH   2   3
ATOM      3  C   UNL     1     119.900 -80.571  22.025  1.00  0.00     0.000 C 
BRANCH   3   4
ATOM      4  C   UNL     1     119.263 -79.665  23.090  1.00  0.00     0.000 C 
BRANCH   4   5
ATOM      5  C   UNL     1     119.653 -80.066  24.521  1.00  0.00     0.000 C 
BRANCH   5   6
ATOM      6  C   UNL     1     120.879 -80.991  24.515  1.00  0.00     0.006 C 
BRANCH   6   7
ATOM      7  C   UNL     1     120.937 -81.887  25.760  1.00  0.00     0.053 C 
BRANCH   7   8
ATOM      8  C   UNL     1     119.731 -82.770  25.864  1.00  0.00     0.041 C 
ATOM      9  O   UNL     1     119.382 -83.483  24.887  1.00  0.00    -0.550 OA
ATOM     10  O   UNL     1     118.975 -82.778  27.029  1.00  0.00    -0.550 OA
ENDBRANCH   7   8
ENDBRANCH   6   7
ENDBRANCH   5   6
ENDBRANCH   4   5
ENDBRANCH   3   4
ENDBRANCH   2   3
ENDBRANCH   1   2
BRANCH   1  11
ATOM     11  C   UNL     1     117.055 -82.762  22.064  1.00  0.00     0.000 C 
BRANCH  11  12
ATOM     12  C   UNL     1     116.191 -83.616  21.119  1.00  0.00    -0.000 C 
BRANCH  12  13
ATOM     13  C   UNL     1     115.100 -82.785  20.421  1.00  0.00    -0.000 C 
BRANCH  13  14
ATOM     14  C   UNL     1     114.291 -81.896  21.392  1.00  0.00    -0.000 C 
BRANCH  14  15
ATOM     15  C   UNL     1     114.143 -80.437  20.918  1.00  0.00    -0.000 C 
BRANCH  15  16
ATOM     16  C   UNL     1     115.443 -79.794  20.405  1.00  0.00    -0.000 C 
BRANCH  16  17
ATOM     17  C   UNL     1     116.073 -78.834  21.426  1.00  0.00    -0.003 C 
ATOM     18  C   UNL     1     115.064 -77.788  21.888  1.00  0.00     0.004 C 
ENDBRANCH  16  17
ENDBRANCH  15  16
ENDBRANCH  14  15
ENDBRANCH  13  14
ENDBRANCH  12  13
ENDBRANCH  11  12
ENDBRANCH   1  11
TORSDOF 14
ENDMDL
MODEL 7
REMARK VINA RESULT:    -5.040      9.466     11.739
REMARK INTER + INTRA:         -11.060
REMARK INTER:                  -9.100
REMARK INTRA:                  -1.960
REMARK UNBOUND:                -1.895
REMARK SMILES CCCCCCCCCCCCCCCC(=O)[O-]
REMARK SMILES IDX 9 1 10 2 11 3 12 4 13 5 14 6 15 7 16 8 17 9 18 10 8 11 7 12
REMARK SMILES IDX 6 13 5 14 4 15 3 16 2 17 1 18
REMARK H PARENT
REMARK Flexibility Score: inf
ROOT
ATOM      1  C   UNL     1     115.106 -83.217  20.312  1.00  0.00     0.000 C 
ENDROOT
BRANCH   1   2
ATOM      2  C   UNL     1     115.901 -82.951  21.600  1.00  0.00     0.000 C 
BRANCH   2   3
ATOM      3  C   UNL     1     117.361 -83.401  21.444  1.00  0.00     0.000 C 
BRANCH   3   4
ATOM      4  C   UNL     1     118.349 -82.460  22.152  1.00  0.00     0.000 C 
BRANCH   4   5
ATOM      5  C   UNL     1     118.871 -81.346  21.232  1.00  0.00     0.000 C 
BRANCH   5   6
ATOM      6  C   UNL     1     119.887 -80.459  21.967  1.00  0.00     0.006 C 
BRANCH   6   7
ATOM      7  C   UNL     1     119.259 -79.718  23.155  1.00  0.00     0.053 C 
BRANCH   7   8
ATOM      8  C   UNL     1     120.062 -79.897  24.407  1.00  0.00     0.041 C 
ATOM      9  O   UNL     1     120.121 -81.023  24.967  1.00  0.00    -0.550 OA
ATOM     10  O   UNL     1     120.719 -78.811  24.972  1.00  0.00    -0.550 OA
ENDBRANCH   7   8
ENDBRANCH   6   7
ENDBRANCH   5   6
ENDBRANCH   4   5
ENDBRANCH   3   4
ENDBRANCH   2   3
ENDBRANCH   1   2
BRANCH   1  11
ATOM     11  C   UNL     1     113.647 -83.617  20.587  1.00  0.00     0.000 C 
BRANCH  11  12
ATOM     12  C   UNL     1     112.905 -82.586  21.455  1.00  0.00    -0.000 C 
BRANCH  12  13
ATOM     13  C   UNL     1     111.764 -81.895  20.688  1.00  0.00    -0.000 C 
BRANCH  13  14
ATOM     14  C   UNL     1     111.919 -80.358  20.613  1.00  0.00    -0.000 C 
BRANCH  14  15
ATOM     15  C   UNL     1     113.215 -79.835  21.262  1.00  0.00    -0.000 C 
BRANCH  15  16
ATOM     16  C   UNL     1     114.293 -79.380  20.264  1.00  0.00    -0.000 C 
BRANCH  16  17
ATOM     17  C   UNL     1     115.710 -79.437  20.855  1.00  0.00    -0.003 C 
ATOM     18  C   UNL     1     115.672 -79.365  22.378  1.00  0.00     0.004 C 
ENDBRANCH  16  17
ENDBRANCH  15  16
ENDBRANCH  14  15
ENDBRANCH  13  14
ENDBRANCH  12  13
ENDBRANCH  11  12
ENDBRANCH   1  11
TORSDOF 14
ENDMDL
MODEL 8
REMARK VINA RESULT:    -5.015      8.819     11.792
REMARK INTER + INTRA:         -11.014
REMARK INTER:                  -8.794
REMARK INTRA:                  -2.220
REMARK UNBOUND:                -1.895
REMARK SMILES CCCCCCCCCCCCCCCC(=O)[O-]
REMARK SMILES IDX 9 1 10 2 11 3 12 4 13 5 14 6 15 7 16 8 17 9 18 10 8 11 7 12
REMARK SMILES IDX 6 13 5 14 4 15 3 16 2 17 1 18
REMARK H PARENT
REMARK Flexibility Score: inf
ROOT
ATOM      1  C   UNL     1     116.413 -79.306  22.208  1.00  0.00     0.000 C 
ENDROOT
BRANCH   1   2
ATOM      2  C   UNL     1     116.449 -77.789  22.447  1.00  0.00     0.000 C 
BRANCH   2   3
ATOM      3  C   UNL     1     115.052 -77.176  22.277  1.00  0.00     0.000 C 
BRANCH   3   4
ATOM      4  C   UNL     1     114.026 -77.753  23.265  1.00  0.00     0.000 C 
BRANCH   4   5
ATOM      5  C   UNL     1     112.945 -78.596  22.572  1.00  0.00     0.000 C 
BRANCH   5   6
ATOM      6  C   UNL     1     112.578 -78.001  21.205  1.00  0.00     0.006 C 
BRANCH   6   7
ATOM      7  C   UNL     1     112.237 -79.084  20.172  1.00  0.00     0.053 C 
BRANCH   7   8
ATOM      8  C   UNL     1     111.397 -80.172  20.767  1.00  0.00     0.041 C 
ATOM      9  O   UNL     1     111.845 -81.346  20.850  1.00  0.00    -0.550 OA
ATOM     10  O   UNL     1     110.106 -79.895  21.200  1.00  0.00    -0.550 OA
ENDBRANCH   7   8
ENDBRANCH   6   7
ENDBRANCH   5   6
ENDBRANCH   4   5
ENDBRANCH   3   4
ENDBRANCH   2   3
ENDBRANCH   1   2
BRANCH   1  11
ATOM     11  C   UNL     1     115.972 -79.672  20.782  1.00  0.00     0.000 C 
BRANCH  11  12
ATOM     12  C   UNL     1     115.381 -81.090  20.691  1.00  0.00    -0.000 C 
BRANCH  12  13
ATOM     13  C   UNL     1     115.816 -81.977  21.871  1.00  0.00    -0.000 C 
BRANCH  13  14
ATOM     14  C   UNL     1     116.585 -83.245  21.434  1.00  0.00    -0.000 C 
BRANCH  14  15
ATOM     15  C   UNL     1     118.117 -83.093  21.501  1.00  0.00    -0.000 C 
BRANCH  15  16
ATOM     16  C   UNL     1     118.631 -82.296  22.713  1.00  0.00    -0.000 C 
BRANCH  16  17
ATOM     17  C   UNL     1     119.588 -81.162  22.314  1.00  0.00    -0.003 C 
ATOM     18  C   UNL     1     119.468 -80.841  20.828  1.00  0.00     0.004 C 
ENDBRANCH  16  17
ENDBRANCH  15  16
ENDBRANCH  14  15
ENDBRANCH  13  14
ENDBRANCH  12  13
ENDBRANCH  11  12
ENDBRANCH   1  11
TORSDOF 14
ENDMDL
MODEL 9
REMARK VINA RESULT:    -4.999      2.205      3.338
REMARK INTER + INTRA:         -10.985
REMARK INTER:                  -9.104
REMARK INTRA:                  -1.881
REMARK UNBOUND:                -1.895
REMARK SMILES CCCCCCCCCCCCCCCC(=O)[O-]
REMARK SMILES IDX 9 1 10 2 11 3 12 4 13 5 14 6 15 7 16 8 17 9 18 10 8 11 7 12
REMARK SMILES IDX 6 13 5 14 4 15 3 16 2 17 1 18
REMARK H PARENT
REMARK Flexibility Score: inf
ROOT
ATOM      1  C   UNL     1     104.729 -83.966  23.228  1.00  0.00     0.000 C 
ENDROOT
BRANCH   1   2
ATOM      2  C   UNL     1     106.213 -84.124  23.589  1.00  0.00     0.000 C 
BRANCH   2   3
ATOM      3  C   UNL     1     106.586 -83.224  24.776  1.00  0.00     0.000 C 
BRANCH   3   4
ATOM      4  C   UNL     1     107.869 -82.417  24.527  1.00  0.00     0.000 C 
BRANCH   4   5
ATOM      5  C   UNL     1     108.734 -83.008  23.403  1.00  0.00     0.000 C 
BRANCH   5   6
ATOM      6  C   UNL     1     110.138 -82.386  23.406  1.00  0.00     0.006 C 
BRANCH   6   7
ATOM      7  C   UNL     1     110.386 -81.507  22.173  1.00  0.00     0.053 C 
BRANCH   7   8
ATOM      8  C   UNL     1     110.478 -80.056  22.536  1.00  0.00     0.041 C 
ATOM      9  O   UNL     1     109.432 -79.371  22.679  1.00  0.00    -0.550 OA
ATOM     10  O   UNL     1     111.721 -79.455  22.684  1.00  0.00    -0.550 OA
ENDBRANCH   7   8
ENDBRANCH   6   7
ENDBRANCH   5   6
ENDBRANCH   4   5
ENDBRANCH   3   4
ENDBRANCH   2   3
ENDBRANCH   1   2
BRANCH   1  11
ATOM     11  C   UNL     1     104.329 -82.501  22.986  1.00  0.00     0.000 C 
BRANCH  11  12
ATOM     12  C   UNL     1     103.077 -82.368  22.100  1.00  0.00    -0.000 C 
BRANCH  12  13
ATOM     13  C   UNL     1     103.066 -83.394  20.953  1.00  0.00    -0.000 C 
BRANCH  13  14
ATOM     14  C   UNL     1     103.618 -82.831  19.623  1.00  0.00    -0.000 C 
BRANCH  14  15
ATOM     15  C   UNL     1     105.016 -83.366  19.257  1.00  0.00    -0.000 C 
BRANCH  15  16
ATOM     16  C   UNL     1     106.145 -82.326  19.350  1.00  0.00    -0.000 C 
BRANCH  16  17
ATOM     17  C   UNL     1     105.646 -80.948  19.811  1.00  0.00    -0.003 C 
ATOM     18  C   UNL     1     106.535 -80.384  20.915  1.00  0.00     0.004 C 
ENDBRANCH  16  17
ENDBRANCH  15  16
ENDBRANCH  14  15
ENDBRANCH  13  14
ENDBRANCH  12  13
ENDBRANCH  11  12
ENDBRANCH   1  11
TORSDOF 14
ENDMDL
