MODEL 1
REMARK VINA RESULT:    -4.140      0.000      0.000
REMARK INTER + INTRA:          -7.966
REMARK INTER:                  -6.318
REMARK INTRA:                  -1.648
REMARK UNBOUND:                -1.648
REMARK SMILES OC[C@H]1O[C@H](O[C@]2(CO)O[C@H](CO)[C@@H](O)[C@H]2O)[C@H](O)[C@H](O)[C@H]1O
REMARK SMILES IDX 6 1 5 2 3 3 22 4 4 5 20 6 18 7 2 8 1 9 23 11 21 13 19 15
REMARK SMILES IDX 7 17 16 18 10 19 14 20 11 21 8 22 9 23 17 25 15 27 12 29
REMARK SMILES IDX 13 30
REMARK H PARENT 1 10 23 12 21 14 19 16 9 24 17 26 15 28 13 31
REMARK Flexibility Score: inf
ROOT
ATOM      1  O   UNL     1      28.416  32.728  54.060  1.00  0.00    -0.313 OA
ENDROOT
BRANCH   1   2
ATOM      2  C   UNL     1      27.802  31.785  53.185  1.00  0.00     0.285 C 
ATOM      3  C   UNL     1      26.398  30.977  54.888  1.00  0.00     0.178 C 
ATOM      4  C   UNL     1      25.099  31.503  54.228  1.00  0.00     0.177 C 
ATOM      5  O   UNL     1      27.360  30.640  53.901  1.00  0.00    -0.341 OA
ATOM      6  C   UNL     1      25.402  32.715  53.318  1.00  0.00     0.179 C 
ATOM      7  C   UNL     1      26.627  32.431  52.414  1.00  0.00     0.202 C 
BRANCH   3   8
ATOM      8  C   UNL     1      26.130  29.734  55.746  1.00  0.00     0.191 C 
BRANCH   8   9
ATOM      9  O   UNL     1      26.664  29.908  57.031  1.00  0.00    -0.394 OA
ATOM     10  H   UNL     1      26.017  29.489  57.656  1.00  0.00     0.210 HD
ENDBRANCH   8   9
ENDBRANCH   3   8
BRANCH   4  11
ATOM     11  O   UNL     1      24.511  30.479  53.464  1.00  0.00    -0.387 OA
ATOM     12  H   UNL     1      25.187  30.193  52.797  1.00  0.00     0.211 HD
ENDBRANCH   4  11
BRANCH   6  13
ATOM     13  O   UNL     1      25.546  33.902  54.063  1.00  0.00    -0.387 OA
ATOM     14  H   UNL     1      26.326  34.401  53.717  1.00  0.00     0.211 HD
ENDBRANCH   6  13
BRANCH   7  15
ATOM     15  O   UNL     1      27.032  33.578  51.708  1.00  0.00    -0.385 OA
ATOM     16  H   UNL     1      26.458  33.663  50.904  1.00  0.00     0.211 HD
ENDBRANCH   7  15
ENDBRANCH   1   2
BRANCH   1  17
ATOM     17  C   UNL     1      29.828  32.875  53.901  1.00  0.00     0.224 C 
ATOM     18  C   UNL     1      30.306  34.199  54.538  1.00  0.00     0.208 C 
ATOM     19  O   UNL     1      30.422  31.826  54.642  1.00  0.00    -0.337 OA
ATOM     20  C   UNL     1      30.443  33.808  55.989  1.00  0.00     0.180 C 
ATOM     21  C   UNL     1      30.822  32.332  55.899  1.00  0.00     0.179 C 
BRANCH  17  22
ATOM     22  C   UNL     1      30.272  32.699  52.422  1.00  0.00     0.225 C 
BRANCH  22  23
ATOM     23  O   UNL     1      30.133  33.905  51.717  1.00  0.00    -0.391 OA
ATOM     24  H   UNL     1      31.035  34.317  51.693  1.00  0.00     0.210 HD
ENDBRANCH  22  23
ENDBRANCH  17  22
BRANCH  18  25
ATOM     25  O   UNL     1      31.552  34.591  54.014  1.00  0.00    -0.385 OA
ATOM     26  H   UNL     1      31.926  33.804  53.537  1.00  0.00     0.211 HD
ENDBRANCH  18  25
BRANCH  20  27
ATOM     27  O   UNL     1      31.436  34.545  56.653  1.00  0.00    -0.387 OA
ATOM     28  H   UNL     1      32.247  33.974  56.666  1.00  0.00     0.211 HD
ENDBRANCH  20  27
BRANCH  21  29
ATOM     29  C   UNL     1      30.181  31.509  57.024  1.00  0.00     0.191 C 
BRANCH  29  30
ATOM     30  O   UNL     1      28.837  31.872  57.192  1.00  0.00    -0.394 OA
ATOM     31  H   UNL     1      28.292  31.106  56.871  1.00  0.00     0.210 HD
ENDBRANCH  29  30
ENDBRANCH  21  29
ENDBRANCH   1  17
TORSDOF 13
ENDMDL
MODEL 2
REMARK VINA RESULT:    -4.113      1.736      5.247
REMARK INTER + INTRA:          -7.926
REMARK INTER:                  -6.490
REMARK INTRA:                  -1.436
REMARK UNBOUND:                -1.648
REMARK SMILES OC[C@H]1O[C@H](O[C@]2(CO)O[C@H](CO)[C@@H](O)[C@H]2O)[C@H](O)[C@H](O)[C@H]1O
REMARK SMILES IDX 6 1 5 2 3 3 22 4 4 5 20 6 18 7 2 8 1 9 23 11 21 13 19 15
REMARK SMILES IDX 7 17 16 18 10 19 14 20 11 21 8 22 9 23 17 25 15 27 12 29
REMARK SMILES IDX 13 30
REMARK H PARENT 1 10 23 12 21 14 19 16 9 24 17 26 15 28 13 31
REMARK Flexibility Score: inf
ROOT
ATOM      1  O   UNL     1      27.921  32.898  53.239  1.00  0.00    -0.313 OA
ENDROOT
BRANCH   1   2
ATOM      2  C   UNL     1      28.786  33.605  54.124  1.00  0.00     0.285 C 
ATOM      3  C   UNL     1      29.409  31.634  55.242  1.00  0.00     0.178 C 
ATOM      4  C   UNL     1      30.880  31.684  54.756  1.00  0.00     0.177 C 
ATOM      5  O   UNL     1      28.882  32.944  55.378  1.00  0.00    -0.341 OA
ATOM      6  C   UNL     1      30.988  32.463  53.426  1.00  0.00     0.179 C 
ATOM      7  C   UNL     1      30.188  33.786  53.496  1.00  0.00     0.202 C 
BRANCH   3   8
ATOM      8  C   UNL     1      29.286  30.921  56.595  1.00  0.00     0.191 C 
BRANCH   8   9
ATOM      9  O   UNL     1      29.200  31.860  57.632  1.00  0.00    -0.394 OA
ATOM     10  H   UNL     1      29.629  32.687  57.290  1.00  0.00     0.210 HD
ENDBRANCH   8   9
ENDBRANCH   3   8
BRANCH   4  11
ATOM     11  O   UNL     1      31.676  32.311  55.731  1.00  0.00    -0.387 OA
ATOM     12  H   UNL     1      31.086  32.503  56.506  1.00  0.00     0.211 HD
ENDBRANCH   4  11
BRANCH   6  13
ATOM     13  O   UNL     1      30.615  31.665  52.325  1.00  0.00    -0.387 OA
ATOM     14  H   UNL     1      29.678  31.374  52.448  1.00  0.00     0.211 HD
ENDBRANCH   6  13
BRANCH   7  15
ATOM     15  O   UNL     1      30.123  34.424  52.244  1.00  0.00    -0.385 OA
ATOM     16  H   UNL     1      30.447  35.354  52.356  1.00  0.00     0.211 HD
ENDBRANCH   7  15
ENDBRANCH   1   2
BRANCH   1  17
ATOM     17  C   UNL     1      26.579  33.384  53.185  1.00  0.00     0.224 C 
ATOM     18  C   UNL     1      26.042  33.324  51.737  1.00  0.00     0.208 C 
ATOM     19  O   UNL     1      25.799  32.481  53.947  1.00  0.00    -0.337 OA
ATOM     20  C   UNL     1      25.597  31.886  51.636  1.00  0.00     0.180 C 
ATOM     21  C   UNL     1      25.177  31.568  53.068  1.00  0.00     0.179 C 
BRANCH  17  22
ATOM     22  C   UNL     1      26.435  34.783  53.845  1.00  0.00     0.225 C 
BRANCH  22  23
ATOM     23  O   UNL     1      25.110  35.003  54.255  1.00  0.00    -0.391 OA
ATOM     24  H   UNL     1      25.067  34.728  55.207  1.00  0.00     0.210 HD
ENDBRANCH  22  23
ENDBRANCH  17  22
BRANCH  18  25
ATOM     25  O   UNL     1      24.947  34.192  51.567  1.00  0.00    -0.385 OA
ATOM     26  H   UNL     1      24.791  34.272  50.590  1.00  0.00     0.211 HD
ENDBRANCH  18  25
BRANCH  20  27
ATOM     27  O   UNL     1      24.525  31.717  50.745  1.00  0.00    -0.387 OA
ATOM     28  H   UNL     1      23.717  31.574  51.303  1.00  0.00     0.211 HD
ENDBRANCH  20  27
BRANCH  21  29
ATOM     29  C   UNL     1      25.539  30.131  53.463  1.00  0.00     0.191 C 
BRANCH  29  30
ATOM     30  O   UNL     1      26.914  29.910  53.305  1.00  0.00    -0.394 OA
ATOM     31  H   UNL     1      27.373  30.731  53.626  1.00  0.00     0.210 HD
ENDBRANCH  29  30
ENDBRANCH  21  29
ENDBRANCH   1  17
TORSDOF 13
ENDMDL
MODEL 3
REMARK VINA RESULT:    -4.113      1.996      5.713
REMARK INTER + INTRA:          -7.925
REMARK INTER:                  -6.147
REMARK INTRA:                  -1.778
REMARK UNBOUND:                -1.648
REMARK SMILES OC[C@H]1O[C@H](O[C@]2(CO)O[C@H](CO)[C@@H](O)[C@H]2O)[C@H](O)[C@H](O)[C@H]1O
REMARK SMILES IDX 6 1 5 2 3 3 22 4 4 5 20 6 18 7 2 8 1 9 23 11 21 13 19 15
REMARK SMILES IDX 7 17 16 18 10 19 14 20 11 21 8 22 9 23 17 25 15 27 12 29
REMARK SMILES IDX 13 30
REMARK H PARENT 1 10 23 12 21 14 19 16 9 24 17 26 15 28 13 31
REMARK Flexibility Score: inf
ROOT
ATOM      1  O   UNL     1      27.380  32.280  53.335  1.00  0.00    -0.313 OA
ENDROOT
BRANCH   1   2
ATOM      2  C   UNL     1      28.486  32.682  52.532  1.00  0.00     0.285 C 
ATOM      3  C   UNL     1      29.541  33.741  54.346  1.00  0.00     0.178 C 
ATOM      4  C   UNL     1      30.727  32.745  54.389  1.00  0.00     0.177 C 
ATOM      5  O   UNL     1      29.058  33.887  53.020  1.00  0.00    -0.341 OA
ATOM      6  C   UNL     1      30.313  31.378  53.799  1.00  0.00     0.179 C 
ATOM      7  C   UNL     1      29.553  31.563  52.464  1.00  0.00     0.202 C 
BRANCH   3   8
ATOM      8  C   UNL     1      29.947  35.125  54.868  1.00  0.00     0.191 C 
BRANCH   8   9
ATOM      9  O   UNL     1      31.021  35.011  55.761  1.00  0.00    -0.394 OA
ATOM     10  H   UNL     1      31.776  35.505  55.348  1.00  0.00     0.210 HD
ENDBRANCH   8   9
ENDBRANCH   3   8
BRANCH   4  11
ATOM     11  O   UNL     1      31.805  33.266  53.652  1.00  0.00    -0.387 OA
ATOM     12  H   UNL     1      32.636  32.961  54.100  1.00  0.00     0.211 HD
ENDBRANCH   4  11
BRANCH   6  13
ATOM     13  O   UNL     1      29.587  30.609  54.730  1.00  0.00    -0.387 OA
ATOM     14  H   UNL     1      29.552  29.674  54.410  1.00  0.00     0.211 HD
ENDBRANCH   6  13
BRANCH   7  15
ATOM     15  O   UNL     1      29.012  30.351  51.998  1.00  0.00    -0.385 OA
ATOM     16  H   UNL     1      28.548  30.530  51.141  1.00  0.00     0.211 HD
ENDBRANCH   7  15
ENDBRANCH   1   2
BRANCH   1  17
ATOM     17  C   UNL     1      26.107  32.758  52.898  1.00  0.00     0.224 C 
ATOM     18  C   UNL     1      26.136  33.060  51.383  1.00  0.00     0.208 C 
ATOM     19  O   UNL     1      25.197  31.691  53.086  1.00  0.00    -0.337 OA
ATOM     20  C   UNL     1      25.897  31.691  50.795  1.00  0.00     0.180 C 
ATOM     21  C   UNL     1      25.023  31.024  51.853  1.00  0.00     0.179 C 
BRANCH  17  22
ATOM     22  C   UNL     1      25.602  33.949  53.760  1.00  0.00     0.225 C 
BRANCH  22  23
ATOM     23  O   UNL     1      26.349  35.106  53.492  1.00  0.00    -0.391 OA
ATOM     24  H   UNL     1      27.283  34.804  53.348  1.00  0.00     0.210 HD
ENDBRANCH  22  23
ENDBRANCH  17  22
BRANCH  18  25
ATOM     25  O   UNL     1      25.097  33.939  51.022  1.00  0.00    -0.385 OA
ATOM     26  H   UNL     1      24.599  33.509  50.279  1.00  0.00     0.211 HD
ENDBRANCH  18  25
BRANCH  20  27
ATOM     27  O   UNL     1      25.239  31.745  49.557  1.00  0.00    -0.387 OA
ATOM     28  H   UNL     1      25.893  32.114  48.907  1.00  0.00     0.211 HD
ENDBRANCH  20  27
BRANCH  21  29
ATOM     29  C   UNL     1      25.355  29.535  52.012  1.00  0.00     0.191 C 
BRANCH  29  30
ATOM     30  O   UNL     1      26.553  29.373  52.723  1.00  0.00    -0.394 OA
ATOM     31  H   UNL     1      26.302  29.121  53.650  1.00  0.00     0.210 HD
ENDBRANCH  29  30
ENDBRANCH  21  29
ENDBRANCH   1  17
TORSDOF 13
ENDMDL
MODEL 4
REMARK VINA RESULT:    -4.082      2.314      5.573
REMARK INTER + INTRA:          -7.878
REMARK INTER:                  -5.970
REMARK INTRA:                  -1.909
REMARK UNBOUND:                -1.648
REMARK SMILES OC[C@H]1O[C@H](O[C@]2(CO)O[C@H](CO)[C@@H](O)[C@H]2O)[C@H](O)[C@H](O)[C@H]1O
REMARK SMILES IDX 6 1 5 2 3 3 22 4 4 5 20 6 18 7 2 8 1 9 23 11 21 13 19 15
REMARK SMILES IDX 7 17 16 18 10 19 14 20 11 21 8 22 9 23 17 25 15 27 12 29
REMARK SMILES IDX 13 30
REMARK H PARENT 1 10 23 12 21 14 19 16 9 24 17 26 15 28 13 31
REMARK Flexibility Score: inf
ROOT
ATOM      1  O   UNL     1      27.930  33.163  52.436  1.00  0.00    -0.313 OA
ENDROOT
BRANCH   1   2
ATOM      2  C   UNL     1      28.298  32.794  53.762  1.00  0.00     0.285 C 
ATOM      3  C   UNL     1      30.372  31.944  53.052  1.00  0.00     0.178 C 
ATOM      4  C   UNL     1      31.200  33.028  53.786  1.00  0.00     0.177 C 
ATOM      5  O   UNL     1      29.169  31.671  53.754  1.00  0.00    -0.341 OA
ATOM      6  C   UNL     1      30.367  34.316  53.974  1.00  0.00     0.179 C 
ATOM      7  C   UNL     1      28.952  33.983  54.504  1.00  0.00     0.202 C 
BRANCH   3   8
ATOM      8  C   UNL     1      31.156  30.633  52.911  1.00  0.00     0.191 C 
BRANCH   8   9
ATOM      9  O   UNL     1      30.691  29.687  53.834  1.00  0.00    -0.394 OA
ATOM     10  H   UNL     1      29.707  29.813  53.884  1.00  0.00     0.210 HD
ENDBRANCH   8   9
ENDBRANCH   3   8
BRANCH   4  11
ATOM     11  O   UNL     1      31.601  32.542  55.043  1.00  0.00    -0.387 OA
ATOM     12  H   UNL     1      32.591  32.474  55.025  1.00  0.00     0.211 HD
ENDBRANCH   4  11
BRANCH   6  13
ATOM     13  O   UNL     1      30.333  35.089  52.797  1.00  0.00    -0.387 OA
ATOM     14  H   UNL     1      29.604  35.752  52.873  1.00  0.00     0.211 HD
ENDBRANCH   6  13
BRANCH   7  15
ATOM     15  O   UNL     1      28.118  35.116  54.514  1.00  0.00    -0.385 OA
ATOM     16  H   UNL     1      27.897  35.328  55.457  1.00  0.00     0.211 HD
ENDBRANCH   7  15
ENDBRANCH   1   2
BRANCH   1  17
ATOM     17  C   UNL     1      26.590  32.838  52.064  1.00  0.00     0.224 C 
ATOM     18  C   UNL     1      26.326  33.243  50.596  1.00  0.00     0.208 C 
ATOM     19  O   UNL     1      26.493  31.428  52.123  1.00  0.00    -0.337 OA
ATOM     20  C   UNL     1      26.891  32.061  49.847  1.00  0.00     0.180 C 
ATOM     21  C   UNL     1      26.653  30.909  50.819  1.00  0.00     0.179 C 
BRANCH  17  22
ATOM     22  C   UNL     1      25.549  33.412  53.065  1.00  0.00     0.225 C 
BRANCH  22  23
ATOM     23  O   UNL     1      25.491  34.811  52.971  1.00  0.00    -0.391 OA
ATOM     24  H   UNL     1      25.232  35.014  52.035  1.00  0.00     0.210 HD
ENDBRANCH  22  23
ENDBRANCH  17  22
BRANCH  18  25
ATOM     25  O   UNL     1      24.946  33.370  50.347  1.00  0.00    -0.385 OA
ATOM     26  H   UNL     1      24.562  33.885  51.104  1.00  0.00     0.211 HD
ENDBRANCH  18  25
BRANCH  20  27
ATOM     27  O   UNL     1      26.236  31.836  48.626  1.00  0.00    -0.387 OA
ATOM     28  H   UNL     1      25.377  31.390  48.847  1.00  0.00     0.211 HD
ENDBRANCH  20  27
BRANCH  21  29
ATOM     29  C   UNL     1      27.804  29.895  50.795  1.00  0.00     0.191 C 
BRANCH  29  30
ATOM     30  O   UNL     1      28.084  29.442  52.092  1.00  0.00    -0.394 OA
ATOM     31  H   UNL     1      28.841  29.990  52.429  1.00  0.00     0.210 HD
ENDBRANCH  29  30
ENDBRANCH  21  29
ENDBRANCH   1  17
TORSDOF 13
ENDMDL
MODEL 5
REMARK VINA RESULT:    -4.032      2.078      5.582
REMARK INTER + INTRA:          -7.802
REMARK INTER:                  -6.134
REMARK INTRA:                  -1.668
REMARK UNBOUND:                -1.648
REMARK SMILES OC[C@H]1O[C@H](O[C@]2(CO)O[C@H](CO)[C@@H](O)[C@H]2O)[C@H](O)[C@H](O)[C@H]1O
REMARK SMILES IDX 6 1 5 2 3 3 22 4 4 5 20 6 18 7 2 8 1 9 23 11 21 13 19 15
REMARK SMILES IDX 7 17 16 18 10 19 14 20 11 21 8 22 9 23 17 25 15 27 12 29
REMARK SMILES IDX 13 30
REMARK H PARENT 1 10 23 12 21 14 19 16 9 24 17 26 15 28 13 31
REMARK Flexibility Score: inf
ROOT
ATOM      1  O   UNL     1      28.702  32.029  52.317  1.00  0.00    -0.313 OA
ENDROOT
BRANCH   1   2
ATOM      2  C   UNL     1      28.275  32.190  53.667  1.00  0.00     0.285 C 
ATOM      3  C   UNL     1      30.475  32.038  54.481  1.00  0.00     0.178 C 
ATOM      4  C   UNL     1      30.521  33.507  54.970  1.00  0.00     0.177 C 
ATOM      5  O   UNL     1      29.155  31.524  54.562  1.00  0.00    -0.341 OA
ATOM      6  C   UNL     1      29.538  34.382  54.160  1.00  0.00     0.179 C 
ATOM      7  C   UNL     1      28.160  33.689  54.034  1.00  0.00     0.202 C 
BRANCH   3   8
ATOM      8  C   UNL     1      31.396  31.137  55.314  1.00  0.00     0.191 C 
BRANCH   8   9
ATOM      9  O   UNL     1      32.531  31.849  55.723  1.00  0.00    -0.394 OA
ATOM     10  H   UNL     1      32.197  32.612  56.263  1.00  0.00     0.210 HD
ENDBRANCH   8   9
ENDBRANCH   3   8
BRANCH   4  11
ATOM     11  O   UNL     1      30.180  33.559  56.333  1.00  0.00    -0.387 OA
ATOM     12  H   UNL     1      31.020  33.728  56.835  1.00  0.00     0.211 HD
ENDBRANCH   4  11
BRANCH   6  13
ATOM     13  O   UNL     1      30.076  34.745  52.909  1.00  0.00    -0.387 OA
ATOM     14  H   UNL     1      30.894  35.280  53.058  1.00  0.00     0.211 HD
ENDBRANCH   6  13
BRANCH   7  15
ATOM     15  O   UNL     1      27.307  34.379  53.154  1.00  0.00    -0.385 OA
ATOM     16  H   UNL     1      27.478  34.048  52.236  1.00  0.00     0.211 HD
ENDBRANCH   7  15
ENDBRANCH   1   2
BRANCH   1  17
ATOM     17  C   UNL     1      28.097  30.943  51.615  1.00  0.00     0.224 C 
ATOM     18  C   UNL     1      26.687  30.655  52.178  1.00  0.00     0.208 C 
ATOM     19  O   UNL     1      27.924  31.380  50.280  1.00  0.00    -0.337 OA
ATOM     20  C   UNL     1      25.853  31.679  51.447  1.00  0.00     0.180 C 
ATOM     21  C   UNL     1      26.591  31.821  50.120  1.00  0.00     0.179 C 
BRANCH  17  22
ATOM     22  C   UNL     1      29.017  29.690  51.570  1.00  0.00     0.225 C 
BRANCH  22  23
ATOM     23  O   UNL     1      29.042  29.051  52.820  1.00  0.00    -0.391 OA
ATOM     24  H   UNL     1      28.904  29.762  53.497  1.00  0.00     0.210 HD
ENDBRANCH  22  23
ENDBRANCH  17  22
BRANCH  18  25
ATOM     25  O   UNL     1      26.267  29.353  51.849  1.00  0.00    -0.385 OA
ATOM     26  H   UNL     1      25.675  29.430  51.056  1.00  0.00     0.211 HD
ENDBRANCH  18  25
BRANCH  20  27
ATOM     27  O   UNL     1      24.531  31.251  51.247  1.00  0.00    -0.387 OA
ATOM     28  H   UNL     1      23.970  31.768  51.881  1.00  0.00     0.211 HD
ENDBRANCH  20  27
BRANCH  21  29
ATOM     29  C   UNL     1      26.576  33.267  49.610  1.00  0.00     0.191 C 
BRANCH  29  30
ATOM     30  O   UNL     1      25.676  34.041  50.357  1.00  0.00    -0.394 OA
ATOM     31  H   UNL     1      25.586  33.599  51.242  1.00  0.00     0.210 HD
ENDBRANCH  29  30
ENDBRANCH  21  29
ENDBRANCH   1  17
TORSDOF 13
ENDMDL
MODEL 6
REMARK VINA RESULT:    -3.970      1.974      5.197
REMARK INTER + INTRA:          -7.708
REMARK INTER:                  -6.119
REMARK INTRA:                  -1.589
REMARK UNBOUND:                -1.648
REMARK SMILES OC[C@H]1O[C@H](O[C@]2(CO)O[C@H](CO)[C@@H](O)[C@H]2O)[C@H](O)[C@H](O)[C@H]1O
REMARK SMILES IDX 6 1 5 2 3 3 22 4 4 5 20 6 18 7 2 8 1 9 23 11 21 13 19 15
REMARK SMILES IDX 7 17 16 18 10 19 14 20 11 21 8 22 9 23 17 25 15 27 12 29
REMARK SMILES IDX 13 30
REMARK H PARENT 1 10 23 12 21 14 19 16 9 24 17 26 15 28 13 31
REMARK Flexibility Score: inf
ROOT
ATOM      1  O   UNL     1      29.607  31.344  56.154  1.00  0.00    -0.313 OA
ENDROOT
BRANCH   1   2
ATOM      2  C   UNL     1      30.066  31.544  54.820  1.00  0.00     0.285 C 
ATOM      3  C   UNL     1      28.484  33.239  54.429  1.00  0.00     0.178 C 
ATOM      4  C   UNL     1      29.544  34.362  54.305  1.00  0.00     0.177 C 
ATOM      5  O   UNL     1      29.013  32.000  53.983  1.00  0.00    -0.341 OA
ATOM      6  C   UNL     1      30.824  33.993  55.090  1.00  0.00     0.179 C 
ATOM      7  C   UNL     1      31.253  32.537  54.789  1.00  0.00     0.202 C 
BRANCH   3   8
ATOM      8  C   UNL     1      27.229  33.554  53.605  1.00  0.00     0.191 C 
BRANCH   8   9
ATOM      9  O   UNL     1      26.942  34.924  53.664  1.00  0.00    -0.394 OA
ATOM     10  H   UNL     1      27.328  35.249  54.519  1.00  0.00     0.210 HD
ENDBRANCH   8   9
ENDBRANCH   3   8
BRANCH   4  11
ATOM     11  O   UNL     1      29.866  34.557  52.950  1.00  0.00    -0.387 OA
ATOM     12  H   UNL     1      29.604  33.729  52.469  1.00  0.00     0.211 HD
ENDBRANCH   4  11
BRANCH   6  13
ATOM     13  O   UNL     1      30.675  34.237  56.470  1.00  0.00    -0.387 OA
ATOM     14  H   UNL     1      29.726  34.109  56.714  1.00  0.00     0.211 HD
ENDBRANCH   6  13
BRANCH   7  15
ATOM     15  O   UNL     1      32.306  32.119  55.623  1.00  0.00    -0.385 OA
ATOM     16  H   UNL     1      32.252  31.134  55.717  1.00  0.00     0.211 HD
ENDBRANCH   7  15
ENDBRANCH   1   2
BRANCH   1  17
ATOM     17  C   UNL     1      29.645  29.992  56.613  1.00  0.00     0.224 C 
ATOM     18  C   UNL     1      29.425  29.935  58.142  1.00  0.00     0.208 C 
ATOM     19  O   UNL     1      28.540  29.339  56.017  1.00  0.00    -0.337 OA
ATOM     20  C   UNL     1      27.920  29.996  58.236  1.00  0.00     0.180 C 
ATOM     21  C   UNL     1      27.480  29.301  56.950  1.00  0.00     0.179 C 
BRANCH  17  22
ATOM     22  C   UNL     1      30.925  29.248  56.141  1.00  0.00     0.225 C 
BRANCH  22  23
ATOM     23  O   UNL     1      32.014  29.563  56.969  1.00  0.00    -0.391 OA
ATOM     24  H   UNL     1      32.084  30.553  56.969  1.00  0.00     0.210 HD
ENDBRANCH  22  23
ENDBRANCH  17  22
BRANCH  18  25
ATOM     25  O   UNL     1      29.904  28.725  58.677  1.00  0.00    -0.385 OA
ATOM     26  H   UNL     1      30.217  28.921  59.599  1.00  0.00     0.211 HD
ENDBRANCH  18  25
BRANCH  20  27
ATOM     27  O   UNL     1      27.426  29.326  59.366  1.00  0.00    -0.387 OA
ATOM     28  H   UNL     1      28.218  29.015  59.876  1.00  0.00     0.211 HD
ENDBRANCH  20  27
BRANCH  21  29
ATOM     29  C   UNL     1      26.229  29.952  56.349  1.00  0.00     0.191 C 
BRANCH  29  30
ATOM     30  O   UNL     1      26.531  30.550  55.117  1.00  0.00    -0.394 OA
ATOM     31  H   UNL     1      26.086  31.438  55.114  1.00  0.00     0.210 HD
ENDBRANCH  29  30
ENDBRANCH  21  29
ENDBRANCH   1  17
TORSDOF 13
ENDMDL
MODEL 7
REMARK VINA RESULT:    -3.932      1.688      5.334
REMARK INTER + INTRA:          -7.650
REMARK INTER:                  -5.941
REMARK INTRA:                  -1.708
REMARK UNBOUND:                -1.648
REMARK SMILES OC[C@H]1O[C@H](O[C@]2(CO)O[C@H](CO)[C@@H](O)[C@H]2O)[C@H](O)[C@H](O)[C@H]1O
REMARK SMILES IDX 6 1 5 2 3 3 22 4 4 5 20 6 18 7 2 8 1 9 23 11 21 13 19 15
REMARK SMILES IDX 7 17 16 18 10 19 14 20 11 21 8 22 9 23 17 25 15 27 12 29
REMARK SMILES IDX 13 30
REMARK H PARENT 1 10 23 12 21 14 19 16 9 24 17 26 15 28 13 31
REMARK Flexibility Score: inf
ROOT
ATOM      1  O   UNL     1      28.496  31.833  52.969  1.00  0.00    -0.313 OA
ENDROOT
BRANCH   1   2
ATOM      2  C   UNL     1      28.376  32.852  53.958  1.00  0.00     0.285 C 
ATOM      3  C   UNL     1      29.355  31.496  55.610  1.00  0.00     0.178 C 
ATOM      4  C   UNL     1      30.624  32.375  55.746  1.00  0.00     0.177 C 
ATOM      5  O   UNL     1      28.233  32.288  55.254  1.00  0.00    -0.341 OA
ATOM      6  C   UNL     1      30.891  33.153  54.437  1.00  0.00     0.179 C 
ATOM      7  C   UNL     1      29.591  33.809  53.913  1.00  0.00     0.202 C 
BRANCH   3   8
ATOM      8  C   UNL     1      29.034  30.763  56.919  1.00  0.00     0.191 C 
BRANCH   8   9
ATOM      9  O   UNL     1      28.540  31.665  57.871  1.00  0.00    -0.394 OA
ATOM     10  H   UNL     1      28.496  32.547  57.417  1.00  0.00     0.210 HD
ENDBRANCH   8   9
ENDBRANCH   3   8
BRANCH   4  11
ATOM     11  O   UNL     1      30.454  33.284  56.805  1.00  0.00    -0.387 OA
ATOM     12  H   UNL     1      30.045  32.781  57.555  1.00  0.00     0.211 HD
ENDBRANCH   4  11
BRANCH   6  13
ATOM     13  O   UNL     1      31.514  32.342  53.468  1.00  0.00    -0.387 OA
ATOM     14  H   UNL     1      31.714  32.894  52.673  1.00  0.00     0.211 HD
ENDBRANCH   6  13
BRANCH   7  15
ATOM     15  O   UNL     1      29.767  34.371  52.635  1.00  0.00    -0.385 OA
ATOM     16  H   UNL     1      30.266  33.719  52.079  1.00  0.00     0.211 HD
ENDBRANCH   7  15
ENDBRANCH   1   2
BRANCH   1  17
ATOM     17  C   UNL     1      27.260  31.317  52.474  1.00  0.00     0.224 C 
ATOM     18  C   UNL     1      26.135  32.365  52.638  1.00  0.00     0.208 C 
ATOM     19  O   UNL     1      27.438  31.124  51.084  1.00  0.00    -0.337 OA
ATOM     20  C   UNL     1      26.341  33.228  51.418  1.00  0.00     0.180 C 
ATOM     21  C   UNL     1      26.894  32.234  50.400  1.00  0.00     0.179 C 
BRANCH  17  22
ATOM     22  C   UNL     1      26.914  29.932  53.088  1.00  0.00     0.225 C 
BRANCH  22  23
ATOM     23  O   UNL     1      26.397  30.081  54.385  1.00  0.00    -0.391 OA
ATOM     24  H   UNL     1      26.260  31.055  54.517  1.00  0.00     0.210 HD
ENDBRANCH  22  23
ENDBRANCH  17  22
BRANCH  18  25
ATOM     25  O   UNL     1      24.867  31.756  52.603  1.00  0.00    -0.385 OA
ATOM     26  H   UNL     1      24.843  31.184  51.792  1.00  0.00     0.211 HD
ENDBRANCH  18  25
BRANCH  20  27
ATOM     27  O   UNL     1      25.147  33.807  50.962  1.00  0.00    -0.387 OA
ATOM     28  H   UNL     1      24.789  33.198  50.264  1.00  0.00     0.211 HD
ENDBRANCH  20  27
BRANCH  21  29
ATOM     29  C   UNL     1      27.961  32.872  49.502  1.00  0.00     0.191 C 
BRANCH  29  30
ATOM     30  O   UNL     1      29.195  32.923  50.167  1.00  0.00    -0.394 OA
ATOM     31  H   UNL     1      29.458  33.880  50.206  1.00  0.00     0.210 HD
ENDBRANCH  29  30
ENDBRANCH  21  29
ENDBRANCH   1  17
TORSDOF 13
ENDMDL
MODEL 8
REMARK VINA RESULT:    -3.908      1.704      4.762
REMARK INTER + INTRA:          -7.612
REMARK INTER:                  -6.257
REMARK INTRA:                  -1.356
REMARK UNBOUND:                -1.648
REMARK SMILES OC[C@H]1O[C@H](O[C@]2(CO)O[C@H](CO)[C@@H](O)[C@H]2O)[C@H](O)[C@H](O)[C@H]1O
REMARK SMILES IDX 6 1 5 2 3 3 22 4 4 5 20 6 18 7 2 8 1 9 23 11 21 13 19 15
REMARK SMILES IDX 7 17 16 18 10 19 14 20 11 21 8 22 9 23 17 25 15 27 12 29
REMARK SMILES IDX 13 30
REMARK H PARENT 1 10 23 12 21 14 19 16 9 24 17 26 15 28 13 31
REMARK Flexibility Score: inf
ROOT
ATOM      1  O   UNL     1      29.303  32.034  54.965  1.00  0.00    -0.313 OA
ENDROOT
BRANCH   1   2
ATOM      2  C   UNL     1      29.971  32.073  56.223  1.00  0.00     0.285 C 
ATOM      3  C   UNL     1      28.566  30.420  57.128  1.00  0.00     0.178 C 
ATOM      4  C   UNL     1      29.694  29.366  57.259  1.00  0.00     0.177 C 
ATOM      5  O   UNL     1      29.086  31.732  57.280  1.00  0.00    -0.341 OA
ATOM      6  C   UNL     1      30.816  29.638  56.231  1.00  0.00     0.179 C 
ATOM      7  C   UNL     1      31.203  31.136  56.221  1.00  0.00     0.202 C 
BRANCH   3   8
ATOM      8  C   UNL     1      27.472  30.209  58.182  1.00  0.00     0.191 C 
BRANCH   8   9
ATOM      9  O   UNL     1      27.949  30.558  59.453  1.00  0.00    -0.394 OA
ATOM     10  H   UNL     1      27.853  29.745  60.015  1.00  0.00     0.210 HD
ENDBRANCH   8   9
ENDBRANCH   3   8
BRANCH   4  11
ATOM     11  O   UNL     1      30.230  29.410  58.558  1.00  0.00    -0.387 OA
ATOM     12  H   UNL     1      29.760  28.715  59.088  1.00  0.00     0.211 HD
ENDBRANCH   4  11
BRANCH   6  13
ATOM     13  O   UNL     1      30.472  29.162  54.950  1.00  0.00    -0.387 OA
ATOM     14  H   UNL     1      30.811  28.239  54.852  1.00  0.00     0.211 HD
ENDBRANCH   6  13
BRANCH   7  15
ATOM     15  O   UNL     1      32.091  31.440  55.174  1.00  0.00    -0.385 OA
ATOM     16  H   UNL     1      33.007  31.203  55.468  1.00  0.00     0.211 HD
ENDBRANCH   7  15
ENDBRANCH   1   2
BRANCH   1  17
ATOM     17  C   UNL     1      29.267  33.274  54.257  1.00  0.00     0.224 C 
ATOM     18  C   UNL     1      29.480  33.037  52.745  1.00  0.00     0.208 C 
ATOM     19  O   UNL     1      27.954  33.780  54.410  1.00  0.00    -0.337 OA
ATOM     20  C   UNL     1      28.090  32.663  52.295  1.00  0.00     0.180 C 
ATOM     21  C   UNL     1      27.207  33.455  53.256  1.00  0.00     0.179 C 
BRANCH  17  22
ATOM     22  C   UNL     1      30.237  34.324  54.866  1.00  0.00     0.225 C 
BRANCH  22  23
ATOM     23  O   UNL     1      31.500  34.241  54.258  1.00  0.00    -0.391 OA
ATOM     24  H   UNL     1      31.477  33.434  53.682  1.00  0.00     0.210 HD
ENDBRANCH  22  23
ENDBRANCH  17  22
BRANCH  18  25
ATOM     25  O   UNL     1      29.906  34.216  52.104  1.00  0.00    -0.385 OA
ATOM     26  H   UNL     1      30.572  33.948  51.418  1.00  0.00     0.211 HD
ENDBRANCH  18  25
BRANCH  20  27
ATOM     27  O   UNL     1      27.840  33.029  50.963  1.00  0.00    -0.387 OA
ATOM     28  H   UNL     1      28.269  32.336  50.397  1.00  0.00     0.211 HD
ENDBRANCH  20  27
BRANCH  21  29
ATOM     29  C   UNL     1      25.948  32.672  53.651  1.00  0.00     0.191 C 
BRANCH  29  30
ATOM     30  O   UNL     1      25.107  32.506  52.541  1.00  0.00    -0.394 OA
ATOM     31  H   UNL     1      24.314  31.998  52.859  1.00  0.00     0.210 HD
ENDBRANCH  29  30
ENDBRANCH  21  29
ENDBRANCH   1  17
TORSDOF 13
ENDMDL
MODEL 9
REMARK VINA RESULT:    -3.888      1.704      4.728
REMARK INTER + INTRA:          -7.582
REMARK INTER:                  -5.777
REMARK INTRA:                  -1.805
REMARK UNBOUND:                -1.648
REMARK SMILES OC[C@H]1O[C@H](O[C@]2(CO)O[C@H](CO)[C@@H](O)[C@H]2O)[C@H](O)[C@H](O)[C@H]1O
REMARK SMILES IDX 6 1 5 2 3 3 22 4 4 5 20 6 18 7 2 8 1 9 23 11 21 13 19 15
REMARK SMILES IDX 7 17 16 18 10 19 14 20 11 21 8 22 9 23 17 25 15 27 12 29
REMARK SMILES IDX 13 30
REMARK H PARENT 1 10 23 12 21 14 19 16 9 24 17 26 15 28 13 31
REMARK Flexibility Score: inf
ROOT
ATOM      1  O   UNL     1      28.968  32.395  55.003  1.00  0.00    -0.313 OA
ENDROOT
BRANCH   1   2
ATOM      2  C   UNL     1      29.589  31.164  54.643  1.00  0.00     0.285 C 
ATOM      3  C   UNL     1      30.901  31.147  56.593  1.00  0.00     0.178 C 
ATOM      4  C   UNL     1      30.200  29.904  57.195  1.00  0.00     0.177 C 
ATOM      5  O   UNL     1      30.904  31.084  55.176  1.00  0.00    -0.341 OA
ATOM      6  C   UNL     1      28.762  29.770  56.647  1.00  0.00     0.179 C 
ATOM      7  C   UNL     1      28.739  29.960  55.111  1.00  0.00     0.202 C 
BRANCH   3   8
ATOM      8  C   UNL     1      32.353  31.264  57.074  1.00  0.00     0.191 C 
BRANCH   8   9
ATOM      9  O   UNL     1      33.072  32.132  56.241  1.00  0.00    -0.394 OA
ATOM     10  H   UNL     1      32.606  32.121  55.365  1.00  0.00     0.210 HD
ENDBRANCH   8   9
ENDBRANCH   3   8
BRANCH   4  11
ATOM     11  O   UNL     1      30.934  28.748  56.872  1.00  0.00    -0.387 OA
ATOM     12  H   UNL     1      30.379  28.221  56.241  1.00  0.00     0.211 HD
ENDBRANCH   4  11
BRANCH   6  13
ATOM     13  O   UNL     1      27.870  30.637  57.310  1.00  0.00    -0.387 OA
ATOM     14  H   UNL     1      26.960  30.490  56.953  1.00  0.00     0.211 HD
ENDBRANCH   6  13
BRANCH   7  15
ATOM     15  O   UNL     1      27.425  30.021  54.611  1.00  0.00    -0.385 OA
ATOM     16  H   UNL     1      27.095  30.948  54.726  1.00  0.00     0.211 HD
ENDBRANCH   7  15
ENDBRANCH   1   2
BRANCH   1  17
ATOM     17  C   UNL     1      29.207  33.482  54.108  1.00  0.00     0.224 C 
ATOM     18  C   UNL     1      29.337  32.965  52.657  1.00  0.00     0.208 C 
ATOM     19  O   UNL     1      28.050  34.294  54.150  1.00  0.00    -0.337 OA
ATOM     20  C   UNL     1      27.891  32.855  52.242  1.00  0.00     0.180 C 
ATOM     21  C   UNL     1      27.230  33.970  53.046  1.00  0.00     0.179 C 
BRANCH  17  22
ATOM     22  C   UNL     1      30.403  34.363  54.564  1.00  0.00     0.225 C 
BRANCH  22  23
ATOM     23  O   UNL     1      31.615  33.838  54.089  1.00  0.00    -0.391 OA
ATOM     24  H   UNL     1      31.978  33.276  54.821  1.00  0.00     0.210 HD
ENDBRANCH  22  23
ENDBRANCH  17  22
BRANCH  18  25
ATOM     25  O   UNL     1      30.013  33.897  51.847  1.00  0.00    -0.385 OA
ATOM     26  H   UNL     1      29.543  34.766  51.951  1.00  0.00     0.211 HD
ENDBRANCH  18  25
BRANCH  20  27
ATOM     27  O   UNL     1      27.712  33.052  50.863  1.00  0.00    -0.387 OA
ATOM     28  H   UNL     1      28.483  33.594  50.555  1.00  0.00     0.211 HD
ENDBRANCH  20  27
BRANCH  21  29
ATOM     29  C   UNL     1      25.831  33.571  53.532  1.00  0.00     0.191 C 
BRANCH  29  30
ATOM     30  O   UNL     1      25.864  32.305  54.133  1.00  0.00    -0.394 OA
ATOM     31  H   UNL     1      25.011  32.204  54.634  1.00  0.00     0.210 HD
ENDBRANCH  29  30
ENDBRANCH  21  29
ENDBRANCH   1  17
TORSDOF 13
ENDMDL
