MODEL 1
REMARK VINA RESULT:    -3.933      0.000      0.000
REMARK INTER + INTRA:          -8.531
REMARK INTER:                  -6.693
REMARK INTRA:                  -1.838
REMARK UNBOUND:                -1.838
REMARK SMILES CCCCCCCCCCCCCC(=O)[O-]
REMARK SMILES IDX 8 1 9 2 10 3 11 4 12 5 13 6 14 7 15 8 16 9 7 10 6 11 5 12
REMARK SMILES IDX 4 13 3 14 2 15 1 16
REMARK H PARENT
REMARK Flexibility Score: inf
ROOT
ATOM      1  C   UNL     1     100.421   3.392  24.952  1.00  0.00     0.000 C 
ENDROOT
BRANCH   1   2
ATOM      2  C   UNL     1     100.111   3.296  23.446  1.00  0.00     0.000 C 
BRANCH   2   3
ATOM      3  C   UNL     1      99.401   4.524  22.848  1.00  0.00     0.000 C 
BRANCH   3   4
ATOM      4  C   UNL     1      98.247   5.035  23.727  1.00  0.00     0.000 C 
BRANCH   4   5
ATOM      5  C   UNL     1      97.022   4.096  23.693  1.00  0.00     0.006 C 
BRANCH   5   6
ATOM      6  C   UNL     1      96.664   3.507  25.066  1.00  0.00     0.053 C 
BRANCH   6   7
ATOM      7  C   UNL     1      96.747   4.524  26.161  1.00  0.00     0.041 C 
ATOM      8  O   UNL     1      97.661   4.453  27.024  1.00  0.00    -0.550 OA
ATOM      9  O   UNL     1      95.831   5.566  26.212  1.00  0.00    -0.550 OA
ENDBRANCH   6   7
ENDBRANCH   5   6
ENDBRANCH   4   5
ENDBRANCH   3   4
ENDBRANCH   2   3
ENDBRANCH   1   2
BRANCH   1  10
ATOM     10  C   UNL     1     100.093   2.097  25.714  1.00  0.00     0.000 C 
BRANCH  10  11
ATOM     11  C   UNL     1      99.403   1.046  24.817  1.00  0.00    -0.000 C 
BRANCH  11  12
ATOM     12  C   UNL     1      99.917  -0.390  25.041  1.00  0.00    -0.000 C 
BRANCH  12  13
ATOM     13  C   UNL     1     100.575  -1.039  23.810  1.00  0.00    -0.000 C 
BRANCH  13  14
ATOM     14  C   UNL     1     101.506  -0.111  23.001  1.00  0.00    -0.000 C 
BRANCH  14  15
ATOM     15  C   UNL     1     102.973  -0.097  23.462  1.00  0.00    -0.003 C 
ATOM     16  C   UNL     1     103.405   1.250  24.041  1.00  0.00     0.004 C 
ENDBRANCH  14  15
ENDBRANCH  13  14
ENDBRANCH  12  13
ENDBRANCH  11  12
ENDBRANCH  10  11
ENDBRANCH   1  10
TORSDOF 12
ENDMDL
MODEL 2
REMARK VINA RESULT:    -3.921      2.558      5.975
REMARK INTER + INTRA:          -8.509
REMARK INTER:                  -6.910
REMARK INTRA:                  -1.599
REMARK UNBOUND:                -1.838
REMARK SMILES CCCCCCCCCCCCCC(=O)[O-]
REMARK SMILES IDX 8 1 9 2 10 3 11 4 12 5 13 6 14 7 15 8 16 9 7 10 6 11 5 12
REMARK SMILES IDX 4 13 3 14 2 15 1 16
REMARK H PARENT
REMARK Flexibility Score: inf
ROOT
ATOM      1  C   UNL     1      95.526   5.328  25.546  1.00  0.00     0.000 C 
ENDROOT
BRANCH   1   2
ATOM      2  C   UNL     1      96.392   4.064  25.392  1.00  0.00     0.000 C 
BRANCH   2   3
ATOM      3  C   UNL     1      96.040   3.176  24.185  1.00  0.00     0.000 C 
BRANCH   3   4
ATOM      4  C   UNL     1      96.791   1.834  24.190  1.00  0.00     0.000 C 
BRANCH   4   5
ATOM      5  C   UNL     1      98.320   2.016  24.089  1.00  0.00     0.006 C 
BRANCH   5   6
ATOM      6  C   UNL     1      99.083   1.475  25.309  1.00  0.00     0.053 C 
BRANCH   6   7
ATOM      7  C   UNL     1      99.882   2.538  25.996  1.00  0.00     0.041 C 
ATOM      8  O   UNL     1      99.358   3.239  26.902  1.00  0.00    -0.550 OA
ATOM      9  O   UNL     1     101.214   2.736  25.655  1.00  0.00    -0.550 OA
ENDBRANCH   6   7
ENDBRANCH   5   6
ENDBRANCH   4   5
ENDBRANCH   3   4
ENDBRANCH   2   3
ENDBRANCH   1   2
BRANCH   1  10
ATOM     10  C   UNL     1      96.326   6.628  25.363  1.00  0.00     0.000 C 
BRANCH  10  11
ATOM     11  C   UNL     1      95.791   7.489  24.197  1.00  0.00    -0.000 C 
BRANCH  11  12
ATOM     12  C   UNL     1      95.042   6.677  23.123  1.00  0.00    -0.000 C 
BRANCH  12  13
ATOM     13  C   UNL     1      95.916   6.200  21.948  1.00  0.00    -0.000 C 
BRANCH  13  14
ATOM     14  C   UNL     1      97.114   7.114  21.612  1.00  0.00    -0.000 C 
BRANCH  14  15
ATOM     15  C   UNL     1      98.486   6.418  21.617  1.00  0.00    -0.003 C 
ATOM     16  C   UNL     1      98.644   5.415  22.759  1.00  0.00     0.004 C 
ENDBRANCH  14  15
ENDBRANCH  13  14
ENDBRANCH  12  13
ENDBRANCH  11  12
ENDBRANCH  10  11
ENDBRANCH   1  10
TORSDOF 12
ENDMDL
MODEL 3
REMARK VINA RESULT:    -3.921      2.915      6.484
REMARK INTER + INTRA:          -8.509
REMARK INTER:                  -7.025
REMARK INTRA:                  -1.484
REMARK UNBOUND:                -1.838
REMARK SMILES CCCCCCCCCCCCCC(=O)[O-]
REMARK SMILES IDX 8 1 9 2 10 3 11 4 12 5 13 6 14 7 15 8 16 9 7 10 6 11 5 12
REMARK SMILES IDX 4 13 3 14 2 15 1 16
REMARK H PARENT
REMARK Flexibility Score: inf
ROOT
ATOM      1  C   UNL     1      98.034   3.989  23.587  1.00  0.00     0.000 C 
ENDROOT
BRANCH   1   2
ATOM      2  C   UNL     1      99.078   4.513  24.590  1.00  0.00     0.000 C 
BRANCH   2   3
ATOM      3  C   UNL     1     100.484   3.904  24.445  1.00  0.00     0.000 C 
BRANCH   3   4
ATOM      4  C   UNL     1     100.679   3.157  23.114  1.00  0.00     0.000 C 
BRANCH   4   5
ATOM      5  C   UNL     1     101.613   1.937  23.256  1.00  0.00     0.006 C 
BRANCH   5   6
ATOM      6  C   UNL     1     101.050   0.837  24.171  1.00  0.00     0.053 C 
BRANCH   6   7
ATOM      7  C   UNL     1      99.905   0.106  23.542  1.00  0.00     0.041 C 
ATOM      8  O   UNL     1      98.720   0.460  23.779  1.00  0.00    -0.550 OA
ATOM      9  O   UNL     1     100.148  -0.950  22.674  1.00  0.00    -0.550 OA
ENDBRANCH   6   7
ENDBRANCH   5   6
ENDBRANCH   4   5
ENDBRANCH   3   4
ENDBRANCH   2   3
ENDBRANCH   1   2
BRANCH   1  10
ATOM     10  C   UNL     1      96.759   3.464  24.269  1.00  0.00     0.000 C 
BRANCH  10  11
ATOM     11  C   UNL     1      96.478   4.171  25.613  1.00  0.00    -0.000 C 
BRANCH  11  12
ATOM     12  C   UNL     1      95.324   5.190  25.546  1.00  0.00    -0.000 C 
BRANCH  12  13
ATOM     13  C   UNL     1      95.765   6.664  25.500  1.00  0.00    -0.000 C 
BRANCH  13  14
ATOM     14  C   UNL     1      96.059   7.216  24.089  1.00  0.00    -0.000 C 
BRANCH  14  15
ATOM     15  C   UNL     1      95.070   6.771  22.997  1.00  0.00    -0.003 C 
ATOM     16  C   UNL     1      95.760   6.372  21.693  1.00  0.00     0.004 C 
ENDBRANCH  14  15
ENDBRANCH  13  14
ENDBRANCH  12  13
ENDBRANCH  11  12
ENDBRANCH  10  11
ENDBRANCH   1  10
TORSDOF 12
ENDMDL
MODEL 4
REMARK VINA RESULT:    -3.907      2.712      5.931
REMARK INTER + INTRA:          -8.485
REMARK INTER:                  -7.019
REMARK INTRA:                  -1.466
REMARK UNBOUND:                -1.838
REMARK SMILES CCCCCCCCCCCCCC(=O)[O-]
REMARK SMILES IDX 8 1 9 2 10 3 11 4 12 5 13 6 14 7 15 8 16 9 7 10 6 11 5 12
REMARK SMILES IDX 4 13 3 14 2 15 1 16
REMARK H PARENT
REMARK Flexibility Score: inf
ROOT
ATOM      1  C   UNL     1      98.724   5.594  22.425  1.00  0.00     0.000 C 
ENDROOT
BRANCH   1   2
ATOM      2  C   UNL     1      98.833   4.428  23.425  1.00  0.00     0.000 C 
BRANCH   2   3
ATOM      3  C   UNL     1     100.201   3.723  23.456  1.00  0.00     0.000 C 
BRANCH   3   4
ATOM      4  C   UNL     1     100.824   3.686  24.862  1.00  0.00     0.000 C 
BRANCH   4   5
ATOM      5  C   UNL     1     100.928   2.252  25.422  1.00  0.00     0.006 C 
BRANCH   5   6
ATOM      6  C   UNL     1      99.567   1.561  25.595  1.00  0.00     0.053 C 
BRANCH   6   7
ATOM      7  C   UNL     1      99.445   0.327  24.756  1.00  0.00     0.041 C 
ATOM      8  O   UNL     1      98.807   0.359  23.671  1.00  0.00    -0.550 OA
ATOM      9  O   UNL     1     100.059  -0.851  25.160  1.00  0.00    -0.550 OA
ENDBRANCH   6   7
ENDBRANCH   5   6
ENDBRANCH   4   5
ENDBRANCH   3   4
ENDBRANCH   2   3
ENDBRANCH   1   2
BRANCH   1  10
ATOM     10  C   UNL     1      97.568   6.556  22.750  1.00  0.00     0.000 C 
BRANCH  10  11
ATOM     11  C   UNL     1      96.213   5.826  22.872  1.00  0.00    -0.000 C 
BRANCH  11  12
ATOM     12  C   UNL     1      95.372   6.283  24.080  1.00  0.00    -0.000 C 
BRANCH  12  13
ATOM     13  C   UNL     1      95.428   5.343  25.298  1.00  0.00    -0.000 C 
BRANCH  13  14
ATOM     14  C   UNL     1      96.627   5.569  26.243  1.00  0.00    -0.000 C 
BRANCH  14  15
ATOM     15  C   UNL     1      97.327   4.287  26.726  1.00  0.00    -0.003 C 
ATOM     16  C   UNL     1      98.495   4.563  27.670  1.00  0.00     0.004 C 
ENDBRANCH  14  15
ENDBRANCH  13  14
ENDBRANCH  12  13
ENDBRANCH  11  12
ENDBRANCH  10  11
ENDBRANCH   1  10
TORSDOF 12
ENDMDL
MODEL 5
REMARK VINA RESULT:    -3.864      2.188      3.505
REMARK INTER + INTRA:          -8.412
REMARK INTER:                  -6.654
REMARK INTRA:                  -1.758
REMARK UNBOUND:                -1.838
REMARK SMILES CCCCCCCCCCCCCC(=O)[O-]
REMARK SMILES IDX 8 1 9 2 10 3 11 4 12 5 13 6 14 7 15 8 16 9 7 10 6 11 5 12
REMARK SMILES IDX 4 13 3 14 2 15 1 16
REMARK H PARENT
REMARK Flexibility Score: inf
ROOT
ATOM      1  C   UNL     1     101.380   4.866  26.584  1.00  0.00     0.000 C 
ENDROOT
BRANCH   1   2
ATOM      2  C   UNL     1      99.843   4.915  26.516  1.00  0.00     0.000 C 
BRANCH   2   3
ATOM      3  C   UNL     1      99.127   3.666  27.060  1.00  0.00     0.000 C 
BRANCH   3   4
ATOM      4  C   UNL     1      97.650   3.590  26.634  1.00  0.00     0.000 C 
BRANCH   4   5
ATOM      5  C   UNL     1      97.089   4.962  26.207  1.00  0.00     0.006 C 
BRANCH   5   6
ATOM      6  C   UNL     1      95.832   4.865  25.329  1.00  0.00     0.053 C 
BRANCH   6   7
ATOM      7  C   UNL     1      96.143   4.408  23.939  1.00  0.00     0.041 C 
ATOM      8  O   UNL     1      96.457   5.244  23.051  1.00  0.00    -0.550 OA
ATOM      9  O   UNL     1      96.112   3.054  23.629  1.00  0.00    -0.550 OA
ENDBRANCH   6   7
ENDBRANCH   5   6
ENDBRANCH   4   5
ENDBRANCH   3   4
ENDBRANCH   2   3
ENDBRANCH   1   2
BRANCH   1  10
ATOM     10  C   UNL     1     101.911   3.562  27.202  1.00  0.00     0.000 C 
BRANCH  10  11
ATOM     11  C   UNL     1     103.249   3.116  26.574  1.00  0.00    -0.000 C 
BRANCH  11  12
ATOM     12  C   UNL     1     103.088   2.413  25.212  1.00  0.00    -0.000 C 
BRANCH  12  13
ATOM     13  C   UNL     1     101.729   1.722  24.999  1.00  0.00    -0.000 C 
BRANCH  13  14
ATOM     14  C   UNL     1     101.086   1.958  23.616  1.00  0.00    -0.000 C 
BRANCH  14  15
ATOM     15  C   UNL     1      99.718   2.660  23.644  1.00  0.00    -0.003 C 
ATOM     16  C   UNL     1      99.769   4.092  23.113  1.00  0.00     0.004 C 
ENDBRANCH  14  15
ENDBRANCH  13  14
ENDBRANCH  12  13
ENDBRANCH  11  12
ENDBRANCH  10  11
ENDBRANCH   1  10
TORSDOF 12
ENDMDL
MODEL 6
REMARK VINA RESULT:    -3.860      1.796      3.500
REMARK INTER + INTRA:          -8.406
REMARK INTER:                  -6.775
REMARK INTRA:                  -1.632
REMARK UNBOUND:                -1.838
REMARK SMILES CCCCCCCCCCCCCC(=O)[O-]
REMARK SMILES IDX 8 1 9 2 10 3 11 4 12 5 13 6 14 7 15 8 16 9 7 10 6 11 5 12
REMARK SMILES IDX 4 13 3 14 2 15 1 16
REMARK H PARENT
REMARK Flexibility Score: inf
ROOT
ATOM      1  C   UNL     1      99.974  -0.361  24.719  1.00  0.00     0.000 C 
ENDROOT
BRANCH   1   2
ATOM      2  C   UNL     1      99.232   0.972  24.510  1.00  0.00     0.000 C 
BRANCH   2   3
ATOM      3  C   UNL     1      99.236   1.917  25.724  1.00  0.00     0.000 C 
BRANCH   3   4
ATOM      4  C   UNL     1      99.238   3.403  25.325  1.00  0.00     0.000 C 
BRANCH   4   5
ATOM      5  C   UNL     1      98.847   3.616  23.848  1.00  0.00     0.006 C 
BRANCH   5   6
ATOM      6  C   UNL     1      97.568   4.448  23.666  1.00  0.00     0.053 C 
BRANCH   6   7
ATOM      7  C   UNL     1      96.359   3.761  24.218  1.00  0.00     0.041 C 
ATOM      8  O   UNL     1      95.623   4.346  25.056  1.00  0.00    -0.550 OA
ATOM      9  O   UNL     1      96.029   2.482  23.786  1.00  0.00    -0.550 OA
ENDBRANCH   6   7
ENDBRANCH   5   6
ENDBRANCH   4   5
ENDBRANCH   3   4
ENDBRANCH   2   3
ENDBRANCH   1   2
BRANCH   1  10
ATOM     10  C   UNL     1     101.334  -0.409  24.003  1.00  0.00     0.000 C 
BRANCH  10  11
ATOM     11  C   UNL     1     101.746   0.965  23.432  1.00  0.00    -0.000 C 
BRANCH  11  12
ATOM     12  C   UNL     1     103.251   1.266  23.570  1.00  0.00    -0.000 C 
BRANCH  12  13
ATOM     13  C   UNL     1     103.671   1.848  24.933  1.00  0.00    -0.000 C 
BRANCH  13  14
ATOM     14  C   UNL     1     102.962   3.160  25.329  1.00  0.00    -0.000 C 
BRANCH  14  15
ATOM     15  C   UNL     1     102.594   3.279  26.818  1.00  0.00    -0.003 C 
ATOM     16  C   UNL     1     102.200   4.698  27.225  1.00  0.00     0.004 C 
ENDBRANCH  14  15
ENDBRANCH  13  14
ENDBRANCH  12  13
ENDBRANCH  11  12
ENDBRANCH  10  11
ENDBRANCH   1  10
TORSDOF 12
ENDMDL
MODEL 7
REMARK VINA RESULT:    -3.855      3.061      5.847
REMARK INTER + INTRA:          -8.398
REMARK INTER:                  -6.434
REMARK INTRA:                  -1.965
REMARK UNBOUND:                -1.838
REMARK SMILES CCCCCCCCCCCCCC(=O)[O-]
REMARK SMILES IDX 8 1 9 2 10 3 11 4 12 5 13 6 14 7 15 8 16 9 7 10 6 11 5 12
REMARK SMILES IDX 4 13 3 14 2 15 1 16
REMARK H PARENT
REMARK Flexibility Score: inf
ROOT
ATOM      1  C   UNL     1      99.499   4.155  27.246  1.00  0.00     0.000 C 
ENDROOT
BRANCH   1   2
ATOM      2  C   UNL     1     100.021   3.289  26.085  1.00  0.00     0.000 C 
BRANCH   2   3
ATOM      3  C   UNL     1      99.331   1.922  25.931  1.00  0.00     0.000 C 
BRANCH   3   4
ATOM      4  C   UNL     1      99.184   1.488  24.462  1.00  0.00     0.000 C 
BRANCH   4   5
ATOM      5  C   UNL     1     100.517   1.569  23.689  1.00  0.00     0.006 C 
BRANCH   5   6
ATOM      6  C   UNL     1     101.450   0.376  23.949  1.00  0.00     0.053 C 
BRANCH   6   7
ATOM      7  C   UNL     1     100.763  -0.938  23.744  1.00  0.00     0.041 C 
ATOM      8  O   UNL     1     100.618  -1.735  24.708  1.00  0.00    -0.550 OA
ATOM      9  O   UNL     1     100.259  -1.272  22.493  1.00  0.00    -0.550 OA
ENDBRANCH   6   7
ENDBRANCH   5   6
ENDBRANCH   4   5
ENDBRANCH   3   4
ENDBRANCH   2   3
ENDBRANCH   1   2
BRANCH   1  10
ATOM     10  C   UNL     1      97.987   3.996  27.480  1.00  0.00     0.000 C 
BRANCH  10  11
ATOM     11  C   UNL     1      97.226   5.333  27.340  1.00  0.00    -0.000 C 
BRANCH  11  12
ATOM     12  C   UNL     1      96.304   5.393  26.107  1.00  0.00    -0.000 C 
BRANCH  12  13
ATOM     13  C   UNL     1      96.284   4.112  25.252  1.00  0.00    -0.000 C 
BRANCH  13  14
ATOM     14  C   UNL     1      96.849   4.270  23.825  1.00  0.00    -0.000 C 
BRANCH  14  15
ATOM     15  C   UNL     1      97.894   5.387  23.658  1.00  0.00    -0.003 C 
ATOM     16  C   UNL     1      99.127   4.939  22.874  1.00  0.00     0.004 C 
ENDBRANCH  14  15
ENDBRANCH  13  14
ENDBRANCH  12  13
ENDBRANCH  11  12
ENDBRANCH  10  11
ENDBRANCH   1  10
TORSDOF 12
ENDMDL
MODEL 8
REMARK VINA RESULT:    -3.833      1.848      3.323
REMARK INTER + INTRA:          -8.359
REMARK INTER:                  -6.926
REMARK INTRA:                  -1.434
REMARK UNBOUND:                -1.838
REMARK SMILES CCCCCCCCCCCCCC(=O)[O-]
REMARK SMILES IDX 8 1 9 2 10 3 11 4 12 5 13 6 14 7 15 8 16 9 7 10 6 11 5 12
REMARK SMILES IDX 4 13 3 14 2 15 1 16
REMARK H PARENT
REMARK Flexibility Score: inf
ROOT
ATOM      1  C   UNL     1      99.057   2.959  26.273  1.00  0.00     0.000 C 
ENDROOT
BRANCH   1   2
ATOM      2  C   UNL     1      97.709   3.547  26.731  1.00  0.00     0.000 C 
BRANCH   2   3
ATOM      3  C   UNL     1      97.776   4.986  27.272  1.00  0.00     0.000 C 
BRANCH   3   4
ATOM      4  C   UNL     1      97.043   5.998  26.376  1.00  0.00     0.000 C 
BRANCH   4   5
ATOM      5  C   UNL     1      95.682   5.466  25.879  1.00  0.00     0.006 C 
BRANCH   5   6
ATOM      6  C   UNL     1      95.352   5.879  24.436  1.00  0.00     0.053 C 
BRANCH   6   7
ATOM      7  C   UNL     1      96.114   5.079  23.427  1.00  0.00     0.041 C 
ATOM      8  O   UNL     1      96.624   5.645  22.424  1.00  0.00    -0.550 OA
ATOM      9  O   UNL     1      96.284   3.713  23.608  1.00  0.00    -0.550 OA
ENDBRANCH   6   7
ENDBRANCH   5   6
ENDBRANCH   4   5
ENDBRANCH   3   4
ENDBRANCH   2   3
ENDBRANCH   1   2
BRANCH   1  10
ATOM     10  C   UNL     1      99.992   4.013  25.658  1.00  0.00     0.000 C 
BRANCH  10  11
ATOM     11  C   UNL     1      99.815   4.136  24.129  1.00  0.00    -0.000 C 
BRANCH  11  12
ATOM     12  C   UNL     1     100.434   2.967  23.339  1.00  0.00    -0.000 C 
BRANCH  12  13
ATOM     13  C   UNL     1     101.849   2.560  23.791  1.00  0.00    -0.000 C 
BRANCH  13  14
ATOM     14  C   UNL     1     101.951   1.166  24.445  1.00  0.00    -0.000 C 
BRANCH  14  15
ATOM     15  C   UNL     1     101.008   0.101  23.859  1.00  0.00    -0.003 C 
ATOM     16  C   UNL     1      99.996  -0.425  24.875  1.00  0.00     0.004 C 
ENDBRANCH  14  15
ENDBRANCH  13  14
ENDBRANCH  12  13
ENDBRANCH  11  12
ENDBRANCH  10  11
ENDBRANCH   1  10
TORSDOF 12
ENDMDL
MODEL 9
REMARK VINA RESULT:    -3.810      1.526      3.145
REMARK INTER + INTRA:          -8.320
REMARK INTER:                  -6.689
REMARK INTRA:                  -1.631
REMARK UNBOUND:                -1.838
REMARK SMILES CCCCCCCCCCCCCC(=O)[O-]
REMARK SMILES IDX 8 1 9 2 10 3 11 4 12 5 13 6 14 7 15 8 16 9 7 10 6 11 5 12
REMARK SMILES IDX 4 13 3 14 2 15 1 16
REMARK H PARENT
REMARK Flexibility Score: inf
ROOT
ATOM      1  C   UNL     1     102.790   3.427  25.568  1.00  0.00     0.000 C 
ENDROOT
BRANCH   1   2
ATOM      2  C   UNL     1     101.606   3.192  26.524  1.00  0.00     0.000 C 
BRANCH   2   3
ATOM      3  C   UNL     1     100.215   3.411  25.904  1.00  0.00     0.000 C 
BRANCH   3   4
ATOM      4  C   UNL     1     100.272   4.123  24.541  1.00  0.00     0.000 C 
BRANCH   4   5
ATOM      5  C   UNL     1      99.130   3.685  23.601  1.00  0.00     0.006 C 
BRANCH   5   6
ATOM      6  C   UNL     1      97.814   4.442  23.839  1.00  0.00     0.053 C 
BRANCH   6   7
ATOM      7  C   UNL     1      96.806   3.614  24.572  1.00  0.00     0.041 C 
ATOM      8  O   UNL     1      95.723   4.128  24.959  1.00  0.00    -0.550 OA
ATOM      9  O   UNL     1      97.050   2.267  24.805  1.00  0.00    -0.550 OA
ENDBRANCH   6   7
ENDBRANCH   5   6
ENDBRANCH   4   5
ENDBRANCH   3   4
ENDBRANCH   2   3
ENDBRANCH   1   2
BRANCH   1  10
ATOM     10  C   UNL     1     103.993   2.518  25.870  1.00  0.00     0.000 C 
BRANCH  10  11
ATOM     11  C   UNL     1     104.239   1.478  24.755  1.00  0.00    -0.000 C 
BRANCH  11  12
ATOM     12  C   UNL     1     103.161   1.488  23.653  1.00  0.00    -0.000 C 
BRANCH  12  13
ATOM     13  C   UNL     1     102.319   0.202  23.563  1.00  0.00    -0.000 C 
BRANCH  13  14
ATOM     14  C   UNL     1     100.793   0.423  23.500  1.00  0.00    -0.000 C 
BRANCH  14  15
ATOM     15  C   UNL     1     100.016  -0.038  24.745  1.00  0.00    -0.003 C 
ATOM     16  C   UNL     1     100.268  -1.503  25.098  1.00  0.00     0.004 C 
ENDBRANCH  14  15
ENDBRANCH  13  14
ENDBRANCH  12  13
ENDBRANCH  11  12
ENDBRANCH  10  11
ENDBRANCH   1  10
TORSDOF 12
ENDMDL
