MODEL 1
REMARK VINA RESULT:    -3.203      0.000      0.000
REMARK INTER + INTRA:          -3.601
REMARK INTER:                  -3.578
REMARK INTRA:                  -0.023
REMARK UNBOUND:                -0.023
REMARK SMILES CCCC(=O)[O-]
REMARK SMILES IDX 3 1 4 2 5 3 6 4 2 5 1 6
REMARK H PARENT
REMARK Flexibility Score: inf
ROOT
ATOM      1  C   UNL     1     -43.577  29.433  25.096  1.00  0.00     0.052 C 
ENDROOT
BRANCH   1   2
ATOM      2  C   UNL     1     -43.974  30.871  24.998  1.00  0.00     0.041 C 
ATOM      3  O   UNL     1     -44.164  31.549  26.043  1.00  0.00    -0.550 OA
ATOM      4  O   UNL     1     -44.182  31.453  23.754  1.00  0.00    -0.550 OA
ENDBRANCH   1   2
BRANCH   1   5
ATOM      5  C   UNL     1     -42.895  29.157  26.438  1.00  0.00     0.003 C 
ATOM      6  C   UNL     1     -43.264  27.775  26.971  1.00  0.00     0.004 C 
ENDBRANCH   1   5
TORSDOF 2
ENDMDL
MODEL 2
REMARK VINA RESULT:    -3.133      2.861      3.728
REMARK INTER + INTRA:          -3.523
REMARK INTER:                  -3.511
REMARK INTRA:                  -0.011
REMARK UNBOUND:                -0.023
REMARK SMILES CCCC(=O)[O-]
REMARK SMILES IDX 3 1 4 2 5 3 6 4 2 5 1 6
REMARK H PARENT
REMARK Flexibility Score: inf
ROOT
ATOM      1  C   UNL     1     -43.230  29.124  25.291  1.00  0.00     0.052 C 
ENDROOT
BRANCH   1   2
ATOM      2  C   UNL     1     -43.267  27.678  25.671  1.00  0.00     0.041 C 
ATOM      3  O   UNL     1     -42.730  27.292  26.744  1.00  0.00    -0.550 OA
ATOM      4  O   UNL     1     -43.851  26.749  24.820  1.00  0.00    -0.550 OA
ENDBRANCH   1   2
BRANCH   1   5
ATOM      5  C   UNL     1     -43.938  29.342  23.951  1.00  0.00     0.003 C 
ATOM      6  C   UNL     1     -44.317  30.809  23.760  1.00  0.00     0.004 C 
ENDBRANCH   1   5
TORSDOF 2
ENDMDL
MODEL 3
REMARK VINA RESULT:    -2.858      2.156      2.700
REMARK INTER + INTRA:          -3.215
REMARK INTER:                  -3.145
REMARK INTRA:                  -0.071
REMARK UNBOUND:                -0.023
REMARK SMILES CCCC(=O)[O-]
REMARK SMILES IDX 3 1 4 2 5 3 6 4 2 5 1 6
REMARK H PARENT
REMARK Flexibility Score: inf
ROOT
ATOM      1  C   UNL     1     -43.116  27.687  26.737  1.00  0.00     0.052 C 
ENDROOT
BRANCH   1   2
ATOM      2  C   UNL     1     -43.264  29.170  26.858  1.00  0.00     0.041 C 
ATOM      3  O   UNL     1     -44.252  29.661  27.467  1.00  0.00    -0.550 OA
ATOM      4  O   UNL     1     -42.337  30.013  26.260  1.00  0.00    -0.550 OA
ENDBRANCH   1   2
BRANCH   1   5
ATOM      5  C   UNL     1     -44.283  27.097  25.942  1.00  0.00     0.003 C 
ATOM      6  C   UNL     1     -44.282  27.602  24.502  1.00  0.00     0.004 C 
ENDBRANCH   1   5
TORSDOF 2
ENDMDL
MODEL 4
REMARK VINA RESULT:    -2.814     12.258     13.113
REMARK INTER + INTRA:          -3.166
REMARK INTER:                  -3.147
REMARK INTRA:                  -0.019
REMARK UNBOUND:                -0.023
REMARK SMILES CCCC(=O)[O-]
REMARK SMILES IDX 3 1 4 2 5 3 6 4 2 5 1 6
REMARK H PARENT
REMARK Flexibility Score: inf
ROOT
ATOM      1  C   UNL     1     -33.602  25.420  30.645  1.00  0.00     0.052 C 
ENDROOT
BRANCH   1   2
ATOM      2  C   UNL     1     -34.260  24.929  31.895  1.00  0.00     0.041 C 
ATOM      3  O   UNL     1     -35.381  24.357  31.837  1.00  0.00    -0.550 OA
ATOM      4  O   UNL     1     -33.659  25.143  33.128  1.00  0.00    -0.550 OA
ENDBRANCH   1   2
BRANCH   1   5
ATOM      5  C   UNL     1     -32.084  25.253  30.738  1.00  0.00     0.003 C 
ATOM      6  C   UNL     1     -31.576  24.243  29.713  1.00  0.00     0.004 C 
ENDBRANCH   1   5
TORSDOF 2
ENDMDL
MODEL 5
REMARK VINA RESULT:    -2.808     12.365     13.240
REMARK INTER + INTRA:          -3.160
REMARK INTER:                  -3.092
REMARK INTRA:                  -0.067
REMARK UNBOUND:                -0.023
REMARK SMILES CCCC(=O)[O-]
REMARK SMILES IDX 3 1 4 2 5 3 6 4 2 5 1 6
REMARK H PARENT
REMARK Flexibility Score: inf
ROOT
ATOM      1  C   UNL     1     -31.994  25.227  30.758  1.00  0.00     0.052 C 
ENDROOT
BRANCH   1   2
ATOM      2  C   UNL     1     -33.474  25.247  30.969  1.00  0.00     0.041 C 
ATOM      3  O   UNL     1     -34.247  25.533  30.016  1.00  0.00    -0.550 OA
ATOM      4  O   UNL     1     -34.001  24.996  32.230  1.00  0.00    -0.550 OA
ENDBRANCH   1   2
BRANCH   1   5
ATOM      5  C   UNL     1     -31.626  24.248  29.640  1.00  0.00     0.003 C 
ATOM      6  C   UNL     1     -31.975  22.813  30.027  1.00  0.00     0.004 C 
ENDBRANCH   1   5
TORSDOF 2
ENDMDL
MODEL 6
REMARK VINA RESULT:    -2.722     13.390     14.224
REMARK INTER + INTRA:          -3.063
REMARK INTER:                  -3.038
REMARK INTRA:                  -0.024
REMARK UNBOUND:                -0.023
REMARK SMILES CCCC(=O)[O-]
REMARK SMILES IDX 3 1 4 2 5 3 6 4 2 5 1 6
REMARK H PARENT
REMARK Flexibility Score: inf
ROOT
ATOM      1  C   UNL     1     -31.611  24.312  29.619  1.00  0.00     0.052 C 
ENDROOT
BRANCH   1   2
ATOM      2  C   UNL     1     -31.801  22.829  29.634  1.00  0.00     0.041 C 
ATOM      3  O   UNL     1     -31.496  22.141  28.623  1.00  0.00    -0.550 OA
ATOM      4  O   UNL     1     -32.357  22.210  30.745  1.00  0.00    -0.550 OA
ENDBRANCH   1   2
BRANCH   1   5
ATOM      5  C   UNL     1     -32.273  24.949  30.843  1.00  0.00     0.003 C 
ATOM      6  C   UNL     1     -33.693  25.408  30.528  1.00  0.00     0.004 C 
ENDBRANCH   1   5
TORSDOF 2
ENDMDL
MODEL 7
REMARK VINA RESULT:    -2.690      2.993      3.424
REMARK INTER + INTRA:          -3.028
REMARK INTER:                  -3.007
REMARK INTRA:                  -0.021
REMARK UNBOUND:                -0.023
REMARK SMILES CCCC(=O)[O-]
REMARK SMILES IDX 3 1 4 2 5 3 6 4 2 5 1 6
REMARK H PARENT
REMARK Flexibility Score: inf
ROOT
ATOM      1  C   UNL     1     -44.098  26.866  25.222  1.00  0.00     0.052 C 
ENDROOT
BRANCH   1   2
ATOM      2  C   UNL     1     -43.427  28.146  25.608  1.00  0.00     0.041 C 
ATOM      3  O   UNL     1     -42.996  28.306  26.781  1.00  0.00    -0.550 OA
ATOM      4  O   UNL     1     -43.318  29.180  24.688  1.00  0.00    -0.550 OA
ENDBRANCH   1   2
BRANCH   1   5
ATOM      5  C   UNL     1     -44.642  26.957  23.795  1.00  0.00     0.003 C 
ATOM      6  C   UNL     1     -44.360  25.676  23.014  1.00  0.00     0.004 C 
ENDBRANCH   1   5
TORSDOF 2
ENDMDL
MODEL 8
REMARK VINA RESULT:    -2.653     12.599     13.033
REMARK INTER + INTRA:          -2.987
REMARK INTER:                  -2.943
REMARK INTRA:                  -0.044
REMARK UNBOUND:                -0.023
REMARK SMILES CCCC(=O)[O-]
REMARK SMILES IDX 3 1 4 2 5 3 6 4 2 5 1 6
REMARK H PARENT
REMARK Flexibility Score: inf
ROOT
ATOM      1  C   UNL     1     -33.995  25.468  30.654  1.00  0.00     0.052 C 
ENDROOT
BRANCH   1   2
ATOM      2  C   UNL     1     -32.638  24.925  30.342  1.00  0.00     0.041 C 
ATOM      3  O   UNL     1     -31.607  25.530  30.738  1.00  0.00    -0.550 OA
ATOM      4  O   UNL     1     -32.508  23.775  29.573  1.00  0.00    -0.550 OA
ENDBRANCH   1   2
BRANCH   1   5
ATOM      5  C   UNL     1     -34.640  24.676  31.794  1.00  0.00     0.003 C 
ATOM      6  C   UNL     1     -34.228  25.232  33.155  1.00  0.00     0.004 C 
ENDBRANCH   1   5
TORSDOF 2
ENDMDL
MODEL 9
REMARK VINA RESULT:    -2.530     11.610     12.334
REMARK INTER + INTRA:          -2.848
REMARK INTER:                  -2.797
REMARK INTRA:                  -0.051
REMARK UNBOUND:                -0.023
REMARK SMILES CCCC(=O)[O-]
REMARK SMILES IDX 3 1 4 2 5 3 6 4 2 5 1 6
REMARK H PARENT
REMARK Flexibility Score: inf
ROOT
ATOM      1  C   UNL     1     -34.149  25.298  32.210  1.00  0.00     0.052 C 
ENDROOT
BRANCH   1   2
ATOM      2  C   UNL     1     -33.993  25.410  30.727  1.00  0.00     0.041 C 
ATOM      3  O   UNL     1     -34.933  25.866  30.024  1.00  0.00    -0.550 OA
ATOM      4  O   UNL     1     -32.828  24.967  30.114  1.00  0.00    -0.550 OA
ENDBRANCH   1   2
BRANCH   1   5
ATOM      5  C   UNL     1     -34.257  23.830  32.628  1.00  0.00     0.003 C 
ATOM      6  C   UNL     1     -35.693  23.326  32.511  1.00  0.00     0.004 C 
ENDBRANCH   1   5
TORSDOF 2
ENDMDL
