MODEL 1
REMARK VINA RESULT:    -4.554      0.000      0.000
REMARK INTER + INTRA:          -5.812
REMARK INTER:                  -5.619
REMARK INTRA:                  -0.193
REMARK UNBOUND:                -0.193
REMARK SMILES CCCCC=CC(C)=O
REMARK SMILES IDX 4 1 3 2 2 3 1 4 5 5 6 6 7 7 9 8 8 9
REMARK H PARENT
REMARK Flexibility Score: inf
ROOT
ATOM      1  C   UNL     1     -10.880  74.590  32.866  1.00  0.00     0.027 C 
ENDROOT
BRANCH   1   2
ATOM      2  C   UNL     1     -11.652  73.279  33.076  1.00  0.00     0.004 C 
BRANCH   2   3
ATOM      3  C   UNL     1     -10.756  72.147  33.602  1.00  0.00    -0.003 C 
ATOM      4  C   UNL     1     -10.362  72.338  35.067  1.00  0.00     0.004 C 
ENDBRANCH   2   3
ENDBRANCH   1   2
BRANCH   1   5
ATOM      5  C   UNL     1     -10.852  74.974  31.414  1.00  0.00    -0.023 C 
ATOM      6  C   UNL     1     -11.162  74.096  30.454  1.00  0.00     0.042 C 
BRANCH   6   7
ATOM      7  C   UNL     1     -11.153  74.456  29.023  1.00  0.00     0.152 C 
ATOM      8  O   UNL     1     -12.173  74.269  28.305  1.00  0.00    -0.295 OA
ATOM      9  C   UNL     1      -9.923  75.050  28.417  1.00  0.00     0.093 C 
ENDBRANCH   6   7
ENDBRANCH   1   5
TORSDOF 4
ENDMDL
MODEL 2
REMARK VINA RESULT:    -4.516      3.137      5.267
REMARK INTER + INTRA:          -5.765
REMARK INTER:                  -5.496
REMARK INTRA:                  -0.269
REMARK UNBOUND:                -0.193
REMARK SMILES CCCCC=CC(C)=O
REMARK SMILES IDX 4 1 3 2 2 3 1 4 5 5 6 6 7 7 9 8 8 9
REMARK H PARENT
REMARK Flexibility Score: inf
ROOT
ATOM      1  C   UNL     1     -11.641  72.762  31.796  1.00  0.00     0.027 C 
ENDROOT
BRANCH   1   2
ATOM      2  C   UNL     1     -11.352  74.013  30.952  1.00  0.00     0.004 C 
BRANCH   2   3
ATOM      3  C   UNL     1     -10.454  75.022  31.683  1.00  0.00    -0.003 C 
ATOM      4  C   UNL     1      -9.022  75.031  31.149  1.00  0.00     0.004 C 
ENDBRANCH   2   3
ENDBRANCH   1   2
BRANCH   1   5
ATOM      5  C   UNL     1     -11.277  72.986  33.236  1.00  0.00    -0.023 C 
ATOM      6  C   UNL     1     -10.524  72.110  33.910  1.00  0.00     0.042 C 
BRANCH   6   7
ATOM      7  C   UNL     1     -10.144  72.316  35.320  1.00  0.00     0.152 C 
ATOM      8  O   UNL     1      -9.465  71.452  35.938  1.00  0.00    -0.295 OA
ATOM      9  C   UNL     1     -10.567  73.564  36.025  1.00  0.00     0.093 C 
ENDBRANCH   6   7
ENDBRANCH   1   5
TORSDOF 4
ENDMDL
MODEL 3
REMARK VINA RESULT:    -4.512      2.060      5.115
REMARK INTER + INTRA:          -5.761
REMARK INTER:                  -5.534
REMARK INTRA:                  -0.226
REMARK UNBOUND:                -0.193
REMARK SMILES CCCCC=CC(C)=O
REMARK SMILES IDX 4 1 3 2 2 3 1 4 5 5 6 6 7 7 9 8 8 9
REMARK H PARENT
REMARK Flexibility Score: inf
ROOT
ATOM      1  C   UNL     1     -11.465  74.243  28.496  1.00  0.00     0.027 C 
ENDROOT
BRANCH   1   2
ATOM      2  C   UNL     1     -10.173  75.043  28.269  1.00  0.00     0.004 C 
BRANCH   2   3
ATOM      3  C   UNL     1      -9.014  74.162  27.780  1.00  0.00    -0.003 C 
ATOM      4  C   UNL     1      -9.261  73.582  26.387  1.00  0.00     0.004 C 
ENDBRANCH   2   3
ENDBRANCH   1   2
BRANCH   1   5
ATOM      5  C   UNL     1     -11.594  73.820  29.931  1.00  0.00    -0.023 C 
ATOM      6  C   UNL     1     -11.054  74.537  30.922  1.00  0.00     0.042 C 
BRANCH   6   7
ATOM      7  C   UNL     1     -11.179  74.146  32.339  1.00  0.00     0.152 C 
ATOM      8  O   UNL     1     -10.946  74.976  33.260  1.00  0.00    -0.295 OA
ATOM      9  C   UNL     1     -11.589  72.752  32.688  1.00  0.00     0.093 C 
ENDBRANCH   6   7
ENDBRANCH   1   5
TORSDOF 4
ENDMDL
MODEL 4
REMARK VINA RESULT:    -4.498      2.629      5.154
REMARK INTER + INTRA:          -5.743
REMARK INTER:                  -5.550
REMARK INTRA:                  -0.193
REMARK UNBOUND:                -0.193
REMARK SMILES CCCCC=CC(C)=O
REMARK SMILES IDX 4 1 3 2 2 3 1 4 5 5 6 6 7 7 9 8 8 9
REMARK H PARENT
REMARK Flexibility Score: inf
ROOT
ATOM      1  C   UNL     1     -11.446  72.574  29.652  1.00  0.00     0.027 C 
ENDROOT
BRANCH   1   2
ATOM      2  C   UNL     1     -11.485  73.947  28.965  1.00  0.00     0.004 C 
BRANCH   2   3
ATOM      3  C   UNL     1     -10.137  74.680  29.038  1.00  0.00    -0.003 C 
ATOM      4  C   UNL     1      -9.416  74.725  27.691  1.00  0.00     0.004 C 
ENDBRANCH   2   3
ENDBRANCH   1   2
BRANCH   1   5
ATOM      5  C   UNL     1     -11.650  72.706  31.134  1.00  0.00    -0.023 C 
ATOM      6  C   UNL     1     -10.702  72.343  32.005  1.00  0.00     0.042 C 
BRANCH   6   7
ATOM      7  C   UNL     1     -10.877  72.476  33.464  1.00  0.00     0.152 C 
ATOM      8  O   UNL     1     -10.203  71.768  34.261  1.00  0.00    -0.295 OA
ATOM      9  C   UNL     1     -11.863  73.461  34.004  1.00  0.00     0.093 C 
ENDBRANCH   6   7
ENDBRANCH   1   5
TORSDOF 4
ENDMDL
MODEL 5
REMARK VINA RESULT:    -4.481      2.196      4.951
REMARK INTER + INTRA:          -5.722
REMARK INTER:                  -5.496
REMARK INTRA:                  -0.227
REMARK UNBOUND:                -0.193
REMARK SMILES CCCCC=CC(C)=O
REMARK SMILES IDX 4 1 3 2 2 3 1 4 5 5 6 6 7 7 9 8 8 9
REMARK H PARENT
REMARK Flexibility Score: inf
ROOT
ATOM      1  C   UNL     1     -11.474  72.756  29.415  1.00  0.00     0.027 C 
ENDROOT
BRANCH   1   2
ATOM      2  C   UNL     1     -11.510  74.279  29.218  1.00  0.00     0.004 C 
BRANCH   2   3
ATOM      3  C   UNL     1     -10.156  74.845  28.762  1.00  0.00    -0.003 C 
ATOM      4  C   UNL     1      -9.405  73.896  27.828  1.00  0.00     0.004 C 
ENDBRANCH   2   3
ENDBRANCH   1   2
BRANCH   1   5
ATOM      5  C   UNL     1     -11.551  72.397  30.871  1.00  0.00    -0.023 C 
ATOM      6  C   UNL     1     -11.398  73.320  31.827  1.00  0.00     0.042 C 
BRANCH   6   7
ATOM      7  C   UNL     1     -11.482  72.991  33.263  1.00  0.00     0.152 C 
ATOM      8  O   UNL     1     -12.369  73.512  33.992  1.00  0.00    -0.295 OA
ATOM      9  C   UNL     1     -10.506  72.029  33.859  1.00  0.00     0.093 C 
ENDBRANCH   6   7
ENDBRANCH   1   5
TORSDOF 4
ENDMDL
MODEL 6
REMARK VINA RESULT:    -4.434      3.133      5.678
REMARK INTER + INTRA:          -5.664
REMARK INTER:                  -5.492
REMARK INTRA:                  -0.172
REMARK UNBOUND:                -0.193
REMARK SMILES CCCCC=CC(C)=O
REMARK SMILES IDX 4 1 3 2 2 3 1 4 5 5 6 6 7 7 9 8 8 9
REMARK H PARENT
REMARK Flexibility Score: inf
ROOT
ATOM      1  C   UNL     1     -11.554  73.163  32.201  1.00  0.00     0.027 C 
ENDROOT
BRANCH   1   2
ATOM      2  C   UNL     1     -10.936  74.490  31.734  1.00  0.00     0.004 C 
BRANCH   2   3
ATOM      3  C   UNL     1     -10.969  74.648  30.206  1.00  0.00    -0.003 C 
ATOM      4  C   UNL     1     -11.939  73.677  29.533  1.00  0.00     0.004 C 
ENDBRANCH   2   3
ENDBRANCH   1   2
BRANCH   1   5
ATOM      5  C   UNL     1     -11.524  73.051  33.699  1.00  0.00    -0.023 C 
ATOM      6  C   UNL     1     -10.494  72.485  34.337  1.00  0.00     0.042 C 
BRANCH   6   7
ATOM      7  C   UNL     1     -10.439  72.377  35.807  1.00  0.00     0.152 C 
ATOM      8  O   UNL     1      -9.552  71.677  36.369  1.00  0.00    -0.295 OA
ATOM      9  C   UNL     1     -11.443  73.105  36.640  1.00  0.00     0.093 C 
ENDBRANCH   6   7
ENDBRANCH   1   5
TORSDOF 4
ENDMDL
MODEL 7
REMARK VINA RESULT:    -4.411      3.153      4.501
REMARK INTER + INTRA:          -5.636
REMARK INTER:                  -5.381
REMARK INTRA:                  -0.255
REMARK UNBOUND:                -0.193
REMARK SMILES CCCCC=CC(C)=O
REMARK SMILES IDX 4 1 3 2 2 3 1 4 5 5 6 6 7 7 9 8 8 9
REMARK H PARENT
REMARK Flexibility Score: inf
ROOT
ATOM      1  C   UNL     1      -9.430  74.077  28.580  1.00  0.00     0.027 C 
ENDROOT
BRANCH   1   2
ATOM      2  C   UNL     1     -10.473  74.630  29.564  1.00  0.00     0.004 C 
BRANCH   2   3
ATOM      3  C   UNL     1     -11.792  73.844  29.526  1.00  0.00    -0.003 C 
ATOM      4  C   UNL     1     -11.618  72.380  29.929  1.00  0.00     0.004 C 
ENDBRANCH   2   3
ENDBRANCH   1   2
BRANCH   1   5
ATOM      5  C   UNL     1      -9.817  74.373  27.160  1.00  0.00    -0.023 C 
ATOM      6  C   UNL     1      -9.778  73.428  26.214  1.00  0.00     0.042 C 
BRANCH   6   7
ATOM      7  C   UNL     1     -10.166  73.693  24.815  1.00  0.00     0.152 C 
ATOM      8  O   UNL     1     -11.156  73.107  24.299  1.00  0.00    -0.295 OA
ATOM      9  C   UNL     1      -9.378  74.668  24.002  1.00  0.00     0.093 C 
ENDBRANCH   6   7
ENDBRANCH   1   5
TORSDOF 4
ENDMDL
MODEL 8
REMARK VINA RESULT:    -4.333      1.516      2.062
REMARK INTER + INTRA:          -5.539
REMARK INTER:                  -5.411
REMARK INTRA:                  -0.128
REMARK UNBOUND:                -0.193
REMARK SMILES CCCCC=CC(C)=O
REMARK SMILES IDX 4 1 3 2 2 3 1 4 5 5 6 6 7 7 9 8 8 9
REMARK H PARENT
REMARK Flexibility Score: inf
ROOT
ATOM      1  C   UNL     1     -11.625  72.647  30.777  1.00  0.00     0.027 C 
ENDROOT
BRANCH   1   2
ATOM      2  C   UNL     1     -11.279  73.536  31.981  1.00  0.00     0.004 C 
BRANCH   2   3
ATOM      3  C   UNL     1     -11.676  72.895  33.319  1.00  0.00    -0.003 C 
ATOM      4  C   UNL     1     -10.523  72.136  33.975  1.00  0.00     0.004 C 
ENDBRANCH   2   3
ENDBRANCH   1   2
BRANCH   1   5
ATOM      5  C   UNL     1     -11.302  73.338  29.483  1.00  0.00    -0.023 C 
ATOM      6  C   UNL     1     -10.041  73.620  29.138  1.00  0.00     0.042 C 
BRANCH   6   7
ATOM      7  C   UNL     1      -9.700  74.287  27.867  1.00  0.00     0.152 C 
ATOM      8  O   UNL     1     -10.066  75.473  27.643  1.00  0.00    -0.295 OA
ATOM      9  C   UNL     1      -8.910  73.551  26.835  1.00  0.00     0.093 C 
ENDBRANCH   6   7
ENDBRANCH   1   5
TORSDOF 4
ENDMDL
MODEL 9
REMARK VINA RESULT:    -4.296      2.560      3.547
REMARK INTER + INTRA:          -5.494
REMARK INTER:                  -5.221
REMARK INTRA:                  -0.273
REMARK UNBOUND:                -0.193
REMARK SMILES CCCCC=CC(C)=O
REMARK SMILES IDX 4 1 3 2 2 3 1 4 5 5 6 6 7 7 9 8 8 9
REMARK H PARENT
REMARK Flexibility Score: inf
ROOT
ATOM      1  C   UNL     1     -12.035  74.221  29.499  1.00  0.00     0.027 C 
ENDROOT
BRANCH   1   2
ATOM      2  C   UNL     1     -11.333  73.799  30.799  1.00  0.00     0.004 C 
BRANCH   2   3
ATOM      3  C   UNL     1     -10.631  74.973  31.497  1.00  0.00    -0.003 C 
ATOM      4  C   UNL     1      -9.123  74.990  31.250  1.00  0.00     0.004 C 
ENDBRANCH   2   3
ENDBRANCH   1   2
BRANCH   1   5
ATOM      5  C   UNL     1     -11.357  73.623  28.300  1.00  0.00    -0.023 C 
ATOM      6  C   UNL     1     -10.279  74.193  27.751  1.00  0.00     0.042 C 
BRANCH   6   7
ATOM      7  C   UNL     1      -9.591  73.615  26.580  1.00  0.00     0.152 C 
ATOM      8  O   UNL     1      -8.410  73.183  26.676  1.00  0.00    -0.295 OA
ATOM      9  C   UNL     1     -10.301  73.539  25.268  1.00  0.00     0.093 C 
ENDBRANCH   6   7
ENDBRANCH   1   5
TORSDOF 4
ENDMDL
