MODEL 1
REMARK VINA RESULT:    -5.786      0.000      0.000
REMARK INTER + INTRA:         -18.775
REMARK INTER:                 -15.257
REMARK INTRA:                  -3.518
REMARK UNBOUND:                -3.518
REMARK SMILES CCCCCCCCCCCCCCCCCCCCCCCCCCCCCC(=O)[O-]
REMARK SMILES IDX 16 1 17 2 18 3 19 4 20 5 21 6 22 7 23 8 24 9 25 10 26 11
REMARK SMILES IDX 27 12 28 13 29 14 30 15 31 16 32 17 15 18 14 19 13 20 12 21
REMARK SMILES IDX 11 22 10 23 9 24 8 25 7 26 6 27 5 28 4 29 3 30 2 31 1 32
REMARK H PARENT
REMARK Flexibility Score: inf
ROOT
ATOM      1  C   UNL     1      88.927 324.294 201.182  1.00  0.00     0.000 C 
ENDROOT
BRANCH   1   2
ATOM      2  C   UNL     1      87.692 325.060 201.675  1.00  0.00     0.000 C 
BRANCH   2   3
ATOM      3  C   UNL     1      86.733 324.122 202.420  1.00  0.00     0.000 C 
BRANCH   3   4
ATOM      4  C   UNL     1      87.485 322.921 203.016  1.00  0.00     0.000 C 
BRANCH   4   5
ATOM      5  C   UNL     1      87.458 322.927 204.555  1.00  0.00     0.000 C 
BRANCH   5   6
ATOM      6  C   UNL     1      86.301 323.775 205.116  1.00  0.00     0.000 C 
BRANCH   6   7
ATOM      7  C   UNL     1      86.786 324.931 206.018  1.00  0.00     0.000 C 
BRANCH   7   8
ATOM      8  C   UNL     1      88.318 325.085 206.083  1.00  0.00     0.000 C 
BRANCH   8   9
ATOM      9  C   UNL     1      88.830 326.420 206.658  1.00  0.00     0.000 C 
BRANCH   9  10
ATOM     10  C   UNL     1      89.626 327.295 205.671  1.00  0.00     0.000 C 
BRANCH  10  11
ATOM     11  C   UNL     1      89.231 327.062 204.206  1.00  0.00     0.000 C 
BRANCH  11  12
ATOM     12  C   UNL     1      90.446 327.227 203.282  1.00  0.00     0.000 C 
BRANCH  12  13
ATOM     13  C   UNL     1      91.693 326.493 203.800  1.00  0.00     0.006 C 
BRANCH  13  14
ATOM     14  C   UNL     1      91.631 324.978 203.568  1.00  0.00     0.053 C 
BRANCH  14  15
ATOM     15  C   UNL     1      92.169 324.238 204.753  1.00  0.00     0.041 C 
ATOM     16  O   UNL     1      91.820 324.565 205.920  1.00  0.00    -0.550 OA
ATOM     17  O   UNL     1      93.041 323.172 204.569  1.00  0.00    -0.550 OA
ENDBRANCH  14  15
ENDBRANCH  13  14
ENDBRANCH  12  13
ENDBRANCH  11  12
ENDBRANCH  10  11
ENDBRANCH   9  10
ENDBRANCH   8   9
ENDBRANCH   7   8
ENDBRANCH   6   7
ENDBRANCH   5   6
ENDBRANCH   4   5
ENDBRANCH   3   4
ENDBRANCH   2   3
ENDBRANCH   1   2
BRANCH   1  18
ATOM     18  C   UNL     1      89.664 325.015 200.039  1.00  0.00     0.000 C 
BRANCH  18  19
ATOM     19  C   UNL     1      89.282 326.497 199.845  1.00  0.00     0.000 C 
BRANCH  19  20
ATOM     20  C   UNL     1      88.895 326.894 198.410  1.00  0.00     0.000 C 
BRANCH  20  21
ATOM     21  C   UNL     1      88.645 325.721 197.441  1.00  0.00     0.000 C 
BRANCH  21  22
ATOM     22  C   UNL     1      88.353 326.147 195.988  1.00  0.00     0.000 C 
BRANCH  22  23
ATOM     23  C   UNL     1      86.849 326.228 195.672  1.00  0.00     0.000 C 
BRANCH  23  24
ATOM     24  C   UNL     1      86.547 326.137 194.167  1.00  0.00    -0.000 C 
BRANCH  24  25
ATOM     25  C   UNL     1      87.783 325.826 193.296  1.00  0.00    -0.000 C 
BRANCH  25  26
ATOM     26  C   UNL     1      87.509 324.715 192.270  1.00  0.00    -0.000 C 
BRANCH  26  27
ATOM     27  C   UNL     1      88.465 323.527 192.465  1.00  0.00    -0.000 C 
BRANCH  27  28
ATOM     28  C   UNL     1      88.272 322.428 191.407  1.00  0.00    -0.000 C 
BRANCH  28  29
ATOM     29  C   UNL     1      87.488 322.913 190.177  1.00  0.00    -0.000 C 
BRANCH  29  30
ATOM     30  C   UNL     1      88.358 322.853 188.913  1.00  0.00    -0.000 C 
BRANCH  30  31
ATOM     31  C   UNL     1      89.647 323.681 189.042  1.00  0.00    -0.003 C 
ATOM     32  C   UNL     1      90.884 322.929 188.545  1.00  0.00     0.004 C 
ENDBRANCH  30  31
ENDBRANCH  29  30
ENDBRANCH  28  29
ENDBRANCH  27  28
ENDBRANCH  26  27
ENDBRANCH  25  26
ENDBRANCH  24  25
ENDBRANCH  23  24
ENDBRANCH  22  23
ENDBRANCH  21  22
ENDBRANCH  20  21
ENDBRANCH  19  20
ENDBRANCH  18  19
ENDBRANCH   1  18
TORSDOF 28
ENDMDL
MODEL 2
REMARK VINA RESULT:    -5.718      2.645     10.029
REMARK INTER + INTRA:         -18.596
REMARK INTER:                 -13.802
REMARK INTRA:                  -4.794
REMARK UNBOUND:                -3.518
REMARK SMILES CCCCCCCCCCCCCCCCCCCCCCCCCCCCCC(=O)[O-]
REMARK SMILES IDX 16 1 17 2 18 3 19 4 20 5 21 6 22 7 23 8 24 9 25 10 26 11
REMARK SMILES IDX 27 12 28 13 29 14 30 15 31 16 32 17 15 18 14 19 13 20 12 21
REMARK SMILES IDX 11 22 10 23 9 24 8 25 7 26 6 27 5 28 4 29 3 30 2 31 1 32
REMARK H PARENT
REMARK Flexibility Score: inf
ROOT
ATOM      1  C   UNL     1      89.037 325.877 199.173  1.00  0.00     0.000 C 
ENDROOT
BRANCH   1   2
ATOM      2  C   UNL     1      88.845 326.885 198.032  1.00  0.00     0.000 C 
BRANCH   2   3
ATOM      3  C   UNL     1      88.096 326.241 196.858  1.00  0.00     0.000 C 
BRANCH   3   4
ATOM      4  C   UNL     1      88.823 326.499 195.528  1.00  0.00     0.000 C 
BRANCH   4   5
ATOM      5  C   UNL     1      87.844 326.821 194.386  1.00  0.00     0.000 C 
BRANCH   5   6
ATOM      6  C   UNL     1      86.562 325.969 194.459  1.00  0.00     0.000 C 
BRANCH   6   7
ATOM      7  C   UNL     1      86.403 325.017 193.253  1.00  0.00     0.000 C 
BRANCH   7   8
ATOM      8  C   UNL     1      87.674 324.867 192.393  1.00  0.00     0.000 C 
BRANCH   8   9
ATOM      9  C   UNL     1      88.385 323.503 192.487  1.00  0.00     0.000 C 
BRANCH   9  10
ATOM     10  C   UNL     1      87.950 322.618 193.669  1.00  0.00     0.000 C 
BRANCH  10  11
ATOM     11  C   UNL     1      88.719 322.922 194.964  1.00  0.00     0.000 C 
BRANCH  11  12
ATOM     12  C   UNL     1      87.854 322.616 196.194  1.00  0.00     0.000 C 
BRANCH  12  13
ATOM     13  C   UNL     1      88.643 322.681 197.511  1.00  0.00     0.006 C 
BRANCH  13  14
ATOM     14  C   UNL     1      90.157 322.801 197.291  1.00  0.00     0.053 C 
BRANCH  14  15
ATOM     15  C   UNL     1      90.813 321.458 197.377  1.00  0.00     0.041 C 
ATOM     16  O   UNL     1      90.626 320.722 198.384  1.00  0.00    -0.550 OA
ATOM     17  O   UNL     1      91.616 321.009 196.336  1.00  0.00    -0.550 OA
ENDBRANCH  14  15
ENDBRANCH  13  14
ENDBRANCH  12  13
ENDBRANCH  11  12
ENDBRANCH  10  11
ENDBRANCH   9  10
ENDBRANCH   8   9
ENDBRANCH   7   8
ENDBRANCH   6   7
ENDBRANCH   5   6
ENDBRANCH   4   5
ENDBRANCH   3   4
ENDBRANCH   2   3
ENDBRANCH   1   2
BRANCH   1  18
ATOM     18  C   UNL     1      89.622 326.515 200.446  1.00  0.00     0.000 C 
BRANCH  18  19
ATOM     19  C   UNL     1      88.702 326.469 201.683  1.00  0.00     0.000 C 
BRANCH  19  20
ATOM     20  C   UNL     1      89.418 326.250 203.028  1.00  0.00     0.000 C 
BRANCH  20  21
ATOM     21  C   UNL     1      89.245 327.379 204.064  1.00  0.00     0.000 C 
BRANCH  21  22
ATOM     22  C   UNL     1      89.148 326.893 205.524  1.00  0.00     0.000 C 
BRANCH  22  23
ATOM     23  C   UNL     1      88.699 325.426 205.643  1.00  0.00     0.000 C 
BRANCH  23  24
ATOM     24  C   UNL     1      87.241 325.281 206.108  1.00  0.00    -0.000 C 
BRANCH  24  25
ATOM     25  C   UNL     1      86.427 324.242 205.307  1.00  0.00    -0.000 C 
BRANCH  25  26
ATOM     26  C   UNL     1      87.126 322.875 205.246  1.00  0.00    -0.000 C 
BRANCH  26  27
ATOM     27  C   UNL     1      86.978 322.233 203.857  1.00  0.00    -0.000 C 
BRANCH  27  28
ATOM     28  C   UNL     1      87.114 323.253 202.713  1.00  0.00    -0.000 C 
BRANCH  28  29
ATOM     29  C   UNL     1      88.013 322.754 201.571  1.00  0.00    -0.000 C 
BRANCH  29  30
ATOM     30  C   UNL     1      89.466 322.596 202.047  1.00  0.00    -0.000 C 
BRANCH  30  31
ATOM     31  C   UNL     1      90.488 323.024 200.981  1.00  0.00    -0.003 C 
ATOM     32  C   UNL     1      91.745 323.652 201.587  1.00  0.00     0.004 C 
ENDBRANCH  30  31
ENDBRANCH  29  30
ENDBRANCH  28  29
ENDBRANCH  27  28
ENDBRANCH  26  27
ENDBRANCH  25  26
ENDBRANCH  24  25
ENDBRANCH  23  24
ENDBRANCH  22  23
ENDBRANCH  21  22
ENDBRANCH  20  21
ENDBRANCH  19  20
ENDBRANCH  18  19
ENDBRANCH   1  18
TORSDOF 28
ENDMDL
MODEL 3
REMARK VINA RESULT:    -5.640      2.043      4.992
REMARK INTER + INTRA:         -18.392
REMARK INTER:                 -14.051
REMARK INTRA:                  -4.340
REMARK UNBOUND:                -3.518
REMARK SMILES CCCCCCCCCCCCCCCCCCCCCCCCCCCCCC(=O)[O-]
REMARK SMILES IDX 16 1 17 2 18 3 19 4 20 5 21 6 22 7 23 8 24 9 25 10 26 11
REMARK SMILES IDX 27 12 28 13 29 14 30 15 31 16 32 17 15 18 14 19 13 20 12 21
REMARK SMILES IDX 11 22 10 23 9 24 8 25 7 26 6 27 5 28 4 29 3 30 2 31 1 32
REMARK H PARENT
REMARK Flexibility Score: inf
ROOT
ATOM      1  C   UNL     1      88.913 325.921 198.475  1.00  0.00     0.000 C 
ENDROOT
BRANCH   1   2
ATOM      2  C   UNL     1      89.329 326.871 199.607  1.00  0.00     0.000 C 
BRANCH   2   3
ATOM      3  C   UNL     1      89.473 326.108 200.929  1.00  0.00     0.000 C 
BRANCH   3   4
ATOM      4  C   UNL     1      88.097 325.763 201.522  1.00  0.00     0.000 C 
BRANCH   4   5
ATOM      5  C   UNL     1      88.038 324.317 202.046  1.00  0.00     0.000 C 
BRANCH   5   6
ATOM      6  C   UNL     1      89.439 323.736 202.313  1.00  0.00     0.000 C 
BRANCH   6   7
ATOM      7  C   UNL     1      89.541 323.014 203.675  1.00  0.00     0.000 C 
BRANCH   7   8
ATOM      8  C   UNL     1      88.228 322.352 204.140  1.00  0.00     0.000 C 
BRANCH   8   9
ATOM      9  C   UNL     1      87.674 322.848 205.490  1.00  0.00     0.000 C 
BRANCH   9  10
ATOM     10  C   UNL     1      86.538 323.884 205.390  1.00  0.00     0.000 C 
BRANCH  10  11
ATOM     11  C   UNL     1      86.883 325.222 206.061  1.00  0.00     0.000 C 
BRANCH  11  12
ATOM     12  C   UNL     1      88.389 325.316 206.345  1.00  0.00     0.000 C 
BRANCH  12  13
ATOM     13  C   UNL     1      88.930 326.749 206.230  1.00  0.00     0.006 C 
BRANCH  13  14
ATOM     14  C   UNL     1      89.282 327.138 204.788  1.00  0.00     0.053 C 
BRANCH  14  15
ATOM     15  C   UNL     1      90.752 327.385 204.649  1.00  0.00     0.041 C 
ATOM     16  O   UNL     1      91.468 327.557 205.673  1.00  0.00    -0.550 OA
ATOM     17  O   UNL     1      91.337 327.404 203.389  1.00  0.00    -0.550 OA
ENDBRANCH  14  15
ENDBRANCH  13  14
ENDBRANCH  12  13
ENDBRANCH  11  12
ENDBRANCH  10  11
ENDBRANCH   9  10
ENDBRANCH   8   9
ENDBRANCH   7   8
ENDBRANCH   6   7
ENDBRANCH   5   6
ENDBRANCH   4   5
ENDBRANCH   3   4
ENDBRANCH   2   3
ENDBRANCH   1   2
BRANCH   1  18
ATOM     18  C   UNL     1      88.563 326.660 197.170  1.00  0.00     0.000 C 
BRANCH  18  19
ATOM     19  C   UNL     1      88.069 325.760 196.019  1.00  0.00     0.000 C 
BRANCH  19  20
ATOM     20  C   UNL     1      86.670 326.098 195.473  1.00  0.00     0.000 C 
BRANCH  20  21
ATOM     21  C   UNL     1      86.521 326.027 193.940  1.00  0.00     0.000 C 
BRANCH  21  22
ATOM     22  C   UNL     1      87.844 325.794 193.183  1.00  0.00     0.000 C 
BRANCH  22  23
ATOM     23  C   UNL     1      87.762 324.643 192.165  1.00  0.00     0.000 C 
BRANCH  23  24
ATOM     24  C   UNL     1      86.564 323.710 192.410  1.00  0.00    -0.000 C 
BRANCH  24  25
ATOM     25  C   UNL     1      86.947 322.344 193.019  1.00  0.00    -0.000 C 
BRANCH  25  26
ATOM     26  C   UNL     1      87.290 322.447 194.513  1.00  0.00    -0.000 C 
BRANCH  26  27
ATOM     27  C   UNL     1      88.798 322.269 194.753  1.00  0.00    -0.000 C 
BRANCH  27  28
ATOM     28  C   UNL     1      89.152 322.133 196.244  1.00  0.00    -0.000 C 
BRANCH  28  29
ATOM     29  C   UNL     1      87.912 322.083 197.150  1.00  0.00    -0.000 C 
BRANCH  29  30
ATOM     30  C   UNL     1      88.243 322.597 198.560  1.00  0.00    -0.000 C 
BRANCH  30  31
ATOM     31  C   UNL     1      87.982 321.545 199.650  1.00  0.00    -0.003 C 
ATOM     32  C   UNL     1      86.515 321.493 200.082  1.00  0.00     0.004 C 
ENDBRANCH  30  31
ENDBRANCH  29  30
ENDBRANCH  28  29
ENDBRANCH  27  28
ENDBRANCH  26  27
ENDBRANCH  25  26
ENDBRANCH  24  25
ENDBRANCH  23  24
ENDBRANCH  22  23
ENDBRANCH  21  22
ENDBRANCH  20  21
ENDBRANCH  19  20
ENDBRANCH  18  19
ENDBRANCH   1  18
TORSDOF 28
ENDMDL
MODEL 4
REMARK VINA RESULT:    -5.627      1.567      2.167
REMARK INTER + INTRA:         -18.357
REMARK INTER:                 -15.108
REMARK INTRA:                  -3.249
REMARK UNBOUND:                -3.518
REMARK SMILES CCCCCCCCCCCCCCCCCCCCCCCCCCCCCC(=O)[O-]
REMARK SMILES IDX 16 1 17 2 18 3 19 4 20 5 21 6 22 7 23 8 24 9 25 10 26 11
REMARK SMILES IDX 27 12 28 13 29 14 30 15 31 16 32 17 15 18 14 19 13 20 12 21
REMARK SMILES IDX 11 22 10 23 9 24 8 25 7 26 6 27 5 28 4 29 3 30 2 31 1 32
REMARK H PARENT
REMARK Flexibility Score: inf
ROOT
ATOM      1  C   UNL     1      88.921 325.054 202.459  1.00  0.00     0.000 C 
ENDROOT
BRANCH   1   2
ATOM      2  C   UNL     1      87.950 323.991 201.928  1.00  0.00     0.000 C 
BRANCH   2   3
ATOM      3  C   UNL     1      86.739 323.849 202.857  1.00  0.00     0.000 C 
BRANCH   3   4
ATOM      4  C   UNL     1      86.992 322.785 203.938  1.00  0.00     0.000 C 
BRANCH   4   5
ATOM      5  C   UNL     1      86.530 323.252 205.330  1.00  0.00     0.000 C 
BRANCH   5   6
ATOM      6  C   UNL     1      87.047 324.662 205.674  1.00  0.00     0.000 C 
BRANCH   6   7
ATOM      7  C   UNL     1      88.516 324.664 206.149  1.00  0.00     0.000 C 
BRANCH   7   8
ATOM      8  C   UNL     1      89.010 326.027 206.676  1.00  0.00     0.000 C 
BRANCH   8   9
ATOM      9  C   UNL     1      88.993 327.182 205.655  1.00  0.00     0.000 C 
BRANCH   9  10
ATOM     10  C   UNL     1      90.314 327.404 204.896  1.00  0.00     0.000 C 
BRANCH  10  11
ATOM     11  C   UNL     1      91.538 326.856 205.644  1.00  0.00     0.000 C 
BRANCH  11  12
ATOM     12  C   UNL     1      92.738 326.718 204.696  1.00  0.00     0.000 C 
BRANCH  12  13
ATOM     13  C   UNL     1      92.321 326.485 203.236  1.00  0.00     0.006 C 
BRANCH  13  14
ATOM     14  C   UNL     1      92.627 325.062 202.750  1.00  0.00     0.053 C 
BRANCH  14  15
ATOM     15  C   UNL     1      93.685 325.080 201.691  1.00  0.00     0.041 C 
ATOM     16  O   UNL     1      94.765 325.703 201.880  1.00  0.00    -0.550 OA
ATOM     17  O   UNL     1      93.488 324.390 200.501  1.00  0.00    -0.550 OA
ENDBRANCH  14  15
ENDBRANCH  13  14
ENDBRANCH  12  13
ENDBRANCH  11  12
ENDBRANCH  10  11
ENDBRANCH   9  10
ENDBRANCH   8   9
ENDBRANCH   7   8
ENDBRANCH   6   7
ENDBRANCH   5   6
ENDBRANCH   4   5
ENDBRANCH   3   4
ENDBRANCH   2   3
ENDBRANCH   1   2
BRANCH   1  18
ATOM     18  C   UNL     1      88.836 326.384 201.687  1.00  0.00     0.000 C 
BRANCH  18  19
ATOM     19  C   UNL     1      89.776 326.495 200.468  1.00  0.00     0.000 C 
BRANCH  19  20
ATOM     20  C   UNL     1      89.215 325.927 199.152  1.00  0.00     0.000 C 
BRANCH  20  21
ATOM     21  C   UNL     1      88.814 326.975 198.095  1.00  0.00     0.000 C 
BRANCH  21  22
ATOM     22  C   UNL     1      88.604 326.402 196.679  1.00  0.00     0.000 C 
BRANCH  22  23
ATOM     23  C   UNL     1      88.489 324.868 196.660  1.00  0.00     0.000 C 
BRANCH  23  24
ATOM     24  C   UNL     1      87.576 324.349 195.536  1.00  0.00    -0.000 C 
BRANCH  24  25
ATOM     25  C   UNL     1      86.451 325.329 195.138  1.00  0.00    -0.000 C 
BRANCH  25  26
ATOM     26  C   UNL     1      86.368 325.536 193.618  1.00  0.00    -0.000 C 
BRANCH  26  27
ATOM     27  C   UNL     1      87.740 325.339 192.952  1.00  0.00    -0.000 C 
BRANCH  27  28
ATOM     28  C   UNL     1      87.715 324.274 191.842  1.00  0.00    -0.000 C 
BRANCH  28  29
ATOM     29  C   UNL     1      88.560 323.037 192.182  1.00  0.00    -0.000 C 
BRANCH  29  30
ATOM     30  C   UNL     1      89.038 322.332 190.903  1.00  0.00    -0.000 C 
BRANCH  30  31
ATOM     31  C   UNL     1      88.797 323.171 189.639  1.00  0.00    -0.003 C 
ATOM     32  C   UNL     1      87.693 322.595 188.749  1.00  0.00     0.004 C 
ENDBRANCH  30  31
ENDBRANCH  29  30
ENDBRANCH  28  29
ENDBRANCH  27  28
ENDBRANCH  26  27
ENDBRANCH  25  26
ENDBRANCH  24  25
ENDBRANCH  23  24
ENDBRANCH  22  23
ENDBRANCH  21  22
ENDBRANCH  20  21
ENDBRANCH  19  20
ENDBRANCH  18  19
ENDBRANCH   1  18
TORSDOF 28
ENDMDL
MODEL 5
REMARK VINA RESULT:    -5.616      1.625      2.497
REMARK INTER + INTRA:         -18.327
REMARK INTER:                 -14.541
REMARK INTRA:                  -3.786
REMARK UNBOUND:                -3.518
REMARK SMILES CCCCCCCCCCCCCCCCCCCCCCCCCCCCCC(=O)[O-]
REMARK SMILES IDX 16 1 17 2 18 3 19 4 20 5 21 6 22 7 23 8 24 9 25 10 26 11
REMARK SMILES IDX 27 12 28 13 29 14 30 15 31 16 32 17 15 18 14 19 13 20 12 21
REMARK SMILES IDX 11 22 10 23 9 24 8 25 7 26 6 27 5 28 4 29 3 30 2 31 1 32
REMARK H PARENT
REMARK Flexibility Score: inf
ROOT
ATOM      1  C   UNL     1      88.390 324.754 202.284  1.00  0.00     0.000 C 
ENDROOT
BRANCH   1   2
ATOM      2  C   UNL     1      86.979 324.162 202.165  1.00  0.00     0.000 C 
BRANCH   2   3
ATOM      3  C   UNL     1      87.021 322.789 201.482  1.00  0.00     0.000 C 
BRANCH   3   4
ATOM      4  C   UNL     1      87.640 321.728 202.407  1.00  0.00     0.000 C 
BRANCH   4   5
ATOM      5  C   UNL     1      86.981 321.717 203.797  1.00  0.00     0.000 C 
BRANCH   5   6
ATOM      6  C   UNL     1      88.008 321.893 204.932  1.00  0.00     0.000 C 
BRANCH   6   7
ATOM      7  C   UNL     1      87.470 322.743 206.103  1.00  0.00     0.000 C 
BRANCH   7   8
ATOM      8  C   UNL     1      86.638 323.967 205.668  1.00  0.00     0.000 C 
BRANCH   8   9
ATOM      9  C   UNL     1      87.346 325.331 205.787  1.00  0.00     0.000 C 
BRANCH   9  10
ATOM     10  C   UNL     1      88.530 325.370 206.771  1.00  0.00     0.000 C 
BRANCH  10  11
ATOM     11  C   UNL     1      89.439 326.591 206.571  1.00  0.00     0.000 C 
BRANCH  11  12
ATOM     12  C   UNL     1      89.266 327.172 205.161  1.00  0.00     0.000 C 
BRANCH  12  13
ATOM     13  C   UNL     1      90.604 327.502 204.482  1.00  0.00     0.006 C 
BRANCH  13  14
ATOM     14  C   UNL     1      91.415 326.249 204.126  1.00  0.00     0.053 C 
BRANCH  14  15
ATOM     15  C   UNL     1      92.729 326.624 203.515  1.00  0.00     0.041 C 
ATOM     16  O   UNL     1      93.798 326.482 204.169  1.00  0.00    -0.550 OA
ATOM     17  O   UNL     1      92.778 327.112 202.215  1.00  0.00    -0.550 OA
ENDBRANCH  14  15
ENDBRANCH  13  14
ENDBRANCH  12  13
ENDBRANCH  11  12
ENDBRANCH  10  11
ENDBRANCH   9  10
ENDBRANCH   8   9
ENDBRANCH   7   8
ENDBRANCH   6   7
ENDBRANCH   5   6
ENDBRANCH   4   5
ENDBRANCH   3   4
ENDBRANCH   2   3
ENDBRANCH   1   2
BRANCH   1  18
ATOM     18  C   UNL     1      88.499 326.169 201.688  1.00  0.00     0.000 C 
BRANCH  18  19
ATOM     19  C   UNL     1      89.635 326.361 200.662  1.00  0.00     0.000 C 
BRANCH  19  20
ATOM     20  C   UNL     1      89.235 326.150 199.191  1.00  0.00     0.000 C 
BRANCH  20  21
ATOM     21  C   UNL     1      89.260 324.689 198.700  1.00  0.00     0.000 C 
BRANCH  21  22
ATOM     22  C   UNL     1      88.877 324.510 197.217  1.00  0.00     0.000 C 
BRANCH  22  23
ATOM     23  C   UNL     1      88.506 325.834 196.525  1.00  0.00     0.000 C 
BRANCH  23  24
ATOM     24  C   UNL     1      87.097 325.815 195.910  1.00  0.00    -0.000 C 
BRANCH  24  25
ATOM     25  C   UNL     1      86.966 326.649 194.617  1.00  0.00    -0.000 C 
BRANCH  25  26
ATOM     26  C   UNL     1      87.283 325.826 193.358  1.00  0.00    -0.000 C 
BRANCH  26  27
ATOM     27  C   UNL     1      86.086 324.954 192.944  1.00  0.00    -0.000 C 
BRANCH  27  28
ATOM     28  C   UNL     1      86.468 323.857 191.937  1.00  0.00    -0.000 C 
BRANCH  28  29
ATOM     29  C   UNL     1      87.931 323.954 191.474  1.00  0.00    -0.000 C 
BRANCH  29  30
ATOM     30  C   UNL     1      88.657 322.615 191.670  1.00  0.00    -0.000 C 
BRANCH  30  31
ATOM     31  C   UNL     1      88.203 321.875 192.938  1.00  0.00    -0.003 C 
ATOM     32  C   UNL     1      88.934 322.354 194.195  1.00  0.00     0.004 C 
ENDBRANCH  30  31
ENDBRANCH  29  30
ENDBRANCH  28  29
ENDBRANCH  27  28
ENDBRANCH  26  27
ENDBRANCH  25  26
ENDBRANCH  24  25
ENDBRANCH  23  24
ENDBRANCH  22  23
ENDBRANCH  21  22
ENDBRANCH  20  21
ENDBRANCH  19  20
ENDBRANCH  18  19
ENDBRANCH   1  18
TORSDOF 28
ENDMDL
MODEL 6
REMARK VINA RESULT:    -5.607      4.497     11.520
REMARK INTER + INTRA:         -18.302
REMARK INTER:                 -15.131
REMARK INTRA:                  -3.171
REMARK UNBOUND:                -3.518
REMARK SMILES CCCCCCCCCCCCCCCCCCCCCCCCCCCCCC(=O)[O-]
REMARK SMILES IDX 16 1 17 2 18 3 19 4 20 5 21 6 22 7 23 8 24 9 25 10 26 11
REMARK SMILES IDX 27 12 28 13 29 14 30 15 31 16 32 17 15 18 14 19 13 20 12 21
REMARK SMILES IDX 11 22 10 23 9 24 8 25 7 26 6 27 5 28 4 29 3 30 2 31 1 32
REMARK H PARENT
REMARK Flexibility Score: inf
ROOT
ATOM      1  C   UNL     1      88.559 324.756 201.894  1.00  0.00     0.000 C 
ENDROOT
BRANCH   1   2
ATOM      2  C   UNL     1      88.836 326.150 201.314  1.00  0.00     0.000 C 
BRANCH   2   3
ATOM      3  C   UNL     1      89.252 326.052 199.841  1.00  0.00     0.000 C 
BRANCH   3   4
ATOM      4  C   UNL     1      89.769 324.644 199.503  1.00  0.00     0.000 C 
BRANCH   4   5
ATOM      5  C   UNL     1      88.906 323.952 198.434  1.00  0.00     0.000 C 
BRANCH   5   6
ATOM      6  C   UNL     1      89.264 324.411 197.007  1.00  0.00     0.000 C 
BRANCH   6   7
ATOM      7  C   UNL     1      88.113 325.172 196.314  1.00  0.00     0.000 C 
BRANCH   7   8
ATOM      8  C   UNL     1      88.544 326.482 195.625  1.00  0.00     0.000 C 
BRANCH   8   9
ATOM      9  C   UNL     1      87.938 326.732 194.230  1.00  0.00     0.000 C 
BRANCH   9  10
ATOM     10  C   UNL     1      86.569 326.072 193.983  1.00  0.00     0.000 C 
BRANCH  10  11
ATOM     11  C   UNL     1      86.630 324.920 192.970  1.00  0.00     0.000 C 
BRANCH  11  12
ATOM     12  C   UNL     1      88.067 324.706 192.475  1.00  0.00     0.000 C 
BRANCH  12  13
ATOM     13  C   UNL     1      88.187 323.552 191.468  1.00  0.00     0.006 C 
BRANCH  13  14
ATOM     14  C   UNL     1      86.832 323.123 190.890  1.00  0.00     0.053 C 
BRANCH  14  15
ATOM     15  C   UNL     1      87.015 322.386 189.600  1.00  0.00     0.041 C 
ATOM     16  O   UNL     1      86.275 321.406 189.317  1.00  0.00    -0.550 OA
ATOM     17  O   UNL     1      87.992 322.794 188.699  1.00  0.00    -0.550 OA
ENDBRANCH  14  15
ENDBRANCH  13  14
ENDBRANCH  12  13
ENDBRANCH  11  12
ENDBRANCH  10  11
ENDBRANCH   9  10
ENDBRANCH   8   9
ENDBRANCH   7   8
ENDBRANCH   6   7
ENDBRANCH   5   6
ENDBRANCH   4   5
ENDBRANCH   3   4
ENDBRANCH   2   3
ENDBRANCH   1   2
BRANCH   1  18
ATOM     18  C   UNL     1      87.059 324.412 201.941  1.00  0.00     0.000 C 
BRANCH  18  19
ATOM     19  C   UNL     1      86.731 322.965 202.360  1.00  0.00     0.000 C 
BRANCH  19  20
ATOM     20  C   UNL     1      87.628 322.382 203.466  1.00  0.00     0.000 C 
BRANCH  20  21
ATOM     21  C   UNL     1      87.142 322.619 204.910  1.00  0.00     0.000 C 
BRANCH  21  22
ATOM     22  C   UNL     1      86.201 323.830 205.074  1.00  0.00     0.000 C 
BRANCH  22  23
ATOM     23  C   UNL     1      86.749 324.894 206.041  1.00  0.00     0.000 C 
BRANCH  23  24
ATOM     24  C   UNL     1      88.264 325.113 205.896  1.00  0.00    -0.000 C 
BRANCH  24  25
ATOM     25  C   UNL     1      88.778 326.402 206.573  1.00  0.00    -0.000 C 
BRANCH  25  26
ATOM     26  C   UNL     1      89.594 327.281 205.611  1.00  0.00    -0.000 C 
BRANCH  26  27
ATOM     27  C   UNL     1      91.026 327.494 206.128  1.00  0.00    -0.000 C 
BRANCH  27  28
ATOM     28  C   UNL     1      92.092 326.924 205.177  1.00  0.00    -0.000 C 
BRANCH  28  29
ATOM     29  C   UNL     1      91.489 326.272 203.923  1.00  0.00    -0.000 C 
BRANCH  29  30
ATOM     30  C   UNL     1      92.253 326.701 202.661  1.00  0.00    -0.000 C 
BRANCH  30  31
ATOM     31  C   UNL     1      93.017 325.539 202.007  1.00  0.00    -0.003 C 
ATOM     32  C   UNL     1      92.268 324.208 202.108  1.00  0.00     0.004 C 
ENDBRANCH  30  31
ENDBRANCH  29  30
ENDBRANCH  28  29
ENDBRANCH  27  28
ENDBRANCH  26  27
ENDBRANCH  25  26
ENDBRANCH  24  25
ENDBRANCH  23  24
ENDBRANCH  22  23
ENDBRANCH  21  22
ENDBRANCH  20  21
ENDBRANCH  19  20
ENDBRANCH  18  19
ENDBRANCH   1  18
TORSDOF 28
ENDMDL
MODEL 7
REMARK VINA RESULT:    -5.606      1.875      3.395
REMARK INTER + INTRA:         -18.302
REMARK INTER:                 -14.207
REMARK INTRA:                  -4.095
REMARK UNBOUND:                -3.518
REMARK SMILES CCCCCCCCCCCCCCCCCCCCCCCCCCCCCC(=O)[O-]
REMARK SMILES IDX 16 1 17 2 18 3 19 4 20 5 21 6 22 7 23 8 24 9 25 10 26 11
REMARK SMILES IDX 27 12 28 13 29 14 30 15 31 16 32 17 15 18 14 19 13 20 12 21
REMARK SMILES IDX 11 22 10 23 9 24 8 25 7 26 6 27 5 28 4 29 3 30 2 31 1 32
REMARK H PARENT
REMARK Flexibility Score: inf
ROOT
ATOM      1  C   UNL     1      86.237 323.227 201.862  1.00  0.00     0.000 C 
ENDROOT
BRANCH   1   2
ATOM      2  C   UNL     1      86.622 323.606 203.299  1.00  0.00     0.000 C 
BRANCH   2   3
ATOM      3  C   UNL     1      87.060 322.367 204.089  1.00  0.00     0.000 C 
BRANCH   3   4
ATOM      4  C   UNL     1      87.483 322.741 205.519  1.00  0.00     0.000 C 
BRANCH   4   5
ATOM      5  C   UNL     1      87.300 324.242 205.803  1.00  0.00     0.000 C 
BRANCH   5   6
ATOM      6  C   UNL     1      88.595 324.901 206.317  1.00  0.00     0.000 C 
BRANCH   6   7
ATOM      7  C   UNL     1      88.472 326.433 206.463  1.00  0.00     0.000 C 
BRANCH   7   8
ATOM      8  C   UNL     1      89.236 327.235 205.390  1.00  0.00     0.000 C 
BRANCH   8   9
ATOM      9  C   UNL     1      90.081 326.399 204.409  1.00  0.00     0.000 C 
BRANCH   9  10
ATOM     10  C   UNL     1      90.045 326.874 202.945  1.00  0.00     0.000 C 
BRANCH  10  11
ATOM     11  C   UNL     1      88.764 326.457 202.208  1.00  0.00     0.000 C 
BRANCH  11  12
ATOM     12  C   UNL     1      89.098 325.599 200.979  1.00  0.00     0.000 C 
BRANCH  12  13
ATOM     13  C   UNL     1      90.553 325.762 200.515  1.00  0.00     0.006 C 
BRANCH  13  14
ATOM     14  C   UNL     1      91.229 324.423 200.196  1.00  0.00     0.053 C 
BRANCH  14  15
ATOM     15  C   UNL     1      91.360 323.587 201.431  1.00  0.00     0.041 C 
ATOM     16  O   UNL     1      90.796 322.461 201.499  1.00  0.00    -0.550 OA
ATOM     17  O   UNL     1      92.122 324.042 202.500  1.00  0.00    -0.550 OA
ENDBRANCH  14  15
ENDBRANCH  13  14
ENDBRANCH  12  13
ENDBRANCH  11  12
ENDBRANCH  10  11
ENDBRANCH   9  10
ENDBRANCH   8   9
ENDBRANCH   7   8
ENDBRANCH   6   7
ENDBRANCH   5   6
ENDBRANCH   4   5
ENDBRANCH   3   4
ENDBRANCH   2   3
ENDBRANCH   1   2
BRANCH   1  18
ATOM     18  C   UNL     1      87.221 322.233 201.220  1.00  0.00     0.000 C 
BRANCH  18  19
ATOM     19  C   UNL     1      86.657 321.430 200.030  1.00  0.00     0.000 C 
BRANCH  19  20
ATOM     20  C   UNL     1      87.367 321.664 198.684  1.00  0.00     0.000 C 
BRANCH  20  21
ATOM     21  C   UNL     1      88.460 322.752 198.690  1.00  0.00     0.000 C 
BRANCH  21  22
ATOM     22  C   UNL     1      88.975 323.143 197.290  1.00  0.00     0.000 C 
BRANCH  22  23
ATOM     23  C   UNL     1      89.129 324.663 197.106  1.00  0.00     0.000 C 
BRANCH  23  24
ATOM     24  C   UNL     1      88.050 325.268 196.192  1.00  0.00    -0.000 C 
BRANCH  24  25
ATOM     25  C   UNL     1      88.515 326.519 195.415  1.00  0.00    -0.000 C 
BRANCH  25  26
ATOM     26  C   UNL     1      87.840 326.635 194.039  1.00  0.00    -0.000 C 
BRANCH  26  27
ATOM     27  C   UNL     1      86.533 325.826 193.989  1.00  0.00    -0.000 C 
BRANCH  27  28
ATOM     28  C   UNL     1      86.517 324.793 192.849  1.00  0.00    -0.000 C 
BRANCH  28  29
ATOM     29  C   UNL     1      87.870 324.675 192.129  1.00  0.00    -0.000 C 
BRANCH  29  30
ATOM     30  C   UNL     1      88.401 323.235 192.195  1.00  0.00    -0.000 C 
BRANCH  30  31
ATOM     31  C   UNL     1      88.568 322.731 193.637  1.00  0.00    -0.003 C 
ATOM     32  C   UNL     1      89.284 321.381 193.712  1.00  0.00     0.004 C 
ENDBRANCH  30  31
ENDBRANCH  29  30
ENDBRANCH  28  29
ENDBRANCH  27  28
ENDBRANCH  26  27
ENDBRANCH  25  26
ENDBRANCH  24  25
ENDBRANCH  23  24
ENDBRANCH  22  23
ENDBRANCH  21  22
ENDBRANCH  20  21
ENDBRANCH  19  20
ENDBRANCH  18  19
ENDBRANCH   1  18
TORSDOF 28
ENDMDL
MODEL 8
REMARK VINA RESULT:    -5.592      1.697      3.455
REMARK INTER + INTRA:         -18.264
REMARK INTER:                 -15.067
REMARK INTRA:                  -3.197
REMARK UNBOUND:                -3.518
REMARK SMILES CCCCCCCCCCCCCCCCCCCCCCCCCCCCCC(=O)[O-]
REMARK SMILES IDX 16 1 17 2 18 3 19 4 20 5 21 6 22 7 23 8 24 9 25 10 26 11
REMARK SMILES IDX 27 12 28 13 29 14 30 15 31 16 32 17 15 18 14 19 13 20 12 21
REMARK SMILES IDX 11 22 10 23 9 24 8 25 7 26 6 27 5 28 4 29 3 30 2 31 1 32
REMARK H PARENT
REMARK Flexibility Score: inf
ROOT
ATOM      1  C   UNL     1      89.770 324.664 199.065  1.00  0.00     0.000 C 
ENDROOT
BRANCH   1   2
ATOM      2  C   UNL     1      89.214 325.977 199.632  1.00  0.00     0.000 C 
BRANCH   2   3
ATOM      3  C   UNL     1      90.077 326.473 200.799  1.00  0.00     0.000 C 
BRANCH   3   4
ATOM      4  C   UNL     1      89.263 326.542 202.101  1.00  0.00     0.000 C 
BRANCH   4   5
ATOM      5  C   UNL     1      90.088 327.106 203.271  1.00  0.00     0.000 C 
BRANCH   5   6
ATOM      6  C   UNL     1      89.210 327.462 204.486  1.00  0.00     0.000 C 
BRANCH   6   7
ATOM      7  C   UNL     1      89.929 327.235 205.834  1.00  0.00     0.000 C 
BRANCH   7   8
ATOM      8  C   UNL     1      89.176 326.303 206.805  1.00  0.00     0.000 C 
BRANCH   8   9
ATOM      9  C   UNL     1      87.779 325.847 206.342  1.00  0.00     0.000 C 
BRANCH   9  10
ATOM     10  C   UNL     1      87.689 324.380 205.881  1.00  0.00     0.000 C 
BRANCH  10  11
ATOM     11  C   UNL     1      86.353 324.043 205.202  1.00  0.00     0.000 C 
BRANCH  11  12
ATOM     12  C   UNL     1      86.579 323.166 203.963  1.00  0.00     0.000 C 
BRANCH  12  13
ATOM     13  C   UNL     1      87.102 323.961 202.756  1.00  0.00     0.006 C 
BRANCH  13  14
ATOM     14  C   UNL     1      87.536 323.061 201.593  1.00  0.00     0.053 C 
BRANCH  14  15
ATOM     15  C   UNL     1      88.846 322.402 201.894  1.00  0.00     0.041 C 
ATOM     16  O   UNL     1      88.961 321.149 201.815  1.00  0.00    -0.550 OA
ATOM     17  O   UNL     1      89.949 323.173 202.241  1.00  0.00    -0.550 OA
ENDBRANCH  14  15
ENDBRANCH  13  14
ENDBRANCH  12  13
ENDBRANCH  11  12
ENDBRANCH  10  11
ENDBRANCH   9  10
ENDBRANCH   8   9
ENDBRANCH   7   8
ENDBRANCH   6   7
ENDBRANCH   5   6
ENDBRANCH   4   5
ENDBRANCH   3   4
ENDBRANCH   2   3
ENDBRANCH   1   2
BRANCH   1  18
ATOM     18  C   UNL     1      88.793 323.966 198.100  1.00  0.00     0.000 C 
BRANCH  18  19
ATOM     19  C   UNL     1      88.898 324.411 196.627  1.00  0.00     0.000 C 
BRANCH  19  20
ATOM     20  C   UNL     1      87.953 325.553 196.216  1.00  0.00     0.000 C 
BRANCH  20  21
ATOM     21  C   UNL     1      88.486 326.492 195.115  1.00  0.00     0.000 C 
BRANCH  21  22
ATOM     22  C   UNL     1      87.461 326.825 194.012  1.00  0.00     0.000 C 
BRANCH  22  23
ATOM     23  C   UNL     1      86.244 325.884 194.015  1.00  0.00     0.000 C 
BRANCH  23  24
ATOM     24  C   UNL     1      86.344 324.771 192.958  1.00  0.00    -0.000 C 
BRANCH  24  25
ATOM     25  C   UNL     1      87.751 324.620 192.338  1.00  0.00    -0.000 C 
BRANCH  25  26
ATOM     26  C   UNL     1      88.470 323.353 192.829  1.00  0.00    -0.000 C 
BRANCH  26  27
ATOM     27  C   UNL     1      87.608 322.100 192.605  1.00  0.00    -0.000 C 
BRANCH  27  28
ATOM     28  C   UNL     1      88.387 320.953 191.938  1.00  0.00    -0.000 C 
BRANCH  28  29
ATOM     29  C   UNL     1      89.515 321.451 191.021  1.00  0.00    -0.000 C 
BRANCH  29  30
ATOM     30  C   UNL     1      89.288 320.988 189.573  1.00  0.00    -0.000 C 
BRANCH  30  31
ATOM     31  C   UNL     1      88.776 322.117 188.664  1.00  0.00    -0.003 C 
ATOM     32  C   UNL     1      89.208 323.504 189.145  1.00  0.00     0.004 C 
ENDBRANCH  30  31
ENDBRANCH  29  30
ENDBRANCH  28  29
ENDBRANCH  27  28
ENDBRANCH  26  27
ENDBRANCH  25  26
ENDBRANCH  24  25
ENDBRANCH  23  24
ENDBRANCH  22  23
ENDBRANCH  21  22
ENDBRANCH  20  21
ENDBRANCH  19  20
ENDBRANCH  18  19
ENDBRANCH   1  18
TORSDOF 28
ENDMDL
MODEL 9
REMARK VINA RESULT:    -5.583      3.038     10.136
REMARK INTER + INTRA:         -18.239
REMARK INTER:                 -13.668
REMARK INTRA:                  -4.571
REMARK UNBOUND:                -3.518
REMARK SMILES CCCCCCCCCCCCCCCCCCCCCCCCCCCCCC(=O)[O-]
REMARK SMILES IDX 16 1 17 2 18 3 19 4 20 5 21 6 22 7 23 8 24 9 25 10 26 11
REMARK SMILES IDX 27 12 28 13 29 14 30 15 31 16 32 17 15 18 14 19 13 20 12 21
REMARK SMILES IDX 11 22 10 23 9 24 8 25 7 26 6 27 5 28 4 29 3 30 2 31 1 32
REMARK H PARENT
REMARK Flexibility Score: inf
ROOT
ATOM      1  C   UNL     1      88.846 323.854 200.545  1.00  0.00     0.000 C 
ENDROOT
BRANCH   1   2
ATOM      2  C   UNL     1      89.463 324.691 199.415  1.00  0.00     0.000 C 
BRANCH   2   3
ATOM      3  C   UNL     1      89.102 326.173 199.577  1.00  0.00     0.000 C 
BRANCH   3   4
ATOM      4  C   UNL     1      88.794 326.820 198.217  1.00  0.00     0.000 C 
BRANCH   4   5
ATOM      5  C   UNL     1      88.804 325.794 197.071  1.00  0.00     0.000 C 
BRANCH   5   6
ATOM      6  C   UNL     1      88.206 326.365 195.771  1.00  0.00     0.000 C 
BRANCH   6   7
ATOM      7  C   UNL     1      86.726 325.976 195.568  1.00  0.00     0.000 C 
BRANCH   7   8
ATOM      8  C   UNL     1      86.218 326.147 194.122  1.00  0.00     0.000 C 
BRANCH   8   9
ATOM      9  C   UNL     1      86.426 324.934 193.195  1.00  0.00     0.000 C 
BRANCH   9  10
ATOM     10  C   UNL     1      87.783 324.890 192.468  1.00  0.00     0.000 C 
BRANCH  10  11
ATOM     11  C   UNL     1      88.446 323.506 192.512  1.00  0.00     0.000 C 
BRANCH  11  12
ATOM     12  C   UNL     1      87.855 322.656 193.646  1.00  0.00     0.000 C 
BRANCH  12  13
ATOM     13  C   UNL     1      88.687 322.721 194.936  1.00  0.00     0.006 C 
BRANCH  13  14
ATOM     14  C   UNL     1      87.852 322.456 196.195  1.00  0.00     0.053 C 
BRANCH  14  15
ATOM     15  C   UNL     1      87.791 320.990 196.492  1.00  0.00     0.041 C 
ATOM     16  O   UNL     1      88.755 320.238 196.185  1.00  0.00    -0.550 OA
ATOM     17  O   UNL     1      86.676 320.455 197.127  1.00  0.00    -0.550 OA
ENDBRANCH  14  15
ENDBRANCH  13  14
ENDBRANCH  12  13
ENDBRANCH  11  12
ENDBRANCH  10  11
ENDBRANCH   9  10
ENDBRANCH   8   9
ENDBRANCH   7   8
ENDBRANCH   6   7
ENDBRANCH   5   6
ENDBRANCH   4   5
ENDBRANCH   3   4
ENDBRANCH   2   3
ENDBRANCH   1   2
BRANCH   1  18
ATOM     18  C   UNL     1      88.231 324.716 201.663  1.00  0.00     0.000 C 
BRANCH  18  19
ATOM     19  C   UNL     1      88.282 324.093 203.073  1.00  0.00     0.000 C 
BRANCH  19  20
ATOM     20  C   UNL     1      86.915 323.872 203.744  1.00  0.00     0.000 C 
BRANCH  20  21
ATOM     21  C   UNL     1      86.845 324.233 205.241  1.00  0.00     0.000 C 
BRANCH  21  22
ATOM     22  C   UNL     1      88.186 324.689 205.849  1.00  0.00     0.000 C 
BRANCH  22  23
ATOM     23  C   UNL     1      88.174 326.158 206.306  1.00  0.00     0.000 C 
BRANCH  23  24
ATOM     24  C   UNL     1      89.342 326.975 205.730  1.00  0.00    -0.000 C 
BRANCH  24  25
ATOM     25  C   UNL     1      89.124 327.439 204.273  1.00  0.00    -0.000 C 
BRANCH  25  26
ATOM     26  C   UNL     1      90.361 327.196 203.393  1.00  0.00    -0.000 C 
BRANCH  26  27
ATOM     27  C   UNL     1      91.351 326.238 204.074  1.00  0.00    -0.000 C 
BRANCH  27  28
ATOM     28  C   UNL     1      91.754 325.058 203.174  1.00  0.00    -0.000 C 
BRANCH  28  29
ATOM     29  C   UNL     1      92.132 325.495 201.749  1.00  0.00    -0.000 C 
BRANCH  29  30
ATOM     30  C   UNL     1      93.303 324.658 201.213  1.00  0.00    -0.000 C 
BRANCH  30  31
ATOM     31  C   UNL     1      92.841 323.366 200.522  1.00  0.00    -0.003 C 
ATOM     32  C   UNL     1      92.877 323.467 198.995  1.00  0.00     0.004 C 
ENDBRANCH  30  31
ENDBRANCH  29  30
ENDBRANCH  28  29
ENDBRANCH  27  28
ENDBRANCH  26  27
ENDBRANCH  25  26
ENDBRANCH  24  25
ENDBRANCH  23  24
ENDBRANCH  22  23
ENDBRANCH  21  22
ENDBRANCH  20  21
ENDBRANCH  19  20
ENDBRANCH  18  19
ENDBRANCH   1  18
TORSDOF 28
ENDMDL
