MODEL 1
REMARK VINA RESULT:    -4.608      0.000      0.000
REMARK INTER + INTRA:          -6.030
REMARK INTER:                  -5.685
REMARK INTRA:                  -0.345
REMARK UNBOUND:                -0.345
REMARK SMILES COC(=O)c1ccccc1C(=O)OC
REMARK SMILES IDX 5 1 6 2 7 3 8 4 9 5 10 6 3 7 4 8 2 9 1 10 11 11 12 12 13 13
REMARK SMILES IDX 14 14
REMARK H PARENT
REMARK Flexibility Score: inf
ROOT
ATOM      1  C   UNL     1      35.128   0.814  -3.373  1.00  0.00     0.074 A 
ATOM      2  C   UNL     1      36.082   1.769  -2.978  1.00  0.00     0.016 A 
ATOM      3  C   UNL     1      36.042   3.070  -3.481  1.00  0.00     0.001 A 
ATOM      4  C   UNL     1      35.049   3.438  -4.386  1.00  0.00     0.001 A 
ATOM      5  C   UNL     1      34.080   2.513  -4.775  1.00  0.00     0.016 A 
ATOM      6  C   UNL     1      34.088   1.203  -4.263  1.00  0.00     0.074 A 
ENDROOT
BRANCH   1   7
ATOM      7  C   UNL     1      35.298  -0.575  -2.889  1.00  0.00     0.338 C 
ATOM      8  O   UNL     1      34.580  -1.016  -1.951  1.00  0.00    -0.246 OA
BRANCH   7   9
ATOM      9  O   UNL     1      36.223  -1.416  -3.519  1.00  0.00    -0.465 OA
ATOM     10  C   UNL     1      35.881  -2.233  -4.633  1.00  0.00     0.282 C 
ENDBRANCH   7   9
ENDBRANCH   1   7
BRANCH   6  11
ATOM     11  C   UNL     1      32.965   0.310  -4.629  1.00  0.00     0.338 C 
ATOM     12  O   UNL     1      31.864   0.386  -4.017  1.00  0.00    -0.246 OA
BRANCH  11  13
ATOM     13  O   UNL     1      33.112  -0.579  -5.700  1.00  0.00    -0.465 OA
ATOM     14  C   UNL     1      32.328  -1.758  -5.832  1.00  0.00     0.282 C 
ENDBRANCH  11  13
ENDBRANCH   6  11
TORSDOF 4
ENDMDL
MODEL 2
REMARK VINA RESULT:    -4.604      0.044      3.025
REMARK INTER + INTRA:          -6.025
REMARK INTER:                  -5.667
REMARK INTRA:                  -0.358
REMARK UNBOUND:                -0.345
REMARK SMILES COC(=O)c1ccccc1C(=O)OC
REMARK SMILES IDX 5 1 6 2 7 3 8 4 9 5 10 6 3 7 4 8 2 9 1 10 11 11 12 12 13 13
REMARK SMILES IDX 14 14
REMARK H PARENT
REMARK Flexibility Score: inf
ROOT
ATOM      1  C   UNL     1      34.081   1.174  -4.263  1.00  0.00     0.074 A 
ATOM      2  C   UNL     1      34.072   2.488  -4.765  1.00  0.00     0.016 A 
ATOM      3  C   UNL     1      35.050   3.406  -4.380  1.00  0.00     0.001 A 
ATOM      4  C   UNL     1      36.051   3.027  -3.489  1.00  0.00     0.001 A 
ATOM      5  C   UNL     1      36.092   1.723  -2.996  1.00  0.00     0.016 A 
ATOM      6  C   UNL     1      35.130   0.774  -3.387  1.00  0.00     0.074 A 
ENDROOT
BRANCH   1   7
ATOM      7  C   UNL     1      32.950   0.288  -4.624  1.00  0.00     0.338 C 
ATOM      8  O   UNL     1      31.861   0.356  -3.991  1.00  0.00    -0.246 OA
BRANCH   7   9
ATOM      9  O   UNL     1      33.078  -0.584  -5.710  1.00  0.00    -0.465 OA
ATOM     10  C   UNL     1      32.342  -1.798  -5.810  1.00  0.00     0.282 C 
ENDBRANCH   7   9
ENDBRANCH   1   7
BRANCH   6  11
ATOM     11  C   UNL     1      35.299  -0.618  -2.916  1.00  0.00     0.338 C 
ATOM     12  O   UNL     1      34.573  -1.072  -1.990  1.00  0.00    -0.246 OA
BRANCH  11  13
ATOM     13  O   UNL     1      36.233  -1.450  -3.545  1.00  0.00    -0.465 OA
ATOM     14  C   UNL     1      35.907  -2.259  -4.668  1.00  0.00     0.282 C 
ENDBRANCH  11  13
ENDBRANCH   6  11
TORSDOF 4
ENDMDL
MODEL 3
REMARK VINA RESULT:    -4.592      0.734      3.252
REMARK INTER + INTRA:          -6.011
REMARK INTER:                  -5.591
REMARK INTRA:                  -0.421
REMARK UNBOUND:                -0.345
REMARK SMILES COC(=O)c1ccccc1C(=O)OC
REMARK SMILES IDX 5 1 6 2 7 3 8 4 9 5 10 6 3 7 4 8 2 9 1 10 11 11 12 12 13 13
REMARK SMILES IDX 14 14
REMARK H PARENT
REMARK Flexibility Score: inf
ROOT
ATOM      1  C   UNL     1      34.324   1.393  -4.189  1.00  0.00     0.074 A 
ATOM      2  C   UNL     1      34.329   2.744  -4.582  1.00  0.00     0.016 A 
ATOM      3  C   UNL     1      35.329   3.612  -4.142  1.00  0.00     0.001 A 
ATOM      4  C   UNL     1      36.339   3.146  -3.304  1.00  0.00     0.001 A 
ATOM      5  C   UNL     1      36.367   1.805  -2.920  1.00  0.00     0.016 A 
ATOM      6  C   UNL     1      35.382   0.907  -3.369  1.00  0.00     0.074 A 
ENDROOT
BRANCH   1   7
ATOM      7  C   UNL     1      33.173   0.558  -4.599  1.00  0.00     0.338 C 
ATOM      8  O   UNL     1      32.057   0.684  -4.025  1.00  0.00    -0.246 OA
BRANCH   7   9
ATOM      9  O   UNL     1      33.314  -0.333  -5.669  1.00  0.00    -0.465 OA
ATOM     10  C   UNL     1      32.703  -1.618  -5.683  1.00  0.00     0.282 C 
ENDBRANCH   7   9
ENDBRANCH   1   7
BRANCH   6  11
ATOM     11  C   UNL     1      35.536  -0.522  -3.017  1.00  0.00     0.338 C 
ATOM     12  O   UNL     1      36.022  -1.336  -3.850  1.00  0.00    -0.246 OA
BRANCH  11  13
ATOM     13  O   UNL     1      35.194  -0.956  -1.731  1.00  0.00    -0.465 OA
ATOM     14  C   UNL     1      33.914  -0.725  -1.158  1.00  0.00     0.282 C 
ENDBRANCH  11  13
ENDBRANCH   6  11
TORSDOF 4
ENDMDL
MODEL 4
REMARK VINA RESULT:    -4.374      8.588     10.288
REMARK INTER + INTRA:          -5.742
REMARK INTER:                  -5.358
REMARK INTRA:                  -0.385
REMARK UNBOUND:                -0.345
REMARK SMILES COC(=O)c1ccccc1C(=O)OC
REMARK SMILES IDX 5 1 6 2 7 3 8 4 9 5 10 6 3 7 4 8 2 9 1 10 11 11 12 12 13 13
REMARK SMILES IDX 14 14
REMARK H PARENT
REMARK Flexibility Score: inf
ROOT
ATOM      1  C   UNL     1      25.988   6.075  -1.828  1.00  0.00     0.074 A 
ATOM      2  C   UNL     1      25.705   6.838  -0.681  1.00  0.00     0.016 A 
ATOM      3  C   UNL     1      26.727   7.238   0.182  1.00  0.00     0.001 A 
ATOM      4  C   UNL     1      28.046   6.882  -0.087  1.00  0.00     0.001 A 
ATOM      5  C   UNL     1      28.353   6.144  -1.231  1.00  0.00     0.016 A 
ATOM      6  C   UNL     1      27.342   5.749  -2.126  1.00  0.00     0.074 A 
ENDROOT
BRANCH   1   7
ATOM      7  C   UNL     1      24.846   5.589  -2.635  1.00  0.00     0.338 C 
ATOM      8  O   UNL     1      24.377   4.434  -2.445  1.00  0.00    -0.246 OA
BRANCH   7   9
ATOM      9  O   UNL     1      24.251   6.443  -3.571  1.00  0.00    -0.465 OA
ATOM     10  C   UNL     1      24.870   7.645  -4.015  1.00  0.00     0.282 C 
ENDBRANCH   7   9
ENDBRANCH   1   7
BRANCH   6  11
ATOM     11  C   UNL     1      27.751   5.069  -3.375  1.00  0.00     0.338 C 
ATOM     12  O   UNL     1      28.106   5.742  -4.382  1.00  0.00    -0.246 OA
BRANCH  11  13
ATOM     13  O   UNL     1      27.797   3.671  -3.416  1.00  0.00    -0.465 OA
ATOM     14  C   UNL     1      27.048   2.904  -4.350  1.00  0.00     0.282 C 
ENDBRANCH  11  13
ENDBRANCH   6  11
TORSDOF 4
ENDMDL
MODEL 5
REMARK VINA RESULT:    -4.367      8.497      9.923
REMARK INTER + INTRA:          -5.734
REMARK INTER:                  -5.365
REMARK INTRA:                  -0.369
REMARK UNBOUND:                -0.345
REMARK SMILES COC(=O)c1ccccc1C(=O)OC
REMARK SMILES IDX 5 1 6 2 7 3 8 4 9 5 10 6 3 7 4 8 2 9 1 10 11 11 12 12 13 13
REMARK SMILES IDX 14 14
REMARK H PARENT
REMARK Flexibility Score: inf
ROOT
ATOM      1  C   UNL     1      27.395   5.665  -2.248  1.00  0.00     0.074 A 
ATOM      2  C   UNL     1      28.427   6.039  -1.369  1.00  0.00     0.016 A 
ATOM      3  C   UNL     1      28.153   6.779  -0.218  1.00  0.00     0.001 A 
ATOM      4  C   UNL     1      26.844   7.156   0.074  1.00  0.00     0.001 A 
ATOM      5  C   UNL     1      25.801   6.777  -0.772  1.00  0.00     0.016 A 
ATOM      6  C   UNL     1      26.052   6.012  -1.926  1.00  0.00     0.074 A 
ENDROOT
BRANCH   1   7
ATOM      7  C   UNL     1      27.772   4.982  -3.506  1.00  0.00     0.338 C 
ATOM      8  O   UNL     1      28.166   5.650  -4.501  1.00  0.00    -0.246 OA
BRANCH   7   9
ATOM      9  O   UNL     1      27.744   3.584  -3.566  1.00  0.00    -0.465 OA
ATOM     10  C   UNL     1      26.995   2.873  -4.545  1.00  0.00     0.282 C 
ENDBRANCH   7   9
ENDBRANCH   1   7
BRANCH   6  11
ATOM     11  C   UNL     1      24.889   5.549  -2.715  1.00  0.00     0.338 C 
ATOM     12  O   UNL     1      24.446   4.376  -2.571  1.00  0.00    -0.246 OA
BRANCH  11  13
ATOM     13  O   UNL     1      24.245   6.440  -3.582  1.00  0.00    -0.465 OA
ATOM     14  C   UNL     1      24.856   7.637  -4.046  1.00  0.00     0.282 C 
ENDBRANCH  11  13
ENDBRANCH   6  11
TORSDOF 4
ENDMDL
MODEL 6
REMARK VINA RESULT:    -4.100      9.086     10.797
REMARK INTER + INTRA:          -5.404
REMARK INTER:                  -4.938
REMARK INTRA:                  -0.467
REMARK UNBOUND:                -0.345
REMARK SMILES COC(=O)c1ccccc1C(=O)OC
REMARK SMILES IDX 5 1 6 2 7 3 8 4 9 5 10 6 3 7 4 8 2 9 1 10 11 11 12 12 13 13
REMARK SMILES IDX 14 14
REMARK H PARENT
REMARK Flexibility Score: inf
ROOT
ATOM      1  C   UNL     1      27.340   5.954  -2.228  1.00  0.00     0.074 A 
ATOM      2  C   UNL     1      28.172   5.050  -2.914  1.00  0.00     0.016 A 
ATOM      3  C   UNL     1      27.629   4.000  -3.655  1.00  0.00     0.001 A 
ATOM      4  C   UNL     1      26.247   3.835  -3.722  1.00  0.00     0.001 A 
ATOM      5  C   UNL     1      25.403   4.732  -3.067  1.00  0.00     0.016 A 
ATOM      6  C   UNL     1      25.928   5.811  -2.334  1.00  0.00     0.074 A 
ENDROOT
BRANCH   1   7
ATOM      7  C   UNL     1      27.986   6.974  -1.371  1.00  0.00     0.338 C 
ATOM      8  O   UNL     1      28.446   8.033  -1.877  1.00  0.00    -0.246 OA
BRANCH   7   9
ATOM      9  O   UNL     1      28.029   6.782   0.015  1.00  0.00    -0.465 OA
ATOM     10  C   UNL     1      27.276   7.576   0.923  1.00  0.00     0.282 C 
ENDBRANCH   7   9
ENDBRANCH   1   7
BRANCH   6  11
ATOM     11  C   UNL     1      24.974   6.788  -1.762  1.00  0.00     0.338 C 
ATOM     12  O   UNL     1      24.328   6.510  -0.714  1.00  0.00    -0.246 OA
BRANCH  11  13
ATOM     13  O   UNL     1      24.836   8.047  -2.357  1.00  0.00    -0.465 OA
ATOM     14  C   UNL     1      25.022   9.260  -1.639  1.00  0.00     0.282 C 
ENDBRANCH  11  13
ENDBRANCH   6  11
TORSDOF 4
ENDMDL
MODEL 7
REMARK VINA RESULT:    -4.097      9.094     11.134
REMARK INTER + INTRA:          -5.400
REMARK INTER:                  -4.930
REMARK INTRA:                  -0.469
REMARK UNBOUND:                -0.345
REMARK SMILES COC(=O)c1ccccc1C(=O)OC
REMARK SMILES IDX 5 1 6 2 7 3 8 4 9 5 10 6 3 7 4 8 2 9 1 10 11 11 12 12 13 13
REMARK SMILES IDX 14 14
REMARK H PARENT
REMARK Flexibility Score: inf
ROOT
ATOM      1  C   UNL     1      25.902   5.791  -2.327  1.00  0.00     0.074 A 
ATOM      2  C   UNL     1      25.385   4.713  -3.069  1.00  0.00     0.016 A 
ATOM      3  C   UNL     1      26.236   3.840  -3.748  1.00  0.00     0.001 A 
ATOM      4  C   UNL     1      27.615   4.027  -3.696  1.00  0.00     0.001 A 
ATOM      5  C   UNL     1      28.151   5.076  -2.947  1.00  0.00     0.016 A 
ATOM      6  C   UNL     1      27.313   5.956  -2.238  1.00  0.00     0.074 A 
ENDROOT
BRANCH   1   7
ATOM      7  C   UNL     1      24.939   6.743  -1.728  1.00  0.00     0.338 C 
ATOM      8  O   UNL     1      24.369   6.470  -0.637  1.00  0.00    -0.246 OA
BRANCH   7   9
ATOM      9  O   UNL     1      24.710   7.974  -2.352  1.00  0.00    -0.465 OA
ATOM     10  C   UNL     1      25.016   9.217  -1.730  1.00  0.00     0.282 C 
ENDBRANCH   7   9
ENDBRANCH   1   7
BRANCH   6  11
ATOM     11  C   UNL     1      27.952   6.974  -1.374  1.00  0.00     0.338 C 
ATOM     12  O   UNL     1      28.415   8.036  -1.875  1.00  0.00    -0.246 OA
BRANCH  11  13
ATOM     13  O   UNL     1      27.988   6.778   0.011  1.00  0.00    -0.465 OA
ATOM     14  C   UNL     1      27.286   7.613   0.923  1.00  0.00     0.282 C 
ENDBRANCH  11  13
ENDBRANCH   6  11
TORSDOF 4
ENDMDL
MODEL 8
REMARK VINA RESULT:    -3.963     10.296     12.116
REMARK INTER + INTRA:          -5.235
REMARK INTER:                  -4.803
REMARK INTRA:                  -0.432
REMARK UNBOUND:                -0.345
REMARK SMILES COC(=O)c1ccccc1C(=O)OC
REMARK SMILES IDX 5 1 6 2 7 3 8 4 9 5 10 6 3 7 4 8 2 9 1 10 11 11 12 12 13 13
REMARK SMILES IDX 14 14
REMARK H PARENT
REMARK Flexibility Score: inf
ROOT
ATOM      1  C   UNL     1      25.792   6.590  -1.177  1.00  0.00     0.074 A 
ATOM      2  C   UNL     1      26.092   5.702  -2.227  1.00  0.00     0.016 A 
ATOM      3  C   UNL     1      27.411   5.350  -2.510  1.00  0.00     0.001 A 
ATOM      4  C   UNL     1      28.453   5.877  -1.750  1.00  0.00     0.001 A 
ATOM      5  C   UNL     1      28.178   6.741  -0.690  1.00  0.00     0.016 A 
ATOM      6  C   UNL     1      26.853   7.093  -0.373  1.00  0.00     0.074 A 
ENDROOT
BRANCH   1   7
ATOM      7  C   UNL     1      24.383   7.009  -1.006  1.00  0.00     0.338 C 
ATOM      8  O   UNL     1      23.971   8.085  -1.518  1.00  0.00    -0.246 OA
BRANCH   7   9
ATOM      9  O   UNL     1      23.494   6.172  -0.322  1.00  0.00    -0.465 OA
ATOM     10  C   UNL     1      22.955   6.504   0.953  1.00  0.00     0.282 C 
ENDBRANCH   7   9
ENDBRANCH   1   7
BRANCH   6  11
ATOM     11  C   UNL     1      26.628   7.922   0.833  1.00  0.00     0.338 C 
ATOM     12  O   UNL     1      26.201   7.396   1.898  1.00  0.00    -0.246 OA
BRANCH  11  13
ATOM     13  O   UNL     1      26.947   9.284   0.803  1.00  0.00    -0.465 OA
ATOM     14  C   UNL     1      26.660  10.115  -0.314  1.00  0.00     0.282 C 
ENDBRANCH  11  13
ENDBRANCH   6  11
TORSDOF 4
ENDMDL
MODEL 9
REMARK VINA RESULT:    -3.961     10.268     11.779
REMARK INTER + INTRA:          -5.232
REMARK INTER:                  -4.815
REMARK INTRA:                  -0.418
REMARK UNBOUND:                -0.345
REMARK SMILES COC(=O)c1ccccc1C(=O)OC
REMARK SMILES IDX 5 1 6 2 7 3 8 4 9 5 10 6 3 7 4 8 2 9 1 10 11 11 12 12 13 13
REMARK SMILES IDX 14 14
REMARK H PARENT
REMARK Flexibility Score: inf
ROOT
ATOM      1  C   UNL     1      26.840   7.060  -0.406  1.00  0.00     0.074 A 
ATOM      2  C   UNL     1      28.161   6.706  -0.737  1.00  0.00     0.016 A 
ATOM      3  C   UNL     1      28.424   5.845  -1.802  1.00  0.00     0.001 A 
ATOM      4  C   UNL     1      27.374   5.323  -2.554  1.00  0.00     0.001 A 
ATOM      5  C   UNL     1      26.058   5.678  -2.258  1.00  0.00     0.016 A 
ATOM      6  C   UNL     1      25.770   6.562  -1.203  1.00  0.00     0.074 A 
ENDROOT
BRANCH   1   7
ATOM      7  C   UNL     1      26.627   7.885   0.804  1.00  0.00     0.338 C 
ATOM      8  O   UNL     1      26.211   7.356   1.871  1.00  0.00    -0.246 OA
BRANCH   7   9
ATOM      9  O   UNL     1      26.948   9.247   0.775  1.00  0.00    -0.465 OA
ATOM     10  C   UNL     1      26.689  10.072  -0.356  1.00  0.00     0.282 C 
ENDBRANCH   7   9
ENDBRANCH   1   7
BRANCH   6  11
ATOM     11  C   UNL     1      24.363   6.984  -1.018  1.00  0.00     0.338 C 
ATOM     12  O   UNL     1      23.964   8.090  -1.474  1.00  0.00    -0.246 OA
BRANCH  11  13
ATOM     13  O   UNL     1      23.463   6.121  -0.384  1.00  0.00    -0.465 OA
ATOM     14  C   UNL     1      23.018   6.320   0.952  1.00  0.00     0.282 C 
ENDBRANCH  11  13
ENDBRANCH   6  11
TORSDOF 4
ENDMDL
