MODEL 1
REMARK VINA RESULT:    -4.597      0.000      0.000
REMARK INTER + INTRA:          -7.401
REMARK INTER:                  -7.016
REMARK INTRA:                  -0.386
REMARK UNBOUND:                -0.386
REMARK SMILES CCCCCCCCCCC(=O)[O-]
REMARK SMILES IDX 7 1 8 2 9 3 10 4 11 5 12 6 13 7 6 8 5 9 4 10 3 11 2 12 1 13
REMARK H PARENT
REMARK Flexibility Score: inf
ROOT
ATOM      1  C   UNL     1      -0.224   5.779  18.409  1.00  0.00     0.000 C 
ENDROOT
BRANCH   1   2
ATOM      2  C   UNL     1       0.321   7.201  18.607  1.00  0.00     0.000 C 
BRANCH   2   3
ATOM      3  C   UNL     1       0.586   7.485  20.090  1.00  0.00     0.006 C 
BRANCH   3   4
ATOM      4  C   UNL     1      -0.423   6.752  20.979  1.00  0.00     0.053 C 
BRANCH   4   5
ATOM      5  C   UNL     1       0.072   6.685  22.390  1.00  0.00     0.041 C 
ATOM      6  O   UNL     1      -0.745   6.598  23.344  1.00  0.00    -0.550 OA
ATOM      7  O   UNL     1       1.436   6.670  22.647  1.00  0.00    -0.550 OA
ENDBRANCH   4   5
ENDBRANCH   3   4
ENDBRANCH   2   3
ENDBRANCH   1   2
BRANCH   1   8
ATOM      8  C   UNL     1      -0.454   5.428  16.929  1.00  0.00     0.000 C 
BRANCH   8   9
ATOM      9  C   UNL     1      -0.986   4.004  16.669  1.00  0.00    -0.000 C 
BRANCH   9  10
ATOM     10  C   UNL     1      -2.262   3.928  15.813  1.00  0.00    -0.000 C 
BRANCH  10  11
ATOM     11  C   UNL     1      -3.389   4.829  16.340  1.00  0.00    -0.000 C 
BRANCH  11  12
ATOM     12  C   UNL     1      -4.757   4.330  15.865  1.00  0.00    -0.003 C 
ATOM     13  C   UNL     1      -5.082   2.962  16.461  1.00  0.00     0.004 C 
ENDBRANCH  11  12
ENDBRANCH  10  11
ENDBRANCH   9  10
ENDBRANCH   8   9
ENDBRANCH   1   8
TORSDOF 9
ENDMDL
MODEL 2
REMARK VINA RESULT:    -4.449      1.653      2.945
REMARK INTER + INTRA:          -7.176
REMARK INTER:                  -6.603
REMARK INTRA:                  -0.573
REMARK UNBOUND:                -0.386
REMARK SMILES CCCCCCCCCCC(=O)[O-]
REMARK SMILES IDX 7 1 8 2 9 3 10 4 11 5 12 6 13 7 6 8 5 9 4 10 3 11 2 12 1 13
REMARK H PARENT
REMARK Flexibility Score: inf
ROOT
ATOM      1  C   UNL     1      -1.201   3.853  16.247  1.00  0.00     0.000 C 
ENDROOT
BRANCH   1   2
ATOM      2  C   UNL     1      -1.230   5.313  16.723  1.00  0.00     0.000 C 
BRANCH   2   3
ATOM      3  C   UNL     1      -0.396   5.491  17.997  1.00  0.00     0.006 C 
BRANCH   3   4
ATOM      4  C   UNL     1       0.246   6.881  18.045  1.00  0.00     0.053 C 
BRANCH   4   5
ATOM      5  C   UNL     1       0.333   7.371  19.456  1.00  0.00     0.041 C 
ATOM      6  O   UNL     1       0.844   8.494  19.706  1.00  0.00    -0.550 OA
ATOM      7  O   UNL     1      -0.196   6.609  20.489  1.00  0.00    -0.550 OA
ENDBRANCH   4   5
ENDBRANCH   3   4
ENDBRANCH   2   3
ENDBRANCH   1   2
BRANCH   1   8
ATOM      8  C   UNL     1      -2.558   3.377  15.699  1.00  0.00     0.000 C 
BRANCH   8   9
ATOM      9  C   UNL     1      -3.441   2.618  16.710  1.00  0.00    -0.000 C 
BRANCH   9  10
ATOM     10  C   UNL     1      -4.950   2.902  16.601  1.00  0.00    -0.000 C 
BRANCH  10  11
ATOM     11  C   UNL     1      -5.316   4.342  16.990  1.00  0.00    -0.000 C 
BRANCH  11  12
ATOM     12  C   UNL     1      -6.101   5.030  15.868  1.00  0.00    -0.003 C 
ATOM     13  C   UNL     1      -6.069   4.202  14.585  1.00  0.00     0.004 C 
ENDBRANCH  11  12
ENDBRANCH  10  11
ENDBRANCH   9  10
ENDBRANCH   8   9
ENDBRANCH   1   8
TORSDOF 9
ENDMDL
MODEL 3
REMARK VINA RESULT:    -4.442      1.794      2.849
REMARK INTER + INTRA:          -7.166
REMARK INTER:                  -6.429
REMARK INTRA:                  -0.736
REMARK UNBOUND:                -0.386
REMARK SMILES CCCCCCCCCCC(=O)[O-]
REMARK SMILES IDX 7 1 8 2 9 3 10 4 11 5 12 6 13 7 6 8 5 9 4 10 3 11 2 12 1 13
REMARK H PARENT
REMARK Flexibility Score: inf
ROOT
ATOM      1  C   UNL     1       1.711   8.758  18.694  1.00  0.00     0.000 C 
ENDROOT
BRANCH   1   2
ATOM      2  C   UNL     1       0.883   8.647  19.982  1.00  0.00     0.000 C 
BRANCH   2   3
ATOM      3  C   UNL     1       1.035   7.258  20.614  1.00  0.00     0.006 C 
BRANCH   3   4
ATOM      4  C   UNL     1      -0.294   6.774  21.204  1.00  0.00     0.053 C 
BRANCH   4   5
ATOM      5  C   UNL     1      -0.171   6.583  22.683  1.00  0.00     0.041 C 
ATOM      6  O   UNL     1      -1.203   6.543  23.403  1.00  0.00    -0.550 OA
ATOM      7  O   UNL     1       1.078   6.399  23.259  1.00  0.00    -0.550 OA
ENDBRANCH   4   5
ENDBRANCH   3   4
ENDBRANCH   2   3
ENDBRANCH   1   2
BRANCH   1   8
ATOM      8  C   UNL     1       0.890   8.454  17.428  1.00  0.00     0.000 C 
BRANCH   8   9
ATOM      9  C   UNL     1       1.547   7.464  16.445  1.00  0.00    -0.000 C 
BRANCH   9  10
ATOM     10  C   UNL     1       0.919   6.059  16.416  1.00  0.00    -0.000 C 
BRANCH  10  11
ATOM     11  C   UNL     1      -0.153   5.861  17.498  1.00  0.00    -0.000 C 
BRANCH  11  12
ATOM     12  C   UNL     1      -1.410   5.212  16.911  1.00  0.00    -0.003 C 
ATOM     13  C   UNL     1      -1.125   3.790  16.433  1.00  0.00     0.004 C 
ENDBRANCH  11  12
ENDBRANCH  10  11
ENDBRANCH   9  10
ENDBRANCH   8   9
ENDBRANCH   1   8
TORSDOF 9
ENDMDL
MODEL 4
REMARK VINA RESULT:    -4.417      2.685      4.716
REMARK INTER + INTRA:          -7.127
REMARK INTER:                  -6.516
REMARK INTRA:                  -0.611
REMARK UNBOUND:                -0.386
REMARK SMILES CCCCCCCCCCC(=O)[O-]
REMARK SMILES IDX 7 1 8 2 9 3 10 4 11 5 12 6 13 7 6 8 5 9 4 10 3 11 2 12 1 13
REMARK H PARENT
REMARK Flexibility Score: inf
ROOT
ATOM      1  C   UNL     1      -3.176   2.834  16.626  1.00  0.00     0.000 C 
ENDROOT
BRANCH   1   2
ATOM      2  C   UNL     1      -2.572   3.723  15.530  1.00  0.00     0.000 C 
BRANCH   2   3
ATOM      3  C   UNL     1      -1.139   4.135  15.884  1.00  0.00     0.006 C 
BRANCH   3   4
ATOM      4  C   UNL     1      -0.972   4.296  17.399  1.00  0.00     0.053 C 
BRANCH   4   5
ATOM      5  C   UNL     1      -0.243   5.564  17.714  1.00  0.00     0.041 C 
ATOM      6  O   UNL     1       0.222   6.274  16.784  1.00  0.00    -0.550 OA
ATOM      7  O   UNL     1      -0.120   5.986  19.031  1.00  0.00    -0.550 OA
ENDBRANCH   4   5
ENDBRANCH   3   4
ENDBRANCH   2   3
ENDBRANCH   1   2
BRANCH   1   8
ATOM      8  C   UNL     1      -4.714   2.783  16.574  1.00  0.00     0.000 C 
BRANCH   8   9
ATOM      9  C   UNL     1      -5.356   3.570  15.415  1.00  0.00    -0.000 C 
BRANCH   9  10
ATOM     10  C   UNL     1      -6.192   4.791  15.839  1.00  0.00    -0.000 C 
BRANCH  10  11
ATOM     11  C   UNL     1      -5.698   5.428  17.146  1.00  0.00    -0.000 C 
BRANCH  11  12
ATOM     12  C   UNL     1      -6.031   6.924  17.187  1.00  0.00    -0.003 C 
ATOM     13  C   UNL     1      -6.902   7.262  18.394  1.00  0.00     0.004 C 
ENDBRANCH  11  12
ENDBRANCH  10  11
ENDBRANCH   9  10
ENDBRANCH   8   9
ENDBRANCH   1   8
TORSDOF 9
ENDMDL
MODEL 5
REMARK VINA RESULT:    -4.411      3.275      6.509
REMARK INTER + INTRA:          -7.117
REMARK INTER:                  -6.816
REMARK INTRA:                  -0.301
REMARK UNBOUND:                -0.386
REMARK SMILES CCCCCCCCCCC(=O)[O-]
REMARK SMILES IDX 7 1 8 2 9 3 10 4 11 5 12 6 13 7 6 8 5 9 4 10 3 11 2 12 1 13
REMARK H PARENT
REMARK Flexibility Score: inf
ROOT
ATOM      1  C   UNL     1      -1.177   4.975  17.024  1.00  0.00     0.000 C 
ENDROOT
BRANCH   1   2
ATOM      2  C   UNL     1      -1.287   3.999  15.844  1.00  0.00     0.000 C 
BRANCH   2   3
ATOM      3  C   UNL     1      -2.500   3.076  16.006  1.00  0.00     0.006 C 
BRANCH   3   4
ATOM      4  C   UNL     1      -3.782   3.764  15.526  1.00  0.00     0.053 C 
BRANCH   4   5
ATOM      5  C   UNL     1      -4.644   4.140  16.690  1.00  0.00     0.041 C 
ATOM      6  O   UNL     1      -4.764   5.347  17.025  1.00  0.00    -0.550 OA
ATOM      7  O   UNL     1      -5.353   3.162  17.373  1.00  0.00    -0.550 OA
ENDBRANCH   4   5
ENDBRANCH   3   4
ENDBRANCH   2   3
ENDBRANCH   1   2
BRANCH   1   8
ATOM      8  C   UNL     1       0.082   5.857  16.955  1.00  0.00     0.000 C 
BRANCH   8   9
ATOM      9  C   UNL     1       0.247   6.853  18.120  1.00  0.00    -0.000 C 
BRANCH   9  10
ATOM     10  C   UNL     1       0.130   6.239  19.527  1.00  0.00    -0.000 C 
BRANCH  10  11
ATOM     11  C   UNL     1       0.383   7.260  20.646  1.00  0.00    -0.000 C 
BRANCH  11  12
ATOM     12  C   UNL     1      -0.383   6.878  21.918  1.00  0.00    -0.003 C 
ATOM     13  C   UNL     1       0.574   6.517  23.051  1.00  0.00     0.004 C 
ENDBRANCH  11  12
ENDBRANCH  10  11
ENDBRANCH   9  10
ENDBRANCH   8   9
ENDBRANCH   1   8
TORSDOF 9
ENDMDL
MODEL 6
REMARK VINA RESULT:    -4.373      5.033      6.536
REMARK INTER + INTRA:          -7.060
REMARK INTER:                  -5.742
REMARK INTRA:                  -1.318
REMARK UNBOUND:                -0.386
REMARK SMILES CCCCCCCCCCC(=O)[O-]
REMARK SMILES IDX 7 1 8 2 9 3 10 4 11 5 12 6 13 7 6 8 5 9 4 10 3 11 2 12 1 13
REMARK H PARENT
REMARK Flexibility Score: inf
ROOT
ATOM      1  C   UNL     1      -5.118   5.741  16.374  1.00  0.00     0.000 C 
ENDROOT
BRANCH   1   2
ATOM      2  C   UNL     1      -5.333   4.347  16.980  1.00  0.00     0.000 C 
BRANCH   2   3
ATOM      3  C   UNL     1      -4.710   3.261  16.094  1.00  0.00     0.006 C 
BRANCH   3   4
ATOM      4  C   UNL     1      -3.592   3.839  15.220  1.00  0.00     0.053 C 
BRANCH   4   5
ATOM      5  C   UNL     1      -2.252   3.503  15.794  1.00  0.00     0.041 C 
ATOM      6  O   UNL     1      -1.254   4.224  15.535  1.00  0.00    -0.550 OA
ATOM      7  O   UNL     1      -2.116   2.422  16.655  1.00  0.00    -0.550 OA
ENDBRANCH   4   5
ENDBRANCH   3   4
ENDBRANCH   2   3
ENDBRANCH   1   2
BRANCH   1   8
ATOM      8  C   UNL     1      -6.429   6.529  16.206  1.00  0.00     0.000 C 
BRANCH   8   9
ATOM      9  C   UNL     1      -7.563   5.767  15.492  1.00  0.00    -0.000 C 
BRANCH   9  10
ATOM     10  C   UNL     1      -7.415   5.657  13.964  1.00  0.00    -0.000 C 
BRANCH  10  11
ATOM     11  C   UNL     1      -7.208   4.213  13.485  1.00  0.00    -0.000 C 
BRANCH  11  12
ATOM     12  C   UNL     1      -6.079   4.135  12.451  1.00  0.00    -0.003 C 
ATOM     13  C   UNL     1      -5.379   5.482  12.297  1.00  0.00     0.004 C 
ENDBRANCH  11  12
ENDBRANCH  10  11
ENDBRANCH   9  10
ENDBRANCH   8   9
ENDBRANCH   1   8
TORSDOF 9
ENDMDL
MODEL 7
REMARK VINA RESULT:    -4.132      4.677      6.436
REMARK INTER + INTRA:          -6.691
REMARK INTER:                  -5.441
REMARK INTRA:                  -1.251
REMARK UNBOUND:                -0.386
REMARK SMILES CCCCCCCCCCC(=O)[O-]
REMARK SMILES IDX 7 1 8 2 9 3 10 4 11 5 12 6 13 7 6 8 5 9 4 10 3 11 2 12 1 13
REMARK H PARENT
REMARK Flexibility Score: inf
ROOT
ATOM      1  C   UNL     1      -5.566   4.107  14.438  1.00  0.00     0.000 C 
ENDROOT
BRANCH   1   2
ATOM      2  C   UNL     1      -5.343   3.448  15.807  1.00  0.00     0.000 C 
BRANCH   2   3
ATOM      3  C   UNL     1      -4.286   4.208  16.616  1.00  0.00     0.006 C 
BRANCH   3   4
ATOM      4  C   UNL     1      -3.102   4.612  15.731  1.00  0.00     0.053 C 
BRANCH   4   5
ATOM      5  C   UNL     1      -1.903   3.774  16.045  1.00  0.00     0.041 C 
ATOM      6  O   UNL     1      -0.747   4.267  15.962  1.00  0.00    -0.550 OA
ATOM      7  O   UNL     1      -2.064   2.465  16.477  1.00  0.00    -0.550 OA
ENDBRANCH   4   5
ENDBRANCH   3   4
ENDBRANCH   2   3
ENDBRANCH   1   2
BRANCH   1   8
ATOM      8  C   UNL     1      -7.022   4.558  14.222  1.00  0.00     0.000 C 
BRANCH   8   9
ATOM      9  C   UNL     1      -7.303   6.039  14.544  1.00  0.00    -0.000 C 
BRANCH   9  10
ATOM     10  C   UNL     1      -6.051   6.915  14.733  1.00  0.00    -0.000 C 
BRANCH  10  11
ATOM     11  C   UNL     1      -5.926   7.478  16.157  1.00  0.00    -0.000 C 
BRANCH  11  12
ATOM     12  C   UNL     1      -6.997   6.883  17.077  1.00  0.00    -0.003 C 
ATOM     13  C   UNL     1      -6.476   6.730  18.504  1.00  0.00     0.004 C 
ENDBRANCH  11  12
ENDBRANCH  10  11
ENDBRANCH   9  10
ENDBRANCH   8   9
ENDBRANCH   1   8
TORSDOF 9
ENDMDL
MODEL 8
REMARK VINA RESULT:    -4.119      5.607      6.987
REMARK INTER + INTRA:          -6.673
REMARK INTER:                  -5.338
REMARK INTRA:                  -1.334
REMARK UNBOUND:                -0.386
REMARK SMILES CCCCCCCCCCC(=O)[O-]
REMARK SMILES IDX 7 1 8 2 9 3 10 4 11 5 12 6 13 7 6 8 5 9 4 10 3 11 2 12 1 13
REMARK H PARENT
REMARK Flexibility Score: inf
ROOT
ATOM      1  C   UNL     1      -6.662   6.186  16.597  1.00  0.00     0.000 C 
ENDROOT
BRANCH   1   2
ATOM      2  C   UNL     1      -5.244   6.363  16.038  1.00  0.00     0.000 C 
BRANCH   2   3
ATOM      3  C   UNL     1      -4.526   5.012  15.924  1.00  0.00     0.006 C 
BRANCH   3   4
ATOM      4  C   UNL     1      -5.403   3.877  16.462  1.00  0.00     0.053 C 
BRANCH   4   5
ATOM      5  C   UNL     1      -4.556   2.723  16.899  1.00  0.00     0.041 C 
ATOM      6  O   UNL     1      -3.364   2.628  16.505  1.00  0.00    -0.550 OA
ATOM      7  O   UNL     1      -5.068   1.780  17.781  1.00  0.00    -0.550 OA
ENDBRANCH   4   5
ENDBRANCH   3   4
ENDBRANCH   2   3
ENDBRANCH   1   2
BRANCH   1   8
ATOM      8  C   UNL     1      -7.742   6.818  15.701  1.00  0.00     0.000 C 
BRANCH   8   9
ATOM      9  C   UNL     1      -8.501   5.828  14.795  1.00  0.00    -0.000 C 
BRANCH   9  10
ATOM     10  C   UNL     1      -7.862   5.580  13.417  1.00  0.00    -0.000 C 
BRANCH  10  11
ATOM     11  C   UNL     1      -7.312   4.155  13.261  1.00  0.00    -0.000 C 
BRANCH  11  12
ATOM     12  C   UNL     1      -5.966   4.165  12.528  1.00  0.00    -0.003 C 
ATOM     13  C   UNL     1      -5.464   5.591  12.315  1.00  0.00     0.004 C 
ENDBRANCH  11  12
ENDBRANCH  10  11
ENDBRANCH   9  10
ENDBRANCH   8   9
ENDBRANCH   1   8
TORSDOF 9
ENDMDL
MODEL 9
REMARK VINA RESULT:    -4.024      5.530      6.768
REMARK INTER + INTRA:          -6.526
REMARK INTER:                  -5.160
REMARK INTRA:                  -1.366
REMARK UNBOUND:                -0.386
REMARK SMILES CCCCCCCCCCC(=O)[O-]
REMARK SMILES IDX 7 1 8 2 9 3 10 4 11 5 12 6 13 7 6 8 5 9 4 10 3 11 2 12 1 13
REMARK H PARENT
REMARK Flexibility Score: inf
ROOT
ATOM      1  C   UNL     1      -4.544   6.756  14.311  1.00  0.00     0.000 C 
ENDROOT
BRANCH   1   2
ATOM      2  C   UNL     1      -4.228   5.739  15.417  1.00  0.00     0.000 C 
BRANCH   2   3
ATOM      3  C   UNL     1      -4.247   4.308  14.868  1.00  0.00     0.006 C 
BRANCH   3   4
ATOM      4  C   UNL     1      -5.217   3.427  15.662  1.00  0.00     0.053 C 
BRANCH   4   5
ATOM      5  C   UNL     1      -4.483   2.648  16.707  1.00  0.00     0.041 C 
ATOM      6  O   UNL     1      -5.120   1.978  17.561  1.00  0.00    -0.550 OA
ATOM      7  O   UNL     1      -3.094   2.622  16.707  1.00  0.00    -0.550 OA
ENDBRANCH   4   5
ENDBRANCH   3   4
ENDBRANCH   2   3
ENDBRANCH   1   2
BRANCH   1   8
ATOM      8  C   UNL     1      -5.917   7.428  14.491  1.00  0.00     0.000 C 
BRANCH   8   9
ATOM      9  C   UNL     1      -6.732   6.935  15.703  1.00  0.00    -0.000 C 
BRANCH   9  10
ATOM     10  C   UNL     1      -7.879   5.965  15.368  1.00  0.00    -0.000 C 
BRANCH  10  11
ATOM     11  C   UNL     1      -8.171   5.882  13.863  1.00  0.00    -0.000 C 
BRANCH  11  12
ATOM     12  C   UNL     1      -7.928   4.464  13.335  1.00  0.00    -0.003 C 
ATOM     13  C   UNL     1      -6.831   4.451  12.273  1.00  0.00     0.004 C 
ENDBRANCH  11  12
ENDBRANCH  10  11
ENDBRANCH   9  10
ENDBRANCH   8   9
ENDBRANCH   1   8
TORSDOF 9
ENDMDL
