MODEL 1
REMARK VINA RESULT:    -3.982      0.000      0.000
REMARK INTER + INTRA:          -4.905
REMARK INTER:                  -4.563
REMARK INTRA:                  -0.342
REMARK UNBOUND:                -0.342
REMARK SMILES COc1ccc(C(C)=O)c(O)c1
REMARK SMILES IDX 6 1 10 2 12 3 3 4 4 5 5 6 7 7 8 8 9 9 11 10 2 12 1 13
REMARK H PARENT 11 11
REMARK Flexibility Score: inf
ROOT
ATOM      1  C   UNL     1      16.592  32.210  42.560  1.00  0.00     0.059 A 
ATOM      2  C   UNL     1      17.156  31.525  43.661  1.00  0.00     0.130 A 
ATOM      3  C   UNL     1      18.541  31.314  43.724  1.00  0.00     0.093 A 
ATOM      4  C   UNL     1      19.383  31.766  42.705  1.00  0.00     0.122 A 
ATOM      5  C   UNL     1      18.827  32.443  41.607  1.00  0.00     0.047 A 
ATOM      6  C   UNL     1      17.449  32.662  41.537  1.00  0.00     0.019 A 
ENDROOT
BRANCH   1   7
ATOM      7  C   UNL     1      15.123  32.459  42.473  1.00  0.00     0.163 C 
ATOM      8  C   UNL     1      14.331  32.086  41.255  1.00  0.00     0.093 C 
ATOM      9  O   UNL     1      14.518  33.021  43.425  1.00  0.00    -0.294 OA
ENDBRANCH   1   7
BRANCH   2  10
ATOM     10  O   UNL     1      16.346  31.045  44.691  1.00  0.00    -0.507 OA
ATOM     11  H   UNL     1      16.737  30.605  45.516  1.00  0.00     0.293 HD
ENDBRANCH   2  10
BRANCH   4  12
ATOM     12  O   UNL     1      20.760  31.524  42.821  1.00  0.00    -0.497 OA
ATOM     13  C   UNL     1      21.470  31.495  44.055  1.00  0.00     0.278 C 
ENDBRANCH   4  12
TORSDOF 3
ENDMDL
MODEL 2
REMARK VINA RESULT:    -3.975     10.763     13.411
REMARK INTER + INTRA:          -4.897
REMARK INTER:                  -4.558
REMARK INTRA:                  -0.340
REMARK UNBOUND:                -0.342
REMARK SMILES COc1ccc(C(C)=O)c(O)c1
REMARK SMILES IDX 6 1 10 2 12 3 3 4 4 5 5 6 7 7 8 8 9 9 11 10 2 12 1 13
REMARK H PARENT 11 11
REMARK Flexibility Score: inf
ROOT
ATOM      1  C   UNL     1      23.710  32.096  54.536  1.00  0.00     0.059 A 
ATOM      2  C   UNL     1      23.221  31.354  53.435  1.00  0.00     0.130 A 
ATOM      3  C   UNL     1      21.859  31.030  53.354  1.00  0.00     0.093 A 
ATOM      4  C   UNL     1      20.966  31.424  54.354  1.00  0.00     0.122 A 
ATOM      5  C   UNL     1      21.448  32.158  55.451  1.00  0.00     0.047 A 
ATOM      6  C   UNL     1      22.802  32.488  55.539  1.00  0.00     0.019 A 
ENDROOT
BRANCH   1   7
ATOM      7  C   UNL     1      25.151  32.464  54.642  1.00  0.00     0.163 C 
ATOM      8  C   UNL     1      25.960  32.140  55.863  1.00  0.00     0.093 C 
ATOM      9  O   UNL     1      25.716  33.088  53.704  1.00  0.00    -0.294 OA
ENDBRANCH   1   7
BRANCH   2  10
ATOM     10  O   UNL     1      24.084  30.929  52.425  1.00  0.00    -0.507 OA
ATOM     11  H   UNL     1      25.004  31.337  52.302  1.00  0.00     0.293 HD
ENDBRANCH   2  10
BRANCH   4  12
ATOM     12  O   UNL     1      19.615  31.070  54.219  1.00  0.00    -0.497 OA
ATOM     13  C   UNL     1      18.887  31.125  52.997  1.00  0.00     0.278 C 
ENDBRANCH   4  12
TORSDOF 3
ENDMDL
MODEL 3
REMARK VINA RESULT:    -3.834      1.637      2.458
REMARK INTER + INTRA:          -4.736
REMARK INTER:                  -4.415
REMARK INTRA:                  -0.321
REMARK UNBOUND:                -0.342
REMARK SMILES COc1ccc(C(C)=O)c(O)c1
REMARK SMILES IDX 6 1 10 2 12 3 3 4 4 5 5 6 7 7 8 8 9 9 11 10 2 12 1 13
REMARK H PARENT 11 11
REMARK Flexibility Score: inf
ROOT
ATOM      1  C   UNL     1      17.741  31.921  42.906  1.00  0.00     0.059 A 
ATOM      2  C   UNL     1      18.779  32.185  41.982  1.00  0.00     0.130 A 
ATOM      3  C   UNL     1      20.119  32.001  42.357  1.00  0.00     0.093 A 
ATOM      4  C   UNL     1      20.451  31.564  43.641  1.00  0.00     0.122 A 
ATOM      5  C   UNL     1      19.424  31.305  44.564  1.00  0.00     0.047 A 
ATOM      6  C   UNL     1      18.087  31.482  44.199  1.00  0.00     0.019 A 
ENDROOT
BRANCH   1   7
ATOM      7  C   UNL     1      16.308  32.096  42.531  1.00  0.00     0.163 C 
ATOM      8  C   UNL     1      15.247  31.150  43.009  1.00  0.00     0.093 C 
ATOM      9  O   UNL     1      15.963  33.042  41.773  1.00  0.00    -0.294 OA
ENDBRANCH   1   7
BRANCH   2  10
ATOM     10  O   UNL     1      18.487  32.637  40.695  1.00  0.00    -0.507 OA
ATOM     11  H   UNL     1      18.485  32.011  39.898  1.00  0.00     0.293 HD
ENDBRANCH   2  10
BRANCH   4  12
ATOM     12  O   UNL     1      21.808  31.400  43.959  1.00  0.00    -0.497 OA
ATOM     13  C   UNL     1      22.329  31.397  45.284  1.00  0.00     0.278 C 
ENDBRANCH   4  12
TORSDOF 3
ENDMDL
MODEL 4
REMARK VINA RESULT:    -3.827     10.351     12.633
REMARK INTER + INTRA:          -4.727
REMARK INTER:                  -4.407
REMARK INTRA:                  -0.321
REMARK UNBOUND:                -0.342
REMARK SMILES COc1ccc(C(C)=O)c(O)c1
REMARK SMILES IDX 6 1 10 2 12 3 3 4 4 5 5 6 7 7 8 8 9 9 11 10 2 12 1 13
REMARK H PARENT 11 11
REMARK Flexibility Score: inf
ROOT
ATOM      1  C   UNL     1      22.412  31.744  54.154  1.00  0.00     0.059 A 
ATOM      2  C   UNL     1      21.347  31.921  55.069  1.00  0.00     0.130 A 
ATOM      3  C   UNL     1      20.029  31.650  54.675  1.00  0.00     0.093 A 
ATOM      4  C   UNL     1      19.742  31.211  53.380  1.00  0.00     0.122 A 
ATOM      5  C   UNL     1      20.796  31.037  52.468  1.00  0.00     0.047 A 
ATOM      6  C   UNL     1      22.112  31.301  52.851  1.00  0.00     0.019 A 
ENDROOT
BRANCH   1   7
ATOM      7  C   UNL     1      23.825  32.013  54.550  1.00  0.00     0.163 C 
ATOM      8  C   UNL     1      24.949  31.124  54.110  1.00  0.00     0.093 C 
ATOM      9  O   UNL     1      24.099  32.992  55.295  1.00  0.00    -0.294 OA
ENDBRANCH   1   7
BRANCH   2  10
ATOM     10  O   UNL     1      21.592  32.374  56.366  1.00  0.00    -0.507 OA
ATOM     11  H   UNL     1      21.235  31.883  57.178  1.00  0.00     0.293 HD
ENDBRANCH   2  10
BRANCH   4  12
ATOM     12  O   UNL     1      18.404  30.957  53.043  1.00  0.00    -0.497 OA
ATOM     13  C   UNL     1      17.698  31.620  52.000  1.00  0.00     0.278 C 
ENDBRANCH   4  12
TORSDOF 3
ENDMDL
MODEL 5
REMARK VINA RESULT:    -3.777     10.465     12.036
REMARK INTER + INTRA:          -4.671
REMARK INTER:                  -4.390
REMARK INTRA:                  -0.281
REMARK UNBOUND:                -0.342
REMARK SMILES COc1ccc(C(C)=O)c(O)c1
REMARK SMILES IDX 6 1 10 2 12 3 3 4 4 5 5 6 7 7 8 8 9 9 11 10 2 12 1 13
REMARK H PARENT 11 11
REMARK Flexibility Score: inf
ROOT
ATOM      1  C   UNL     1      20.452  32.000  53.917  1.00  0.00     0.059 A 
ATOM      2  C   UNL     1      21.554  31.616  53.116  1.00  0.00     0.130 A 
ATOM      3  C   UNL     1      22.855  31.666  53.639  1.00  0.00     0.093 A 
ATOM      4  C   UNL     1      23.086  32.097  54.947  1.00  0.00     0.122 A 
ATOM      5  C   UNL     1      21.996  32.483  55.745  1.00  0.00     0.047 A 
ATOM      6  C   UNL     1      20.697  32.434  55.234  1.00  0.00     0.019 A 
ENDROOT
BRANCH   1   7
ATOM      7  C   UNL     1      19.058  31.946  53.390  1.00  0.00     0.163 C 
ATOM      8  C   UNL     1      18.276  33.193  53.101  1.00  0.00     0.093 C 
ATOM      9  O   UNL     1      18.494  30.835  53.202  1.00  0.00    -0.294 OA
ENDBRANCH   1   7
BRANCH   2  10
ATOM     10  O   UNL     1      21.364  31.194  51.800  1.00  0.00    -0.507 OA
ATOM     11  H   UNL     1      21.222  30.218  51.569  1.00  0.00     0.293 HD
ENDBRANCH   2  10
BRANCH   4  12
ATOM     12  O   UNL     1      24.409  32.127  55.415  1.00  0.00    -0.497 OA
ATOM     13  C   UNL     1      25.337  33.169  55.136  1.00  0.00     0.278 C 
ENDBRANCH   4  12
TORSDOF 3
ENDMDL
MODEL 6
REMARK VINA RESULT:    -3.753     11.002     12.469
REMARK INTER + INTRA:          -4.643
REMARK INTER:                  -4.306
REMARK INTRA:                  -0.337
REMARK UNBOUND:                -0.342
REMARK SMILES COc1ccc(C(C)=O)c(O)c1
REMARK SMILES IDX 6 1 10 2 12 3 3 4 4 5 5 6 7 7 8 8 9 9 11 10 2 12 1 13
REMARK H PARENT 11 11
REMARK Flexibility Score: inf
ROOT
ATOM      1  C   UNL     1      21.061  32.037  54.117  1.00  0.00     0.059 A 
ATOM      2  C   UNL     1      21.660  32.391  55.349  1.00  0.00     0.130 A 
ATOM      3  C   UNL     1      23.051  32.303  55.505  1.00  0.00     0.093 A 
ATOM      4  C   UNL     1      23.865  31.863  54.459  1.00  0.00     0.122 A 
ATOM      5  C   UNL     1      23.274  31.507  53.235  1.00  0.00     0.047 A 
ATOM      6  C   UNL     1      21.890  31.593  53.068  1.00  0.00     0.019 A 
ENDROOT
BRANCH   1   7
ATOM      7  C   UNL     1      19.585  32.131  53.919  1.00  0.00     0.163 C 
ATOM      8  C   UNL     1      18.812  31.045  53.232  1.00  0.00     0.093 C 
ATOM      9  O   UNL     1      18.958  33.153  54.307  1.00  0.00    -0.294 OA
ENDBRANCH   1   7
BRANCH   2  10
ATOM     10  O   UNL     1      20.879  32.820  56.422  1.00  0.00    -0.507 OA
ATOM     11  H   UNL     1      20.530  32.174  57.120  1.00  0.00     0.293 HD
ENDBRANCH   2  10
BRANCH   4  12
ATOM     12  O   UNL     1      25.250  31.794  54.674  1.00  0.00    -0.497 OA
ATOM     13  C   UNL     1      26.001  32.767  55.394  1.00  0.00     0.278 C 
ENDBRANCH   4  12
TORSDOF 3
ENDMDL
MODEL 7
REMARK VINA RESULT:    -3.711      1.340      5.036
REMARK INTER + INTRA:          -4.595
REMARK INTER:                  -4.258
REMARK INTRA:                  -0.337
REMARK UNBOUND:                -0.342
REMARK SMILES COc1ccc(C(C)=O)c(O)c1
REMARK SMILES IDX 6 1 10 2 12 3 3 4 4 5 5 6 7 7 8 8 9 9 11 10 2 12 1 13
REMARK H PARENT 11 11
REMARK Flexibility Score: inf
ROOT
ATOM      1  C   UNL     1      19.092  32.333  42.862  1.00  0.00     0.059 A 
ATOM      2  C   UNL     1      18.472  32.647  41.630  1.00  0.00     0.130 A 
ATOM      3  C   UNL     1      17.086  32.491  41.480  1.00  0.00     0.093 A 
ATOM      4  C   UNL     1      16.299  32.019  42.533  1.00  0.00     0.122 A 
ATOM      5  C   UNL     1      16.911  31.702  43.757  1.00  0.00     0.047 A 
ATOM      6  C   UNL     1      18.290  31.857  43.917  1.00  0.00     0.019 A 
ENDROOT
BRANCH   1   7
ATOM      7  C   UNL     1      20.562  32.501  43.052  1.00  0.00     0.163 C 
ATOM      8  C   UNL     1      21.396  31.448  43.720  1.00  0.00     0.093 C 
ATOM      9  O   UNL     1      21.133  33.559  42.674  1.00  0.00    -0.294 OA
ENDBRANCH   1   7
BRANCH   2  10
ATOM     10  O   UNL     1      19.226  33.106  40.550  1.00  0.00    -0.507 OA
ATOM     11  H   UNL     1      18.801  33.323  39.656  1.00  0.00     0.293 HD
ENDBRANCH   2  10
BRANCH   4  12
ATOM     12  O   UNL     1      14.918  31.881  42.324  1.00  0.00    -0.497 OA
ATOM     13  C   UNL     1      14.081  32.899  41.787  1.00  0.00     0.278 C 
ENDBRANCH   4  12
TORSDOF 3
ENDMDL
MODEL 8
REMARK VINA RESULT:    -3.662      1.882      4.933
REMARK INTER + INTRA:          -4.539
REMARK INTER:                  -4.210
REMARK INTRA:                  -0.329
REMARK UNBOUND:                -0.342
REMARK SMILES COc1ccc(C(C)=O)c(O)c1
REMARK SMILES IDX 6 1 10 2 12 3 3 4 4 5 5 6 7 7 8 8 9 9 11 10 2 12 1 13
REMARK H PARENT 11 11
REMARK Flexibility Score: inf
ROOT
ATOM      1  C   UNL     1      20.502  31.741  44.083  1.00  0.00     0.059 A 
ATOM      2  C   UNL     1      19.194  31.287  44.374  1.00  0.00     0.130 A 
ATOM      3  C   UNL     1      18.144  31.545  43.480  1.00  0.00     0.093 A 
ATOM      4  C   UNL     1      18.367  32.256  42.298  1.00  0.00     0.122 A 
ATOM      5  C   UNL     1      19.663  32.713  42.007  1.00  0.00     0.047 A 
ATOM      6  C   UNL     1      20.715  32.458  42.889  1.00  0.00     0.019 A 
ENDROOT
BRANCH   1   7
ATOM      7  C   UNL     1      21.639  31.471  45.010  1.00  0.00     0.163 C 
ATOM      8  C   UNL     1      22.991  31.067  44.503  1.00  0.00     0.093 C 
ATOM      9  O   UNL     1      21.472  31.552  46.257  1.00  0.00    -0.294 OA
ENDBRANCH   1   7
BRANCH   2  10
ATOM     10  O   UNL     1      18.929  30.587  45.552  1.00  0.00    -0.507 OA
ATOM     11  H   UNL     1      18.996  29.577  45.598  1.00  0.00     0.293 HD
ENDBRANCH   2  10
BRANCH   4  12
ATOM     12  O   UNL     1      17.278  32.485  41.443  1.00  0.00    -0.497 OA
ATOM     13  C   UNL     1      15.930  32.630  41.878  1.00  0.00     0.278 C 
ENDBRANCH   4  12
TORSDOF 3
ENDMDL
MODEL 9
REMARK VINA RESULT:    -3.572      9.007     10.872
REMARK INTER + INTRA:          -4.436
REMARK INTER:                  -4.098
REMARK INTRA:                  -0.337
REMARK UNBOUND:                -0.342
REMARK SMILES COc1ccc(C(C)=O)c(O)c1
REMARK SMILES IDX 6 1 10 2 12 3 3 4 4 5 5 6 7 7 8 8 9 9 11 10 2 12 1 13
REMARK H PARENT 11 11
REMARK Flexibility Score: inf
ROOT
ATOM      1  C   UNL     1      18.857  32.059  53.216  1.00  0.00     0.059 A 
ATOM      2  C   UNL     1      18.345  33.254  52.660  1.00  0.00     0.130 A 
ATOM      3  C   UNL     1      17.237  33.212  51.801  1.00  0.00     0.093 A 
ATOM      4  C   UNL     1      16.627  31.999  51.474  1.00  0.00     0.122 A 
ATOM      5  C   UNL     1      17.135  30.808  52.020  1.00  0.00     0.047 A 
ATOM      6  C   UNL     1      18.236  30.840  52.879  1.00  0.00     0.019 A 
ENDROOT
BRANCH   1   7
ATOM      7  C   UNL     1      20.027  32.075  54.142  1.00  0.00     0.163 C 
ATOM      8  C   UNL     1      21.207  31.172  53.937  1.00  0.00     0.093 C 
ATOM      9  O   UNL     1      20.031  32.840  55.144  1.00  0.00    -0.294 OA
ENDBRANCH   1   7
BRANCH   2  10
ATOM     10  O   UNL     1      18.936  34.484  52.951  1.00  0.00    -0.507 OA
ATOM     11  H   UNL     1      19.935  34.630  52.859  1.00  0.00     0.293 HD
ENDBRANCH   2  10
BRANCH   4  12
ATOM     12  O   UNL     1      15.524  32.019  50.608  1.00  0.00    -0.497 OA
ATOM     13  C   UNL     1      14.253  32.570  50.937  1.00  0.00     0.278 C 
ENDBRANCH   4  12
TORSDOF 3
ENDMDL
