MODEL 1
REMARK VINA RESULT:    -2.737      0.000      0.000
REMARK INTER + INTRA:         -10.522
REMARK INTER:                  -6.257
REMARK INTRA:                  -4.265
REMARK UNBOUND:                -4.265
REMARK SMILES CCCCCCCCCCCCCCCCCCCCCCCC(=O)[O-]
REMARK SMILES IDX 13 1 14 2 15 3 16 4 17 5 18 6 19 7 20 8 21 9 22 10 23 11
REMARK SMILES IDX 24 12 25 13 26 14 12 15 11 16 10 17 9 18 8 19 7 20 6 21 5 22
REMARK SMILES IDX 4 23 3 24 2 25 1 26
REMARK H PARENT
REMARK Flexibility Score: inf
ROOT
ATOM      1  C   UNL     1      26.980   7.820  19.729  1.00  0.00     0.000 C 
ENDROOT
BRANCH   1   2
ATOM      2  C   UNL     1      27.073   6.326  19.387  1.00  0.00     0.000 C 
BRANCH   2   3
ATOM      3  C   UNL     1      25.999   5.487  20.098  1.00  0.00     0.000 C 
BRANCH   3   4
ATOM      4  C   UNL     1      24.880   5.022  19.150  1.00  0.00     0.000 C 
BRANCH   4   5
ATOM      5  C   UNL     1      23.468   5.494  19.539  1.00  0.00     0.000 C 
BRANCH   5   6
ATOM      6  C   UNL     1      23.476   6.510  20.695  1.00  0.00     0.000 C 
BRANCH   6   7
ATOM      7  C   UNL     1      22.240   7.432  20.677  1.00  0.00     0.000 C 
BRANCH   7   8
ATOM      8  C   UNL     1      22.408   8.700  19.816  1.00  0.00     0.000 C 
BRANCH   8   9
ATOM      9  C   UNL     1      21.597   8.683  18.506  1.00  0.00     0.000 C 
BRANCH   9  10
ATOM     10  C   UNL     1      21.713  10.003  17.727  1.00  0.00     0.006 C 
BRANCH  10  11
ATOM     11  C   UNL     1      21.422  11.204  18.632  1.00  0.00     0.053 C 
BRANCH  11  12
ATOM     12  C   UNL     1      21.054  12.404  17.818  1.00  0.00     0.041 C 
ATOM     13  O   UNL     1      20.412  13.352  18.344  1.00  0.00    -0.550 OA
ATOM     14  O   UNL     1      21.438  12.485  16.484  1.00  0.00    -0.550 OA
ENDBRANCH  11  12
ENDBRANCH  10  11
ENDBRANCH   9  10
ENDBRANCH   8   9
ENDBRANCH   7   8
ENDBRANCH   6   7
ENDBRANCH   5   6
ENDBRANCH   4   5
ENDBRANCH   3   4
ENDBRANCH   2   3
ENDBRANCH   1   2
BRANCH   1  15
ATOM     15  C   UNL     1      25.924   8.555  18.886  1.00  0.00     0.000 C 
BRANCH  15  16
ATOM     16  C   UNL     1      26.047   8.245  17.383  1.00  0.00     0.000 C 
BRANCH  16  17
ATOM     17  C   UNL     1      24.750   7.745  16.717  1.00  0.00     0.000 C 
BRANCH  17  18
ATOM     18  C   UNL     1      24.928   6.564  15.742  1.00  0.00    -0.000 C 
BRANCH  18  19
ATOM     19  C   UNL     1      23.624   5.848  15.342  1.00  0.00    -0.000 C 
BRANCH  19  20
ATOM     20  C   UNL     1      22.380   6.455  16.010  1.00  0.00    -0.000 C 
BRANCH  20  21
ATOM     21  C   UNL     1      21.428   5.354  16.500  1.00  0.00    -0.000 C 
BRANCH  21  22
ATOM     22  C   UNL     1      19.948   5.737  16.342  1.00  0.00    -0.000 C 
BRANCH  22  23
ATOM     23  C   UNL     1      19.764   7.159  15.784  1.00  0.00    -0.000 C 
BRANCH  23  24
ATOM     24  C   UNL     1      18.446   7.809  16.238  1.00  0.00    -0.000 C 
BRANCH  24  25
ATOM     25  C   UNL     1      18.459   9.350  16.159  1.00  0.00    -0.003 C 
ATOM     26  C   UNL     1      18.008  10.001  17.466  1.00  0.00     0.004 C 
ENDBRANCH  24  25
ENDBRANCH  23  24
ENDBRANCH  22  23
ENDBRANCH  21  22
ENDBRANCH  20  21
ENDBRANCH  19  20
ENDBRANCH  18  19
ENDBRANCH  17  18
ENDBRANCH  16  17
ENDBRANCH  15  16
ENDBRANCH   1  15
TORSDOF 22
ENDMDL
MODEL 2
REMARK VINA RESULT:    -2.582      1.673      4.463
REMARK INTER + INTRA:         -10.168
REMARK INTER:                  -6.703
REMARK INTRA:                  -3.465
REMARK UNBOUND:                -4.265
REMARK SMILES CCCCCCCCCCCCCCCCCCCCCCCC(=O)[O-]
REMARK SMILES IDX 13 1 14 2 15 3 16 4 17 5 18 6 19 7 20 8 21 9 22 10 23 11
REMARK SMILES IDX 24 12 25 13 26 14 12 15 11 16 10 17 9 18 8 19 7 20 6 21 5 22
REMARK SMILES IDX 4 23 3 24 2 25 1 26
REMARK H PARENT
REMARK Flexibility Score: inf
ROOT
ATOM      1  C   UNL     1      26.779   8.335  19.377  1.00  0.00     0.000 C 
ENDROOT
BRANCH   1   2
ATOM      2  C   UNL     1      26.217   8.439  17.951  1.00  0.00     0.000 C 
BRANCH   2   3
ATOM      3  C   UNL     1      26.126   7.074  17.249  1.00  0.00     0.000 C 
BRANCH   3   4
ATOM      4  C   UNL     1      24.870   6.938  16.370  1.00  0.00     0.000 C 
BRANCH   4   5
ATOM      5  C   UNL     1      25.117   6.312  14.987  1.00  0.00     0.000 C 
BRANCH   5   6
ATOM      6  C   UNL     1      23.998   5.344  14.561  1.00  0.00     0.000 C 
BRANCH   6   7
ATOM      7  C   UNL     1      22.593   5.883  14.894  1.00  0.00     0.000 C 
BRANCH   7   8
ATOM      8  C   UNL     1      21.912   5.180  16.085  1.00  0.00     0.000 C 
BRANCH   8   9
ATOM      9  C   UNL     1      20.572   5.815  16.507  1.00  0.00     0.000 C 
BRANCH   9  10
ATOM     10  C   UNL     1      20.154   6.972  15.584  1.00  0.00     0.006 C 
BRANCH  10  11
ATOM     11  C   UNL     1      18.639   7.185  15.621  1.00  0.00     0.053 C 
BRANCH  11  12
ATOM     12  C   UNL     1      18.288   8.338  16.508  1.00  0.00     0.041 C 
ATOM     13  O   UNL     1      18.034   8.145  17.727  1.00  0.00    -0.550 OA
ATOM     14  O   UNL     1      18.262   9.630  15.994  1.00  0.00    -0.550 OA
ENDBRANCH  11  12
ENDBRANCH  10  11
ENDBRANCH   9  10
ENDBRANCH   8   9
ENDBRANCH   7   8
ENDBRANCH   6   7
ENDBRANCH   5   6
ENDBRANCH   4   5
ENDBRANCH   3   4
ENDBRANCH   2   3
ENDBRANCH   1   2
BRANCH   1  15
ATOM     15  C   UNL     1      27.227   6.907  19.732  1.00  0.00     0.000 C 
BRANCH  15  16
ATOM     16  C   UNL     1      26.464   6.331  20.938  1.00  0.00     0.000 C 
BRANCH  16  17
ATOM     17  C   UNL     1      24.962   6.673  20.976  1.00  0.00     0.000 C 
BRANCH  17  18
ATOM     18  C   UNL     1      24.054   5.723  20.171  1.00  0.00    -0.000 C 
BRANCH  18  19
ATOM     19  C   UNL     1      22.956   6.419  19.344  1.00  0.00    -0.000 C 
BRANCH  19  20
ATOM     20  C   UNL     1      22.589   7.808  19.887  1.00  0.00    -0.000 C 
BRANCH  20  21
ATOM     21  C   UNL     1      22.775   8.885  18.808  1.00  0.00    -0.000 C 
BRANCH  21  22
ATOM     22  C   UNL     1      21.504   9.115  17.975  1.00  0.00    -0.000 C 
BRANCH  22  23
ATOM     23  C   UNL     1      20.948  10.541  18.130  1.00  0.00    -0.000 C 
BRANCH  23  24
ATOM     24  C   UNL     1      21.342  11.462  16.963  1.00  0.00    -0.000 C 
BRANCH  24  25
ATOM     25  C   UNL     1      21.580  12.927  17.387  1.00  0.00    -0.003 C 
ATOM     26  C   UNL     1      21.819  13.064  18.891  1.00  0.00     0.004 C 
ENDBRANCH  24  25
ENDBRANCH  23  24
ENDBRANCH  22  23
ENDBRANCH  21  22
ENDBRANCH  20  21
ENDBRANCH  19  20
ENDBRANCH  18  19
ENDBRANCH  17  18
ENDBRANCH  16  17
ENDBRANCH  15  16
ENDBRANCH   1  15
TORSDOF 22
ENDMDL
MODEL 3
REMARK VINA RESULT:    -2.567      1.978      4.711
REMARK INTER + INTRA:         -10.132
REMARK INTER:                  -5.964
REMARK INTRA:                  -4.168
REMARK UNBOUND:                -4.265
REMARK SMILES CCCCCCCCCCCCCCCCCCCCCCCC(=O)[O-]
REMARK SMILES IDX 13 1 14 2 15 3 16 4 17 5 18 6 19 7 20 8 21 9 22 10 23 11
REMARK SMILES IDX 24 12 25 13 26 14 12 15 11 16 10 17 9 18 8 19 7 20 6 21 5 22
REMARK SMILES IDX 4 23 3 24 2 25 1 26
REMARK H PARENT
REMARK Flexibility Score: inf
ROOT
ATOM      1  C   UNL     1      24.926   8.402  19.790  1.00  0.00     0.000 C 
ENDROOT
BRANCH   1   2
ATOM      2  C   UNL     1      26.169   8.044  18.962  1.00  0.00     0.000 C 
BRANCH   2   3
ATOM      3  C   UNL     1      26.142   8.663  17.554  1.00  0.00     0.000 C 
BRANCH   3   4
ATOM      4  C   UNL     1      25.079   8.027  16.642  1.00  0.00     0.000 C 
BRANCH   4   5
ATOM      5  C   UNL     1      25.348   6.559  16.268  1.00  0.00     0.000 C 
BRANCH   5   6
ATOM      6  C   UNL     1      24.991   6.241  14.805  1.00  0.00     0.000 C 
BRANCH   6   7
ATOM      7  C   UNL     1      23.863   5.197  14.687  1.00  0.00     0.000 C 
BRANCH   7   8
ATOM      8  C   UNL     1      23.143   4.890  16.016  1.00  0.00     0.000 C 
BRANCH   8   9
ATOM      9  C   UNL     1      21.648   5.262  16.021  1.00  0.00     0.000 C 
BRANCH   9  10
ATOM     10  C   UNL     1      21.416   6.754  16.315  1.00  0.00     0.006 C 
BRANCH  10  11
ATOM     11  C   UNL     1      20.359   7.342  15.376  1.00  0.00     0.053 C 
BRANCH  11  12
ATOM     12  C   UNL     1      19.070   7.566  16.102  1.00  0.00     0.041 C 
ATOM     13  O   UNL     1      18.390   8.604  15.880  1.00  0.00    -0.550 OA
ATOM     14  O   UNL     1      18.608   6.619  17.009  1.00  0.00    -0.550 OA
ENDBRANCH  11  12
ENDBRANCH  10  11
ENDBRANCH   9  10
ENDBRANCH   8   9
ENDBRANCH   7   8
ENDBRANCH   6   7
ENDBRANCH   5   6
ENDBRANCH   4   5
ENDBRANCH   3   4
ENDBRANCH   2   3
ENDBRANCH   1   2
BRANCH   1  15
ATOM     15  C   UNL     1      24.229   7.162  20.375  1.00  0.00     0.000 C 
BRANCH  15  16
ATOM     16  C   UNL     1      23.252   6.509  19.381  1.00  0.00     0.000 C 
BRANCH  16  17
ATOM     17  C   UNL     1      22.113   5.699  20.032  1.00  0.00     0.000 C 
BRANCH  17  18
ATOM     18  C   UNL     1      20.710   6.326  19.908  1.00  0.00    -0.000 C 
BRANCH  18  19
ATOM     19  C   UNL     1      20.595   7.770  20.431  1.00  0.00    -0.000 C 
BRANCH  19  20
ATOM     20  C   UNL     1      20.325   8.790  19.314  1.00  0.00    -0.000 C 
BRANCH  20  21
ATOM     21  C   UNL     1      21.507   9.758  19.158  1.00  0.00    -0.000 C 
BRANCH  21  22
ATOM     22  C   UNL     1      21.936   9.938  17.692  1.00  0.00    -0.000 C 
BRANCH  22  23
ATOM     23  C   UNL     1      20.999  10.879  16.916  1.00  0.00    -0.000 C 
BRANCH  23  24
ATOM     24  C   UNL     1      20.674  12.166  17.693  1.00  0.00    -0.000 C 
BRANCH  24  25
ATOM     25  C   UNL     1      19.161  12.405  17.884  1.00  0.00    -0.003 C 
ATOM     26  C   UNL     1      18.339  11.899  16.699  1.00  0.00     0.004 C 
ENDBRANCH  24  25
ENDBRANCH  23  24
ENDBRANCH  22  23
ENDBRANCH  21  22
ENDBRANCH  20  21
ENDBRANCH  19  20
ENDBRANCH  18  19
ENDBRANCH  17  18
ENDBRANCH  16  17
ENDBRANCH  15  16
ENDBRANCH   1  15
TORSDOF 22
ENDMDL
MODEL 4
REMARK VINA RESULT:    -2.504      1.482      2.344
REMARK INTER + INTRA:          -9.990
REMARK INTER:                  -5.067
REMARK INTRA:                  -4.923
REMARK UNBOUND:                -4.265
REMARK SMILES CCCCCCCCCCCCCCCCCCCCCCCC(=O)[O-]
REMARK SMILES IDX 13 1 14 2 15 3 16 4 17 5 18 6 19 7 20 8 21 9 22 10 23 11
REMARK SMILES IDX 24 12 25 13 26 14 12 15 11 16 10 17 9 18 8 19 7 20 6 21 5 22
REMARK SMILES IDX 4 23 3 24 2 25 1 26
REMARK H PARENT
REMARK Flexibility Score: inf
ROOT
ATOM      1  C   UNL     1      26.122   8.255  18.079  1.00  0.00     0.000 C 
ENDROOT
BRANCH   1   2
ATOM      2  C   UNL     1      26.515   6.980  18.841  1.00  0.00     0.000 C 
BRANCH   2   3
ATOM      3  C   UNL     1      25.849   6.888  20.225  1.00  0.00     0.000 C 
BRANCH   3   4
ATOM      4  C   UNL     1      24.762   5.801  20.292  1.00  0.00     0.000 C 
BRANCH   4   5
ATOM      5  C   UNL     1      23.355   6.317  20.641  1.00  0.00     0.000 C 
BRANCH   5   6
ATOM      6  C   UNL     1      23.055   7.695  20.025  1.00  0.00     0.000 C 
BRANCH   6   7
ATOM      7  C   UNL     1      22.768   8.769  21.093  1.00  0.00     0.000 C 
BRANCH   7   8
ATOM      8  C   UNL     1      23.403  10.142  20.796  1.00  0.00     0.000 C 
BRANCH   8   9
ATOM      9  C   UNL     1      22.459  11.336  21.036  1.00  0.00     0.000 C 
BRANCH   9  10
ATOM     10  C   UNL     1      22.448  12.322  19.856  1.00  0.00     0.006 C 
BRANCH  10  11
ATOM     11  C   UNL     1      21.144  13.124  19.821  1.00  0.00     0.053 C 
BRANCH  11  12
ATOM     12  C   UNL     1      20.592  13.178  18.431  1.00  0.00     0.041 C 
ATOM     13  O   UNL     1      19.345  13.166  18.244  1.00  0.00    -0.550 OA
ATOM     14  O   UNL     1      21.452  13.263  17.343  1.00  0.00    -0.550 OA
ENDBRANCH  11  12
ENDBRANCH  10  11
ENDBRANCH   9  10
ENDBRANCH   8   9
ENDBRANCH   7   8
ENDBRANCH   6   7
ENDBRANCH   5   6
ENDBRANCH   4   5
ENDBRANCH   3   4
ENDBRANCH   2   3
ENDBRANCH   1   2
BRANCH   1  15
ATOM     15  C   UNL     1      25.116   7.980  16.948  1.00  0.00     0.000 C 
BRANCH  15  16
ATOM     16  C   UNL     1      25.047   6.490  16.568  1.00  0.00     0.000 C 
BRANCH  16  17
ATOM     17  C   UNL     1      23.663   5.838  16.756  1.00  0.00     0.000 C 
BRANCH  17  18
ATOM     18  C   UNL     1      22.557   6.370  15.822  1.00  0.00    -0.000 C 
BRANCH  18  19
ATOM     19  C   UNL     1      21.118   6.080  16.288  1.00  0.00    -0.000 C 
BRANCH  19  20
ATOM     20  C   UNL     1      21.042   5.648  17.761  1.00  0.00    -0.000 C 
BRANCH  20  21
ATOM     21  C   UNL     1      19.614   5.801  18.304  1.00  0.00    -0.000 C 
BRANCH  21  22
ATOM     22  C   UNL     1      19.067   7.228  18.142  1.00  0.00    -0.000 C 
BRANCH  22  23
ATOM     23  C   UNL     1      19.443   8.141  19.322  1.00  0.00    -0.000 C 
BRANCH  23  24
ATOM     24  C   UNL     1      19.882   9.544  18.871  1.00  0.00    -0.000 C 
BRANCH  24  25
ATOM     25  C   UNL     1      20.270   9.620  17.379  1.00  0.00    -0.003 C 
ATOM     26  C   UNL     1      21.782   9.711  17.178  1.00  0.00     0.004 C 
ENDBRANCH  24  25
ENDBRANCH  23  24
ENDBRANCH  22  23
ENDBRANCH  21  22
ENDBRANCH  20  21
ENDBRANCH  19  20
ENDBRANCH  18  19
ENDBRANCH  17  18
ENDBRANCH  16  17
ENDBRANCH  15  16
ENDBRANCH   1  15
TORSDOF 22
ENDMDL
MODEL 5
REMARK VINA RESULT:    -2.491      1.341      2.068
REMARK INTER + INTRA:          -9.959
REMARK INTER:                  -5.671
REMARK INTRA:                  -4.288
REMARK UNBOUND:                -4.265
REMARK SMILES CCCCCCCCCCCCCCCCCCCCCCCC(=O)[O-]
REMARK SMILES IDX 13 1 14 2 15 3 16 4 17 5 18 6 19 7 20 8 21 9 22 10 23 11
REMARK SMILES IDX 24 12 25 13 26 14 12 15 11 16 10 17 9 18 8 19 7 20 6 21 5 22
REMARK SMILES IDX 4 23 3 24 2 25 1 26
REMARK H PARENT
REMARK Flexibility Score: inf
ROOT
ATOM      1  C   UNL     1      26.805   8.116  19.310  1.00  0.00     0.000 C 
ENDROOT
BRANCH   1   2
ATOM      2  C   UNL     1      26.247   7.052  20.267  1.00  0.00     0.000 C 
BRANCH   2   3
ATOM      3  C   UNL     1      24.813   7.362  20.726  1.00  0.00     0.000 C 
BRANCH   3   4
ATOM      4  C   UNL     1      23.822   6.233  20.393  1.00  0.00     0.000 C 
BRANCH   4   5
ATOM      5  C   UNL     1      22.607   6.669  19.555  1.00  0.00     0.000 C 
BRANCH   5   6
ATOM      6  C   UNL     1      22.291   8.169  19.696  1.00  0.00     0.000 C 
BRANCH   6   7
ATOM      7  C   UNL     1      22.292   8.902  18.340  1.00  0.00     0.000 C 
BRANCH   7   8
ATOM      8  C   UNL     1      21.574  10.266  18.357  1.00  0.00     0.000 C 
BRANCH   8   9
ATOM      9  C   UNL     1      21.326  10.864  16.959  1.00  0.00     0.000 C 
BRANCH   9  10
ATOM     10  C   UNL     1      20.955  12.355  17.016  1.00  0.00     0.006 C 
BRANCH  10  11
ATOM     11  C   UNL     1      20.554  12.769  18.435  1.00  0.00     0.053 C 
BRANCH  11  12
ATOM     12  C   UNL     1      19.120  13.193  18.477  1.00  0.00     0.041 C 
ATOM     13  O   UNL     1      18.255  12.569  17.808  1.00  0.00    -0.550 OA
ATOM     14  O   UNL     1      18.735  14.266  19.274  1.00  0.00    -0.550 OA
ENDBRANCH  11  12
ENDBRANCH  10  11
ENDBRANCH   9  10
ENDBRANCH   8   9
ENDBRANCH   7   8
ENDBRANCH   6   7
ENDBRANCH   5   6
ENDBRANCH   4   5
ENDBRANCH   3   4
ENDBRANCH   2   3
ENDBRANCH   1   2
BRANCH   1  15
ATOM     15  C   UNL     1      25.954   8.270  18.038  1.00  0.00     0.000 C 
BRANCH  15  16
ATOM     16  C   UNL     1      25.834   6.957  17.243  1.00  0.00     0.000 C 
BRANCH  16  17
ATOM     17  C   UNL     1      24.606   6.872  16.316  1.00  0.00     0.000 C 
BRANCH  17  18
ATOM     18  C   UNL     1      23.917   5.494  16.267  1.00  0.00    -0.000 C 
BRANCH  18  19
ATOM     19  C   UNL     1      22.618   5.445  15.441  1.00  0.00    -0.000 C 
BRANCH  19  20
ATOM     20  C   UNL     1      21.415   6.045  16.184  1.00  0.00    -0.000 C 
BRANCH  20  21
ATOM     21  C   UNL     1      20.856   7.261  15.431  1.00  0.00    -0.000 C 
BRANCH  21  22
ATOM     22  C   UNL     1      19.457   7.669  15.919  1.00  0.00    -0.000 C 
BRANCH  22  23
ATOM     23  C   UNL     1      18.855   6.649  16.900  1.00  0.00    -0.000 C 
BRANCH  23  24
ATOM     24  C   UNL     1      18.502   7.270  18.262  1.00  0.00    -0.000 C 
BRANCH  24  25
ATOM     25  C   UNL     1      18.266   8.794  18.202  1.00  0.00    -0.003 C 
ATOM     26  C   UNL     1      18.359   9.449  19.580  1.00  0.00     0.004 C 
ENDBRANCH  24  25
ENDBRANCH  23  24
ENDBRANCH  22  23
ENDBRANCH  21  22
ENDBRANCH  20  21
ENDBRANCH  19  20
ENDBRANCH  18  19
ENDBRANCH  17  18
ENDBRANCH  16  17
ENDBRANCH  15  16
ENDBRANCH   1  15
TORSDOF 22
ENDMDL
MODEL 6
REMARK VINA RESULT:    -2.488      2.583      6.122
REMARK INTER + INTRA:          -9.953
REMARK INTER:                  -5.783
REMARK INTRA:                  -4.170
REMARK UNBOUND:                -4.265
REMARK SMILES CCCCCCCCCCCCCCCCCCCCCCCC(=O)[O-]
REMARK SMILES IDX 13 1 14 2 15 3 16 4 17 5 18 6 19 7 20 8 21 9 22 10 23 11
REMARK SMILES IDX 24 12 25 13 26 14 12 15 11 16 10 17 9 18 8 19 7 20 6 21 5 22
REMARK SMILES IDX 4 23 3 24 2 25 1 26
REMARK H PARENT
REMARK Flexibility Score: inf
ROOT
ATOM      1  C   UNL     1      21.602  10.817  16.982  1.00  0.00     0.000 C 
ENDROOT
BRANCH   1   2
ATOM      2  C   UNL     1      21.023  12.234  17.110  1.00  0.00     0.000 C 
BRANCH   2   3
ATOM      3  C   UNL     1      21.402  12.912  18.437  1.00  0.00     0.000 C 
BRANCH   3   4
ATOM      4  C   UNL     1      20.254  12.903  19.461  1.00  0.00     0.000 C 
BRANCH   4   5
ATOM      5  C   UNL     1      20.581  12.197  20.789  1.00  0.00     0.000 C 
BRANCH   5   6
ATOM      6  C   UNL     1      21.289  10.845  20.588  1.00  0.00     0.000 C 
BRANCH   6   7
ATOM      7  C   UNL     1      22.773  10.889  21.006  1.00  0.00     0.000 C 
BRANCH   7   8
ATOM      8  C   UNL     1      23.584   9.647  20.587  1.00  0.00     0.000 C 
BRANCH   8   9
ATOM      9  C   UNL     1      22.791   8.633  19.738  1.00  0.00     0.000 C 
BRANCH   9  10
ATOM     10  C   UNL     1      23.690   7.538  19.141  1.00  0.00     0.006 C 
BRANCH  10  11
ATOM     11  C   UNL     1      24.566   8.097  18.017  1.00  0.00     0.053 C 
BRANCH  11  12
ATOM     12  C   UNL     1      26.007   7.774  18.258  1.00  0.00     0.041 C 
ATOM     13  O   UNL     1      26.793   8.664  18.684  1.00  0.00    -0.550 OA
ATOM     14  O   UNL     1      26.479   6.486  18.034  1.00  0.00    -0.550 OA
ENDBRANCH  11  12
ENDBRANCH  10  11
ENDBRANCH   9  10
ENDBRANCH   8   9
ENDBRANCH   7   8
ENDBRANCH   6   7
ENDBRANCH   5   6
ENDBRANCH   4   5
ENDBRANCH   3   4
ENDBRANCH   2   3
ENDBRANCH   1   2
BRANCH   1  15
ATOM     15  C   UNL     1      20.510   9.734  16.943  1.00  0.00     0.000 C 
BRANCH  15  16
ATOM     16  C   UNL     1      19.095  10.315  17.122  1.00  0.00     0.000 C 
BRANCH  16  17
ATOM     17  C   UNL     1      18.087   9.363  17.796  1.00  0.00     0.000 C 
BRANCH  17  18
ATOM     18  C   UNL     1      18.682   8.438  18.877  1.00  0.00    -0.000 C 
BRANCH  18  19
ATOM     19  C   UNL     1      18.731   6.945  18.499  1.00  0.00    -0.000 C 
BRANCH  19  20
ATOM     20  C   UNL     1      19.936   6.214  19.110  1.00  0.00    -0.000 C 
BRANCH  20  21
ATOM     21  C   UNL     1      20.660   5.369  18.052  1.00  0.00    -0.000 C 
BRANCH  21  22
ATOM     22  C   UNL     1      20.486   5.925  16.629  1.00  0.00    -0.000 C 
BRANCH  22  23
ATOM     23  C   UNL     1      21.811   6.418  16.024  1.00  0.00    -0.000 C 
BRANCH  23  24
ATOM     24  C   UNL     1      22.912   5.344  16.050  1.00  0.00    -0.000 C 
BRANCH  24  25
ATOM     25  C   UNL     1      23.747   5.285  14.753  1.00  0.00    -0.003 C 
ATOM     26  C   UNL     1      24.937   6.244  14.786  1.00  0.00     0.004 C 
ENDBRANCH  24  25
ENDBRANCH  23  24
ENDBRANCH  22  23
ENDBRANCH  21  22
ENDBRANCH  20  21
ENDBRANCH  19  20
ENDBRANCH  18  19
ENDBRANCH  17  18
ENDBRANCH  16  17
ENDBRANCH  15  16
ENDBRANCH   1  15
TORSDOF 22
ENDMDL
MODEL 7
REMARK VINA RESULT:    -2.466      2.695      5.862
REMARK INTER + INTRA:          -9.903
REMARK INTER:                  -6.223
REMARK INTRA:                  -3.680
REMARK UNBOUND:                -4.265
REMARK SMILES CCCCCCCCCCCCCCCCCCCCCCCC(=O)[O-]
REMARK SMILES IDX 13 1 14 2 15 3 16 4 17 5 18 6 19 7 20 8 21 9 22 10 23 11
REMARK SMILES IDX 24 12 25 13 26 14 12 15 11 16 10 17 9 18 8 19 7 20 6 21 5 22
REMARK SMILES IDX 4 23 3 24 2 25 1 26
REMARK H PARENT
REMARK Flexibility Score: inf
ROOT
ATOM      1  C   UNL     1      22.018  11.984  20.007  1.00  0.00     0.000 C 
ENDROOT
BRANCH   1   2
ATOM      2  C   UNL     1      21.022  11.045  20.704  1.00  0.00     0.000 C 
BRANCH   2   3
ATOM      3  C   UNL     1      20.860   9.703  19.971  1.00  0.00     0.000 C 
BRANCH   3   4
ATOM      4  C   UNL     1      21.964   9.455  18.929  1.00  0.00     0.000 C 
BRANCH   4   5
ATOM      5  C   UNL     1      23.002   8.393  19.331  1.00  0.00     0.000 C 
BRANCH   5   6
ATOM      6  C   UNL     1      24.284   9.004  19.925  1.00  0.00     0.000 C 
BRANCH   6   7
ATOM      7  C   UNL     1      25.318   7.933  20.323  1.00  0.00     0.000 C 
BRANCH   7   8
ATOM      8  C   UNL     1      26.538   7.851  19.384  1.00  0.00     0.000 C 
BRANCH   8   9
ATOM      9  C   UNL     1      26.497   6.664  18.402  1.00  0.00     0.000 C 
BRANCH   9  10
ATOM     10  C   UNL     1      25.910   7.052  17.036  1.00  0.00     0.006 C 
BRANCH  10  11
ATOM     11  C   UNL     1      24.570   6.352  16.793  1.00  0.00     0.053 C 
BRANCH  11  12
ATOM     12  C   UNL     1      24.386   6.047  15.340  1.00  0.00     0.041 C 
ATOM     13  O   UNL     1      25.300   6.320  14.516  1.00  0.00    -0.550 OA
ATOM     14  O   UNL     1      23.216   5.440  14.898  1.00  0.00    -0.550 OA
ENDBRANCH  11  12
ENDBRANCH  10  11
ENDBRANCH   9  10
ENDBRANCH   8   9
ENDBRANCH   7   8
ENDBRANCH   6   7
ENDBRANCH   5   6
ENDBRANCH   4   5
ENDBRANCH   3   4
ENDBRANCH   2   3
ENDBRANCH   1   2
BRANCH   1  15
ATOM     15  C   UNL     1      21.322  13.139  19.267  1.00  0.00     0.000 C 
BRANCH  15  16
ATOM     16  C   UNL     1      21.409  12.998  17.737  1.00  0.00     0.000 C 
BRANCH  16  17
ATOM     17  C   UNL     1      20.179  12.345  17.076  1.00  0.00     0.000 C 
BRANCH  17  18
ATOM     18  C   UNL     1      18.911  12.304  17.953  1.00  0.00    -0.000 C 
BRANCH  18  19
ATOM     19  C   UNL     1      18.072  11.019  17.823  1.00  0.00    -0.000 C 
BRANCH  19  20
ATOM     20  C   UNL     1      18.484  10.155  16.621  1.00  0.00    -0.000 C 
BRANCH  20  21
ATOM     21  C   UNL     1      18.784   8.714  17.058  1.00  0.00    -0.000 C 
BRANCH  21  22
ATOM     22  C   UNL     1      18.859   7.739  15.872  1.00  0.00    -0.000 C 
BRANCH  22  23
ATOM     23  C   UNL     1      20.140   6.886  15.891  1.00  0.00    -0.000 C 
BRANCH  23  24
ATOM     24  C   UNL     1      20.024   5.661  16.813  1.00  0.00    -0.000 C 
BRANCH  24  25
ATOM     25  C   UNL     1      21.138   5.582  17.878  1.00  0.00    -0.003 C 
ATOM     26  C   UNL     1      20.577   5.528  19.299  1.00  0.00     0.004 C 
ENDBRANCH  24  25
ENDBRANCH  23  24
ENDBRANCH  22  23
ENDBRANCH  21  22
ENDBRANCH  20  21
ENDBRANCH  19  20
ENDBRANCH  18  19
ENDBRANCH  17  18
ENDBRANCH  16  17
ENDBRANCH  15  16
ENDBRANCH   1  15
TORSDOF 22
ENDMDL
MODEL 8
REMARK VINA RESULT:    -2.448      1.606      4.371
REMARK INTER + INTRA:          -9.861
REMARK INTER:                  -6.105
REMARK INTRA:                  -3.757
REMARK UNBOUND:                -4.265
REMARK SMILES CCCCCCCCCCCCCCCCCCCCCCCC(=O)[O-]
REMARK SMILES IDX 13 1 14 2 15 3 16 4 17 5 18 6 19 7 20 8 21 9 22 10 23 11
REMARK SMILES IDX 24 12 25 13 26 14 12 15 11 16 10 17 9 18 8 19 7 20 6 21 5 22
REMARK SMILES IDX 4 23 3 24 2 25 1 26
REMARK H PARENT
REMARK Flexibility Score: inf
ROOT
ATOM      1  C   UNL     1      25.990   8.522  18.849  1.00  0.00     0.000 C 
ENDROOT
BRANCH   1   2
ATOM      2  C   UNL     1      26.135   8.207  17.353  1.00  0.00     0.000 C 
BRANCH   2   3
ATOM      3  C   UNL     1      24.828   7.696  16.725  1.00  0.00     0.000 C 
BRANCH   3   4
ATOM      4  C   UNL     1      25.049   6.512  15.767  1.00  0.00     0.000 C 
BRANCH   4   5
ATOM      5  C   UNL     1      23.774   5.994  15.078  1.00  0.00     0.000 C 
BRANCH   5   6
ATOM      6  C   UNL     1      22.605   5.790  16.059  1.00  0.00     0.000 C 
BRANCH   6   7
ATOM      7  C   UNL     1      21.391   6.678  15.721  1.00  0.00     0.000 C 
BRANCH   7   8
ATOM      8  C   UNL     1      21.131   7.808  16.738  1.00  0.00     0.000 C 
BRANCH   8   9
ATOM      9  C   UNL     1      19.711   7.803  17.335  1.00  0.00     0.000 C 
BRANCH   9  10
ATOM     10  C   UNL     1      19.271   9.196  17.814  1.00  0.00     0.006 C 
BRANCH  10  11
ATOM     11  C   UNL     1      20.001  10.300  17.043  1.00  0.00     0.053 C 
BRANCH  11  12
ATOM     12  C   UNL     1      19.357  11.629  17.284  1.00  0.00     0.041 C 
ATOM     13  O   UNL     1      19.863  12.437  18.109  1.00  0.00    -0.550 OA
ATOM     14  O   UNL     1      18.212  11.986  16.582  1.00  0.00    -0.550 OA
ENDBRANCH  11  12
ENDBRANCH  10  11
ENDBRANCH   9  10
ENDBRANCH   8   9
ENDBRANCH   7   8
ENDBRANCH   6   7
ENDBRANCH   5   6
ENDBRANCH   4   5
ENDBRANCH   3   4
ENDBRANCH   2   3
ENDBRANCH   1   2
BRANCH   1  15
ATOM     15  C   UNL     1      26.921   7.666  19.725  1.00  0.00     0.000 C 
BRANCH  15  16
ATOM     16  C   UNL     1      26.796   6.161  19.429  1.00  0.00     0.000 C 
BRANCH  16  17
ATOM     17  C   UNL     1      25.620   5.459  20.137  1.00  0.00     0.000 C 
BRANCH  17  18
ATOM     18  C   UNL     1      24.439   5.078  19.222  1.00  0.00    -0.000 C 
BRANCH  18  19
ATOM     19  C   UNL     1      23.085   5.698  19.617  1.00  0.00    -0.000 C 
BRANCH  19  20
ATOM     20  C   UNL     1      23.227   6.861  20.610  1.00  0.00    -0.000 C 
BRANCH  20  21
ATOM     21  C   UNL     1      22.167   7.941  20.346  1.00  0.00    -0.000 C 
BRANCH  21  22
ATOM     22  C   UNL     1      22.738   9.165  19.612  1.00  0.00    -0.000 C 
BRANCH  22  23
ATOM     23  C   UNL     1      22.142  10.488  20.123  1.00  0.00    -0.000 C 
BRANCH  23  24
ATOM     24  C   UNL     1      23.174  11.360  20.856  1.00  0.00    -0.000 C 
BRANCH  24  25
ATOM     25  C   UNL     1      22.870  12.872  20.780  1.00  0.00    -0.003 C 
ATOM     26  C   UNL     1      24.091  13.687  20.353  1.00  0.00     0.004 C 
ENDBRANCH  24  25
ENDBRANCH  23  24
ENDBRANCH  22  23
ENDBRANCH  21  22
ENDBRANCH  20  21
ENDBRANCH  19  20
ENDBRANCH  18  19
ENDBRANCH  17  18
ENDBRANCH  16  17
ENDBRANCH  15  16
ENDBRANCH   1  15
TORSDOF 22
ENDMDL
MODEL 9
REMARK VINA RESULT:    -2.439      1.560      2.753
REMARK INTER + INTRA:          -9.841
REMARK INTER:                  -5.489
REMARK INTRA:                  -4.352
REMARK UNBOUND:                -4.265
REMARK SMILES CCCCCCCCCCCCCCCCCCCCCCCC(=O)[O-]
REMARK SMILES IDX 13 1 14 2 15 3 16 4 17 5 18 6 19 7 20 8 21 9 22 10 23 11
REMARK SMILES IDX 24 12 25 13 26 14 12 15 11 16 10 17 9 18 8 19 7 20 6 21 5 22
REMARK SMILES IDX 4 23 3 24 2 25 1 26
REMARK H PARENT
REMARK Flexibility Score: inf
ROOT
ATOM      1  C   UNL     1      26.052   8.038  17.371  1.00  0.00     0.000 C 
ENDROOT
BRANCH   1   2
ATOM      2  C   UNL     1      26.474   7.040  18.459  1.00  0.00     0.000 C 
BRANCH   2   3
ATOM      3  C   UNL     1      26.787   7.723  19.801  1.00  0.00     0.000 C 
BRANCH   3   4
ATOM      4  C   UNL     1      25.522   8.199  20.537  1.00  0.00     0.000 C 
BRANCH   4   5
ATOM      5  C   UNL     1      24.521   7.083  20.883  1.00  0.00     0.000 C 
BRANCH   5   6
ATOM      6  C   UNL     1      23.057   7.503  20.657  1.00  0.00     0.000 C 
BRANCH   6   7
ATOM      7  C   UNL     1      22.931   8.721  19.721  1.00  0.00     0.000 C 
BRANCH   7   8
ATOM      8  C   UNL     1      21.487   9.035  19.281  1.00  0.00     0.000 C 
BRANCH   8   9
ATOM      9  C   UNL     1      21.259  10.502  18.869  1.00  0.00     0.000 C 
BRANCH   9  10
ATOM     10  C   UNL     1      21.318  10.699  17.345  1.00  0.00     0.006 C 
BRANCH  10  11
ATOM     11  C   UNL     1      20.819  12.092  16.951  1.00  0.00     0.053 C 
BRANCH  11  12
ATOM     12  C   UNL     1      19.371  12.253  17.293  1.00  0.00     0.041 C 
ATOM     13  O   UNL     1      19.031  12.896  18.322  1.00  0.00    -0.550 OA
ATOM     14  O   UNL     1      18.395  11.711  16.464  1.00  0.00    -0.550 OA
ENDBRANCH  11  12
ENDBRANCH  10  11
ENDBRANCH   9  10
ENDBRANCH   8   9
ENDBRANCH   7   8
ENDBRANCH   6   7
ENDBRANCH   5   6
ENDBRANCH   4   5
ENDBRANCH   3   4
ENDBRANCH   2   3
ENDBRANCH   1   2
BRANCH   1  15
ATOM     15  C   UNL     1      24.682   7.699  16.758  1.00  0.00     0.000 C 
BRANCH  15  16
ATOM     16  C   UNL     1      24.379   6.190  16.786  1.00  0.00     0.000 C 
BRANCH  16  17
ATOM     17  C   UNL     1      23.040   5.812  17.451  1.00  0.00     0.000 C 
BRANCH  17  18
ATOM     18  C   UNL     1      21.821   5.802  16.507  1.00  0.00    -0.000 C 
BRANCH  18  19
ATOM     19  C   UNL     1      21.284   7.193  16.123  1.00  0.00    -0.000 C 
BRANCH  19  20
ATOM     20  C   UNL     1      19.899   7.137  15.462  1.00  0.00    -0.000 C 
BRANCH  20  21
ATOM     21  C   UNL     1      19.046   8.348  15.870  1.00  0.00    -0.000 C 
BRANCH  21  22
ATOM     22  C   UNL     1      17.881   7.967  16.796  1.00  0.00    -0.000 C 
BRANCH  22  23
ATOM     23  C   UNL     1      18.051   8.528  18.218  1.00  0.00    -0.000 C 
BRANCH  23  24
ATOM     24  C   UNL     1      18.034   7.431  19.296  1.00  0.00    -0.000 C 
BRANCH  24  25
ATOM     25  C   UNL     1      18.676   6.105  18.837  1.00  0.00    -0.003 C 
ATOM     26  C   UNL     1      19.882   5.719  19.693  1.00  0.00     0.004 C 
ENDBRANCH  24  25
ENDBRANCH  23  24
ENDBRANCH  22  23
ENDBRANCH  21  22
ENDBRANCH  20  21
ENDBRANCH  19  20
ENDBRANCH  18  19
ENDBRANCH  17  18
ENDBRANCH  16  17
ENDBRANCH  15  16
ENDBRANCH   1  15
TORSDOF 22
ENDMDL
