MODEL 1
REMARK VINA RESULT:    -4.421      0.000      0.000
REMARK INTER + INTRA:          -6.043
REMARK INTER:                  -5.972
REMARK INTRA:                  -0.072
REMARK UNBOUND:                -0.072
REMARK SMILES [NH3+]CCCC[C@H]([NH3+])C(=O)[O-]
REMARK SMILES IDX 4 1 3 2 2 3 1 4 5 8 6 9 7 10 8 14 9 15 10 16
REMARK H PARENT 1 5 1 6 1 7 7 11 7 12 7 13
REMARK Flexibility Score: inf
ROOT
ATOM      1  C   UNL     1     -15.837  13.686  -9.412  1.00  0.00     0.012 C 
ENDROOT
BRANCH   1   2
ATOM      2  C   UNL     1     -15.444  12.721 -10.548  1.00  0.00     0.061 C 
BRANCH   2   3
ATOM      3  C   UNL     1     -15.719  11.234 -10.255  1.00  0.00     0.258 C 
BRANCH   3   4
ATOM      4  N   UNL     1     -14.488  10.479 -10.015  1.00  0.00    -0.358 N 
ATOM      5  H   UNL     1     -14.487  10.087  -9.046  1.00  0.00     0.344 HD
ATOM      6  H   UNL     1     -13.670  11.124 -10.110  1.00  0.00     0.344 HD
ATOM      7  H   UNL     1     -14.392   9.708 -10.713  1.00  0.00     0.344 HD
ENDBRANCH   3   4
ENDBRANCH   2   3
ENDBRANCH   1   2
BRANCH   1   8
ATOM      8  C   UNL     1     -14.995  14.976  -9.326  1.00  0.00     0.072 C 
BRANCH   8   9
ATOM      9  C   UNL     1     -14.911  15.593  -7.910  1.00  0.00     0.227 C 
BRANCH   9  10
ATOM     10  N   UNL     1     -16.127  16.361  -7.617  1.00  0.00    -0.350 N 
ATOM     11  H   UNL     1     -16.964  15.735  -7.677  1.00  0.00     0.345 HD
ATOM     12  H   UNL     1     -16.078  16.747  -6.645  1.00  0.00     0.345 HD
ATOM     13  H   UNL     1     -16.242  17.149  -8.295  1.00  0.00     0.345 HD
ENDBRANCH   9  10
BRANCH   9  14
ATOM     14  C   UNL     1     -13.701  16.480  -7.775  1.00  0.00     0.099 C 
ATOM     15  O   UNL     1     -12.990  16.740  -8.781  1.00  0.00    -0.544 OA
ATOM     16  O   UNL     1     -13.360  17.020  -6.540  1.00  0.00    -0.544 OA
ENDBRANCH   9  14
ENDBRANCH   8   9
ENDBRANCH   1   8
TORSDOF 7
ENDMDL
MODEL 2
REMARK VINA RESULT:    -4.385      3.803      5.688
REMARK INTER + INTRA:          -5.994
REMARK INTER:                  -5.927
REMARK INTRA:                  -0.067
REMARK UNBOUND:                -0.072
REMARK SMILES [NH3+]CCCC[C@H]([NH3+])C(=O)[O-]
REMARK SMILES IDX 4 1 3 2 2 3 1 4 5 8 6 9 7 10 8 14 9 15 10 16
REMARK H PARENT 1 5 1 6 1 7 7 11 7 12 7 13
REMARK Flexibility Score: inf
ROOT
ATOM      1  C   UNL     1     -15.238  14.124  -8.986  1.00  0.00     0.012 C 
ENDROOT
BRANCH   1   2
ATOM      2  C   UNL     1     -15.073  15.657  -9.001  1.00  0.00     0.061 C 
BRANCH   2   3
ATOM      3  C   UNL     1     -13.668  16.151  -9.392  1.00  0.00     0.258 C 
BRANCH   3   4
ATOM      4  N   UNL     1     -13.190  17.218  -8.510  1.00  0.00    -0.358 N 
ATOM      5  H   UNL     1     -13.688  18.113  -8.722  1.00  0.00     0.344 HD
ATOM      6  H   UNL     1     -12.168  17.364  -8.675  1.00  0.00     0.344 HD
ATOM      7  H   UNL     1     -13.335  16.957  -7.509  1.00  0.00     0.344 HD
ENDBRANCH   3   4
ENDBRANCH   2   3
ENDBRANCH   1   2
BRANCH   1   8
ATOM      8  C   UNL     1     -16.023  13.537 -10.177  1.00  0.00     0.072 C 
BRANCH   8   9
ATOM      9  C   UNL     1     -15.783  12.029 -10.422  1.00  0.00     0.227 C 
BRANCH   9  10
ATOM     10  N   UNL     1     -15.139  11.822 -11.725  1.00  0.00    -0.350 N 
ATOM     11  H   UNL     1     -14.117  11.646 -11.591  1.00  0.00     0.345 HD
ATOM     12  H   UNL     1     -15.555  10.986 -12.198  1.00  0.00     0.345 HD
ATOM     13  H   UNL     1     -15.264  12.660 -12.338  1.00  0.00     0.345 HD
ENDBRANCH   9  10
BRANCH   9  14
ATOM     14  C   UNL     1     -17.074  11.255 -10.359  1.00  0.00     0.099 C 
ATOM     15  O   UNL     1     -17.834  11.209 -11.362  1.00  0.00    -0.544 OA
ATOM     16  O   UNL     1     -17.435  10.585  -9.196  1.00  0.00    -0.544 OA
ENDBRANCH   9  14
ENDBRANCH   8   9
ENDBRANCH   1   8
TORSDOF 7
ENDMDL
MODEL 3
REMARK VINA RESULT:    -4.321      9.468     10.571
REMARK INTER + INTRA:          -5.908
REMARK INTER:                  -5.777
REMARK INTRA:                  -0.131
REMARK UNBOUND:                -0.072
REMARK SMILES [NH3+]CCCC[C@H]([NH3+])C(=O)[O-]
REMARK SMILES IDX 4 1 3 2 2 3 1 4 5 8 6 9 7 10 8 14 9 15 10 16
REMARK H PARENT 1 5 1 6 1 7 7 11 7 12 7 13
REMARK Flexibility Score: inf
ROOT
ATOM      1  C   UNL     1     -10.962   4.408  -9.627  1.00  0.00     0.012 C 
ENDROOT
BRANCH   1   2
ATOM      2  C   UNL     1     -11.627   4.842 -10.949  1.00  0.00     0.061 C 
BRANCH   2   3
ATOM      3  C   UNL     1     -12.804   5.822 -10.788  1.00  0.00     0.258 C 
BRANCH   3   4
ATOM      4  N   UNL     1     -12.364   7.154 -10.370  1.00  0.00    -0.358 N 
ATOM      5  H   UNL     1     -11.372   7.315 -10.659  1.00  0.00     0.344 HD
ATOM      6  H   UNL     1     -12.418   7.218  -9.328  1.00  0.00     0.344 HD
ATOM      7  H   UNL     1     -12.981   7.888 -10.785  1.00  0.00     0.344 HD
ENDBRANCH   3   4
ENDBRANCH   2   3
ENDBRANCH   1   2
BRANCH   1   8
ATOM      8  C   UNL     1      -9.491   4.841  -9.459  1.00  0.00     0.072 C 
BRANCH   8   9
ATOM      9  C   UNL     1      -9.200   5.629  -8.160  1.00  0.00     0.227 C 
BRANCH   9  10
ATOM     10  N   UNL     1      -9.796   6.968  -8.232  1.00  0.00    -0.350 N 
ATOM     11  H   UNL     1      -9.102   7.644  -8.625  1.00  0.00     0.345 HD
ATOM     12  H   UNL     1     -10.630   6.952  -8.865  1.00  0.00     0.345 HD
ATOM     13  H   UNL     1     -10.092   7.294  -7.283  1.00  0.00     0.345 HD
ENDBRANCH   9  10
BRANCH   9  14
ATOM     14  C   UNL     1      -7.718   5.740  -7.913  1.00  0.00     0.099 C 
ATOM     15  O   UNL     1      -7.278   6.552  -7.056  1.00  0.00    -0.544 OA
ATOM     16  O   UNL     1      -6.825   4.947  -8.625  1.00  0.00    -0.544 OA
ENDBRANCH   9  14
ENDBRANCH   8   9
ENDBRANCH   1   8
TORSDOF 7
ENDMDL
MODEL 4
REMARK VINA RESULT:    -4.319      3.220      4.477
REMARK INTER + INTRA:          -5.906
REMARK INTER:                  -5.404
REMARK INTRA:                  -0.502
REMARK UNBOUND:                -0.072
REMARK SMILES [NH3+]CCCC[C@H]([NH3+])C(=O)[O-]
REMARK SMILES IDX 4 1 3 2 2 3 1 4 5 8 6 9 7 10 8 14 9 15 10 16
REMARK H PARENT 1 5 1 6 1 7 7 11 7 12 7 13
REMARK Flexibility Score: inf
ROOT
ATOM      1  C   UNL     1     -12.901  16.111  -5.421  1.00  0.00     0.012 C 
ENDROOT
BRANCH   1   2
ATOM      2  C   UNL     1     -13.287  14.725  -4.868  1.00  0.00     0.061 C 
BRANCH   2   3
ATOM      3  C   UNL     1     -14.732  14.618  -4.345  1.00  0.00     0.258 C 
BRANCH   3   4
ATOM      4  N   UNL     1     -15.505  13.598  -5.056  1.00  0.00    -0.358 N 
ATOM      5  H   UNL     1     -15.147  12.644  -4.821  1.00  0.00     0.344 HD
ATOM      6  H   UNL     1     -15.398  13.746  -6.085  1.00  0.00     0.344 HD
ATOM      7  H   UNL     1     -16.518  13.671  -4.809  1.00  0.00     0.344 HD
ENDBRANCH   3   4
ENDBRANCH   2   3
ENDBRANCH   1   2
BRANCH   1   8
ATOM      8  C   UNL     1     -13.831  16.662  -6.522  1.00  0.00     0.072 C 
BRANCH   8   9
ATOM      9  C   UNL     1     -13.593  16.057  -7.925  1.00  0.00     0.227 C 
BRANCH   9  10
ATOM     10  N   UNL     1     -13.219  17.110  -8.876  1.00  0.00    -0.350 N 
ATOM     11  H   UNL     1     -13.850  17.936  -8.757  1.00  0.00     0.345 HD
ATOM     12  H   UNL     1     -12.236  17.420  -8.694  1.00  0.00     0.345 HD
ATOM     13  H   UNL     1     -13.293  16.763  -9.861  1.00  0.00     0.345 HD
ENDBRANCH   9  10
BRANCH   9  14
ATOM     14  C   UNL     1     -14.817  15.331  -8.419  1.00  0.00     0.099 C 
ATOM     15  O   UNL     1     -14.824  14.808  -9.564  1.00  0.00    -0.544 OA
ATOM     16  O   UNL     1     -15.947  15.230  -7.614  1.00  0.00    -0.544 OA
ENDBRANCH   9  14
ENDBRANCH   8   9
ENDBRANCH   1   8
TORSDOF 7
ENDMDL
MODEL 5
REMARK VINA RESULT:    -4.312      3.635      5.551
REMARK INTER + INTRA:          -5.896
REMARK INTER:                  -5.822
REMARK INTRA:                  -0.074
REMARK UNBOUND:                -0.072
REMARK SMILES [NH3+]CCCC[C@H]([NH3+])C(=O)[O-]
REMARK SMILES IDX 4 1 3 2 2 3 1 4 5 8 6 9 7 10 8 14 9 15 10 16
REMARK H PARENT 1 5 1 6 1 7 7 11 7 12 7 13
REMARK Flexibility Score: inf
ROOT
ATOM      1  C   UNL     1     -15.412  15.028  -9.067  1.00  0.00     0.012 C 
ENDROOT
BRANCH   1   2
ATOM      2  C   UNL     1     -14.158  15.886  -9.329  1.00  0.00     0.061 C 
BRANCH   2   3
ATOM      3  C   UNL     1     -14.289  17.363  -8.915  1.00  0.00     0.258 C 
BRANCH   3   4
ATOM      4  N   UNL     1     -14.600  18.232 -10.052  1.00  0.00    -0.358 N 
ATOM      5  H   UNL     1     -15.469  17.904 -10.531  1.00  0.00     0.344 HD
ATOM      6  H   UNL     1     -13.812  18.190 -10.738  1.00  0.00     0.344 HD
ATOM      7  H   UNL     1     -14.718  19.220  -9.734  1.00  0.00     0.344 HD
ENDBRANCH   3   4
ENDBRANCH   2   3
ENDBRANCH   1   2
BRANCH   1   8
ATOM      8  C   UNL     1     -15.355  13.593  -9.630  1.00  0.00     0.072 C 
BRANCH   8   9
ATOM      9  C   UNL     1     -16.738  12.947  -9.879  1.00  0.00     0.227 C 
BRANCH   9  10
ATOM     10  N   UNL     1     -17.210  12.271  -8.664  1.00  0.00    -0.350 N 
ATOM     11  H   UNL     1     -16.513  11.549  -8.367  1.00  0.00     0.345 HD
ATOM     12  H   UNL     1     -17.312  12.965  -7.888  1.00  0.00     0.345 HD
ATOM     13  H   UNL     1     -18.132  11.807  -8.833  1.00  0.00     0.345 HD
ENDBRANCH   9  10
BRANCH   9  14
ATOM     14  C   UNL     1     -16.683  11.968 -11.022  1.00  0.00     0.099 C 
ATOM     15  O   UNL     1     -15.618  11.818 -11.676  1.00  0.00    -0.544 OA
ATOM     16  O   UNL     1     -17.806  11.221 -11.362  1.00  0.00    -0.544 OA
ENDBRANCH   9  14
ENDBRANCH   8   9
ENDBRANCH   1   8
TORSDOF 7
ENDMDL
MODEL 6
REMARK VINA RESULT:    -4.305      3.511      5.181
REMARK INTER + INTRA:          -5.886
REMARK INTER:                  -5.399
REMARK INTRA:                  -0.487
REMARK UNBOUND:                -0.072
REMARK SMILES [NH3+]CCCC[C@H]([NH3+])C(=O)[O-]
REMARK SMILES IDX 4 1 3 2 2 3 1 4 5 8 6 9 7 10 8 14 9 15 10 16
REMARK H PARENT 1 5 1 6 1 7 7 11 7 12 7 13
REMARK Flexibility Score: inf
ROOT
ATOM      1  C   UNL     1     -19.148  12.456 -11.869  1.00  0.00     0.012 C 
ENDROOT
BRANCH   1   2
ATOM      2  C   UNL     1     -19.394  13.950 -11.581  1.00  0.00     0.061 C 
BRANCH   2   3
ATOM      3  C   UNL     1     -20.103  14.242 -10.246  1.00  0.00     0.258 C 
BRANCH   3   4
ATOM      4  N   UNL     1     -19.339  15.164  -9.403  1.00  0.00    -0.358 N 
ATOM      5  H   UNL     1     -18.785  15.823  -9.996  1.00  0.00     0.344 HD
ATOM      6  H   UNL     1     -18.674  14.614  -8.813  1.00  0.00     0.344 HD
ATOM      7  H   UNL     1     -19.980  15.700  -8.776  1.00  0.00     0.344 HD
ENDBRANCH   3   4
ENDBRANCH   2   3
ENDBRANCH   1   2
BRANCH   1   8
ATOM      8  C   UNL     1     -18.004  11.811 -11.059  1.00  0.00     0.072 C 
BRANCH   8   9
ATOM      9  C   UNL     1     -16.646  12.542 -11.174  1.00  0.00     0.227 C 
BRANCH   9  10
ATOM     10  N   UNL     1     -15.589  11.596 -11.549  1.00  0.00    -0.350 N 
ATOM     11  H   UNL     1     -14.913  12.059 -12.199  1.00  0.00     0.345 HD
ATOM     12  H   UNL     1     -15.065  11.292 -10.695  1.00  0.00     0.345 HD
ATOM     13  H   UNL     1     -15.994  10.754 -12.020  1.00  0.00     0.345 HD
ENDBRANCH   9  10
BRANCH   9  14
ATOM     14  C   UNL     1     -16.286  13.227  -9.881  1.00  0.00     0.099 C 
ATOM     15  O   UNL     1     -17.032  13.109  -8.874  1.00  0.00    -0.544 OA
ATOM     16  O   UNL     1     -15.128  13.991  -9.790  1.00  0.00    -0.544 OA
ENDBRANCH   9  14
ENDBRANCH   8   9
ENDBRANCH   1   8
TORSDOF 7
ENDMDL
MODEL 7
REMARK VINA RESULT:    -4.205      1.877      2.015
REMARK INTER + INTRA:          -5.752
REMARK INTER:                  -5.631
REMARK INTRA:                  -0.121
REMARK UNBOUND:                -0.072
REMARK SMILES [NH3+]CCCC[C@H]([NH3+])C(=O)[O-]
REMARK SMILES IDX 4 1 3 2 2 3 1 4 5 8 6 9 7 10 8 14 9 15 10 16
REMARK H PARENT 1 5 1 6 1 7 7 11 7 12 7 13
REMARK Flexibility Score: inf
ROOT
ATOM      1  C   UNL     1     -16.185  14.670  -9.186  1.00  0.00     0.012 C 
ENDROOT
BRANCH   1   2
ATOM      2  C   UNL     1     -16.500  13.476 -10.109  1.00  0.00     0.061 C 
BRANCH   2   3
ATOM      3  C   UNL     1     -15.279  12.619 -10.494  1.00  0.00     0.258 C 
BRANCH   3   4
ATOM      4  N   UNL     1     -15.581  11.679 -11.575  1.00  0.00    -0.358 N 
ATOM      5  H   UNL     1     -15.480  10.695 -11.239  1.00  0.00     0.344 HD
ATOM      6  H   UNL     1     -14.903  11.831 -12.357  1.00  0.00     0.344 HD
ATOM      7  H   UNL     1     -16.549  11.836 -11.935  1.00  0.00     0.344 HD
ENDBRANCH   3   4
ENDBRANCH   2   3
ENDBRANCH   1   2
BRANCH   1   8
ATOM      8  C   UNL     1     -14.688  15.011  -9.040  1.00  0.00     0.072 C 
BRANCH   8   9
ATOM      9  C   UNL     1     -14.325  16.471  -9.400  1.00  0.00     0.227 C 
BRANCH   9  10
ATOM     10  N   UNL     1     -13.013  16.521 -10.057  1.00  0.00    -0.350 N 
ATOM     11  H   UNL     1     -13.054  16.009 -10.968  1.00  0.00     0.345 HD
ATOM     12  H   UNL     1     -12.752  17.516 -10.253  1.00  0.00     0.345 HD
ATOM     13  H   UNL     1     -12.279  16.086  -9.453  1.00  0.00     0.345 HD
ENDBRANCH   9  10
BRANCH   9  14
ATOM     14  C   UNL     1     -14.319  17.347  -8.175  1.00  0.00     0.099 C 
ATOM     15  O   UNL     1     -13.357  17.295  -7.364  1.00  0.00    -0.544 OA
ATOM     16  O   UNL     1     -15.372  18.222  -7.932  1.00  0.00    -0.544 OA
ENDBRANCH   9  14
ENDBRANCH   8   9
ENDBRANCH   1   8
TORSDOF 7
ENDMDL
MODEL 8
REMARK VINA RESULT:    -4.096     16.761     17.620
REMARK INTER + INTRA:          -5.604
REMARK INTER:                  -5.122
REMARK INTRA:                  -0.481
REMARK UNBOUND:                -0.072
REMARK SMILES [NH3+]CCCC[C@H]([NH3+])C(=O)[O-]
REMARK SMILES IDX 4 1 3 2 2 3 1 4 5 8 6 9 7 10 8 14 9 15 10 16
REMARK H PARENT 1 5 1 6 1 7 7 11 7 12 7 13
REMARK Flexibility Score: inf
ROOT
ATOM      1  C   UNL     1      -1.791  17.546 -21.793  1.00  0.00     0.012 C 
ENDROOT
BRANCH   1   2
ATOM      2  C   UNL     1      -0.956  18.210 -20.680  1.00  0.00     0.061 C 
BRANCH   2   3
ATOM      3  C   UNL     1      -1.674  18.338 -19.324  1.00  0.00     0.258 C 
BRANCH   3   4
ATOM      4  N   UNL     1      -3.131  18.365 -19.468  1.00  0.00    -0.358 N 
ATOM      5  H   UNL     1      -3.495  19.328 -19.286  1.00  0.00     0.344 HD
ATOM      6  H   UNL     1      -3.554  17.716 -18.766  1.00  0.00     0.344 HD
ATOM      7  H   UNL     1      -3.408  18.053 -20.426  1.00  0.00     0.344 HD
ENDBRANCH   3   4
ENDBRANCH   2   3
ENDBRANCH   1   2
BRANCH   1   8
ATOM      8  C   UNL     1      -1.813  16.004 -21.767  1.00  0.00     0.072 C 
BRANCH   8   9
ATOM      9  C   UNL     1      -3.218  15.380 -21.937  1.00  0.00     0.227 C 
BRANCH   9  10
ATOM     10  N   UNL     1      -4.168  16.390 -22.419  1.00  0.00    -0.350 N 
ATOM     11  H   UNL     1      -3.746  16.921 -23.215  1.00  0.00     0.345 HD
ATOM     12  H   UNL     1      -5.039  15.922 -22.763  1.00  0.00     0.345 HD
ATOM     13  H   UNL     1      -4.417  17.059 -21.655  1.00  0.00     0.345 HD
ENDBRANCH   9  10
BRANCH   9  14
ATOM     14  C   UNL     1      -3.710  14.790 -20.641  1.00  0.00     0.099 C 
ATOM     15  O   UNL     1      -4.649  13.951 -20.644  1.00  0.00    -0.544 OA
ATOM     16  O   UNL     1      -3.131  15.164 -19.433  1.00  0.00    -0.544 OA
ENDBRANCH   9  14
ENDBRANCH   8   9
ENDBRANCH   1   8
TORSDOF 7
ENDMDL
MODEL 9
REMARK VINA RESULT:    -4.066     16.283     16.869
REMARK INTER + INTRA:          -5.564
REMARK INTER:                  -5.458
REMARK INTRA:                  -0.106
REMARK UNBOUND:                -0.072
REMARK SMILES [NH3+]CCCC[C@H]([NH3+])C(=O)[O-]
REMARK SMILES IDX 4 1 3 2 2 3 1 4 5 8 6 9 7 10 8 14 9 15 10 16
REMARK H PARENT 1 5 1 6 1 7 7 11 7 12 7 13
REMARK Flexibility Score: inf
ROOT
ATOM      1  C   UNL     1      -4.359  10.946 -22.358  1.00  0.00     0.012 C 
ENDROOT
BRANCH   1   2
ATOM      2  C   UNL     1      -3.301   9.832 -22.482  1.00  0.00     0.061 C 
BRANCH   2   3
ATOM      3  C   UNL     1      -3.838   8.404 -22.269  1.00  0.00     0.258 C 
BRANCH   3   4
ATOM      4  N   UNL     1      -4.664   8.297 -21.065  1.00  0.00    -0.358 N 
ATOM      5  H   UNL     1      -4.158   7.757 -20.326  1.00  0.00     0.344 HD
ATOM      6  H   UNL     1      -5.544   7.784 -21.301  1.00  0.00     0.344 HD
ATOM      7  H   UNL     1      -4.913   9.246 -20.708  1.00  0.00     0.344 HD
ENDBRANCH   3   4
ENDBRANCH   2   3
ENDBRANCH   1   2
BRANCH   1   8
ATOM      8  C   UNL     1      -4.292  11.774 -21.058  1.00  0.00     0.072 C 
BRANCH   8   9
ATOM      9  C   UNL     1      -3.170  12.837 -21.033  1.00  0.00     0.227 C 
BRANCH   9  10
ATOM     10  N   UNL     1      -2.074  12.400 -20.160  1.00  0.00    -0.350 N 
ATOM     11  H   UNL     1      -1.265  12.078 -20.740  1.00  0.00     0.345 HD
ATOM     12  H   UNL     1      -1.752  13.200 -19.567  1.00  0.00     0.345 HD
ATOM     13  H   UNL     1      -2.383  11.616 -19.540  1.00  0.00     0.345 HD
ENDBRANCH   9  10
BRANCH   9  14
ATOM     14  C   UNL     1      -3.694  14.171 -20.569  1.00  0.00     0.099 C 
ATOM     15  O   UNL     1      -4.630  14.736 -21.195  1.00  0.00    -0.544 OA
ATOM     16  O   UNL     1      -3.153  14.787 -19.446  1.00  0.00    -0.544 OA
ENDBRANCH   9  14
ENDBRANCH   8   9
ENDBRANCH   1   8
TORSDOF 7
ENDMDL
