MODEL 1
REMARK VINA RESULT:    -5.021      0.000      0.000
REMARK INTER + INTRA:          -5.504
REMARK INTER:                  -5.314
REMARK INTRA:                  -0.190
REMARK UNBOUND:                -0.190
REMARK SMILES CC(C)[C@@H]1CC[C@@H](C)[C@H]2C=C[C@@H](C)C[C@@H]21
REMARK SMILES IDX 8 1 7 2 6 3 5 4 4 5 15 6 9 7 10 8 11 9 12 10 14 11 13 12
REMARK SMILES IDX 2 13 1 14 3 15
REMARK H PARENT
REMARK Flexibility Score: inf
ROOT
ATOM      1  C   UNL     1      -0.625  17.390  14.968  1.00  0.00     0.008 C 
ATOM      2  C   UNL     1       0.916  17.441  14.996  1.00  0.00    -0.007 C 
ATOM      3  C   UNL     1       1.501  17.616  13.583  1.00  0.00     0.004 C 
ATOM      4  C   UNL     1       1.381  16.349  12.716  1.00  0.00     0.004 C 
ATOM      5  C   UNL     1       1.919  15.054  13.387  1.00  0.00    -0.005 C 
ATOM      6  C   UNL     1       1.414  14.930  14.865  1.00  0.00    -0.000 C 
ATOM      7  C   UNL     1       1.574  16.225  15.693  1.00  0.00     0.018 C 
ATOM      8  C   UNL     1       1.068  16.047  17.111  1.00  0.00    -0.027 C 
ATOM      9  C   UNL     1       1.021  14.848  17.718  1.00  0.00    -0.028 C 
ATOM     10  C   UNL     1       1.295  13.541  17.003  1.00  0.00     0.008 C 
ATOM     11  C   UNL     1       2.013  13.745  15.649  1.00  0.00     0.012 C 
ATOM     12  C   UNL     1      -0.010  12.751  16.845  1.00  0.00     0.012 C 
ENDROOT
BRANCH   5  13
ATOM     13  C   UNL     1       3.438  14.752  13.106  1.00  0.00    -0.014 C 
ATOM     14  C   UNL     1       3.635  13.324  12.564  1.00  0.00     0.007 C 
ATOM     15  C   UNL     1       4.146  15.744  12.172  1.00  0.00     0.007 C 
ENDBRANCH   5  13
TORSDOF 1
ENDMDL
MODEL 2
REMARK VINA RESULT:    -4.931      1.144      4.387
REMARK INTER + INTRA:          -5.409
REMARK INTER:                  -5.153
REMARK INTRA:                  -0.256
REMARK UNBOUND:                -0.190
REMARK SMILES CC(C)[C@@H]1CC[C@@H](C)[C@H]2C=C[C@@H](C)C[C@@H]21
REMARK SMILES IDX 8 1 7 2 6 3 5 4 4 5 15 6 9 7 10 8 11 9 12 10 14 11 13 12
REMARK SMILES IDX 2 13 1 14 3 15
REMARK H PARENT
REMARK Flexibility Score: inf
ROOT
ATOM      1  C   UNL     1       1.139  17.549  15.135  1.00  0.00     0.008 C 
ATOM      2  C   UNL     1       0.095  16.416  15.208  1.00  0.00    -0.007 C 
ATOM      3  C   UNL     1      -0.375  16.174  16.653  1.00  0.00     0.004 C 
ATOM      4  C   UNL     1       0.691  15.490  17.531  1.00  0.00     0.004 C 
ATOM      5  C   UNL     1       1.301  14.199  16.917  1.00  0.00    -0.005 C 
ATOM      6  C   UNL     1       1.678  14.410  15.411  1.00  0.00    -0.000 C 
ATOM      7  C   UNL     1       0.566  15.084  14.575  1.00  0.00     0.018 C 
ATOM      8  C   UNL     1       0.987  15.264  13.130  1.00  0.00    -0.027 C 
ATOM      9  C   UNL     1       1.907  14.482  12.540  1.00  0.00    -0.028 C 
ATOM     10  C   UNL     1       2.741  13.465  13.292  1.00  0.00     0.008 C 
ATOM     11  C   UNL     1       2.161  13.137  14.687  1.00  0.00     0.012 C 
ATOM     12  C   UNL     1       4.195  13.945  13.376  1.00  0.00     0.012 C 
ENDROOT
BRANCH   5  13
ATOM     13  C   UNL     1       0.548  12.870  17.302  1.00  0.00    -0.014 C 
ATOM     14  C   UNL     1       0.483  12.687  18.831  1.00  0.00     0.007 C 
ATOM     15  C   UNL     1      -0.865  12.720  16.719  1.00  0.00     0.007 C 
ENDBRANCH   5  13
TORSDOF 1
ENDMDL
MODEL 3
REMARK VINA RESULT:    -4.897      1.599      4.218
REMARK INTER + INTRA:          -5.373
REMARK INTER:                  -5.163
REMARK INTRA:                  -0.210
REMARK UNBOUND:                -0.190
REMARK SMILES CC(C)[C@@H]1CC[C@@H](C)[C@H]2C=C[C@@H](C)C[C@@H]21
REMARK SMILES IDX 8 1 7 2 6 3 5 4 4 5 15 6 9 7 10 8 11 9 12 10 14 11 13 12
REMARK SMILES IDX 2 13 1 14 3 15
REMARK H PARENT
REMARK Flexibility Score: inf
ROOT
ATOM      1  C   UNL     1       1.889  16.882  17.581  1.00  0.00     0.008 C 
ATOM      2  C   UNL     1       0.608  16.110  17.206  1.00  0.00    -0.007 C 
ATOM      3  C   UNL     1       0.703  14.628  17.609  1.00  0.00     0.004 C 
ATOM      4  C   UNL     1       1.665  13.818  16.720  1.00  0.00     0.004 C 
ATOM      5  C   UNL     1       1.413  13.967  15.193  1.00  0.00    -0.005 C 
ATOM      6  C   UNL     1       1.204  15.469  14.796  1.00  0.00    -0.000 C 
ATOM      7  C   UNL     1       0.216  16.228  15.712  1.00  0.00     0.018 C 
ATOM      8  C   UNL     1       0.056  17.672  15.283  1.00  0.00    -0.027 C 
ATOM      9  C   UNL     1       0.271  18.082  14.021  1.00  0.00    -0.028 C 
ATOM     10  C   UNL     1       0.860  17.192  12.946  1.00  0.00     0.008 C 
ATOM     11  C   UNL     1       0.810  15.694  13.323  1.00  0.00     0.012 C 
ATOM     12  C   UNL     1       2.285  17.651  12.614  1.00  0.00     0.012 C 
ENDROOT
BRANCH   5  13
ATOM     13  C   UNL     1       0.421  12.907  14.586  1.00  0.00    -0.014 C 
ATOM     14  C   UNL     1       1.141  11.581  14.273  1.00  0.00     0.007 C 
ATOM     15  C   UNL     1      -0.827  12.612  15.430  1.00  0.00     0.007 C 
ENDBRANCH   5  13
TORSDOF 1
ENDMDL
MODEL 4
REMARK VINA RESULT:    -4.718      1.438      4.657
REMARK INTER + INTRA:          -5.183
REMARK INTER:                  -4.965
REMARK INTRA:                  -0.218
REMARK UNBOUND:                -0.190
REMARK SMILES CC(C)[C@@H]1CC[C@@H](C)[C@H]2C=C[C@@H](C)C[C@@H]21
REMARK SMILES IDX 8 1 7 2 6 3 5 4 4 5 15 6 9 7 10 8 11 9 12 10 14 11 13 12
REMARK SMILES IDX 2 13 1 14 3 15
REMARK H PARENT
REMARK Flexibility Score: inf
ROOT
ATOM      1  C   UNL     1       0.918  13.683  12.721  1.00  0.00     0.008 C 
ATOM      2  C   UNL     1       1.879  13.885  13.910  1.00  0.00    -0.007 C 
ATOM      3  C   UNL     1       1.757  12.744  14.935  1.00  0.00     0.004 C 
ATOM      4  C   UNL     1       0.452  12.799  15.751  1.00  0.00     0.004 C 
ATOM      5  C   UNL     1       0.160  14.176  16.410  1.00  0.00    -0.005 C 
ATOM      6  C   UNL     1       0.392  15.350  15.398  1.00  0.00    -0.000 C 
ATOM      7  C   UNL     1       1.725  15.252  14.620  1.00  0.00     0.018 C 
ATOM      8  C   UNL     1       1.893  16.410  13.656  1.00  0.00    -0.027 C 
ATOM      9  C   UNL     1       1.294  17.599  13.840  1.00  0.00    -0.028 C 
ATOM     10  C   UNL     1       0.259  17.852  14.917  1.00  0.00     0.008 C 
ATOM     11  C   UNL     1       0.260  16.759  16.009  1.00  0.00     0.012 C 
ATOM     12  C   UNL     1      -1.125  18.021  14.278  1.00  0.00     0.012 C 
ENDROOT
BRANCH   5  13
ATOM     13  C   UNL     1       0.737  14.342  17.866  1.00  0.00    -0.014 C 
ATOM     14  C   UNL     1       0.402  13.121  18.743  1.00  0.00     0.007 C 
ATOM     15  C   UNL     1       2.245  14.621  17.949  1.00  0.00     0.007 C 
ENDBRANCH   5  13
TORSDOF 1
ENDMDL
MODEL 5
REMARK VINA RESULT:    -4.652      1.856      3.727
REMARK INTER + INTRA:          -5.114
REMARK INTER:                  -4.894
REMARK INTRA:                  -0.219
REMARK UNBOUND:                -0.190
REMARK SMILES CC(C)[C@@H]1CC[C@@H](C)[C@H]2C=C[C@@H](C)C[C@@H]21
REMARK SMILES IDX 8 1 7 2 6 3 5 4 4 5 15 6 9 7 10 8 11 9 12 10 14 11 13 12
REMARK SMILES IDX 2 13 1 14 3 15
REMARK H PARENT
REMARK Flexibility Score: inf
ROOT
ATOM      1  C   UNL     1       1.010  14.405  17.869  1.00  0.00     0.008 C 
ATOM      2  C   UNL     1       1.820  15.171  16.803  1.00  0.00    -0.007 C 
ATOM      3  C   UNL     1       1.491  16.675  16.817  1.00  0.00     0.004 C 
ATOM      4  C   UNL     1       0.098  16.997  16.246  1.00  0.00     0.004 C 
ATOM      5  C   UNL     1      -0.187  16.375  14.850  1.00  0.00    -0.005 C 
ATOM      6  C   UNL     1       0.250  14.871  14.798  1.00  0.00    -0.000 C 
ATOM      7  C   UNL     1       1.663  14.609  15.368  1.00  0.00     0.018 C 
ATOM      8  C   UNL     1       2.031  13.141  15.295  1.00  0.00    -0.027 C 
ATOM      9  C   UNL     1       1.491  12.303  14.393  1.00  0.00    -0.028 C 
ATOM     10  C   UNL     1       0.344  12.687  13.481  1.00  0.00     0.008 C 
ATOM     11  C   UNL     1       0.131  14.217  13.407  1.00  0.00     0.012 C 
ATOM     12  C   UNL     1      -0.932  11.953  13.914  1.00  0.00     0.012 C 
ENDROOT
BRANCH   5  13
ATOM     13  C   UNL     1       0.205  17.292  13.632  1.00  0.00    -0.014 C 
ATOM     14  C   UNL     1      -0.871  18.362  13.367  1.00  0.00     0.007 C 
ATOM     15  C   UNL     1       1.576  17.976  13.735  1.00  0.00     0.007 C 
ENDBRANCH   5  13
TORSDOF 1
ENDMDL
MODEL 6
REMARK VINA RESULT:    -4.619      1.091      3.675
REMARK INTER + INTRA:          -5.079
REMARK INTER:                  -4.893
REMARK INTRA:                  -0.186
REMARK UNBOUND:                -0.190
REMARK SMILES CC(C)[C@@H]1CC[C@@H](C)[C@H]2C=C[C@@H](C)C[C@@H]21
REMARK SMILES IDX 8 1 7 2 6 3 5 4 4 5 15 6 9 7 10 8 11 9 12 10 14 11 13 12
REMARK SMILES IDX 2 13 1 14 3 15
REMARK H PARENT
REMARK Flexibility Score: inf
ROOT
ATOM      1  C   UNL     1       3.762  14.247  13.377  1.00  0.00     0.008 C 
ATOM      2  C   UNL     1       2.257  14.249  13.042  1.00  0.00    -0.007 C 
ATOM      3  C   UNL     1       1.880  15.441  12.144  1.00  0.00     0.004 C 
ATOM      4  C   UNL     1       1.898  16.789  12.888  1.00  0.00     0.004 C 
ATOM      5  C   UNL     1       1.084  16.808  14.212  1.00  0.00    -0.005 C 
ATOM      6  C   UNL     1       1.383  15.537  15.079  1.00  0.00    -0.000 C 
ATOM      7  C   UNL     1       1.334  14.211  14.285  1.00  0.00     0.018 C 
ATOM      8  C   UNL     1       1.633  13.019  15.172  1.00  0.00    -0.027 C 
ATOM      9  C   UNL     1       1.415  13.030  16.499  1.00  0.00    -0.028 C 
ATOM     10  C   UNL     1       1.022  14.275  17.268  1.00  0.00     0.008 C 
ATOM     11  C   UNL     1       0.513  15.406  16.345  1.00  0.00     0.012 C 
ATOM     12  C   UNL     1       2.194  14.736  18.144  1.00  0.00     0.012 C 
ENDROOT
BRANCH   5  13
ATOM     13  C   UNL     1      -0.420  17.246  14.052  1.00  0.00    -0.014 C 
ATOM     14  C   UNL     1      -0.779  18.380  15.030  1.00  0.00     0.007 C 
ATOM     15  C   UNL     1      -0.840  17.655  12.633  1.00  0.00     0.007 C 
ENDBRANCH   5  13
TORSDOF 1
ENDMDL
MODEL 7
REMARK VINA RESULT:    -4.580      1.327      3.663
REMARK INTER + INTRA:          -5.037
REMARK INTER:                  -4.821
REMARK INTRA:                  -0.216
REMARK UNBOUND:                -0.190
REMARK SMILES CC(C)[C@@H]1CC[C@@H](C)[C@H]2C=C[C@@H](C)C[C@@H]21
REMARK SMILES IDX 8 1 7 2 6 3 5 4 4 5 15 6 9 7 10 8 11 9 12 10 14 11 13 12
REMARK SMILES IDX 2 13 1 14 3 15
REMARK H PARENT
REMARK Flexibility Score: inf
ROOT
ATOM      1  C   UNL     1      -0.311  13.826  17.674  1.00  0.00     0.008 C 
ATOM      2  C   UNL     1      -0.462  13.628  16.153  1.00  0.00    -0.007 C 
ATOM      3  C   UNL     1       0.385  12.445  15.651  1.00  0.00     0.004 C 
ATOM      4  C   UNL     1       1.896  12.742  15.642  1.00  0.00     0.004 C 
ATOM      5  C   UNL     1       2.291  14.059  14.917  1.00  0.00    -0.005 C 
ATOM      6  C   UNL     1       1.356  15.243  15.343  1.00  0.00    -0.000 C 
ATOM      7  C   UNL     1      -0.149  14.894  15.318  1.00  0.00     0.018 C 
ATOM      8  C   UNL     1      -1.003  16.073  15.740  1.00  0.00    -0.027 C 
ATOM      9  C   UNL     1      -0.594  17.347  15.610  1.00  0.00    -0.028 C 
ATOM     10  C   UNL     1       0.813  17.732  15.199  1.00  0.00     0.008 C 
ATOM     11  C   UNL     1       1.590  16.555  14.567  1.00  0.00     0.012 C 
ATOM     12  C   UNL     1       1.558  18.331  16.399  1.00  0.00     0.012 C 
ENDROOT
BRANCH   5  13
ATOM     13  C   UNL     1       2.608  13.895  13.384  1.00  0.00    -0.014 C 
ATOM     14  C   UNL     1       4.094  14.172  13.087  1.00  0.00     0.007 C 
ATOM     15  C   UNL     1       2.218  12.541  12.772  1.00  0.00     0.007 C 
ENDBRANCH   5  13
TORSDOF 1
ENDMDL
MODEL 8
REMARK VINA RESULT:    -4.442      1.743      2.384
REMARK INTER + INTRA:          -4.892
REMARK INTER:                  -4.674
REMARK INTRA:                  -0.218
REMARK UNBOUND:                -0.190
REMARK SMILES CC(C)[C@@H]1CC[C@@H](C)[C@H]2C=C[C@@H](C)C[C@@H]21
REMARK SMILES IDX 8 1 7 2 6 3 5 4 4 5 15 6 9 7 10 8 11 9 12 10 14 11 13 12
REMARK SMILES IDX 2 13 1 14 3 15
REMARK H PARENT
REMARK Flexibility Score: inf
ROOT
ATOM      1  C   UNL     1       0.395  16.786  15.742  1.00  0.00     0.008 C 
ATOM      2  C   UNL     1       1.601  15.907  15.350  1.00  0.00    -0.007 C 
ATOM      3  C   UNL     1       1.585  15.563  13.850  1.00  0.00     0.004 C 
ATOM      4  C   UNL     1       0.494  14.545  13.473  1.00  0.00     0.004 C 
ATOM      5  C   UNL     1       0.485  13.256  14.342  1.00  0.00    -0.005 C 
ATOM      6  C   UNL     1       0.614  13.598  15.866  1.00  0.00    -0.000 C 
ATOM      7  C   UNL     1       1.735  14.612  16.188  1.00  0.00     0.018 C 
ATOM      8  C   UNL     1       1.811  14.907  17.673  1.00  0.00    -0.027 C 
ATOM      9  C   UNL     1       1.384  14.039  18.607  1.00  0.00    -0.028 C 
ATOM     10  C   UNL     1       0.630  12.767  18.278  1.00  0.00     0.008 C 
ATOM     11  C   UNL     1       0.753  12.371  16.789  1.00  0.00     0.012 C 
ATOM     12  C   UNL     1      -0.834  12.904  18.715  1.00  0.00     0.012 C 
ENDROOT
BRANCH   5  13
ATOM     13  C   UNL     1       1.370  12.080  13.781  1.00  0.00    -0.014 C 
ATOM     14  C   UNL     1       0.517  10.835  13.475  1.00  0.00     0.007 C 
ATOM     15  C   UNL     1       2.217  12.423  12.547  1.00  0.00     0.007 C 
ENDBRANCH   5  13
TORSDOF 1
ENDMDL
MODEL 9
REMARK VINA RESULT:    -2.922      1.170      4.409
REMARK INTER + INTRA:          -3.282
REMARK INTER:                  -3.026
REMARK INTRA:                  -0.256
REMARK UNBOUND:                -0.190
REMARK SMILES CC(C)[C@@H]1CC[C@@H](C)[C@H]2C=C[C@@H](C)C[C@@H]21
REMARK SMILES IDX 8 1 7 2 6 3 5 4 4 5 15 6 9 7 10 8 11 9 12 10 14 11 13 12
REMARK SMILES IDX 2 13 1 14 3 15
REMARK H PARENT
REMARK Flexibility Score: inf
ROOT
ATOM      1  C   UNL     1       0.495  12.883  16.731  1.00  0.00     0.008 C 
ATOM      2  C   UNL     1       1.136  14.261  16.994  1.00  0.00    -0.007 C 
ATOM      3  C   UNL     1       0.094  15.285  17.478  1.00  0.00     0.004 C 
ATOM      4  C   UNL     1      -0.867  15.745  16.366  1.00  0.00     0.004 C 
ATOM      5  C   UNL     1      -0.165  16.233  15.068  1.00  0.00    -0.005 C 
ATOM      6  C   UNL     1       0.974  15.248  14.634  1.00  0.00    -0.000 C 
ATOM      7  C   UNL     1       1.918  14.833  15.786  1.00  0.00     0.018 C 
ATOM      8  C   UNL     1       2.995  13.880  15.309  1.00  0.00    -0.027 C 
ATOM      9  C   UNL     1       3.417  13.842  14.033  1.00  0.00    -0.028 C 
ATOM     10  C   UNL     1       2.747  14.612  12.912  1.00  0.00     0.008 C 
ATOM     11  C   UNL     1       1.814  15.729  13.434  1.00  0.00     0.012 C 
ATOM     12  C   UNL     1       2.011  13.639  11.982  1.00  0.00     0.012 C 
ENDROOT
BRANCH   5  13
ATOM     13  C   UNL     1       0.152  17.775  15.034  1.00  0.00    -0.014 C 
ATOM     14  C   UNL     1      -1.125  18.613  15.235  1.00  0.00     0.007 C 
ATOM     15  C   UNL     1       1.225  18.250  16.024  1.00  0.00     0.007 C 
ENDBRANCH   5  13
TORSDOF 1
ENDMDL
