MODEL 1
REMARK VINA RESULT:    -4.332      0.000      0.000
REMARK INTER + INTRA:          -5.753
REMARK INTER:                  -6.105
REMARK INTRA:                   0.352
REMARK UNBOUND:                 0.352
REMARK SMILES CC1=CCC(=C(C)C)C(=O)CC(C)=CCC1
REMARK SMILES IDX 12 1 14 2 13 3 15 4 16 5 2 6 1 7 3 8 11 10 9 11 10 12 5 13
REMARK SMILES IDX 6 14 7 15 8 16 4 17
REMARK H PARENT
REMARK Flexibility Score: 60.00
ROOT
ATOM      1  C   UNL     1     -11.267  11.707  30.618  1.00  0.00    -0.070 C 
ATOM      2  C   UNL     1     -12.471  11.828  30.014  1.00  0.00    -0.027 C 
ATOM      3  C   UNL     1     -10.073  12.344  29.955  1.00  0.00     0.039 C 
ENDROOT
BRANCH   2   4
ATOM      4  C   UNL     1     -13.734  11.135  30.458  1.00  0.00     0.032 C 
BRANCH   4   5
ATOM      5  C   UNL     1     -13.688   9.658  30.050  1.00  0.00     0.034 C 
BRANCH   5   6
ATOM      6  C   UNL     1     -14.265   8.744  31.112  1.00  0.00    -0.077 C 
ATOM      7  C   UNL     1     -15.729   8.866  31.453  1.00  0.00     0.039 C 
ATOM      8  C   UNL     1     -13.554   7.767  31.729  1.00  0.00    -0.023 CG0
ATOM      9  G   UNL     1     -12.067   7.487  31.600  1.00  0.00     0.000 G0
ENDBRANCH   5   6
ENDBRANCH   4   5
ENDBRANCH   2   4
BRANCH   1  10
ATOM     10  C   UNL     1     -11.063  10.982  31.933  1.00  0.00     0.111 C 
BRANCH  10  11
ATOM     11  C   UNL     1     -10.562   9.573  31.728  1.00  0.00     0.163 C 
ATOM     12  O   UNL     1      -9.584   9.419  30.948  1.00  0.00    -0.294 OA
BRANCH  11  13
ATOM     13  C   UNL     1     -11.146   8.372  32.414  1.00  0.00    -0.002 C 
ATOM     14  C   UNL     1     -10.970   8.186  33.759  1.00  0.00    -0.069 C 
ATOM     15  C   UNL     1     -11.728   7.126  34.527  1.00  0.00     0.039 C 
ATOM     16  C   UNL     1      -9.966   8.999  34.544  1.00  0.00     0.039 C 
BRANCH  13  17
ATOM     17  C   UNL     1     -12.083   7.478  31.609  1.00  0.00     0.066 CG0
ATOM     18  G   UNL     1     -13.567   7.773  31.730  1.00  0.00     0.000 G0
ENDBRANCH  13  17
ENDBRANCH  11  13
ENDBRANCH  10  11
ENDBRANCH   1  10
TORSDOF 0
ENDMDL
MODEL 2
REMARK VINA RESULT:    -4.146      1.323      3.802
REMARK INTER + INTRA:          -5.490
REMARK INTER:                  -5.386
REMARK INTRA:                  -0.104
REMARK UNBOUND:                 0.352
REMARK SMILES CC1=CCC(=C(C)C)C(=O)CC(C)=CCC1
REMARK SMILES IDX 12 1 14 2 13 3 15 4 16 5 2 6 1 7 3 8 11 10 9 11 10 12 5 13
REMARK SMILES IDX 6 14 7 15 8 16 4 17
REMARK H PARENT
REMARK Flexibility Score: 60.00
ROOT
ATOM      1  C   UNL     1      -9.735  10.160  31.271  1.00  0.00    -0.070 C 
ATOM      2  C   UNL     1      -9.221   9.281  32.162  1.00  0.00    -0.027 C 
ATOM      3  C   UNL     1      -8.839  10.658  30.167  1.00  0.00     0.039 C 
ENDROOT
BRANCH   2   4
ATOM      4  C   UNL     1      -9.925   8.798  33.404  1.00  0.00     0.032 C 
BRANCH   4   5
ATOM      5  C   UNL     1     -10.731   7.533  33.085  1.00  0.00     0.034 C 
BRANCH   5   6
ATOM      6  C   UNL     1     -12.135   7.582  33.652  1.00  0.00    -0.077 C 
ATOM      7  C   UNL     1     -12.315   7.484  35.147  1.00  0.00     0.039 C 
ATOM      8  C   UNL     1     -13.244   7.781  32.896  1.00  0.00    -0.023 CG0
ATOM      9  G   UNL     1     -13.326   7.851  31.381  1.00  0.00     0.000 G0
ENDBRANCH   5   6
ENDBRANCH   4   5
ENDBRANCH   2   4
BRANCH   1  10
ATOM     10  C   UNL     1     -11.168  10.651  31.318  1.00  0.00     0.111 C 
BRANCH  10  11
ATOM     11  C   UNL     1     -12.059   9.879  30.374  1.00  0.00     0.163 C 
ATOM     12  O   UNL     1     -11.649   9.727  29.191  1.00  0.00    -0.294 OA
BRANCH  11  13
ATOM     13  C   UNL     1     -13.374   9.275  30.775  1.00  0.00    -0.002 C 
ATOM     14  C   UNL     1     -14.550   9.900  30.458  1.00  0.00    -0.069 C 
ATOM     15  C   UNL     1     -15.891   9.220  30.634  1.00  0.00     0.039 C 
ATOM     16  C   UNL     1     -14.578  11.327  29.961  1.00  0.00     0.039 C 
BRANCH  13  17
ATOM     17  C   UNL     1     -13.361   7.873  31.374  1.00  0.00     0.066 CG0
ATOM     18  G   UNL     1     -13.246   7.785  32.885  1.00  0.00     0.000 G0
ENDBRANCH  13  17
ENDBRANCH  11  13
ENDBRANCH  10  11
ENDBRANCH   1  10
TORSDOF 0
ENDMDL
MODEL 3
REMARK VINA RESULT:    -4.057     11.154     12.607
REMARK INTER + INTRA:          -5.366
REMARK INTER:                  -5.205
REMARK INTRA:                  -0.161
REMARK UNBOUND:                 0.352
REMARK SMILES CC1=CCC(=C(C)C)C(=O)CC(C)=CCC1
REMARK SMILES IDX 12 1 14 2 13 3 15 4 16 5 2 6 1 7 3 8 11 10 9 11 10 12 5 13
REMARK SMILES IDX 6 14 7 15 8 16 4 17
REMARK H PARENT
REMARK Flexibility Score: 60.00
ROOT
ATOM      1  C   UNL     1      -1.733   0.092  27.963  1.00  0.00    -0.070 C 
ATOM      2  C   UNL     1      -2.805  -0.721  28.107  1.00  0.00    -0.027 C 
ATOM      3  C   UNL     1      -1.122   0.226  26.592  1.00  0.00     0.039 C 
ENDROOT
BRANCH   2   4
ATOM      4  C   UNL     1      -3.444  -1.083  29.423  1.00  0.00     0.032 C 
BRANCH   4   5
ATOM      5  C   UNL     1      -4.736  -0.279  29.612  1.00  0.00     0.034 C 
BRANCH   5   6
ATOM      6  C   UNL     1      -4.900   0.231  31.030  1.00  0.00    -0.077 C 
ATOM      7  C   UNL     1      -5.480  -0.696  32.069  1.00  0.00     0.039 C 
ATOM      8  C   UNL     1      -4.488   1.457  31.439  1.00  0.00    -0.023 CG0
ATOM      9  G   UNL     1      -3.933   2.578  30.578  1.00  0.00     0.000 G0
ENDBRANCH   5   6
ENDBRANCH   4   5
ENDBRANCH   2   4
BRANCH   1  10
ATOM     10  C   UNL     1      -1.130   0.886  29.104  1.00  0.00     0.111 C 
BRANCH  10  11
ATOM     11  C   UNL     1      -1.765   2.250  29.239  1.00  0.00     0.163 C 
ATOM     12  O   UNL     1      -1.737   2.999  28.226  1.00  0.00    -0.294 OA
BRANCH  11  13
ATOM     13  C   UNL     1      -2.436   2.737  30.491  1.00  0.00    -0.002 C 
ATOM     14  C   UNL     1      -1.727   3.433  31.433  1.00  0.00    -0.069 C 
ATOM     15  C   UNL     1      -2.405   4.138  32.587  1.00  0.00     0.039 C 
ATOM     16  C   UNL     1      -0.217   3.492  31.400  1.00  0.00     0.039 C 
BRANCH  13  17
ATOM     17  C   UNL     1      -3.951   2.595  30.589  1.00  0.00     0.066 CG0
ATOM     18  G   UNL     1      -4.468   1.453  31.445  1.00  0.00     0.000 G0
ENDBRANCH  13  17
ENDBRANCH  11  13
ENDBRANCH  10  11
ENDBRANCH   1  10
TORSDOF 0
ENDMDL
MODEL 4
REMARK VINA RESULT:    -3.899     11.293     12.999
REMARK INTER + INTRA:          -5.143
REMARK INTER:                  -4.976
REMARK INTRA:                  -0.166
REMARK UNBOUND:                 0.352
REMARK SMILES CC1=CCC(=C(C)C)C(=O)CC(C)=CCC1
REMARK SMILES IDX 12 1 14 2 13 3 15 4 16 5 2 6 1 7 3 8 11 10 9 11 10 12 5 13
REMARK SMILES IDX 6 14 7 15 8 16 4 17
REMARK H PARENT
REMARK Flexibility Score: 60.00
ROOT
ATOM      1  C   UNL     1      -1.043   0.545  27.409  1.00  0.00    -0.070 C 
ATOM      2  C   UNL     1      -0.334   0.558  28.561  1.00  0.00    -0.027 C 
ATOM      3  C   UNL     1      -1.062  -0.728  26.602  1.00  0.00     0.039 C 
ENDROOT
BRANCH   2   4
ATOM      4  C   UNL     1      -0.088   1.779  29.410  1.00  0.00     0.032 C 
BRANCH   4   5
ATOM      5  C   UNL     1      -1.028   1.768  30.622  1.00  0.00     0.034 C 
BRANCH   5   6
ATOM      6  C   UNL     1      -1.554   3.149  30.961  1.00  0.00    -0.077 C 
ATOM      7  C   UNL     1      -0.684   4.073  31.775  1.00  0.00     0.039 C 
ATOM      8  C   UNL     1      -2.740   3.631  30.512  1.00  0.00    -0.023 CG0
ATOM      9  G   UNL     1      -3.806   2.880  29.734  1.00  0.00     0.000 G0
ENDBRANCH   5   6
ENDBRANCH   4   5
ENDBRANCH   2   4
BRANCH   1  10
ATOM     10  C   UNL     1      -1.832   1.735  26.902  1.00  0.00     0.111 C 
BRANCH  10  11
ATOM     11  C   UNL     1      -3.225   1.778  27.484  1.00  0.00     0.163 C 
ATOM     12  O   UNL     1      -3.936   0.746  27.347  1.00  0.00    -0.294 OA
BRANCH  11  13
ATOM     13  C   UNL     1      -3.784   2.959  28.223  1.00  0.00    -0.002 C 
ATOM     14  C   UNL     1      -4.378   3.987  27.542  1.00  0.00    -0.069 C 
ATOM     15  C   UNL     1      -5.154   5.075  28.251  1.00  0.00     0.039 C 
ATOM     16  C   UNL     1      -4.246   4.121  26.042  1.00  0.00     0.039 C 
BRANCH  13  17
ATOM     17  C   UNL     1      -3.833   2.887  29.746  1.00  0.00     0.066 CG0
ATOM     18  G   UNL     1      -2.731   3.617  30.492  1.00  0.00     0.000 G0
ENDBRANCH  13  17
ENDBRANCH  11  13
ENDBRANCH  10  11
ENDBRANCH   1  10
TORSDOF 0
ENDMDL
MODEL 5
REMARK VINA RESULT:    -3.867     11.220     12.681
REMARK INTER + INTRA:          -5.097
REMARK INTER:                  -4.969
REMARK INTRA:                  -0.128
REMARK UNBOUND:                 0.352
REMARK SMILES CC1=CCC(=C(C)C)C(=O)CC(C)=CCC1
REMARK SMILES IDX 12 1 14 2 13 3 15 4 16 5 2 6 1 7 3 8 11 10 9 11 10 12 5 13
REMARK SMILES IDX 6 14 7 15 8 16 4 17
REMARK H PARENT
REMARK Flexibility Score: 60.00
ROOT
ATOM      1  C   UNL     1      -2.108   0.771  27.382  1.00  0.00    -0.070 C 
ATOM      2  C   UNL     1      -1.600   1.986  27.073  1.00  0.00    -0.027 C 
ATOM      3  C   UNL     1      -1.575  -0.430  26.643  1.00  0.00     0.039 C 
ENDROOT
BRANCH   2   4
ATOM      4  C   UNL     1      -2.117   3.299  27.604  1.00  0.00     0.032 C 
BRANCH   4   5
ATOM      5  C   UNL     1      -1.210   3.795  28.736  1.00  0.00     0.034 C 
BRANCH   5   6
ATOM      6  C   UNL     1      -1.988   4.458  29.855  1.00  0.00    -0.077 C 
ATOM      7  C   UNL     1      -2.426   5.891  29.680  1.00  0.00     0.039 C 
ATOM      8  C   UNL     1      -2.378   3.813  30.983  1.00  0.00    -0.023 CG0
ATOM      9  G   UNL     1      -2.015   2.403  31.411  1.00  0.00     0.000 G0
ENDBRANCH   5   6
ENDBRANCH   4   5
ENDBRANCH   2   4
BRANCH   1  10
ATOM     10  C   UNL     1      -3.169   0.556  28.442  1.00  0.00     0.111 C 
BRANCH  10  11
ATOM     11  C   UNL     1      -2.569   0.443  29.824  1.00  0.00     0.163 C 
ATOM     12  O   UNL     1      -1.653  -0.408  29.985  1.00  0.00    -0.294 OA
BRANCH  11  13
ATOM     13  C   UNL     1      -2.988   1.295  30.987  1.00  0.00    -0.002 C 
ATOM     14  C   UNL     1      -4.103   0.977  31.715  1.00  0.00    -0.069 C 
ATOM     15  C   UNL     1      -4.429   1.663  33.023  1.00  0.00     0.039 C 
ATOM     16  C   UNL     1      -5.101  -0.048  31.224  1.00  0.00     0.039 C 
BRANCH  13  17
ATOM     17  C   UNL     1      -2.041   2.402  31.436  1.00  0.00     0.066 CG0
ATOM     18  G   UNL     1      -2.381   3.809  30.977  1.00  0.00     0.000 G0
ENDBRANCH  13  17
ENDBRANCH  11  13
ENDBRANCH  10  11
ENDBRANCH   1  10
TORSDOF 0
ENDMDL
MODEL 6
REMARK VINA RESULT:    -3.817     11.400     12.837
REMARK INTER + INTRA:          -5.026
REMARK INTER:                  -5.235
REMARK INTRA:                   0.208
REMARK UNBOUND:                 0.352
REMARK SMILES CC1=CCC(=C(C)C)C(=O)CC(C)=CCC1
REMARK SMILES IDX 12 1 14 2 13 3 15 4 16 5 2 6 1 7 3 8 11 10 9 11 10 12 5 13
REMARK SMILES IDX 6 14 7 15 8 16 4 17
REMARK H PARENT
REMARK Flexibility Score: 60.00
ROOT
ATOM      1  C   UNL     1      -2.057   2.963  30.181  1.00  0.00    -0.070 C 
ATOM      2  C   UNL     1      -0.816   2.454  30.002  1.00  0.00    -0.027 C 
ATOM      3  C   UNL     1      -2.473   3.341  31.580  1.00  0.00     0.039 C 
ENDROOT
BRANCH   2   4
ATOM      4  C   UNL     1      -0.293   1.890  28.706  1.00  0.00     0.032 C 
BRANCH   4   5
ATOM      5  C   UNL     1      -0.501   0.372  28.677  1.00  0.00     0.034 C 
BRANCH   5   6
ATOM      6  C   UNL     1      -1.651  -0.040  27.780  1.00  0.00    -0.077 C 
ATOM      7  C   UNL     1      -1.394  -0.201  26.303  1.00  0.00     0.039 C 
ATOM      8  C   UNL     1      -2.891  -0.343  28.241  1.00  0.00    -0.023 CG0
ATOM      9  G   UNL     1      -3.405  -0.204  29.663  1.00  0.00     0.000 G0
ENDBRANCH   5   6
ENDBRANCH   4   5
ENDBRANCH   2   4
BRANCH   1  10
ATOM     10  C   UNL     1      -3.037   3.188  29.048  1.00  0.00     0.111 C 
BRANCH  10  11
ATOM     11  C   UNL     1      -4.171   2.192  29.077  1.00  0.00     0.163 C 
ATOM     12  O   UNL     1      -5.106   2.361  28.248  1.00  0.00    -0.294 OA
BRANCH  11  13
ATOM     13  C   UNL     1      -4.227   1.018  30.013  1.00  0.00    -0.002 C 
ATOM     14  C   UNL     1      -5.121   0.998  31.049  1.00  0.00    -0.069 C 
ATOM     15  C   UNL     1      -5.372  -0.249  31.867  1.00  0.00     0.039 C 
ATOM     16  C   UNL     1      -5.874   2.241  31.466  1.00  0.00     0.039 C 
BRANCH  13  17
ATOM     17  C   UNL     1      -3.395  -0.210  29.664  1.00  0.00     0.066 CG0
ATOM     18  G   UNL     1      -2.905  -0.310  28.230  1.00  0.00     0.000 G0
ENDBRANCH  13  17
ENDBRANCH  11  13
ENDBRANCH  10  11
ENDBRANCH   1  10
TORSDOF 0
ENDMDL
MODEL 7
REMARK VINA RESULT:    -3.800      2.054      4.976
REMARK INTER + INTRA:          -5.003
REMARK INTER:                  -4.985
REMARK INTRA:                  -0.018
REMARK UNBOUND:                 0.352
REMARK SMILES CC1=CCC(=C(C)C)C(=O)CC(C)=CCC1
REMARK SMILES IDX 12 1 14 2 13 3 15 4 16 5 2 6 1 7 3 8 11 10 9 11 10 12 5 13
REMARK SMILES IDX 6 14 7 15 8 16 4 17
REMARK H PARENT
REMARK Flexibility Score: 60.00
ROOT
ATOM      1  C   UNL     1     -11.827   7.747  33.338  1.00  0.00    -0.070 C 
ATOM      2  C   UNL     1     -10.952   8.778  33.346  1.00  0.00    -0.027 C 
ATOM      3  C   UNL     1     -12.204   7.126  34.659  1.00  0.00     0.039 C 
ENDROOT
BRANCH   2   4
ATOM      4  C   UNL     1     -10.357   9.415  32.117  1.00  0.00     0.032 C 
BRANCH   4   5
ATOM      5  C   UNL     1     -10.985  10.795  31.891  1.00  0.00     0.034 C 
BRANCH   5   6
ATOM      6  C   UNL     1     -11.151  11.124  30.421  1.00  0.00    -0.077 C 
ATOM      7  C   UNL     1      -9.996  11.758  29.687  1.00  0.00     0.039 C 
ATOM      8  C   UNL     1     -12.260  10.814  29.703  1.00  0.00    -0.023 CG0
ATOM      9  G   UNL     1     -13.562  10.231  30.223  1.00  0.00     0.000 G0
ENDBRANCH   5   6
ENDBRANCH   4   5
ENDBRANCH   2   4
BRANCH   1  10
ATOM     10  C   UNL     1     -12.459   7.199  32.075  1.00  0.00     0.111 C 
BRANCH  10  11
ATOM     11  C   UNL     1     -13.613   8.053  31.606  1.00  0.00     0.163 C 
ATOM     12  O   UNL     1     -14.565   8.227  32.414  1.00  0.00    -0.294 OA
BRANCH  11  13
ATOM     13  C   UNL     1     -13.669   8.712  30.258  1.00  0.00    -0.002 C 
ATOM     14  C   UNL     1     -13.961   7.979  29.139  1.00  0.00    -0.069 C 
ATOM     15  C   UNL     1     -14.255   8.634  27.807  1.00  0.00     0.039 C 
ATOM     16  C   UNL     1     -13.954   6.468  29.161  1.00  0.00     0.039 C 
BRANCH  13  17
ATOM     17  C   UNL     1     -13.576  10.233  30.204  1.00  0.00     0.066 CG0
ATOM     18  G   UNL     1     -12.265  10.812  29.701  1.00  0.00     0.000 G0
ENDBRANCH  13  17
ENDBRANCH  11  13
ENDBRANCH  10  11
ENDBRANCH   1  10
TORSDOF 0
ENDMDL
MODEL 8
REMARK VINA RESULT:    -3.787     11.079     12.914
REMARK INTER + INTRA:          -4.985
REMARK INTER:                  -4.979
REMARK INTRA:                  -0.006
REMARK UNBOUND:                 0.352
REMARK SMILES CC1=CCC(=C(C)C)C(=O)CC(C)=CCC1
REMARK SMILES IDX 12 1 14 2 13 3 15 4 16 5 2 6 1 7 3 8 11 10 9 11 10 12 5 13
REMARK SMILES IDX 6 14 7 15 8 16 4 17
REMARK H PARENT
REMARK Flexibility Score: 60.00
ROOT
ATOM      1  C   UNL     1      -4.919   0.220  31.354  1.00  0.00    -0.070 C 
ATOM      2  C   UNL     1      -4.293  -0.813  30.746  1.00  0.00    -0.027 C 
ATOM      3  C   UNL     1      -5.905  -0.092  32.451  1.00  0.00     0.039 C 
ENDROOT
BRANCH   2   4
ATOM      4  C   UNL     1      -3.395  -0.691  29.542  1.00  0.00     0.032 C 
BRANCH   4   5
ATOM      5  C   UNL     1      -1.935  -0.565  29.992  1.00  0.00     0.034 C 
BRANCH   5   6
ATOM      6  C   UNL     1      -1.213   0.576  29.305  1.00  0.00    -0.077 C 
ATOM      7  C   UNL     1      -0.799   0.407  27.865  1.00  0.00     0.039 C 
ATOM      8  C   UNL     1      -0.977   1.777  29.892  1.00  0.00    -0.023 CG0
ATOM      9  G   UNL     1      -1.244   2.166  31.335  1.00  0.00     0.000 G0
ENDBRANCH   5   6
ENDBRANCH   4   5
ENDBRANCH   2   4
BRANCH   1  10
ATOM     10  C   UNL     1      -4.664   1.672  31.003  1.00  0.00     0.111 C 
BRANCH  10  11
ATOM     11  C   UNL     1      -3.747   2.341  31.998  1.00  0.00     0.163 C 
ATOM     12  O   UNL     1      -4.083   2.292  33.212  1.00  0.00    -0.294 OA
BRANCH  11  13
ATOM     13  C   UNL     1      -2.466   3.029  31.621  1.00  0.00    -0.002 C 
ATOM     14  C   UNL     1      -2.364   4.392  31.690  1.00  0.00    -0.069 C 
ATOM     15  C   UNL     1      -1.037   5.104  31.546  1.00  0.00     0.039 C 
ATOM     16  C   UNL     1      -3.584   5.268  31.863  1.00  0.00     0.039 C 
BRANCH  13  17
ATOM     17  C   UNL     1      -1.246   2.158  31.342  1.00  0.00     0.066 CG0
ATOM     18  G   UNL     1      -0.991   1.798  29.890  1.00  0.00     0.000 G0
ENDBRANCH  13  17
ENDBRANCH  11  13
ENDBRANCH  10  11
ENDBRANCH   1  10
TORSDOF 0
ENDMDL
MODEL 9
REMARK VINA RESULT:    -3.535     10.583     12.177
REMARK INTER + INTRA:          -4.629
REMARK INTER:                  -4.612
REMARK INTRA:                  -0.017
REMARK UNBOUND:                 0.352
REMARK SMILES CC1=CCC(=C(C)C)C(=O)CC(C)=CCC1
REMARK SMILES IDX 12 1 14 2 13 3 15 4 16 5 2 6 1 7 3 8 11 10 9 11 10 12 5 13
REMARK SMILES IDX 6 14 7 15 8 16 4 17
REMARK H PARENT
REMARK Flexibility Score: 60.00
ROOT
ATOM      1  C   UNL     1     -18.688  10.080  22.602  1.00  0.00    -0.070 C 
ATOM      2  C   UNL     1     -19.539   9.353  21.843  1.00  0.00    -0.027 C 
ATOM      3  C   UNL     1     -19.133  10.480  23.985  1.00  0.00     0.039 C 
ENDROOT
BRANCH   2   4
ATOM      4  C   UNL     1     -19.317   8.997  20.395  1.00  0.00     0.032 C 
BRANCH   4   5
ATOM      5  C   UNL     1     -18.700   7.597  20.293  1.00  0.00     0.034 C 
BRANCH   5   6
ATOM      6  C   UNL     1     -17.731   7.472  19.135  1.00  0.00    -0.077 C 
ATOM      7  C   UNL     1     -18.286   7.371  17.736  1.00  0.00     0.039 C 
ATOM      8  C   UNL     1     -16.382   7.517  19.277  1.00  0.00    -0.023 CG0
ATOM      9  G   UNL     1     -15.592   7.556  20.572  1.00  0.00     0.000 G0
ENDBRANCH   5   6
ENDBRANCH   4   5
ENDBRANCH   2   4
BRANCH   1  10
ATOM     10  C   UNL     1     -17.305  10.494  22.139  1.00  0.00     0.111 C 
BRANCH  10  11
ATOM     11  C   UNL     1     -16.301   9.377  22.292  1.00  0.00     0.163 C 
ATOM     12  O   UNL     1     -16.273   8.778  23.402  1.00  0.00    -0.294 OA
BRANCH  11  13
ATOM     13  C   UNL     1     -15.368   8.938  21.201  1.00  0.00    -0.002 C 
ATOM     14  C   UNL     1     -14.261   9.682  20.893  1.00  0.00    -0.069 C 
ATOM     15  C   UNL     1     -13.180   9.164  19.970  1.00  0.00     0.039 C 
ATOM     16  C   UNL     1     -14.082  11.087  21.420  1.00  0.00     0.039 C 
BRANCH  13  17
ATOM     17  C   UNL     1     -15.593   7.562  20.583  1.00  0.00     0.066 CG0
ATOM     18  G   UNL     1     -16.367   7.526  19.277  1.00  0.00     0.000 G0
ENDBRANCH  13  17
ENDBRANCH  11  13
ENDBRANCH  10  11
ENDBRANCH   1  10
TORSDOF 0
ENDMDL
