MODEL 1
REMARK VINA RESULT:    -5.978      0.000      0.000
REMARK INTER + INTRA:          -6.762
REMARK INTER:                  -6.677
REMARK INTRA:                  -0.085
REMARK UNBOUND:                -0.085
REMARK SMILES CCc1ccc(O)cc1O
REMARK SMILES IDX 3 1 9 2 8 3 6 4 5 5 4 6 2 7 1 8 10 9 7 11
REMARK H PARENT 10 10 7 12
REMARK Flexibility Score: inf
ROOT
ATOM      1  C   UNL     1     -27.413  18.330  57.027  1.00  0.00    -0.006 A 
ATOM      2  C   UNL     1     -27.381  18.481  55.618  1.00  0.00     0.122 A 
ATOM      3  C   UNL     1     -28.127  19.498  55.013  1.00  0.00     0.092 A 
ATOM      4  C   UNL     1     -28.920  20.358  55.784  1.00  0.00     0.119 A 
ATOM      5  C   UNL     1     -28.967  20.199  57.170  1.00  0.00     0.047 A 
ATOM      6  C   UNL     1     -28.224  19.192  57.788  1.00  0.00     0.011 A 
ENDROOT
BRANCH   1   7
ATOM      7  C   UNL     1     -26.638  17.246  57.738  1.00  0.00     0.036 C 
ATOM      8  C   UNL     1     -26.062  17.760  59.054  1.00  0.00     0.009 C 
ENDBRANCH   1   7
BRANCH   2   9
ATOM      9  O   UNL     1     -26.628  17.643  54.792  1.00  0.00    -0.508 OA
ATOM     10  H   UNL     1     -26.821  16.659  54.668  1.00  0.00     0.293 HD
ENDBRANCH   2   9
BRANCH   4  11
ATOM     11  O   UNL     1     -29.664  21.370  55.182  1.00  0.00    -0.508 OA
ATOM     12  H   UNL     1     -29.217  22.158  54.729  1.00  0.00     0.293 HD
ENDBRANCH   4  11
TORSDOF 3
ENDMDL
MODEL 2
REMARK VINA RESULT:    -5.964      0.931      3.439
REMARK INTER + INTRA:          -6.746
REMARK INTER:                  -6.662
REMARK INTRA:                  -0.084
REMARK UNBOUND:                -0.085
REMARK SMILES CCc1ccc(O)cc1O
REMARK SMILES IDX 3 1 9 2 8 3 6 4 5 5 4 6 2 7 1 8 10 9 7 11
REMARK H PARENT 10 10 7 12
REMARK Flexibility Score: inf
ROOT
ATOM      1  C   UNL     1     -28.957  20.132  57.212  1.00  0.00    -0.006 A 
ATOM      2  C   UNL     1     -28.912  20.333  55.809  1.00  0.00     0.122 A 
ATOM      3  C   UNL     1     -28.123  19.493  55.014  1.00  0.00     0.092 A 
ATOM      4  C   UNL     1     -27.364  18.468  55.592  1.00  0.00     0.119 A 
ATOM      5  C   UNL     1     -27.393  18.281  56.975  1.00  0.00     0.047 A 
ATOM      6  C   UNL     1     -28.179  19.107  57.780  1.00  0.00     0.011 A 
ENDROOT
BRANCH   1   7
ATOM      7  C   UNL     1     -29.781  21.010  58.124  1.00  0.00     0.036 C 
ATOM      8  C   UNL     1     -30.268  20.228  59.340  1.00  0.00     0.009 C 
ENDBRANCH   1   7
BRANCH   2   9
ATOM      9  O   UNL     1     -29.629  21.350  55.174  1.00  0.00    -0.508 OA
ATOM     10  H   UNL     1     -29.266  22.282  55.028  1.00  0.00     0.293 HD
ENDBRANCH   2   9
BRANCH   4  11
ATOM     11  O   UNL     1     -26.578  17.633  54.801  1.00  0.00    -0.508 OA
ATOM     12  H   UNL     1     -26.664  17.624  53.792  1.00  0.00     0.293 HD
ENDBRANCH   4  11
TORSDOF 3
ENDMDL
MODEL 3
REMARK VINA RESULT:    -5.963      2.394      4.032
REMARK INTER + INTRA:          -6.745
REMARK INTER:                  -6.653
REMARK INTRA:                  -0.091
REMARK UNBOUND:                -0.085
REMARK SMILES CCc1ccc(O)cc1O
REMARK SMILES IDX 3 1 9 2 8 3 6 4 5 5 4 6 2 7 1 8 10 9 7 11
REMARK H PARENT 10 10 7 12
REMARK Flexibility Score: inf
ROOT
ATOM      1  C   UNL     1     -29.444  20.395  56.523  1.00  0.00    -0.006 A 
ATOM      2  C   UNL     1     -28.055  20.396  56.804  1.00  0.00     0.122 A 
ATOM      3  C   UNL     1     -27.604  19.995  58.067  1.00  0.00     0.092 A 
ATOM      4  C   UNL     1     -28.512  19.609  59.061  1.00  0.00     0.119 A 
ATOM      5  C   UNL     1     -29.881  19.625  58.791  1.00  0.00     0.047 A 
ATOM      6  C   UNL     1     -30.346  20.019  57.535  1.00  0.00     0.011 A 
ENDROOT
BRANCH   1   7
ATOM      7  C   UNL     1     -29.994  20.826  55.184  1.00  0.00     0.036 C 
ATOM      8  C   UNL     1     -29.948  19.678  54.180  1.00  0.00     0.009 C 
ENDBRANCH   1   7
BRANCH   2   9
ATOM      9  O   UNL     1     -27.100  20.789  55.864  1.00  0.00    -0.508 OA
ATOM     10  H   UNL     1     -26.999  21.740  55.534  1.00  0.00     0.293 HD
ENDBRANCH   2   9
BRANCH   4  11
ATOM     11  O   UNL     1     -28.063  19.212  60.318  1.00  0.00    -0.508 OA
ATOM     12  H   UNL     1     -28.607  19.388  61.154  1.00  0.00     0.293 HD
ENDBRANCH   4  11
TORSDOF 3
ENDMDL
MODEL 4
REMARK VINA RESULT:    -5.847      2.207      2.700
REMARK INTER + INTRA:          -6.615
REMARK INTER:                  -6.530
REMARK INTRA:                  -0.086
REMARK UNBOUND:                -0.085
REMARK SMILES CCc1ccc(O)cc1O
REMARK SMILES IDX 3 1 9 2 8 3 6 4 5 5 4 6 2 7 1 8 10 9 7 11
REMARK H PARENT 10 10 7 12
REMARK Flexibility Score: inf
ROOT
ATOM      1  C   UNL     1     -28.566  18.729  57.648  1.00  0.00    -0.006 A 
ATOM      2  C   UNL     1     -28.852  19.960  58.290  1.00  0.00     0.122 A 
ATOM      3  C   UNL     1     -29.548  20.957  57.597  1.00  0.00     0.092 A 
ATOM      4  C   UNL     1     -29.951  20.757  56.271  1.00  0.00     0.119 A 
ATOM      5  C   UNL     1     -29.655  19.552  55.632  1.00  0.00     0.047 A 
ATOM      6  C   UNL     1     -28.965  18.547  56.311  1.00  0.00     0.011 A 
ENDROOT
BRANCH   1   7
ATOM      7  C   UNL     1     -27.810  17.619  58.338  1.00  0.00     0.036 C 
ATOM      8  C   UNL     1     -26.944  16.849  57.345  1.00  0.00     0.009 C 
ENDBRANCH   1   7
BRANCH   2   9
ATOM      9  O   UNL     1     -28.459  20.229  59.603  1.00  0.00    -0.508 OA
ATOM     10  H   UNL     1     -28.556  19.569  60.362  1.00  0.00     0.293 HD
ENDBRANCH   2   9
BRANCH   4  11
ATOM     11  O   UNL     1     -30.643  21.750  55.581  1.00  0.00    -0.508 OA
ATOM     12  H   UNL     1     -30.890  21.642  54.605  1.00  0.00     0.293 HD
ENDBRANCH   4  11
TORSDOF 3
ENDMDL
MODEL 5
REMARK VINA RESULT:    -5.807      2.160      3.556
REMARK INTER + INTRA:          -6.571
REMARK INTER:                  -6.486
REMARK INTRA:                  -0.085
REMARK UNBOUND:                -0.085
REMARK SMILES CCc1ccc(O)cc1O
REMARK SMILES IDX 3 1 9 2 8 3 6 4 5 5 4 6 2 7 1 8 10 9 7 11
REMARK H PARENT 10 10 7 12
REMARK Flexibility Score: inf
ROOT
ATOM      1  C   UNL     1     -28.474  19.103  56.160  1.00  0.00    -0.006 A 
ATOM      2  C   UNL     1     -27.311  18.589  56.786  1.00  0.00     0.122 A 
ATOM      3  C   UNL     1     -27.197  18.636  58.180  1.00  0.00     0.092 A 
ATOM      4  C   UNL     1     -28.212  19.201  58.962  1.00  0.00     0.119 A 
ATOM      5  C   UNL     1     -29.350  19.724  58.345  1.00  0.00     0.047 A 
ATOM      6  C   UNL     1     -29.480  19.680  56.956  1.00  0.00     0.011 A 
ENDROOT
BRANCH   1   7
ATOM      7  C   UNL     1     -28.652  19.091  54.660  1.00  0.00     0.036 C 
ATOM      8  C   UNL     1     -29.926  19.827  54.256  1.00  0.00     0.009 C 
ENDBRANCH   1   7
BRANCH   2   9
ATOM      9  O   UNL     1     -26.254  18.032  56.062  1.00  0.00    -0.508 OA
ATOM     10  H   UNL     1     -26.291  17.851  55.068  1.00  0.00     0.293 HD
ENDBRANCH   2   9
BRANCH   4  11
ATOM     11  O   UNL     1     -28.099  19.248  60.350  1.00  0.00    -0.508 OA
ATOM     12  H   UNL     1     -27.246  18.971  60.820  1.00  0.00     0.293 HD
ENDBRANCH   4  11
TORSDOF 3
ENDMDL
MODEL 6
REMARK VINA RESULT:    -5.760      1.871      3.499
REMARK INTER + INTRA:          -6.519
REMARK INTER:                  -6.433
REMARK INTRA:                  -0.085
REMARK UNBOUND:                -0.085
REMARK SMILES CCc1ccc(O)cc1O
REMARK SMILES IDX 3 1 9 2 8 3 6 4 5 5 4 6 2 7 1 8 10 9 7 11
REMARK H PARENT 10 10 7 12
REMARK Flexibility Score: inf
ROOT
ATOM      1  C   UNL     1     -28.457  19.268  58.132  1.00  0.00    -0.006 A 
ATOM      2  C   UNL     1     -27.719  18.063  58.245  1.00  0.00     0.122 A 
ATOM      3  C   UNL     1     -27.087  17.529  57.115  1.00  0.00     0.092 A 
ATOM      4  C   UNL     1     -27.191  18.164  55.871  1.00  0.00     0.119 A 
ATOM      5  C   UNL     1     -27.932  19.341  55.755  1.00  0.00     0.047 A 
ATOM      6  C   UNL     1     -28.564  19.888  56.873  1.00  0.00     0.011 A 
ENDROOT
BRANCH   1   7
ATOM      7  C   UNL     1     -29.169  19.888  59.310  1.00  0.00     0.036 C 
ATOM      8  C   UNL     1     -30.289  20.814  58.845  1.00  0.00     0.009 C 
ENDBRANCH   1   7
BRANCH   2   9
ATOM      9  O   UNL     1     -27.595  17.370  59.451  1.00  0.00    -0.508 OA
ATOM     10  H   UNL     1     -28.309  17.361  60.167  1.00  0.00     0.293 HD
ENDBRANCH   2   9
BRANCH   4  11
ATOM     11  O   UNL     1     -26.563  17.633  54.747  1.00  0.00    -0.508 OA
ATOM     12  H   UNL     1     -25.599  17.324  54.775  1.00  0.00     0.293 HD
ENDBRANCH   4  11
TORSDOF 3
ENDMDL
MODEL 7
REMARK VINA RESULT:    -5.669      2.595      4.482
REMARK INTER + INTRA:          -6.417
REMARK INTER:                  -6.313
REMARK INTRA:                  -0.104
REMARK UNBOUND:                -0.085
REMARK SMILES CCc1ccc(O)cc1O
REMARK SMILES IDX 3 1 9 2 8 3 6 4 5 5 4 6 2 7 1 8 10 9 7 11
REMARK H PARENT 10 10 7 12
REMARK Flexibility Score: inf
ROOT
ATOM      1  C   UNL     1     -29.258  20.327  56.487  1.00  0.00    -0.006 A 
ATOM      2  C   UNL     1     -30.196  20.373  57.549  1.00  0.00     0.122 A 
ATOM      3  C   UNL     1     -29.804  19.992  58.837  1.00  0.00     0.092 A 
ATOM      4  C   UNL     1     -28.498  19.551  59.086  1.00  0.00     0.119 A 
ATOM      5  C   UNL     1     -27.578  19.488  58.038  1.00  0.00     0.047 A 
ATOM      6  C   UNL     1     -27.954  19.868  56.748  1.00  0.00     0.011 A 
ENDROOT
BRANCH   1   7
ATOM      7  C   UNL     1     -29.623  20.714  55.074  1.00  0.00     0.036 C 
ATOM      8  C   UNL     1     -29.928  19.479  54.231  1.00  0.00     0.009 C 
ENDBRANCH   1   7
BRANCH   2   9
ATOM      9  O   UNL     1     -31.518  20.783  57.363  1.00  0.00    -0.508 OA
ATOM     10  H   UNL     1     -32.194  20.264  56.818  1.00  0.00     0.293 HD
ENDBRANCH   2   9
BRANCH   4  11
ATOM     11  O   UNL     1     -28.108  19.171  60.368  1.00  0.00    -0.508 OA
ATOM     12  H   UNL     1     -27.640  18.289  60.539  1.00  0.00     0.293 HD
ENDBRANCH   4  11
TORSDOF 3
ENDMDL
MODEL 8
REMARK VINA RESULT:    -5.614      9.291      9.817
REMARK INTER + INTRA:          -6.355
REMARK INTER:                  -6.270
REMARK INTRA:                  -0.085
REMARK UNBOUND:                -0.085
REMARK SMILES CCc1ccc(O)cc1O
REMARK SMILES IDX 3 1 9 2 8 3 6 4 5 5 4 6 2 7 1 8 10 9 7 11
REMARK H PARENT 10 10 7 12
REMARK Flexibility Score: inf
ROOT
ATOM      1  C   UNL     1     -35.090  14.579  57.010  1.00  0.00    -0.006 A 
ATOM      2  C   UNL     1     -36.324  13.885  56.954  1.00  0.00     0.122 A 
ATOM      3  C   UNL     1     -36.772  13.177  58.076  1.00  0.00     0.092 A 
ATOM      4  C   UNL     1     -36.006  13.134  59.247  1.00  0.00     0.119 A 
ATOM      5  C   UNL     1     -34.782  13.803  59.297  1.00  0.00     0.047 A 
ATOM      6  C   UNL     1     -34.324  14.517  58.189  1.00  0.00     0.011 A 
ENDROOT
BRANCH   1   7
ATOM      7  C   UNL     1     -34.548  15.352  55.831  1.00  0.00     0.036 C 
ATOM      8  C   UNL     1     -33.262  16.084  56.203  1.00  0.00     0.009 C 
ENDBRANCH   1   7
BRANCH   2   9
ATOM      9  O   UNL     1     -37.125  13.870  55.810  1.00  0.00    -0.508 OA
ATOM     10  H   UNL     1     -37.241  13.058  55.219  1.00  0.00     0.293 HD
ENDBRANCH   2   9
BRANCH   4  11
ATOM     11  O   UNL     1     -36.451  12.429  60.363  1.00  0.00    -0.508 OA
ATOM     12  H   UNL     1     -36.416  12.832  61.292  1.00  0.00     0.293 HD
ENDBRANCH   4  11
TORSDOF 3
ENDMDL
MODEL 9
REMARK VINA RESULT:    -5.584      9.559     10.049
REMARK INTER + INTRA:          -6.322
REMARK INTER:                  -6.251
REMARK INTRA:                  -0.071
REMARK UNBOUND:                -0.085
REMARK SMILES CCc1ccc(O)cc1O
REMARK SMILES IDX 3 1 9 2 8 3 6 4 5 5 4 6 2 7 1 8 10 9 7 11
REMARK H PARENT 10 10 7 12
REMARK Flexibility Score: inf
ROOT
ATOM      1  C   UNL     1     -35.433  13.736  56.685  1.00  0.00    -0.006 A 
ATOM      2  C   UNL     1     -34.426  13.499  57.654  1.00  0.00     0.122 A 
ATOM      3  C   UNL     1     -34.786  13.065  58.936  1.00  0.00     0.092 A 
ATOM      4  C   UNL     1     -36.131  12.878  59.275  1.00  0.00     0.119 A 
ATOM      5  C   UNL     1     -37.125  13.128  58.327  1.00  0.00     0.047 A 
ATOM      6  C   UNL     1     -36.781  13.558  57.044  1.00  0.00     0.011 A 
ENDROOT
BRANCH   1   7
ATOM      7  C   UNL     1     -35.109  14.216  55.290  1.00  0.00     0.036 C 
ATOM      8  C   UNL     1     -34.825  15.715  55.280  1.00  0.00     0.009 C 
ENDBRANCH   1   7
BRANCH   2   9
ATOM      9  O   UNL     1     -33.068  13.687  57.386  1.00  0.00    -0.508 OA
ATOM     10  H   UNL     1     -32.550  13.140  56.711  1.00  0.00     0.293 HD
ENDBRANCH   2   9
BRANCH   4  11
ATOM     11  O   UNL     1     -36.490  12.447  60.550  1.00  0.00    -0.508 OA
ATOM     12  H   UNL     1     -37.418  12.609  60.922  1.00  0.00     0.293 HD
ENDBRANCH   4  11
TORSDOF 3
ENDMDL
