MODEL 1
REMARK VINA RESULT:    -2.952      0.000      0.000
REMARK INTER + INTRA:          -4.737
REMARK INTER:                  -4.332
REMARK INTRA:                  -0.405
REMARK UNBOUND:                -0.405
REMARK SMILES CCCCCCCCCC=O
REMARK SMILES IDX 6 1 5 2 4 3 3 4 2 5 1 6 7 7 8 8 9 9 10 10 11 11
REMARK H PARENT
REMARK Flexibility Score: inf
ROOT
ATOM      1  C   UNL     1      -7.156  22.198  10.111  1.00  0.00     0.000 C 
ENDROOT
BRANCH   1   2
ATOM      2  C   UNL     1      -6.371  22.421  11.413  1.00  0.00     0.000 C 
BRANCH   2   3
ATOM      3  C   UNL     1      -6.715  21.345  12.452  1.00  0.00    -0.000 C 
BRANCH   3   4
ATOM      4  C   UNL     1      -8.095  21.603  13.074  1.00  0.00    -0.000 C 
BRANCH   4   5
ATOM      5  C   UNL     1      -8.876  20.306  13.335  1.00  0.00    -0.003 C 
ATOM      6  C   UNL     1     -10.065  20.131  12.391  1.00  0.00     0.004 C 
ENDBRANCH   4   5
ENDBRANCH   3   4
ENDBRANCH   2   3
ENDBRANCH   1   2
BRANCH   1   7
ATOM      7  C   UNL     1      -6.373  22.643   8.866  1.00  0.00     0.000 C 
BRANCH   7   8
ATOM      8  C   UNL     1      -5.640  23.980   9.073  1.00  0.00     0.008 C 
BRANCH   8   9
ATOM      9  C   UNL     1      -4.137  23.865   8.785  1.00  0.00     0.072 C 
BRANCH   9  10
ATOM     10  C   UNL     1      -3.306  24.174   9.996  1.00  0.00     0.224 C 
ATOM     11  O   UNL     1      -2.228  24.735   9.881  1.00  0.00    -0.303 OA
ENDBRANCH   9  10
ENDBRANCH   8   9
ENDBRANCH   7   8
ENDBRANCH   1   7
TORSDOF 8
ENDMDL
MODEL 2
REMARK VINA RESULT:    -2.931      4.034      6.084
REMARK INTER + INTRA:          -4.707
REMARK INTER:                  -4.095
REMARK INTRA:                  -0.612
REMARK UNBOUND:                -0.405
REMARK SMILES CCCCCCCCCC=O
REMARK SMILES IDX 6 1 5 2 4 3 3 4 2 5 1 6 7 7 8 8 9 9 10 10 11 11
REMARK H PARENT
REMARK Flexibility Score: inf
ROOT
ATOM      1  C   UNL     1      -9.685  23.622  14.866  1.00  0.00     0.000 C 
ENDROOT
BRANCH   1   2
ATOM      2  C   UNL     1      -8.277  24.185  14.619  1.00  0.00     0.000 C 
BRANCH   2   3
ATOM      3  C   UNL     1      -7.652  24.695  15.924  1.00  0.00    -0.000 C 
BRANCH   3   4
ATOM      4  C   UNL     1      -7.540  23.564  16.957  1.00  0.00    -0.000 C 
BRANCH   4   5
ATOM      5  C   UNL     1      -8.005  23.994  18.356  1.00  0.00    -0.003 C 
ATOM      6  C   UNL     1      -8.219  25.503  18.471  1.00  0.00     0.004 C 
ENDBRANCH   4   5
ENDBRANCH   3   4
ENDBRANCH   2   3
ENDBRANCH   1   2
BRANCH   1   7
ATOM      7  C   UNL     1      -9.946  22.322  14.091  1.00  0.00     0.000 C 
BRANCH   7   8
ATOM      8  C   UNL     1      -8.986  21.188  14.495  1.00  0.00     0.008 C 
BRANCH   8   9
ATOM      9  C   UNL     1      -8.396  20.469  13.274  1.00  0.00     0.072 C 
BRANCH   9  10
ATOM     10  C   UNL     1      -7.367  21.305  12.571  1.00  0.00     0.224 C 
ATOM     11  O   UNL     1      -6.217  20.910  12.462  1.00  0.00    -0.303 OA
ENDBRANCH   9  10
ENDBRANCH   8   9
ENDBRANCH   7   8
ENDBRANCH   1   7
TORSDOF 8
ENDMDL
MODEL 3
REMARK VINA RESULT:    -2.926      1.329      1.837
REMARK INTER + INTRA:          -4.699
REMARK INTER:                  -4.360
REMARK INTRA:                  -0.340
REMARK UNBOUND:                -0.405
REMARK SMILES CCCCCCCCCC=O
REMARK SMILES IDX 6 1 5 2 4 3 3 4 2 5 1 6 7 7 8 8 9 9 10 10 11 11
REMARK H PARENT
REMARK Flexibility Score: inf
ROOT
ATOM      1  C   UNL     1      -5.547  23.194  11.222  1.00  0.00     0.000 C 
ENDROOT
BRANCH   1   2
ATOM      2  C   UNL     1      -6.648  22.129  11.106  1.00  0.00     0.000 C 
BRANCH   2   3
ATOM      3  C   UNL     1      -6.731  21.283  12.383  1.00  0.00    -0.000 C 
BRANCH   3   4
ATOM      4  C   UNL     1      -8.028  21.575  13.153  1.00  0.00    -0.000 C 
BRANCH   4   5
ATOM      5  C   UNL     1      -8.862  20.310  13.404  1.00  0.00    -0.003 C 
ATOM      6  C   UNL     1      -9.948  20.098  12.349  1.00  0.00     0.004 C 
ENDBRANCH   4   5
ENDBRANCH   3   4
ENDBRANCH   2   3
ENDBRANCH   1   2
BRANCH   1   7
ATOM      7  C   UNL     1      -4.942  23.569   9.860  1.00  0.00     0.000 C 
BRANCH   7   8
ATOM      8  C   UNL     1      -3.451  23.937   9.955  1.00  0.00     0.008 C 
BRANCH   8   9
ATOM      9  C   UNL     1      -2.929  23.865  11.396  1.00  0.00     0.072 C 
BRANCH   9  10
ATOM     10  C   UNL     1      -2.393  25.185  11.868  1.00  0.00     0.224 C 
ATOM     11  O   UNL     1      -3.122  25.980  12.441  1.00  0.00    -0.303 OA
ENDBRANCH   9  10
ENDBRANCH   8   9
ENDBRANCH   7   8
ENDBRANCH   1   7
TORSDOF 8
ENDMDL
MODEL 4
REMARK VINA RESULT:    -2.924      1.467      2.211
REMARK INTER + INTRA:          -4.696
REMARK INTER:                  -4.187
REMARK INTRA:                  -0.509
REMARK UNBOUND:                -0.405
REMARK SMILES CCCCCCCCCC=O
REMARK SMILES IDX 6 1 5 2 4 3 3 4 2 5 1 6 7 7 8 8 9 9 10 10 11 11
REMARK H PARENT
REMARK Flexibility Score: inf
ROOT
ATOM      1  C   UNL     1      -7.051  22.118  10.823  1.00  0.00     0.000 C 
ENDROOT
BRANCH   1   2
ATOM      2  C   UNL     1      -6.693  21.561  12.210  1.00  0.00     0.000 C 
BRANCH   2   3
ATOM      3  C   UNL     1      -7.945  21.052  12.937  1.00  0.00    -0.000 C 
BRANCH   3   4
ATOM      4  C   UNL     1      -8.745  22.219  13.535  1.00  0.00    -0.000 C 
BRANCH   4   5
ATOM      5  C   UNL     1      -7.854  23.225  14.278  1.00  0.00    -0.003 C 
ATOM      6  C   UNL     1      -8.199  23.339  15.763  1.00  0.00     0.004 C 
ENDBRANCH   4   5
ENDBRANCH   3   4
ENDBRANCH   2   3
ENDBRANCH   1   2
BRANCH   1   7
ATOM      7  C   UNL     1      -5.925  22.972  10.221  1.00  0.00     0.000 C 
BRANCH   7   8
ATOM      8  C   UNL     1      -5.150  23.768  11.286  1.00  0.00     0.008 C 
BRANCH   8   9
ATOM      9  C   UNL     1      -3.636  23.750  11.032  1.00  0.00     0.072 C 
BRANCH   9  10
ATOM     10  C   UNL     1      -3.305  23.989   9.588  1.00  0.00     0.224 C 
ATOM     11  O   UNL     1      -2.524  24.872   9.270  1.00  0.00    -0.303 OA
ENDBRANCH   9  10
ENDBRANCH   8   9
ENDBRANCH   7   8
ENDBRANCH   1   7
TORSDOF 8
ENDMDL
MODEL 5
REMARK VINA RESULT:    -2.910      1.498      2.241
REMARK INTER + INTRA:          -4.676
REMARK INTER:                  -4.315
REMARK INTRA:                  -0.361
REMARK UNBOUND:                -0.405
REMARK SMILES CCCCCCCCCC=O
REMARK SMILES IDX 6 1 5 2 4 3 3 4 2 5 1 6 7 7 8 8 9 9 10 10 11 11
REMARK H PARENT
REMARK Flexibility Score: inf
ROOT
ATOM      1  C   UNL     1      -5.831  23.477   9.185  1.00  0.00     0.000 C 
ENDROOT
BRANCH   1   2
ATOM      2  C   UNL     1      -6.534  22.418  10.049  1.00  0.00     0.000 C 
BRANCH   2   3
ATOM      3  C   UNL     1      -6.192  22.605  11.533  1.00  0.00    -0.000 C 
BRANCH   3   4
ATOM      4  C   UNL     1      -6.706  21.423  12.368  1.00  0.00    -0.000 C 
BRANCH   4   5
ATOM      5  C   UNL     1      -8.240  21.347  12.402  1.00  0.00    -0.003 C 
ATOM      6  C   UNL     1      -8.762  20.386  13.470  1.00  0.00     0.004 C 
ENDBRANCH   4   5
ENDBRANCH   3   4
ENDBRANCH   2   3
ENDBRANCH   1   2
BRANCH   1   7
ATOM      7  C   UNL     1      -4.564  24.035   9.850  1.00  0.00     0.000 C 
BRANCH   7   8
ATOM      8  C   UNL     1      -3.351  24.044   8.902  1.00  0.00     0.008 C 
BRANCH   8   9
ATOM      9  C   UNL     1      -3.671  23.393   7.550  1.00  0.00     0.072 C 
BRANCH   9  10
ATOM     10  C   UNL     1      -2.992  24.097   6.411  1.00  0.00     0.224 C 
ATOM     11  O   UNL     1      -1.787  24.289   6.432  1.00  0.00    -0.303 OA
ENDBRANCH   9  10
ENDBRANCH   8   9
ENDBRANCH   7   8
ENDBRANCH   1   7
TORSDOF 8
ENDMDL
MODEL 6
REMARK VINA RESULT:    -2.890      2.721      5.616
REMARK INTER + INTRA:          -4.647
REMARK INTER:                  -3.900
REMARK INTRA:                  -0.747
REMARK UNBOUND:                -0.405
REMARK SMILES CCCCCCCCCC=O
REMARK SMILES IDX 6 1 5 2 4 3 3 4 2 5 1 6 7 7 8 8 9 9 10 10 11 11
REMARK H PARENT
REMARK Flexibility Score: inf
ROOT
ATOM      1  C   UNL     1      -6.815  23.008   8.687  1.00  0.00     0.000 C 
ENDROOT
BRANCH   1   2
ATOM      2  C   UNL     1      -5.535  23.414   7.939  1.00  0.00     0.000 C 
BRANCH   2   3
ATOM      3  C   UNL     1      -4.767  24.495   8.711  1.00  0.00    -0.000 C 
BRANCH   3   4
ATOM      4  C   UNL     1      -3.371  23.997   9.112  1.00  0.00    -0.000 C 
BRANCH   4   5
ATOM      5  C   UNL     1      -3.169  23.967  10.634  1.00  0.00    -0.003 C 
ATOM      6  C   UNL     1      -4.100  24.928  11.374  1.00  0.00     0.004 C 
ENDBRANCH   4   5
ENDBRANCH   3   4
ENDBRANCH   2   3
ENDBRANCH   1   2
BRANCH   1   7
ATOM      7  C   UNL     1      -6.544  22.009   9.822  1.00  0.00     0.000 C 
BRANCH   7   8
ATOM      8  C   UNL     1      -6.894  22.578  11.209  1.00  0.00     0.008 C 
BRANCH   8   9
ATOM      9  C   UNL     1      -6.783  21.517  12.312  1.00  0.00     0.072 C 
BRANCH   9  10
ATOM     10  C   UNL     1      -8.120  21.181  12.907  1.00  0.00     0.224 C 
ATOM     11  O   UNL     1      -8.277  20.142  13.529  1.00  0.00    -0.303 OA
ENDBRANCH   9  10
ENDBRANCH   8   9
ENDBRANCH   7   8
ENDBRANCH   1   7
TORSDOF 8
ENDMDL
MODEL 7
REMARK VINA RESULT:    -2.889      3.370      5.976
REMARK INTER + INTRA:          -4.645
REMARK INTER:                  -4.201
REMARK INTRA:                  -0.443
REMARK UNBOUND:                -0.405
REMARK SMILES CCCCCCCCCC=O
REMARK SMILES IDX 6 1 5 2 4 3 3 4 2 5 1 6 7 7 8 8 9 9 10 10 11 11
REMARK H PARENT
REMARK Flexibility Score: inf
ROOT
ATOM      1  C   UNL     1      -7.571  22.524   8.629  1.00  0.00     0.000 C 
ENDROOT
BRANCH   1   2
ATOM      2  C   UNL     1      -6.102  22.817   8.288  1.00  0.00     0.000 C 
BRANCH   2   3
ATOM      3  C   UNL     1      -5.753  22.311   6.882  1.00  0.00    -0.000 C 
BRANCH   3   4
ATOM      4  C   UNL     1      -6.566  21.056   6.533  1.00  0.00    -0.000 C 
BRANCH   4   5
ATOM      5  C   UNL     1      -6.072  20.371   5.250  1.00  0.00    -0.003 C 
ATOM      6  C   UNL     1      -4.655  20.794   4.861  1.00  0.00     0.004 C 
ENDBRANCH   4   5
ENDBRANCH   3   4
ENDBRANCH   2   3
ENDBRANCH   1   2
BRANCH   1   7
ATOM      7  C   UNL     1      -7.785  22.237  10.123  1.00  0.00     0.000 C 
BRANCH   7   8
ATOM      8  C   UNL     1      -6.463  22.028  10.882  1.00  0.00     0.008 C 
BRANCH   8   9
ATOM      9  C   UNL     1      -6.692  21.734  12.371  1.00  0.00     0.072 C 
BRANCH   9  10
ATOM     10  C   UNL     1      -8.052  21.154  12.628  1.00  0.00     0.224 C 
ATOM     11  O   UNL     1      -8.194  20.239  13.424  1.00  0.00    -0.303 OA
ENDBRANCH   9  10
ENDBRANCH   8   9
ENDBRANCH   7   8
ENDBRANCH   1   7
TORSDOF 8
ENDMDL
MODEL 8
REMARK VINA RESULT:    -2.865      2.001      3.205
REMARK INTER + INTRA:          -4.610
REMARK INTER:                  -3.858
REMARK INTRA:                  -0.753
REMARK UNBOUND:                -0.405
REMARK SMILES CCCCCCCCCC=O
REMARK SMILES IDX 6 1 5 2 4 3 3 4 2 5 1 6 7 7 8 8 9 9 10 10 11 11
REMARK H PARENT
REMARK Flexibility Score: inf
ROOT
ATOM      1  C   UNL     1      -7.596  22.503  13.332  1.00  0.00     0.000 C 
ENDROOT
BRANCH   1   2
ATOM      2  C   UNL     1      -8.747  21.659  13.901  1.00  0.00     0.000 C 
BRANCH   2   3
ATOM      3  C   UNL     1      -8.713  20.233  13.337  1.00  0.00    -0.000 C 
BRANCH   3   4
ATOM      4  C   UNL     1     -10.048  19.875  12.668  1.00  0.00    -0.000 C 
BRANCH   4   5
ATOM      5  C   UNL     1     -10.601  21.020  11.806  1.00  0.00    -0.003 C 
ATOM      6  C   UNL     1     -10.174  20.919  10.342  1.00  0.00     0.004 C 
ENDBRANCH   4   5
ENDBRANCH   3   4
ENDBRANCH   2   3
ENDBRANCH   1   2
BRANCH   1   7
ATOM      7  C   UNL     1      -6.721  21.719  12.342  1.00  0.00     0.000 C 
BRANCH   7   8
ATOM      8  C   UNL     1      -6.184  22.598  11.199  1.00  0.00     0.008 C 
BRANCH   8   9
ATOM      9  C   UNL     1      -6.697  22.138   9.827  1.00  0.00     0.072 C 
BRANCH   9  10
ATOM     10  C   UNL     1      -6.060  22.901   8.703  1.00  0.00     0.224 C 
ATOM     11  O   UNL     1      -6.019  22.427   7.578  1.00  0.00    -0.303 OA
ENDBRANCH   9  10
ENDBRANCH   8   9
ENDBRANCH   7   8
ENDBRANCH   1   7
TORSDOF 8
ENDMDL
MODEL 9
REMARK VINA RESULT:    -2.787      2.356      4.623
REMARK INTER + INTRA:          -4.496
REMARK INTER:                  -3.622
REMARK INTRA:                  -0.875
REMARK UNBOUND:                -0.405
REMARK SMILES CCCCCCCCCC=O
REMARK SMILES IDX 6 1 5 2 4 3 3 4 2 5 1 6 7 7 8 8 9 9 10 10 11 11
REMARK H PARENT
REMARK Flexibility Score: inf
ROOT
ATOM      1  C   UNL     1     -10.149  20.302  13.459  1.00  0.00     0.000 C 
ENDROOT
BRANCH   1   2
ATOM      2  C   UNL     1     -10.557  20.258  14.939  1.00  0.00     0.000 C 
BRANCH   2   3
ATOM      3  C   UNL     1     -10.288  21.604  15.624  1.00  0.00    -0.000 C 
BRANCH   3   4
ATOM      4  C   UNL     1     -10.770  22.771  14.749  1.00  0.00    -0.000 C 
BRANCH   4   5
ATOM      5  C   UNL     1      -9.742  23.910  14.667  1.00  0.00    -0.003 C 
ATOM      6  C   UNL     1      -8.439  23.586  15.397  1.00  0.00     0.004 C 
ENDBRANCH   4   5
ENDBRANCH   3   4
ENDBRANCH   2   3
ENDBRANCH   1   2
BRANCH   1   7
ATOM      7  C   UNL     1      -8.625  20.331  13.267  1.00  0.00     0.000 C 
BRANCH   7   8
ATOM      8  C   UNL     1      -8.170  21.428  12.289  1.00  0.00     0.008 C 
BRANCH   8   9
ATOM      9  C   UNL     1      -6.721  21.864  12.543  1.00  0.00     0.072 C 
BRANCH   9  10
ATOM     10  C   UNL     1      -6.186  22.719  11.432  1.00  0.00     0.224 C 
ATOM     11  O   UNL     1      -4.982  22.862  11.285  1.00  0.00    -0.303 OA
ENDBRANCH   9  10
ENDBRANCH   8   9
ENDBRANCH   7   8
ENDBRANCH   1   7
TORSDOF 8
ENDMDL
