MODEL 1
REMARK VINA RESULT:    -5.224      0.000      0.000
REMARK INTER + INTRA:          -7.150
REMARK INTER:                  -6.751
REMARK INTRA:                  -0.399
REMARK UNBOUND:                -0.399
REMARK SMILES CCO[C@H]1O[C@@H](CO)[C@H](O)[C@H](O)[C@@H]1O
REMARK SMILES IDX 4 1 13 2 11 3 9 4 6 5 5 6 3 7 2 8 1 9 14 10 12 12 7 14 8 15
REMARK SMILES IDX 10 17
REMARK H PARENT 14 11 12 13 8 16 10 18
REMARK Flexibility Score: inf
ROOT
ATOM      1  C   UNL     1     -16.544   5.373 -42.461  1.00  0.00     0.281 C 
ATOM      2  C   UNL     1     -17.944   5.070 -41.837  1.00  0.00     0.202 C 
ATOM      3  C   UNL     1     -18.788   6.358 -41.720  1.00  0.00     0.179 C 
ATOM      4  C   UNL     1     -17.997   7.514 -41.050  1.00  0.00     0.177 C 
ATOM      5  C   UNL     1     -16.479   7.436 -41.378  1.00  0.00     0.178 C 
ATOM      6  O   UNL     1     -16.283   6.765 -42.609  1.00  0.00    -0.341 OA
ENDROOT
BRANCH   1   7
ATOM      7  O   UNL     1     -16.366   4.679 -43.689  1.00  0.00    -0.350 OA
BRANCH   7   8
ATOM      8  C   UNL     1     -16.020   5.550 -44.750  1.00  0.00     0.160 C 
ATOM      9  C   UNL     1     -14.921   4.906 -45.580  1.00  0.00     0.035 C 
ENDBRANCH   7   8
ENDBRANCH   1   7
BRANCH   2  10
ATOM     10  O   UNL     1     -17.770   4.485 -40.570  1.00  0.00    -0.385 OA
ATOM     11  H   UNL     1     -18.460   3.777 -40.477  1.00  0.00     0.211 HD
ENDBRANCH   2  10
BRANCH   3  12
ATOM     12  O   UNL     1     -19.981   6.094 -41.028  1.00  0.00    -0.387 OA
ATOM     13  H   UNL     1     -19.731   5.930 -40.081  1.00  0.00     0.211 HD
ENDBRANCH   3  12
BRANCH   5  14
ATOM     14  C   UNL     1     -15.847   8.831 -41.476  1.00  0.00     0.191 C 
BRANCH  14  15
ATOM     15  O   UNL     1     -16.561   9.756 -40.699  1.00  0.00    -0.394 OA
ATOM     16  H   UNL     1     -17.510   9.465 -40.705  1.00  0.00     0.210 HD
ENDBRANCH  14  15
ENDBRANCH   5  14
BRANCH   4  17
ATOM     17  O   UNL     1     -18.205   7.552 -39.659  1.00  0.00    -0.387 OA
ATOM     18  H   UNL     1     -19.016   7.017 -39.458  1.00  0.00     0.211 HD
ENDBRANCH   4  17
TORSDOF 7
ENDMDL
MODEL 2
REMARK VINA RESULT:    -5.175      1.454      3.193
REMARK INTER + INTRA:          -7.086
REMARK INTER:                  -6.894
REMARK INTRA:                  -0.192
REMARK UNBOUND:                -0.399
REMARK SMILES CCO[C@H]1O[C@@H](CO)[C@H](O)[C@H](O)[C@@H]1O
REMARK SMILES IDX 4 1 13 2 11 3 9 4 6 5 5 6 3 7 2 8 1 9 14 10 12 12 7 14 8 15
REMARK SMILES IDX 10 17
REMARK H PARENT 14 11 12 13 8 16 10 18
REMARK Flexibility Score: inf
ROOT
ATOM      1  C   UNL     1     -17.350   6.482 -43.366  1.00  0.00     0.281 C 
ATOM      2  C   UNL     1     -17.454   7.858 -42.633  1.00  0.00     0.202 C 
ATOM      3  C   UNL     1     -16.850   7.776 -41.214  1.00  0.00     0.179 C 
ATOM      4  C   UNL     1     -17.392   6.556 -40.419  1.00  0.00     0.177 C 
ATOM      5  C   UNL     1     -17.706   5.356 -41.356  1.00  0.00     0.178 C 
ATOM      6  O   UNL     1     -16.903   5.426 -42.521  1.00  0.00    -0.341 OA
ENDROOT
BRANCH   1   7
ATOM      7  O   UNL     1     -16.551   6.581 -44.537  1.00  0.00    -0.350 OA
BRANCH   7   8
ATOM      8  C   UNL     1     -15.277   5.987 -44.367  1.00  0.00     0.160 C 
ATOM      9  C   UNL     1     -15.063   4.953 -45.461  1.00  0.00     0.035 C 
ENDBRANCH   7   8
ENDBRANCH   1   7
BRANCH   2  10
ATOM     10  O   UNL     1     -18.804   8.246 -42.566  1.00  0.00    -0.385 OA
ATOM     11  H   UNL     1     -18.881   8.911 -41.832  1.00  0.00     0.211 HD
ENDBRANCH   2  10
BRANCH   3  12
ATOM     12  O   UNL     1     -17.081   8.975 -40.520  1.00  0.00    -0.387 OA
ATOM     13  H   UNL     1     -16.241   9.502 -40.575  1.00  0.00     0.211 HD
ENDBRANCH   3  12
BRANCH   5  14
ATOM     14  C   UNL     1     -17.443   4.012 -40.662  1.00  0.00     0.191 C 
BRANCH  14  15
ATOM     15  O   UNL     1     -18.578   3.189 -40.726  1.00  0.00    -0.394 OA
ATOM     16  H   UNL     1     -19.191   3.488 -40.005  1.00  0.00     0.210 HD
ENDBRANCH  14  15
ENDBRANCH   5  14
BRANCH   4  17
ATOM     17  O   UNL     1     -18.519   6.895 -39.648  1.00  0.00    -0.387 OA
ATOM     18  H   UNL     1     -18.663   6.171 -38.986  1.00  0.00     0.211 HD
ENDBRANCH   4  17
TORSDOF 7
ENDMDL
MODEL 3
REMARK VINA RESULT:    -4.996      2.090      3.859
REMARK INTER + INTRA:          -6.855
REMARK INTER:                  -6.493
REMARK INTRA:                  -0.363
REMARK UNBOUND:                -0.399
REMARK SMILES CCO[C@H]1O[C@@H](CO)[C@H](O)[C@H](O)[C@@H]1O
REMARK SMILES IDX 4 1 13 2 11 3 9 4 6 5 5 6 3 7 2 8 1 9 14 10 12 12 7 14 8 15
REMARK SMILES IDX 10 17
REMARK H PARENT 14 11 12 13 8 16 10 18
REMARK Flexibility Score: inf
ROOT
ATOM      1  C   UNL     1     -16.345   8.204 -41.961  1.00  0.00     0.281 C 
ATOM      2  C   UNL     1     -17.653   8.185 -41.107  1.00  0.00     0.202 C 
ATOM      3  C   UNL     1     -17.524   7.203 -39.921  1.00  0.00     0.179 C 
ATOM      4  C   UNL     1     -17.001   5.812 -40.369  1.00  0.00     0.177 C 
ATOM      5  C   UNL     1     -16.029   5.927 -41.578  1.00  0.00     0.178 C 
ATOM      6  O   UNL     1     -15.409   7.200 -41.582  1.00  0.00    -0.341 OA
ENDROOT
BRANCH   1   7
ATOM      7  O   UNL     1     -15.749   9.494 -41.961  1.00  0.00    -0.350 OA
BRANCH   7   8
ATOM      8  C   UNL     1     -14.431   9.474 -42.478  1.00  0.00     0.160 C 
ATOM      9  C   UNL     1     -13.495  10.124 -41.472  1.00  0.00     0.035 C 
ENDBRANCH   7   8
ENDBRANCH   1   7
BRANCH   2  10
ATOM     10  O   UNL     1     -18.736   7.819 -41.926  1.00  0.00    -0.385 OA
ATOM     11  H   UNL     1     -18.930   8.591 -42.518  1.00  0.00     0.211 HD
ENDBRANCH   2  10
BRANCH   3  12
ATOM     12  O   UNL     1     -18.753   7.091 -39.251  1.00  0.00    -0.387 OA
ATOM     13  H   UNL     1     -18.883   7.938 -38.749  1.00  0.00     0.211 HD
ENDBRANCH   3  12
BRANCH   5  14
ATOM     14  C   UNL     1     -14.936   4.851 -41.530  1.00  0.00     0.191 C 
BRANCH  14  15
ATOM     15  O   UNL     1     -15.149   3.972 -40.457  1.00  0.00    -0.394 OA
ATOM     16  H   UNL     1     -15.438   3.107 -40.847  1.00  0.00     0.210 HD
ENDBRANCH  14  15
ENDBRANCH   5  14
BRANCH   4  17
ATOM     17  O   UNL     1     -18.056   4.927 -40.660  1.00  0.00    -0.387 OA
ATOM     18  H   UNL     1     -18.128   4.853 -41.646  1.00  0.00     0.211 HD
ENDBRANCH   4  17
TORSDOF 7
ENDMDL
MODEL 4
REMARK VINA RESULT:    -4.935     10.139     11.559
REMARK INTER + INTRA:          -6.776
REMARK INTER:                  -6.426
REMARK INTRA:                  -0.350
REMARK UNBOUND:                -0.399
REMARK SMILES CCO[C@H]1O[C@@H](CO)[C@H](O)[C@H](O)[C@@H]1O
REMARK SMILES IDX 4 1 13 2 11 3 9 4 6 5 5 6 3 7 2 8 1 9 14 10 12 12 7 14 8 15
REMARK SMILES IDX 10 17
REMARK H PARENT 14 11 12 13 8 16 10 18
REMARK Flexibility Score: inf
ROOT
ATOM      1  C   UNL     1      -8.631   0.194 -40.235  1.00  0.00     0.281 C 
ATOM      2  C   UNL     1      -8.049  -0.831 -41.259  1.00  0.00     0.202 C 
ATOM      3  C   UNL     1      -9.177  -1.649 -41.925  1.00  0.00     0.179 C 
ATOM      4  C   UNL     1     -10.163  -2.239 -40.881  1.00  0.00     0.177 C 
ATOM      5  C   UNL     1     -10.308  -1.312 -39.641  1.00  0.00     0.178 C 
ATOM      6  O   UNL     1     -10.027   0.028 -40.002  1.00  0.00    -0.341 OA
ENDROOT
BRANCH   1   7
ATOM      7  O   UNL     1      -8.325   1.530 -40.611  1.00  0.00    -0.350 OA
BRANCH   7   8
ATOM      8  C   UNL     1      -7.000   1.661 -41.092  1.00  0.00     0.160 C 
ATOM      9  C   UNL     1      -6.875   2.974 -41.848  1.00  0.00     0.035 C 
ENDBRANCH   7   8
ENDBRANCH   1   7
BRANCH   2  10
ATOM     10  O   UNL     1      -7.151  -1.688 -40.598  1.00  0.00    -0.385 OA
ATOM     11  H   UNL     1      -6.609  -1.127 -39.984  1.00  0.00     0.211 HD
ENDBRANCH   2  10
BRANCH   3  12
ATOM     12  O   UNL     1      -8.629  -2.660 -42.732  1.00  0.00    -0.387 OA
ATOM     13  H   UNL     1      -9.356  -2.968 -43.336  1.00  0.00     0.211 HD
ENDBRANCH   3  12
BRANCH   5  14
ATOM     14  C   UNL     1     -11.724  -1.372 -39.052  1.00  0.00     0.191 C 
BRANCH  14  15
ATOM     15  O   UNL     1     -12.493  -2.349 -39.702  1.00  0.00    -0.394 OA
ATOM     16  H   UNL     1     -11.988  -3.201 -39.640  1.00  0.00     0.210 HD
ENDBRANCH  14  15
ENDBRANCH   5  14
BRANCH   4  17
ATOM     17  O   UNL     1      -9.793  -3.540 -40.491  1.00  0.00    -0.387 OA
ATOM     18  H   UNL     1      -8.952  -3.771 -40.961  1.00  0.00     0.211 HD
ENDBRANCH   4  17
TORSDOF 7
ENDMDL
MODEL 5
REMARK VINA RESULT:    -4.898      9.705     11.290
REMARK INTER + INTRA:          -6.728
REMARK INTER:                  -6.408
REMARK INTRA:                  -0.320
REMARK UNBOUND:                -0.399
REMARK SMILES CCO[C@H]1O[C@@H](CO)[C@H](O)[C@H](O)[C@@H]1O
REMARK SMILES IDX 4 1 13 2 11 3 9 4 6 5 5 6 3 7 2 8 1 9 14 10 12 12 7 14 8 15
REMARK SMILES IDX 10 17
REMARK H PARENT 14 11 12 13 8 16 10 18
REMARK Flexibility Score: inf
ROOT
ATOM      1  C   UNL     1     -10.786  -0.825 -40.904  1.00  0.00     0.281 C 
ATOM      2  C   UNL     1      -9.957  -2.105 -40.569  1.00  0.00     0.202 C 
ATOM      3  C   UNL     1      -8.738  -1.759 -39.685  1.00  0.00     0.179 C 
ATOM      4  C   UNL     1      -7.922  -0.568 -40.257  1.00  0.00     0.177 C 
ATOM      5  C   UNL     1      -8.834   0.446 -41.004  1.00  0.00     0.178 C 
ATOM      6  O   UNL     1     -10.152   0.382 -40.490  1.00  0.00    -0.341 OA
ENDROOT
BRANCH   1   7
ATOM      7  O   UNL     1     -12.108  -0.918 -40.390  1.00  0.00    -0.350 OA
BRANCH   7   8
ATOM      8  C   UNL     1     -12.214  -1.881 -39.357  1.00  0.00     0.160 C 
ATOM      9  C   UNL     1     -13.585  -2.535 -39.430  1.00  0.00     0.035 C 
ENDBRANCH   7   8
ENDBRANCH   1   7
BRANCH   2  10
ATOM     10  O   UNL     1      -9.534  -2.710 -41.766  1.00  0.00    -0.385 OA
ATOM     11  H   UNL     1      -8.676  -3.172 -41.573  1.00  0.00     0.211 HD
ENDBRANCH   2  10
BRANCH   3  12
ATOM     12  O   UNL     1      -7.928  -2.893 -39.514  1.00  0.00    -0.387 OA
ATOM     13  H   UNL     1      -7.084  -2.580 -39.092  1.00  0.00     0.211 HD
ENDBRANCH   3  12
BRANCH   5  14
ATOM     14  C   UNL     1      -8.322   1.885 -40.856  1.00  0.00     0.191 C 
BRANCH  14  15
ATOM     15  O   UNL     1      -6.986   1.982 -41.273  1.00  0.00    -0.394 OA
ATOM     16  H   UNL     1      -6.976   1.808 -42.250  1.00  0.00     0.210 HD
ENDBRANCH  14  15
ENDBRANCH   5  14
BRANCH   4  17
ATOM     17  O   UNL     1      -6.876  -1.005 -41.090  1.00  0.00    -0.387 OA
ATOM     18  H   UNL     1      -6.019  -0.781 -40.645  1.00  0.00     0.211 HD
ENDBRANCH   4  17
TORSDOF 7
ENDMDL
MODEL 6
REMARK VINA RESULT:    -4.887      9.837     11.669
REMARK INTER + INTRA:          -6.714
REMARK INTER:                  -6.326
REMARK INTRA:                  -0.388
REMARK UNBOUND:                -0.399
REMARK SMILES CCO[C@H]1O[C@@H](CO)[C@H](O)[C@H](O)[C@@H]1O
REMARK SMILES IDX 4 1 13 2 11 3 9 4 6 5 5 6 3 7 2 8 1 9 14 10 12 12 7 14 8 15
REMARK SMILES IDX 10 17
REMARK H PARENT 14 11 12 13 8 16 10 18
REMARK Flexibility Score: inf
ROOT
ATOM      1  C   UNL     1     -11.105  -0.685 -40.194  1.00  0.00     0.281 C 
ATOM      2  C   UNL     1     -10.246  -0.839 -41.489  1.00  0.00     0.202 C 
ATOM      3  C   UNL     1      -9.563  -2.224 -41.538  1.00  0.00     0.179 C 
ATOM      4  C   UNL     1      -8.832  -2.561 -40.211  1.00  0.00     0.177 C 
ATOM      5  C   UNL     1      -9.553  -1.934 -38.984  1.00  0.00     0.178 C 
ATOM      6  O   UNL     1     -10.928  -1.754 -39.269  1.00  0.00    -0.341 OA
ENDROOT
BRANCH   1   7
ATOM      7  O   UNL     1     -12.478  -0.493 -40.506  1.00  0.00    -0.350 OA
BRANCH   7   8
ATOM      8  C   UNL     1     -13.293  -1.534 -39.997  1.00  0.00     0.160 C 
ATOM      9  C   UNL     1     -14.740  -1.257 -40.374  1.00  0.00     0.035 C 
ENDBRANCH   7   8
ENDBRANCH   1   7
BRANCH   2  10
ATOM     10  O   UNL     1      -9.279   0.182 -41.529  1.00  0.00    -0.385 OA
ATOM     11  H   UNL     1      -8.433  -0.228 -41.848  1.00  0.00     0.211 HD
ENDBRANCH   2  10
BRANCH   3  12
ATOM     12  O   UNL     1      -8.684  -2.291 -42.632  1.00  0.00    -0.387 OA
ATOM     13  H   UNL     1      -7.865  -1.793 -42.371  1.00  0.00     0.211 HD
ENDBRANCH   3  12
BRANCH   5  14
ATOM     14  C   UNL     1      -9.424  -2.821 -37.738  1.00  0.00     0.191 C 
BRANCH  14  15
ATOM     15  O   UNL     1      -8.112  -3.297 -37.598  1.00  0.00    -0.394 OA
ATOM     16  H   UNL     1      -7.743  -2.886 -36.774  1.00  0.00     0.210 HD
ENDBRANCH  14  15
ENDBRANCH   5  14
BRANCH   4  17
ATOM     17  O   UNL     1      -7.480  -2.172 -40.247  1.00  0.00    -0.387 OA
ATOM     18  H   UNL     1      -7.440  -1.194 -40.092  1.00  0.00     0.211 HD
ENDBRANCH   4  17
TORSDOF 7
ENDMDL
MODEL 7
REMARK VINA RESULT:    -4.862      1.784      3.757
REMARK INTER + INTRA:          -6.682
REMARK INTER:                  -6.294
REMARK INTRA:                  -0.388
REMARK UNBOUND:                -0.399
REMARK SMILES CCO[C@H]1O[C@@H](CO)[C@H](O)[C@H](O)[C@@H]1O
REMARK SMILES IDX 4 1 13 2 11 3 9 4 6 5 5 6 3 7 2 8 1 9 14 10 12 12 7 14 8 15
REMARK SMILES IDX 10 17
REMARK H PARENT 14 11 12 13 8 16 10 18
REMARK Flexibility Score: inf
ROOT
ATOM      1  C   UNL     1     -15.921   6.724 -42.121  1.00  0.00     0.281 C 
ATOM      2  C   UNL     1     -16.612   7.761 -41.179  1.00  0.00     0.202 C 
ATOM      3  C   UNL     1     -17.412   7.049 -40.066  1.00  0.00     0.179 C 
ATOM      4  C   UNL     1     -18.343   5.943 -40.633  1.00  0.00     0.177 C 
ATOM      5  C   UNL     1     -17.734   5.276 -41.899  1.00  0.00     0.178 C 
ATOM      6  O   UNL     1     -16.322   5.381 -41.871  1.00  0.00    -0.341 OA
ENDROOT
BRANCH   1   7
ATOM      7  O   UNL     1     -14.507   6.857 -42.086  1.00  0.00    -0.350 OA
BRANCH   7   8
ATOM      8  C   UNL     1     -13.900   5.895 -41.242  1.00  0.00     0.160 C 
ATOM      9  C   UNL     1     -12.566   6.437 -40.754  1.00  0.00     0.035 C 
ENDBRANCH   7   8
ENDBRANCH   1   7
BRANCH   2  10
ATOM     10  O   UNL     1     -17.461   8.585 -41.938  1.00  0.00    -0.385 OA
ATOM     11  H   UNL     1     -18.285   8.064 -42.125  1.00  0.00     0.211 HD
ENDBRANCH   2  10
BRANCH   3  12
ATOM     12  O   UNL     1     -18.140   7.989 -39.317  1.00  0.00    -0.387 OA
ATOM     13  H   UNL     1     -19.040   7.596 -39.164  1.00  0.00     0.211 HD
ENDBRANCH   3  12
BRANCH   5  14
ATOM     14  C   UNL     1     -18.112   3.791 -41.994  1.00  0.00     0.191 C 
BRANCH  14  15
ATOM     15  O   UNL     1     -18.893   3.405 -40.894  1.00  0.00    -0.394 OA
ATOM     16  H   UNL     1     -19.584   2.781 -41.237  1.00  0.00     0.210 HD
ENDBRANCH  14  15
ENDBRANCH   5  14
BRANCH   4  17
ATOM     17  O   UNL     1     -19.634   6.434 -40.901  1.00  0.00    -0.387 OA
ATOM     18  H   UNL     1     -19.740   7.292 -40.415  1.00  0.00     0.211 HD
ENDBRANCH   4  17
TORSDOF 7
ENDMDL
MODEL 8
REMARK VINA RESULT:    -4.685      2.173      2.722
REMARK INTER + INTRA:          -6.453
REMARK INTER:                  -6.070
REMARK INTRA:                  -0.382
REMARK UNBOUND:                -0.399
REMARK SMILES CCO[C@H]1O[C@@H](CO)[C@H](O)[C@H](O)[C@@H]1O
REMARK SMILES IDX 4 1 13 2 11 3 9 4 6 5 5 6 3 7 2 8 1 9 14 10 12 12 7 14 8 15
REMARK SMILES IDX 10 17
REMARK H PARENT 14 11 12 13 8 16 10 18
REMARK Flexibility Score: inf
ROOT
ATOM      1  C   UNL     1     -15.492   5.920 -41.605  1.00  0.00     0.281 C 
ATOM      2  C   UNL     1     -16.497   4.936 -40.926  1.00  0.00     0.202 C 
ATOM      3  C   UNL     1     -17.817   4.856 -41.723  1.00  0.00     0.179 C 
ATOM      4  C   UNL     1     -18.385   6.262 -42.054  1.00  0.00     0.177 C 
ATOM      5  C   UNL     1     -17.249   7.305 -42.257  1.00  0.00     0.178 C 
ATOM      6  O   UNL     1     -16.065   6.656 -42.681  1.00  0.00    -0.341 OA
ENDROOT
BRANCH   1   7
ATOM      7  O   UNL     1     -14.307   5.248 -42.010  1.00  0.00    -0.350 OA
BRANCH   7   8
ATOM      8  C   UNL     1     -13.332   5.216 -40.984  1.00  0.00     0.160 C 
ATOM      9  C   UNL     1     -12.960   3.769 -40.699  1.00  0.00     0.035 C 
ENDBRANCH   7   8
ENDBRANCH   1   7
BRANCH   2  10
ATOM     10  O   UNL     1     -16.748   5.364 -39.610  1.00  0.00    -0.385 OA
ATOM     11  H   UNL     1     -15.881   5.659 -39.227  1.00  0.00     0.211 HD
ENDBRANCH   2  10
BRANCH   3  12
ATOM     12  O   UNL     1     -18.758   4.082 -41.024  1.00  0.00    -0.387 OA
ATOM     13  H   UNL     1     -18.322   3.797 -40.179  1.00  0.00     0.211 HD
ENDBRANCH   3  12
BRANCH   5  14
ATOM     14  C   UNL     1     -17.630   8.360 -43.305  1.00  0.00     0.191 C 
BRANCH  14  15
ATOM     15  O   UNL     1     -19.020   8.549 -43.340  1.00  0.00    -0.394 OA
ATOM     16  H   UNL     1     -19.416   7.877 -42.727  1.00  0.00     0.210 HD
ENDBRANCH  14  15
ENDBRANCH   5  14
BRANCH   4  17
ATOM     17  O   UNL     1     -19.296   6.701 -41.075  1.00  0.00    -0.387 OA
ATOM     18  H   UNL     1     -19.154   7.674 -40.942  1.00  0.00     0.211 HD
ENDBRANCH   4  17
TORSDOF 7
ENDMDL
MODEL 9
REMARK VINA RESULT:    -4.670     10.450     12.295
REMARK INTER + INTRA:          -6.434
REMARK INTER:                  -6.300
REMARK INTRA:                  -0.133
REMARK UNBOUND:                -0.399
REMARK SMILES CCO[C@H]1O[C@@H](CO)[C@H](O)[C@H](O)[C@@H]1O
REMARK SMILES IDX 4 1 13 2 11 3 9 4 6 5 5 6 3 7 2 8 1 9 14 10 12 12 7 14 8 15
REMARK SMILES IDX 10 17
REMARK H PARENT 14 11 12 13 8 16 10 18
REMARK Flexibility Score: inf
ROOT
ATOM      1  C   UNL     1      -9.193  -1.442 -38.074  1.00  0.00     0.281 C 
ATOM      2  C   UNL     1      -8.061  -1.645 -39.131  1.00  0.00     0.202 C 
ATOM      3  C   UNL     1      -8.526  -1.195 -40.533  1.00  0.00     0.179 C 
ATOM      4  C   UNL     1      -9.905  -1.800 -40.912  1.00  0.00     0.177 C 
ATOM      5  C   UNL     1     -10.809  -1.993 -39.662  1.00  0.00     0.178 C 
ATOM      6  O   UNL     1     -10.442  -1.072 -38.651  1.00  0.00    -0.341 OA
ENDROOT
BRANCH   1   7
ATOM      7  O   UNL     1      -8.797  -0.523 -37.065  1.00  0.00    -0.350 OA
BRANCH   7   8
ATOM      8  C   UNL     1      -9.414  -0.797 -35.820  1.00  0.00     0.160 C 
ATOM      9  C   UNL     1     -10.380   0.329 -35.488  1.00  0.00     0.035 C 
ENDBRANCH   7   8
ENDBRANCH   1   7
BRANCH   2  10
ATOM     10  O   UNL     1      -7.686  -3.000 -39.153  1.00  0.00    -0.385 OA
ATOM     11  H   UNL     1      -8.284  -3.481 -38.523  1.00  0.00     0.211 HD
ENDBRANCH   2  10
BRANCH   3  12
ATOM     12  O   UNL     1      -7.551  -1.518 -41.492  1.00  0.00    -0.387 OA
ATOM     13  H   UNL     1      -7.757  -2.436 -41.810  1.00  0.00     0.211 HD
ENDBRANCH   3  12
BRANCH   5  14
ATOM     14  C   UNL     1     -12.292  -1.785 -39.997  1.00  0.00     0.191 C 
BRANCH  14  15
ATOM     15  O   UNL     1     -13.053  -2.895 -39.598  1.00  0.00    -0.394 OA
ATOM     16  H   UNL     1     -13.514  -2.640 -38.758  1.00  0.00     0.210 HD
ENDBRANCH  14  15
ENDBRANCH   5  14
BRANCH   4  17
ATOM     17  O   UNL     1      -9.769  -3.008 -41.620  1.00  0.00    -0.387 OA
ATOM     18  H   UNL     1     -10.646  -3.221 -42.030  1.00  0.00     0.211 HD
ENDBRANCH   4  17
TORSDOF 7
ENDMDL
