MODEL 1
REMARK VINA RESULT:    -4.166      0.000      0.000
REMARK INTER + INTRA:          -6.724
REMARK INTER:                  -6.115
REMARK INTRA:                  -0.609
REMARK UNBOUND:                -0.609
REMARK SMILES O=C([O-])CCCCCCCC(=O)[O-]
REMARK SMILES IDX 7 1 6 2 5 3 4 4 2 5 1 6 3 7 8 8 9 9 10 10 11 11 12 12 13 13
REMARK H PARENT
REMARK Flexibility Score: inf
ROOT
ATOM      1  C   UNL     1      39.524  19.981   4.295  1.00  0.00     0.000 C 
ENDROOT
BRANCH   1   2
ATOM      2  C   UNL     1      38.917  20.903   3.228  1.00  0.00     0.000 C 
BRANCH   2   3
ATOM      3  C   UNL     1      37.556  21.451   3.685  1.00  0.00     0.006 C 
BRANCH   3   4
ATOM      4  C   UNL     1      36.488  20.353   3.777  1.00  0.00     0.053 C 
BRANCH   4   5
ATOM      5  C   UNL     1      35.502  20.441   2.653  1.00  0.00     0.041 C 
ATOM      6  O   UNL     1      35.037  19.393   2.134  1.00  0.00    -0.550 OA
ATOM      7  O   UNL     1      35.121  21.682   2.157  1.00  0.00    -0.550 OA
ENDBRANCH   4   5
ENDBRANCH   3   4
ENDBRANCH   2   3
ENDBRANCH   1   2
BRANCH   1   8
ATOM      8  C   UNL     1      40.032  20.744   5.532  1.00  0.00     0.000 C 
BRANCH   8   9
ATOM      9  C   UNL     1      39.849  20.007   6.870  1.00  0.00     0.006 C 
BRANCH   9  10
ATOM     10  C   UNL     1      38.577  19.151   6.912  1.00  0.00     0.053 C 
BRANCH  10  11
ATOM     11  C   UNL     1      37.493  19.861   7.661  1.00  0.00     0.041 C 
ATOM     12  O   UNL     1      36.682  19.211   8.371  1.00  0.00    -0.550 OA
ATOM     13  O   UNL     1      37.409  21.246   7.613  1.00  0.00    -0.550 OA
ENDBRANCH  10  11
ENDBRANCH   9  10
ENDBRANCH   8   9
ENDBRANCH   1   8
TORSDOF 8
ENDMDL
MODEL 2
REMARK VINA RESULT:    -4.137      0.507      4.805
REMARK INTER + INTRA:          -6.681
REMARK INTER:                  -6.137
REMARK INTRA:                  -0.544
REMARK UNBOUND:                -0.609
REMARK SMILES O=C([O-])CCCCCCCC(=O)[O-]
REMARK SMILES IDX 7 1 6 2 5 3 4 4 2 5 1 6 3 7 8 8 9 9 10 10 11 11 12 12 13 13
REMARK H PARENT
REMARK Flexibility Score: inf
ROOT
ATOM      1  C   UNL     1      39.312  20.489   4.444  1.00  0.00     0.000 C 
ENDROOT
BRANCH   1   2
ATOM      2  C   UNL     1      40.184  20.662   5.696  1.00  0.00     0.000 C 
BRANCH   2   3
ATOM      3  C   UNL     1      39.765  19.676   6.797  1.00  0.00     0.006 C 
BRANCH   3   4
ATOM      4  C   UNL     1      38.302  19.236   6.659  1.00  0.00     0.053 C 
BRANCH   4   5
ATOM      5  C   UNL     1      37.415  19.938   7.642  1.00  0.00     0.041 C 
ATOM      6  O   UNL     1      36.669  19.274   8.408  1.00  0.00    -0.550 OA
ATOM      7  O   UNL     1      37.388  21.326   7.688  1.00  0.00    -0.550 OA
ENDBRANCH   4   5
ENDBRANCH   3   4
ENDBRANCH   2   3
ENDBRANCH   1   2
BRANCH   1   8
ATOM      8  C   UNL     1      38.625  21.795   4.004  1.00  0.00     0.000 C 
BRANCH   8   9
ATOM      9  C   UNL     1      37.413  21.608   3.073  1.00  0.00     0.006 C 
BRANCH   9  10
ATOM     10  C   UNL     1      36.436  20.535   3.571  1.00  0.00     0.053 C 
BRANCH  10  11
ATOM     11  C   UNL     1      35.274  20.413   2.637  1.00  0.00     0.041 C 
ATOM     12  O   UNL     1      35.040  19.321   2.055  1.00  0.00    -0.550 OA
ATOM     13  O   UNL     1      34.420  21.491   2.447  1.00  0.00    -0.550 OA
ENDBRANCH  10  11
ENDBRANCH   9  10
ENDBRANCH   8   9
ENDBRANCH   1   8
TORSDOF 8
ENDMDL
MODEL 3
REMARK VINA RESULT:    -3.897      1.290      1.978
REMARK INTER + INTRA:          -6.329
REMARK INTER:                  -5.769
REMARK INTRA:                  -0.560
REMARK UNBOUND:                -0.609
REMARK SMILES O=C([O-])CCCCCCCC(=O)[O-]
REMARK SMILES IDX 7 1 6 2 5 3 4 4 2 5 1 6 3 7 8 8 9 9 10 10 11 11 12 12 13 13
REMARK H PARENT
REMARK Flexibility Score: inf
ROOT
ATOM      1  C   UNL     1      38.788  21.090   3.145  1.00  0.00     0.000 C 
ENDROOT
BRANCH   1   2
ATOM      2  C   UNL     1      37.941  22.351   3.367  1.00  0.00     0.000 C 
BRANCH   2   3
ATOM      3  C   UNL     1      37.125  22.693   2.112  1.00  0.00     0.006 C 
BRANCH   3   4
ATOM      4  C   UNL     1      36.675  21.439   1.351  1.00  0.00     0.053 C 
BRANCH   4   5
ATOM      5  C   UNL     1      35.377  20.906   1.877  1.00  0.00     0.041 C 
ATOM      6  O   UNL     1      34.372  21.658   1.966  1.00  0.00    -0.550 OA
ATOM      7  O   UNL     1      35.288  19.585   2.301  1.00  0.00    -0.550 OA
ENDBRANCH   4   5
ENDBRANCH   3   4
ENDBRANCH   2   3
ENDBRANCH   1   2
BRANCH   1   8
ATOM      8  C   UNL     1      38.976  20.258   4.427  1.00  0.00     0.000 C 
BRANCH   8   9
ATOM      9  C   UNL     1      37.677  19.931   5.186  1.00  0.00     0.006 C 
BRANCH   9  10
ATOM     10  C   UNL     1      37.657  20.499   6.610  1.00  0.00     0.053 C 
BRANCH  10  11
ATOM     11  C   UNL     1      37.620  19.391   7.614  1.00  0.00     0.041 C 
ATOM     12  O   UNL     1      36.648  19.288   8.409  1.00  0.00    -0.550 OA
ATOM     13  O   UNL     1      38.634  18.442   7.640  1.00  0.00    -0.550 OA
ENDBRANCH  10  11
ENDBRANCH   9  10
ENDBRANCH   8   9
ENDBRANCH   1   8
TORSDOF 8
ENDMDL
MODEL 4
REMARK VINA RESULT:    -3.854      1.766      5.567
REMARK INTER + INTRA:          -6.266
REMARK INTER:                  -5.681
REMARK INTRA:                  -0.585
REMARK UNBOUND:                -0.609
REMARK SMILES O=C([O-])CCCCCCCC(=O)[O-]
REMARK SMILES IDX 7 1 6 2 5 3 4 4 2 5 1 6 3 7 8 8 9 9 10 10 11 11 12 12 13 13
REMARK H PARENT
REMARK Flexibility Score: inf
ROOT
ATOM      1  C   UNL     1      38.035  20.068   4.240  1.00  0.00     0.000 C 
ENDROOT
BRANCH   1   2
ATOM      2  C   UNL     1      37.018  19.989   5.386  1.00  0.00     0.000 C 
BRANCH   2   3
ATOM      3  C   UNL     1      37.689  20.279   6.738  1.00  0.00     0.006 C 
BRANCH   3   4
ATOM      4  C   UNL     1      38.971  19.461   6.938  1.00  0.00     0.053 C 
BRANCH   4   5
ATOM      5  C   UNL     1      40.129  20.328   7.328  1.00  0.00     0.041 C 
ATOM      6  O   UNL     1      41.124  19.829   7.916  1.00  0.00    -0.550 OA
ATOM      7  O   UNL     1      40.094  21.693   7.072  1.00  0.00    -0.550 OA
ENDBRANCH   4   5
ENDBRANCH   3   4
ENDBRANCH   2   3
ENDBRANCH   1   2
BRANCH   1   8
ATOM      8  C   UNL     1      38.329  21.513   3.794  1.00  0.00     0.000 C 
BRANCH   8   9
ATOM      9  C   UNL     1      37.189  22.197   3.019  1.00  0.00     0.006 C 
BRANCH   9  10
ATOM     10  C   UNL     1      36.773  21.425   1.761  1.00  0.00     0.053 C 
BRANCH  10  11
ATOM     11  C   UNL     1      35.361  20.946   1.885  1.00  0.00     0.041 C 
ATOM     12  O   UNL     1      34.403  21.734   1.668  1.00  0.00    -0.550 OA
ATOM     13  O   UNL     1      35.103  19.616   2.192  1.00  0.00    -0.550 OA
ENDBRANCH  10  11
ENDBRANCH   9  10
ENDBRANCH   8   9
ENDBRANCH   1   8
TORSDOF 8
ENDMDL
MODEL 5
REMARK VINA RESULT:    -3.810      1.716      2.422
REMARK INTER + INTRA:          -6.201
REMARK INTER:                  -5.719
REMARK INTRA:                  -0.482
REMARK UNBOUND:                -0.609
REMARK SMILES O=C([O-])CCCCCCCC(=O)[O-]
REMARK SMILES IDX 7 1 6 2 5 3 4 4 2 5 1 6 3 7 8 8 9 9 10 10 11 11 12 12 13 13
REMARK H PARENT
REMARK Flexibility Score: inf
ROOT
ATOM      1  C   UNL     1      36.745  20.058   5.302  1.00  0.00     0.000 C 
ENDROOT
BRANCH   1   2
ATOM      2  C   UNL     1      37.748  20.274   4.159  1.00  0.00     0.000 C 
BRANCH   2   3
ATOM      3  C   UNL     1      37.380  21.517   3.333  1.00  0.00     0.006 C 
BRANCH   3   4
ATOM      4  C   UNL     1      36.748  21.152   1.984  1.00  0.00     0.053 C 
BRANCH   4   5
ATOM      5  C   UNL     1      35.347  20.647   2.145  1.00  0.00     0.041 C 
ATOM      6  O   UNL     1      35.096  19.421   2.009  1.00  0.00    -0.550 OA
ATOM      7  O   UNL     1      34.312  21.535   2.411  1.00  0.00    -0.550 OA
ENDBRANCH   4   5
ENDBRANCH   3   4
ENDBRANCH   2   3
ENDBRANCH   1   2
BRANCH   1   8
ATOM      8  C   UNL     1      37.415  19.603   6.612  1.00  0.00     0.000 C 
BRANCH   8   9
ATOM      9  C   UNL     1      38.904  19.236   6.486  1.00  0.00     0.006 C 
BRANCH   9  10
ATOM     10  C   UNL     1      39.805  20.065   7.410  1.00  0.00     0.053 C 
BRANCH  10  11
ATOM     11  C   UNL     1      40.094  21.399   6.799  1.00  0.00     0.041 C 
ATOM     12  O   UNL     1      39.505  22.430   7.218  1.00  0.00    -0.550 OA
ATOM     13  O   UNL     1      41.051  21.512   5.799  1.00  0.00    -0.550 OA
ENDBRANCH  10  11
ENDBRANCH   9  10
ENDBRANCH   8   9
ENDBRANCH   1   8
TORSDOF 8
ENDMDL
MODEL 6
REMARK VINA RESULT:    -3.804      2.119      2.911
REMARK INTER + INTRA:          -6.192
REMARK INTER:                  -5.702
REMARK INTRA:                  -0.490
REMARK UNBOUND:                -0.609
REMARK SMILES O=C([O-])CCCCCCCC(=O)[O-]
REMARK SMILES IDX 7 1 6 2 5 3 4 4 2 5 1 6 3 7 8 8 9 9 10 10 11 11 12 12 13 13
REMARK H PARENT
REMARK Flexibility Score: inf
ROOT
ATOM      1  C   UNL     1      36.505  20.138   4.379  1.00  0.00     0.000 C 
ENDROOT
BRANCH   1   2
ATOM      2  C   UNL     1      35.834  20.566   3.067  1.00  0.00     0.000 C 
BRANCH   2   3
ATOM      3  C   UNL     1      36.866  21.139   2.083  1.00  0.00     0.006 C 
BRANCH   3   4
ATOM      4  C   UNL     1      36.464  22.524   1.559  1.00  0.00     0.053 C 
BRANCH   4   5
ATOM      5  C   UNL     1      37.443  23.580   1.970  1.00  0.00     0.041 C 
ATOM      6  O   UNL     1      37.963  23.550   3.116  1.00  0.00    -0.550 OA
ATOM      7  O   UNL     1      37.755  24.618   1.100  1.00  0.00    -0.550 OA
ENDBRANCH   4   5
ENDBRANCH   3   4
ENDBRANCH   2   3
ENDBRANCH   1   2
BRANCH   1   8
ATOM      8  C   UNL     1      38.042  20.215   4.322  1.00  0.00     0.000 C 
BRANCH   8   9
ATOM      9  C   UNL     1      38.728  20.512   5.668  1.00  0.00     0.006 C 
BRANCH   9  10
ATOM     10  C   UNL     1      37.730  20.707   6.817  1.00  0.00     0.053 C 
BRANCH  10  11
ATOM     11  C   UNL     1      37.656  19.472   7.659  1.00  0.00     0.041 C 
ATOM     12  O   UNL     1      36.665  19.275   8.410  1.00  0.00    -0.550 OA
ATOM     13  O   UNL     1      38.659  18.515   7.577  1.00  0.00    -0.550 OA
ENDBRANCH  10  11
ENDBRANCH   9  10
ENDBRANCH   8   9
ENDBRANCH   1   8
TORSDOF 8
ENDMDL
MODEL 7
REMARK VINA RESULT:    -3.526      2.766      5.638
REMARK INTER + INTRA:          -5.784
REMARK INTER:                  -5.440
REMARK INTRA:                  -0.344
REMARK UNBOUND:                -0.609
REMARK SMILES O=C([O-])CCCCCCCC(=O)[O-]
REMARK SMILES IDX 7 1 6 2 5 3 4 4 2 5 1 6 3 7 8 8 9 9 10 10 11 11 12 12 13 13
REMARK H PARENT
REMARK Flexibility Score: inf
ROOT
ATOM      1  C   UNL     1      36.269  20.311   3.865  1.00  0.00     0.000 C 
ENDROOT
BRANCH   1   2
ATOM      2  C   UNL     1      37.558  20.223   4.693  1.00  0.00     0.000 C 
BRANCH   2   3
ATOM      3  C   UNL     1      37.277  19.638   6.086  1.00  0.00     0.006 C 
BRANCH   3   4
ATOM      4  C   UNL     1      38.417  19.914   7.074  1.00  0.00     0.053 C 
BRANCH   4   5
ATOM      5  C   UNL     1      38.676  21.382   7.228  1.00  0.00     0.041 C 
ATOM      6  O   UNL     1      39.846  21.834   7.122  1.00  0.00    -0.550 OA
ATOM      7  O   UNL     1      37.628  22.247   7.523  1.00  0.00    -0.550 OA
ENDBRANCH   4   5
ENDBRANCH   3   4
ENDBRANCH   2   3
ENDBRANCH   1   2
BRANCH   1   8
ATOM      8  C   UNL     1      36.450  21.093   2.550  1.00  0.00     0.000 C 
BRANCH   8   9
ATOM      9  C   UNL     1      37.739  21.930   2.466  1.00  0.00     0.006 C 
BRANCH   9  10
ATOM     10  C   UNL     1      37.471  23.415   2.193  1.00  0.00     0.053 C 
BRANCH  10  11
ATOM     11  C   UNL     1      38.704  24.224   2.445  1.00  0.00     0.041 C 
ATOM     12  O   UNL     1      38.698  25.468   2.246  1.00  0.00    -0.550 OA
ATOM     13  O   UNL     1      39.845  23.612   2.946  1.00  0.00    -0.550 OA
ENDBRANCH  10  11
ENDBRANCH   9  10
ENDBRANCH   8   9
ENDBRANCH   1   8
TORSDOF 8
ENDMDL
MODEL 8
REMARK VINA RESULT:    -3.511      2.633      5.379
REMARK INTER + INTRA:          -5.762
REMARK INTER:                  -5.272
REMARK INTRA:                  -0.491
REMARK UNBOUND:                -0.609
REMARK SMILES O=C([O-])CCCCCCCC(=O)[O-]
REMARK SMILES IDX 7 1 6 2 5 3 4 4 2 5 1 6 3 7 8 8 9 9 10 10 11 11 12 12 13 13
REMARK H PARENT
REMARK Flexibility Score: inf
ROOT
ATOM      1  C   UNL     1      37.699  20.340   4.085  1.00  0.00     0.000 C 
ENDROOT
BRANCH   1   2
ATOM      2  C   UNL     1      39.189  20.294   4.455  1.00  0.00     0.000 C 
BRANCH   2   3
ATOM      3  C   UNL     1      39.374  20.155   5.974  1.00  0.00     0.006 C 
BRANCH   3   4
ATOM      4  C   UNL     1      38.327  19.227   6.605  1.00  0.00     0.053 C 
BRANCH   4   5
ATOM      5  C   UNL     1      37.480  19.947   7.609  1.00  0.00     0.041 C 
ATOM      6  O   UNL     1      36.735  19.299   8.390  1.00  0.00    -0.550 OA
ATOM      7  O   UNL     1      37.487  21.336   7.659  1.00  0.00    -0.550 OA
ENDBRANCH   4   5
ENDBRANCH   3   4
ENDBRANCH   2   3
ENDBRANCH   1   2
BRANCH   1   8
ATOM      8  C   UNL     1      37.375  21.411   3.028  1.00  0.00     0.000 C 
BRANCH   8   9
ATOM      9  C   UNL     1      37.956  22.807   3.318  1.00  0.00     0.006 C 
BRANCH   9  10
ATOM     10  C   UNL     1      38.701  23.405   2.118  1.00  0.00     0.053 C 
BRANCH  10  11
ATOM     11  C   UNL     1      40.176  23.202   2.264  1.00  0.00     0.041 C 
ATOM     12  O   UNL     1      40.730  23.360   3.383  1.00  0.00    -0.550 OA
ATOM     13  O   UNL     1      40.931  22.790   1.173  1.00  0.00    -0.550 OA
ENDBRANCH  10  11
ENDBRANCH   9  10
ENDBRANCH   8   9
ENDBRANCH   1   8
TORSDOF 8
ENDMDL
MODEL 9
REMARK VINA RESULT:    -3.306     16.227     18.191
REMARK INTER + INTRA:          -5.461
REMARK INTER:                  -4.649
REMARK INTRA:                  -0.812
REMARK UNBOUND:                -0.609
REMARK SMILES O=C([O-])CCCCCCCC(=O)[O-]
REMARK SMILES IDX 7 1 6 2 5 3 4 4 2 5 1 6 3 7 8 8 9 9 10 10 11 11 12 12 13 13
REMARK H PARENT
REMARK Flexibility Score: inf
ROOT
ATOM      1  C   UNL     1      22.103  22.301  14.598  1.00  0.00     0.000 C 
ENDROOT
BRANCH   1   2
ATOM      2  C   UNL     1      23.079  22.952  13.608  1.00  0.00     0.000 C 
BRANCH   2   3
ATOM      3  C   UNL     1      24.522  22.503  13.885  1.00  0.00     0.006 C 
BRANCH   3   4
ATOM      4  C   UNL     1      25.420  23.668  14.322  1.00  0.00     0.053 C 
BRANCH   4   5
ATOM      5  C   UNL     1      25.777  23.581  15.774  1.00  0.00     0.041 C 
ATOM      6  O   UNL     1      26.373  22.566  16.220  1.00  0.00    -0.550 OA
ATOM      7  O   UNL     1      25.421  24.606  16.642  1.00  0.00    -0.550 OA
ENDBRANCH   4   5
ENDBRANCH   3   4
ENDBRANCH   2   3
ENDBRANCH   1   2
BRANCH   1   8
ATOM      8  C   UNL     1      22.091  22.993  15.974  1.00  0.00     0.000 C 
BRANCH   8   9
ATOM      9  C   UNL     1      21.957  22.042  17.177  1.00  0.00     0.006 C 
BRANCH   9  10
ATOM     10  C   UNL     1      23.294  21.417  17.596  1.00  0.00     0.053 C 
BRANCH  10  11
ATOM     11  C   UNL     1      23.898  22.185  18.729  1.00  0.00     0.041 C 
ATOM     12  O   UNL     1      23.257  23.124  19.272  1.00  0.00    -0.550 OA
ATOM     13  O   UNL     1      25.149  21.832  19.219  1.00  0.00    -0.550 OA
ENDBRANCH  10  11
ENDBRANCH   9  10
ENDBRANCH   8   9
ENDBRANCH   1   8
TORSDOF 8
ENDMDL
