MODEL 1
REMARK VINA RESULT:    -2.697      0.000      0.000
REMARK INTER + INTRA:          -2.697
REMARK INTER:                  -2.697
REMARK INTRA:                   0.000
REMARK UNBOUND:                 0.000
REMARK SMILES CC(=O)[O-]
REMARK SMILES IDX 1 1 2 2 3 3 4 4
REMARK H PARENT
REMARK Flexibility Score: inf
ROOT
ATOM      1  C   UNL     1       7.196 -26.157  -9.097  1.00  0.00     0.063 C 
ATOM      2  C   UNL     1       8.441 -26.777  -9.633  1.00  0.00     0.038 C 
ATOM      3  O   UNL     1       8.531 -28.029  -9.734  1.00  0.00    -0.550 OA
ATOM      4  O   UNL     1       9.486 -25.974 -10.074  1.00  0.00    -0.550 OA
ENDROOT
TORSDOF 0
ENDMDL
MODEL 2
REMARK VINA RESULT:    -2.672      1.428      1.774
REMARK INTER + INTRA:          -2.672
REMARK INTER:                  -2.672
REMARK INTRA:                   0.000
REMARK UNBOUND:                 0.000
REMARK SMILES CC(=O)[O-]
REMARK SMILES IDX 1 1 2 2 3 3 4 4
REMARK H PARENT
REMARK Flexibility Score: inf
ROOT
ATOM      1  C   UNL     1       9.550 -25.963 -10.061  1.00  0.00     0.063 C 
ATOM      2  C   UNL     1       8.370 -26.701  -9.526  1.00  0.00     0.038 C 
ATOM      3  O   UNL     1       8.371 -27.960  -9.499  1.00  0.00    -0.550 OA
ATOM      4  O   UNL     1       7.288 -26.002  -9.005  1.00  0.00    -0.550 OA
ENDROOT
TORSDOF 0
ENDMDL
MODEL 3
REMARK VINA RESULT:    -2.665      0.147      1.626
REMARK INTER + INTRA:          -2.665
REMARK INTER:                  -2.665
REMARK INTRA:                   0.000
REMARK UNBOUND:                 0.000
REMARK SMILES CC(=O)[O-]
REMARK SMILES IDX 1 1 2 2 3 3 4 4
REMARK H PARENT
REMARK Flexibility Score: inf
ROOT
ATOM      1  C   UNL     1       7.364 -26.057  -9.061  1.00  0.00     0.063 C 
ATOM      2  C   UNL     1       8.511 -26.763  -9.699  1.00  0.00     0.038 C 
ATOM      3  O   UNL     1       9.495 -26.109 -10.133  1.00  0.00    -0.550 OA
ATOM      4  O   UNL     1       8.524 -28.151  -9.768  1.00  0.00    -0.550 OA
ENDROOT
TORSDOF 0
ENDMDL
MODEL 4
REMARK VINA RESULT:    -2.611      1.375      2.132
REMARK INTER + INTRA:          -2.611
REMARK INTER:                  -2.611
REMARK INTRA:                   0.000
REMARK UNBOUND:                 0.000
REMARK SMILES CC(=O)[O-]
REMARK SMILES IDX 1 1 2 2 3 3 4 4
REMARK H PARENT
REMARK Flexibility Score: inf
ROOT
ATOM      1  C   UNL     1       9.499 -26.024 -10.118  1.00  0.00     0.063 C 
ATOM      2  C   UNL     1       8.345 -26.756  -9.524  1.00  0.00     0.038 C 
ATOM      3  O   UNL     1       7.336 -26.123  -9.117  1.00  0.00    -0.550 OA
ATOM      4  O   UNL     1       8.356 -28.144  -9.466  1.00  0.00    -0.550 OA
ENDROOT
TORSDOF 0
ENDMDL
MODEL 5
REMARK VINA RESULT:    -2.416      1.728      2.076
REMARK INTER + INTRA:          -2.416
REMARK INTER:                  -2.416
REMARK INTRA:                   0.000
REMARK UNBOUND:                 0.000
REMARK SMILES CC(=O)[O-]
REMARK SMILES IDX 1 1 2 2 3 3 4 4
REMARK H PARENT
REMARK Flexibility Score: inf
ROOT
ATOM      1  C   UNL     1       9.842 -24.705 -10.075  1.00  0.00     0.063 C 
ATOM      2  C   UNL     1       9.251 -26.065  -9.924  1.00  0.00     0.038 C 
ATOM      3  O   UNL     1       9.776 -27.051 -10.505  1.00  0.00    -0.550 OA
ATOM      4  O   UNL     1       8.150 -26.259  -9.100  1.00  0.00    -0.550 OA
ENDROOT
TORSDOF 0
ENDMDL
MODEL 6
REMARK VINA RESULT:    -1.943      9.009      9.369
REMARK INTER + INTRA:          -1.943
REMARK INTER:                  -1.943
REMARK INTRA:                   0.000
REMARK UNBOUND:                 0.000
REMARK SMILES CC(=O)[O-]
REMARK SMILES IDX 1 1 2 2 3 3 4 4
REMARK H PARENT
REMARK Flexibility Score: inf
ROOT
ATOM      1  C   UNL     1      13.286 -19.663  -7.551  1.00  0.00     0.063 C 
ATOM      2  C   UNL     1      14.671 -20.196  -7.689  1.00  0.00     0.038 C 
ATOM      3  O   UNL     1      15.445 -19.728  -8.565  1.00  0.00    -0.550 OA
ATOM      4  O   UNL     1      15.131 -21.174  -6.816  1.00  0.00    -0.550 OA
ENDROOT
TORSDOF 0
ENDMDL
MODEL 7
REMARK VINA RESULT:    -1.903      8.044      8.143
REMARK INTER + INTRA:          -1.903
REMARK INTER:                  -1.903
REMARK INTRA:                   0.000
REMARK UNBOUND:                 0.000
REMARK SMILES CC(=O)[O-]
REMARK SMILES IDX 1 1 2 2 3 3 4 4
REMARK H PARENT
REMARK Flexibility Score: inf
ROOT
ATOM      1  C   UNL     1       1.197 -23.676  -9.783  1.00  0.00     0.063 C 
ATOM      2  C   UNL     1       1.761 -22.326 -10.071  1.00  0.00     0.038 C 
ATOM      3  O   UNL     1       2.006 -21.529  -9.128  1.00  0.00    -0.550 OA
ATOM      4  O   UNL     1       2.068 -21.963 -11.376  1.00  0.00    -0.550 OA
ENDROOT
TORSDOF 0
ENDMDL
MODEL 8
REMARK VINA RESULT:    -1.898     10.146     10.605
REMARK INTER + INTRA:          -1.898
REMARK INTER:                  -1.898
REMARK INTRA:                   0.000
REMARK UNBOUND:                 0.000
REMARK SMILES CC(=O)[O-]
REMARK SMILES IDX 1 1 2 2 3 3 4 4
REMARK H PARENT
REMARK Flexibility Score: inf
ROOT
ATOM      1  C   UNL     1      15.344 -21.021  -6.403  1.00  0.00     0.063 C 
ATOM      2  C   UNL     1      16.435 -20.315  -7.134  1.00  0.00     0.038 C 
ATOM      3  O   UNL     1      17.630 -20.439  -6.760  1.00  0.00    -0.550 OA
ATOM      4  O   UNL     1      16.142 -19.561  -8.264  1.00  0.00    -0.550 OA
ENDROOT
TORSDOF 0
ENDMDL
MODEL 9
REMARK VINA RESULT:    -1.896      9.067      9.598
REMARK INTER + INTRA:          -1.896
REMARK INTER:                  -1.896
REMARK INTRA:                   0.000
REMARK UNBOUND:                 0.000
REMARK SMILES CC(=O)[O-]
REMARK SMILES IDX 1 1 2 2 3 3 4 4
REMARK H PARENT
REMARK Flexibility Score: inf
ROOT
ATOM      1  C   UNL     1      13.639 -34.651 -12.376  1.00  0.00     0.063 C 
ATOM      2  C   UNL     1      14.026 -33.477 -13.210  1.00  0.00     0.038 C 
ATOM      3  O   UNL     1      15.093 -33.500 -13.878  1.00  0.00    -0.550 OA
ATOM      4  O   UNL     1      13.185 -32.375 -13.295  1.00  0.00    -0.550 OA
ENDROOT
TORSDOF 0
ENDMDL
