MODEL 1
REMARK VINA RESULT:    -3.687      0.000      0.000
REMARK INTER + INTRA:          -5.137
REMARK INTER:                  -4.981
REMARK INTRA:                  -0.156
REMARK UNBOUND:                -0.156
REMARK SMILES CCCCCCCC(=O)[O-]
REMARK SMILES IDX 5 1 6 2 7 3 8 4 9 5 10 6 4 7 3 8 2 9 1 10
REMARK H PARENT
REMARK Flexibility Score: inf
ROOT
ATOM      1  C   UNL     1      19.780  -7.058  45.974  1.00  0.00     0.000 C 
ENDROOT
BRANCH   1   2
ATOM      2  C   UNL     1      18.371  -7.072  45.347  1.00  0.00     0.006 C 
BRANCH   2   3
ATOM      3  C   UNL     1      18.355  -7.065  43.811  1.00  0.00     0.053 C 
BRANCH   3   4
ATOM      4  C   UNL     1      18.951  -5.810  43.250  1.00  0.00     0.041 C 
ATOM      5  O   UNL     1      18.288  -4.740  43.244  1.00  0.00    -0.550 OA
ATOM      6  O   UNL     1      20.227  -5.832  42.702  1.00  0.00    -0.550 OA
ENDBRANCH   3   4
ENDBRANCH   2   3
ENDBRANCH   1   2
BRANCH   1   7
ATOM      7  C   UNL     1      19.859  -6.472  47.395  1.00  0.00     0.000 C 
BRANCH   7   8
ATOM      8  C   UNL     1      20.558  -7.412  48.392  1.00  0.00    -0.000 C 
BRANCH   8   9
ATOM      9  C   UNL     1      20.137  -7.146  49.846  1.00  0.00    -0.003 C 
ATOM     10  C   UNL     1      21.258  -7.418  50.849  1.00  0.00     0.004 C 
ENDBRANCH   8   9
ENDBRANCH   7   8
ENDBRANCH   1   7
TORSDOF 6
ENDMDL
MODEL 2
REMARK VINA RESULT:    -3.605      1.521      2.739
REMARK INTER + INTRA:          -5.026
REMARK INTER:                  -4.817
REMARK INTRA:                  -0.209
REMARK UNBOUND:                -0.156
REMARK SMILES CCCCCCCC(=O)[O-]
REMARK SMILES IDX 5 1 6 2 7 3 8 4 9 5 10 6 4 7 3 8 2 9 1 10
REMARK H PARENT
REMARK Flexibility Score: inf
ROOT
ATOM      1  C   UNL     1      20.616  -7.433  48.675  1.00  0.00     0.000 C 
ENDROOT
BRANCH   1   2
ATOM      2  C   UNL     1      19.814  -6.591  47.662  1.00  0.00     0.006 C 
BRANCH   2   3
ATOM      3  C   UNL     1      20.124  -6.897  46.189  1.00  0.00     0.053 C 
BRANCH   3   4
ATOM      4  C   UNL     1      18.939  -6.655  45.305  1.00  0.00     0.041 C 
ATOM      5  O   UNL     1      17.879  -7.316  45.467  1.00  0.00    -0.550 OA
ATOM      6  O   UNL     1      19.018  -5.722  44.279  1.00  0.00    -0.550 OA
ENDBRANCH   3   4
ENDBRANCH   2   3
ENDBRANCH   1   2
BRANCH   1   7
ATOM      7  C   UNL     1      20.289  -7.165  50.155  1.00  0.00     0.000 C 
BRANCH   7   8
ATOM      8  C   UNL     1      21.327  -7.769  51.117  1.00  0.00    -0.000 C 
BRANCH   8   9
ATOM      9  C   UNL     1      22.709  -7.112  50.976  1.00  0.00    -0.003 C 
ATOM     10  C   UNL     1      22.670  -5.597  51.182  1.00  0.00     0.004 C 
ENDBRANCH   8   9
ENDBRANCH   7   8
ENDBRANCH   1   7
TORSDOF 6
ENDMDL
MODEL 3
REMARK VINA RESULT:    -3.599      3.411      4.340
REMARK INTER + INTRA:          -5.017
REMARK INTER:                  -4.631
REMARK INTRA:                  -0.387
REMARK UNBOUND:                -0.156
REMARK SMILES CCCCCCCC(=O)[O-]
REMARK SMILES IDX 5 1 6 2 7 3 8 4 9 5 10 6 4 7 3 8 2 9 1 10
REMARK H PARENT
REMARK Flexibility Score: inf
ROOT
ATOM      1  C   UNL     1      21.635  -5.657  44.264  1.00  0.00     0.000 C 
ENDROOT
BRANCH   1   2
ATOM      2  C   UNL     1      20.292  -5.312  44.940  1.00  0.00     0.006 C 
BRANCH   2   3
ATOM      3  C   UNL     1      19.583  -4.079  44.361  1.00  0.00     0.053 C 
BRANCH   3   4
ATOM      4  C   UNL     1      18.724  -4.428  43.183  1.00  0.00     0.041 C 
ATOM      5  O   UNL     1      17.881  -5.360  43.266  1.00  0.00    -0.550 OA
ATOM      6  O   UNL     1      18.880  -3.746  41.984  1.00  0.00    -0.550 OA
ENDBRANCH   3   4
ENDBRANCH   2   3
ENDBRANCH   1   2
BRANCH   1   7
ATOM      7  C   UNL     1      21.633  -6.946  43.424  1.00  0.00     0.000 C 
BRANCH   7   8
ATOM      8  C   UNL     1      20.397  -7.827  43.681  1.00  0.00    -0.000 C 
BRANCH   8   9
ATOM      9  C   UNL     1      20.623  -9.290  43.269  1.00  0.00    -0.003 C 
ATOM     10  C   UNL     1      22.101  -9.681  43.251  1.00  0.00     0.004 C 
ENDBRANCH   8   9
ENDBRANCH   7   8
ENDBRANCH   1   7
TORSDOF 6
ENDMDL
MODEL 4
REMARK VINA RESULT:    -3.566      2.539      3.994
REMARK INTER + INTRA:          -4.973
REMARK INTER:                  -4.454
REMARK INTRA:                  -0.519
REMARK UNBOUND:                -0.156
REMARK SMILES CCCCCCCC(=O)[O-]
REMARK SMILES IDX 5 1 6 2 7 3 8 4 9 5 10 6 4 7 3 8 2 9 1 10
REMARK H PARENT
REMARK Flexibility Score: inf
ROOT
ATOM      1  C   UNL     1      20.617  -5.668  45.553  1.00  0.00     0.000 C 
ENDROOT
BRANCH   1   2
ATOM      2  C   UNL     1      20.216  -4.210  45.245  1.00  0.00     0.006 C 
BRANCH   2   3
ATOM      3  C   UNL     1      20.517  -3.755  43.809  1.00  0.00     0.053 C 
BRANCH   3   4
ATOM      4  C   UNL     1      19.404  -4.100  42.867  1.00  0.00     0.041 C 
ATOM      5  O   UNL     1      19.655  -4.650  41.763  1.00  0.00    -0.550 OA
ATOM      6  O   UNL     1      18.092  -3.782  43.195  1.00  0.00    -0.550 OA
ENDBRANCH   3   4
ENDBRANCH   2   3
ENDBRANCH   1   2
BRANCH   1   7
ATOM      7  C   UNL     1      19.450  -6.611  45.892  1.00  0.00     0.000 C 
BRANCH   7   8
ATOM      8  C   UNL     1      18.876  -7.322  44.654  1.00  0.00    -0.000 C 
BRANCH   8   9
ATOM      9  C   UNL     1      19.971  -7.765  43.671  1.00  0.00    -0.003 C 
ATOM     10  C   UNL     1      20.236  -9.270  43.716  1.00  0.00     0.004 C 
ENDBRANCH   8   9
ENDBRANCH   7   8
ENDBRANCH   1   7
TORSDOF 6
ENDMDL
MODEL 5
REMARK VINA RESULT:    -3.557      3.042      4.723
REMARK INTER + INTRA:          -4.961
REMARK INTER:                  -4.440
REMARK INTRA:                  -0.521
REMARK UNBOUND:                -0.156
REMARK SMILES CCCCCCCC(=O)[O-]
REMARK SMILES IDX 5 1 6 2 7 3 8 4 9 5 10 6 4 7 3 8 2 9 1 10
REMARK H PARENT
REMARK Flexibility Score: inf
ROOT
ATOM      1  C   UNL     1      20.759  -6.055  42.954  1.00  0.00     0.000 C 
ENDROOT
BRANCH   1   2
ATOM      2  C   UNL     1      20.170  -7.399  43.431  1.00  0.00     0.006 C 
BRANCH   2   3
ATOM      3  C   UNL     1      20.299  -7.653  44.940  1.00  0.00     0.053 C 
BRANCH   3   4
ATOM      4  C   UNL     1      19.109  -7.149  45.698  1.00  0.00     0.041 C 
ATOM      5  O   UNL     1      19.244  -6.701  46.867  1.00  0.00    -0.550 OA
ATOM      6  O   UNL     1      17.846  -7.206  45.125  1.00  0.00    -0.550 OA
ENDBRANCH   3   4
ENDBRANCH   2   3
ENDBRANCH   1   2
BRANCH   1   7
ATOM      7  C   UNL     1      19.723  -4.987  42.563  1.00  0.00     0.000 C 
BRANCH   7   8
ATOM      8  C   UNL     1      19.375  -4.039  43.724  1.00  0.00    -0.000 C 
BRANCH   8   9
ATOM      9  C   UNL     1      20.524  -3.901  44.736  1.00  0.00    -0.003 C 
ATOM     10  C   UNL     1      21.522  -2.807  44.355  1.00  0.00     0.004 C 
ENDBRANCH   8   9
ENDBRANCH   7   8
ENDBRANCH   1   7
TORSDOF 6
ENDMDL
MODEL 6
REMARK VINA RESULT:    -3.525      4.790      6.050
REMARK INTER + INTRA:          -4.918
REMARK INTER:                  -4.583
REMARK INTRA:                  -0.335
REMARK UNBOUND:                -0.156
REMARK SMILES CCCCCCCC(=O)[O-]
REMARK SMILES IDX 5 1 6 2 7 3 8 4 9 5 10 6 4 7 3 8 2 9 1 10
REMARK H PARENT
REMARK Flexibility Score: inf
ROOT
ATOM      1  C   UNL     1      20.272  -3.858  44.733  1.00  0.00     0.000 C 
ENDROOT
BRANCH   1   2
ATOM      2  C   UNL     1      21.272  -2.806  45.255  1.00  0.00     0.006 C 
BRANCH   2   3
ATOM      3  C   UNL     1      22.230  -2.251  44.191  1.00  0.00     0.053 C 
BRANCH   3   4
ATOM      4  C   UNL     1      22.767  -0.904  44.569  1.00  0.00     0.041 C 
ATOM      5  O   UNL     1      22.326   0.135  44.010  1.00  0.00    -0.550 OA
ATOM      6  O   UNL     1      23.780  -0.800  45.513  1.00  0.00    -0.550 OA
ENDBRANCH   3   4
ENDBRANCH   2   3
ENDBRANCH   1   2
BRANCH   1   7
ATOM      7  C   UNL     1      19.981  -3.793  43.223  1.00  0.00     0.000 C 
BRANCH   7   8
ATOM      8  C   UNL     1      19.930  -5.182  42.563  1.00  0.00    -0.000 C 
BRANCH   8   9
ATOM      9  C   UNL     1      20.263  -6.313  43.549  1.00  0.00    -0.003 C 
ATOM     10  C   UNL     1      21.613  -6.971  43.263  1.00  0.00     0.004 C 
ENDBRANCH   8   9
ENDBRANCH   7   8
ENDBRANCH   1   7
TORSDOF 6
ENDMDL
MODEL 7
REMARK VINA RESULT:    -3.514      3.885      5.261
REMARK INTER + INTRA:          -4.903
REMARK INTER:                  -4.499
REMARK INTRA:                  -0.404
REMARK UNBOUND:                -0.156
REMARK SMILES CCCCCCCC(=O)[O-]
REMARK SMILES IDX 5 1 6 2 7 3 8 4 9 5 10 6 4 7 3 8 2 9 1 10
REMARK H PARENT
REMARK Flexibility Score: inf
ROOT
ATOM      1  C   UNL     1      19.861  -3.949  43.109  1.00  0.00     0.000 C 
ENDROOT
BRANCH   1   2
ATOM      2  C   UNL     1      20.158  -3.716  44.605  1.00  0.00     0.006 C 
BRANCH   2   3
ATOM      3  C   UNL     1      21.641  -3.482  44.934  1.00  0.00     0.053 C 
BRANCH   3   4
ATOM      4  C   UNL     1      22.012  -2.033  44.850  1.00  0.00     0.041 C 
ATOM      5  O   UNL     1      22.383  -1.535  43.755  1.00  0.00    -0.550 OA
ATOM      6  O   UNL     1      21.980  -1.241  45.990  1.00  0.00    -0.550 OA
ENDBRANCH   3   4
ENDBRANCH   2   3
ENDBRANCH   1   2
BRANCH   1   7
ATOM      7  C   UNL     1      19.321  -5.346  42.759  1.00  0.00     0.000 C 
BRANCH   7   8
ATOM      8  C   UNL     1      20.289  -6.477  43.148  1.00  0.00    -0.000 C 
BRANCH   8   9
ATOM      9  C   UNL     1      19.582  -7.630  43.879  1.00  0.00    -0.003 C 
ATOM     10  C   UNL     1      18.549  -7.143  44.895  1.00  0.00     0.004 C 
ENDBRANCH   8   9
ENDBRANCH   7   8
ENDBRANCH   1   7
TORSDOF 6
ENDMDL
MODEL 8
REMARK VINA RESULT:    -3.491      3.111      4.292
REMARK INTER + INTRA:          -4.871
REMARK INTER:                  -4.202
REMARK INTRA:                  -0.669
REMARK UNBOUND:                -0.156
REMARK SMILES CCCCCCCC(=O)[O-]
REMARK SMILES IDX 5 1 6 2 7 3 8 4 9 5 10 6 4 7 3 8 2 9 1 10
REMARK H PARENT
REMARK Flexibility Score: inf
ROOT
ATOM      1  C   UNL     1      18.095  -5.317  43.278  1.00  0.00     0.000 C 
ENDROOT
BRANCH   1   2
ATOM      2  C   UNL     1      19.368  -4.865  42.533  1.00  0.00     0.006 C 
BRANCH   2   3
ATOM      3  C   UNL     1      20.147  -3.737  43.227  1.00  0.00     0.053 C 
BRANCH   3   4
ATOM      4  C   UNL     1      20.907  -4.232  44.419  1.00  0.00     0.041 C 
ATOM      5  O   UNL     1      21.953  -4.917  44.266  1.00  0.00    -0.550 OA
ATOM      6  O   UNL     1      20.441  -3.965  45.700  1.00  0.00    -0.550 OA
ENDBRANCH   3   4
ENDBRANCH   2   3
ENDBRANCH   1   2
BRANCH   1   7
ATOM      7  C   UNL     1      18.058  -6.806  43.666  1.00  0.00     0.000 C 
BRANCH   7   8
ATOM      8  C   UNL     1      18.587  -7.068  45.087  1.00  0.00    -0.000 C 
BRANCH   8   9
ATOM      9  C   UNL     1      19.951  -7.777  45.085  1.00  0.00    -0.003 C 
ATOM     10  C   UNL     1      20.359  -8.274  43.698  1.00  0.00     0.004 C 
ENDBRANCH   8   9
ENDBRANCH   7   8
ENDBRANCH   1   7
TORSDOF 6
ENDMDL
MODEL 9
REMARK VINA RESULT:    -3.488      3.964      5.111
REMARK INTER + INTRA:          -4.867
REMARK INTER:                  -4.473
REMARK INTRA:                  -0.394
REMARK UNBOUND:                -0.156
REMARK SMILES CCCCCCCC(=O)[O-]
REMARK SMILES IDX 5 1 6 2 7 3 8 4 9 5 10 6 4 7 3 8 2 9 1 10
REMARK H PARENT
REMARK Flexibility Score: inf
ROOT
ATOM      1  C   UNL     1      19.984  -3.796  43.330  1.00  0.00     0.000 C 
ENDROOT
BRANCH   1   2
ATOM      2  C   UNL     1      19.839  -5.164  42.633  1.00  0.00     0.006 C 
BRANCH   2   3
ATOM      3  C   UNL     1      20.886  -6.208  43.051  1.00  0.00     0.053 C 
BRANCH   3   4
ATOM      4  C   UNL     1      20.251  -7.468  43.553  1.00  0.00     0.041 C 
ATOM      5  O   UNL     1      20.655  -8.589  43.146  1.00  0.00    -0.550 OA
ATOM      6  O   UNL     1      19.189  -7.403  44.446  1.00  0.00    -0.550 OA
ENDBRANCH   3   4
ENDBRANCH   2   3
ENDBRANCH   1   2
BRANCH   1   7
ATOM      7  C   UNL     1      20.257  -3.857  44.843  1.00  0.00     0.000 C 
BRANCH   7   8
ATOM      8  C   UNL     1      21.442  -2.974  45.273  1.00  0.00    -0.000 C 
BRANCH   8   9
ATOM      9  C   UNL     1      22.110  -2.267  44.083  1.00  0.00    -0.003 C 
ATOM     10  C   UNL     1      22.543  -0.837  44.409  1.00  0.00     0.004 C 
ENDBRANCH   8   9
ENDBRANCH   7   8
ENDBRANCH   1   7
TORSDOF 6
ENDMDL
