MODEL 1
REMARK VINA RESULT:    -2.866      0.000      0.000
REMARK INTER + INTRA:          -3.667
REMARK INTER:                  -3.536
REMARK INTRA:                  -0.130
REMARK UNBOUND:                -0.130
REMARK SMILES CCCCCC(C)=O
REMARK SMILES IDX 4 1 3 2 2 3 1 4 5 5 6 6 8 7 7 8
REMARK H PARENT
REMARK Flexibility Score: inf
ROOT
ATOM      1  C   UNL     1     169.259 165.927 168.598  1.00  0.00     0.008 C 
ENDROOT
BRANCH   1   2
ATOM      2  C   UNL     1     168.693 167.312 168.944  1.00  0.00     0.000 C 
BRANCH   2   3
ATOM      3  C   UNL     1     169.619 168.425 168.441  1.00  0.00    -0.003 C 
ATOM      4  C   UNL     1     171.052 167.923 168.286  1.00  0.00     0.004 C 
ENDBRANCH   2   3
ENDBRANCH   1   2
BRANCH   1   5
ATOM      5  C   UNL     1     168.151 164.885 168.393  1.00  0.00     0.075 C 
BRANCH   5   6
ATOM      6  C   UNL     1     168.622 163.492 168.723  1.00  0.00     0.129 C 
ATOM      7  O   UNL     1     168.304 162.561 167.998  1.00  0.00    -0.300 OA
ATOM      8  C   UNL     1     169.467 163.221 169.933  1.00  0.00     0.087 C 
ENDBRANCH   5   6
ENDBRANCH   1   5
TORSDOF 4
ENDMDL
MODEL 2
REMARK VINA RESULT:    -2.863      5.027      6.671
REMARK INTER + INTRA:          -3.663
REMARK INTER:                  -3.474
REMARK INTRA:                  -0.190
REMARK UNBOUND:                -0.130
REMARK SMILES CCCCCC(C)=O
REMARK SMILES IDX 4 1 3 2 2 3 1 4 5 5 6 6 8 7 7 8
REMARK H PARENT
REMARK Flexibility Score: inf
ROOT
ATOM      1  C   UNL     1     166.262 168.771 169.346  1.00  0.00     0.008 C 
ENDROOT
BRANCH   1   2
ATOM      2  C   UNL     1     165.366 168.535 168.121  1.00  0.00     0.000 C 
BRANCH   2   3
ATOM      3  C   UNL     1     164.450 167.324 168.335  1.00  0.00    -0.003 C 
ATOM      4  C   UNL     1     164.957 166.444 169.474  1.00  0.00     0.004 C 
ENDBRANCH   2   3
ENDBRANCH   1   2
BRANCH   1   5
ATOM      5  C   UNL     1     167.433 169.711 169.032  1.00  0.00     0.075 C 
BRANCH   5   6
ATOM      6  C   UNL     1     166.978 171.140 168.872  1.00  0.00     0.129 C 
ATOM      7  O   UNL     1     167.369 171.793 167.917  1.00  0.00    -0.300 OA
ATOM      8  C   UNL     1     166.060 171.782 169.870  1.00  0.00     0.087 C 
ENDBRANCH   5   6
ENDBRANCH   1   5
TORSDOF 4
ENDMDL
MODEL 3
REMARK VINA RESULT:    -2.823      4.406      5.764
REMARK INTER + INTRA:          -3.614
REMARK INTER:                  -3.465
REMARK INTRA:                  -0.149
REMARK UNBOUND:                -0.130
REMARK SMILES CCCCCC(C)=O
REMARK SMILES IDX 4 1 3 2 2 3 1 4 5 5 6 6 8 7 7 8
REMARK H PARENT
REMARK Flexibility Score: inf
ROOT
ATOM      1  C   UNL     1     168.360 168.901 168.846  1.00  0.00     0.008 C 
ENDROOT
BRANCH   1   2
ATOM      2  C   UNL     1     169.277 167.855 168.194  1.00  0.00     0.000 C 
BRANCH   2   3
ATOM      3  C   UNL     1     170.751 168.157 168.489  1.00  0.00    -0.003 C 
ATOM      4  C   UNL     1     170.914 168.848 169.840  1.00  0.00     0.004 C 
ENDBRANCH   2   3
ENDBRANCH   1   2
BRANCH   1   5
ATOM      5  C   UNL     1     167.994 170.032 167.875  1.00  0.00     0.075 C 
BRANCH   5   6
ATOM      6  C   UNL     1     167.255 171.149 168.569  1.00  0.00     0.129 C 
ATOM      7  O   UNL     1     167.208 172.253 168.049  1.00  0.00    -0.300 OA
ATOM      8  C   UNL     1     166.586 170.936 169.894  1.00  0.00     0.087 C 
ENDBRANCH   5   6
ENDBRANCH   1   5
TORSDOF 4
ENDMDL
MODEL 4
REMARK VINA RESULT:    -2.815      2.621      4.300
REMARK INTER + INTRA:          -3.604
REMARK INTER:                  -3.374
REMARK INTRA:                  -0.230
REMARK UNBOUND:                -0.130
REMARK SMILES CCCCCC(C)=O
REMARK SMILES IDX 4 1 3 2 2 3 1 4 5 5 6 6 8 7 7 8
REMARK H PARENT
REMARK Flexibility Score: inf
ROOT
ATOM      1  C   UNL     1     168.985 166.096 168.990  1.00  0.00     0.008 C 
ENDROOT
BRANCH   1   2
ATOM      2  C   UNL     1     167.930 165.098 168.491  1.00  0.00     0.000 C 
BRANCH   2   3
ATOM      3  C   UNL     1     166.538 165.740 168.459  1.00  0.00    -0.003 C 
ATOM      4  C   UNL     1     166.543 167.102 169.148  1.00  0.00     0.004 C 
ENDBRANCH   2   3
ENDBRANCH   1   2
BRANCH   1   5
ATOM      5  C   UNL     1     169.985 166.477 167.890  1.00  0.00     0.075 C 
BRANCH   5   6
ATOM      6  C   UNL     1     170.709 167.761 168.211  1.00  0.00     0.129 C 
ATOM      7  O   UNL     1     171.878 167.890 167.883  1.00  0.00    -0.300 OA
ATOM      8  C   UNL     1     170.025 168.881 168.938  1.00  0.00     0.087 C 
ENDBRANCH   5   6
ENDBRANCH   1   5
TORSDOF 4
ENDMDL
MODEL 5
REMARK VINA RESULT:    -2.785      4.591      4.946
REMARK INTER + INTRA:          -3.567
REMARK INTER:                  -3.424
REMARK INTRA:                  -0.143
REMARK UNBOUND:                -0.130
REMARK SMILES CCCCCC(C)=O
REMARK SMILES IDX 4 1 3 2 2 3 1 4 5 5 6 6 8 7 7 8
REMARK H PARENT
REMARK Flexibility Score: inf
ROOT
ATOM      1  C   UNL     1     166.528 168.619 168.785  1.00  0.00     0.008 C 
ENDROOT
BRANCH   1   2
ATOM      2  C   UNL     1     167.324 169.669 167.995  1.00  0.00     0.000 C 
BRANCH   2   3
ATOM      3  C   UNL     1     167.240 171.044 168.670  1.00  0.00    -0.003 C 
ATOM      4  C   UNL     1     166.522 170.956 170.014  1.00  0.00     0.004 C 
ENDBRANCH   2   3
ENDBRANCH   1   2
BRANCH   1   5
ATOM      5  C   UNL     1     165.626 167.775 167.875  1.00  0.00     0.075 C 
BRANCH   5   6
ATOM      6  C   UNL     1     164.454 167.197 168.628  1.00  0.00     0.129 C 
ATOM      7  O   UNL     1     163.340 167.234 168.128  1.00  0.00    -0.300 OA
ATOM      8  C   UNL     1     164.625 166.587 169.988  1.00  0.00     0.087 C 
ENDBRANCH   5   6
ENDBRANCH   1   5
TORSDOF 4
ENDMDL
MODEL 6
REMARK VINA RESULT:    -2.783      1.217      1.979
REMARK INTER + INTRA:          -3.564
REMARK INTER:                  -3.318
REMARK INTRA:                  -0.246
REMARK UNBOUND:                -0.130
REMARK SMILES CCCCCC(C)=O
REMARK SMILES IDX 4 1 3 2 2 3 1 4 5 5 6 6 8 7 7 8
REMARK H PARENT
REMARK Flexibility Score: inf
ROOT
ATOM      1  C   UNL     1     169.578 166.469 168.035  1.00  0.00     0.008 C 
ENDROOT
BRANCH   1   2
ATOM      2  C   UNL     1     170.231 167.609 168.830  1.00  0.00     0.000 C 
BRANCH   2   3
ATOM      3  C   UNL     1     169.554 168.950 168.525  1.00  0.00    -0.003 C 
ATOM      4  C   UNL     1     168.044 168.784 168.375  1.00  0.00     0.004 C 
ENDBRANCH   2   3
ENDBRANCH   1   2
BRANCH   1   5
ATOM      5  C   UNL     1     169.249 165.262 168.923  1.00  0.00     0.075 C 
BRANCH   5   6
ATOM      6  C   UNL     1     168.012 164.540 168.451  1.00  0.00     0.129 C 
ATOM      7  O   UNL     1     168.093 163.373 168.099  1.00  0.00    -0.300 OA
ATOM      8  C   UNL     1     166.681 165.230 168.394  1.00  0.00     0.087 C 
ENDBRANCH   5   6
ENDBRANCH   1   5
TORSDOF 4
ENDMDL
MODEL 7
REMARK VINA RESULT:    -2.766      3.620      4.496
REMARK INTER + INTRA:          -3.543
REMARK INTER:                  -3.322
REMARK INTRA:                  -0.222
REMARK UNBOUND:                -0.130
REMARK SMILES CCCCCC(C)=O
REMARK SMILES IDX 4 1 3 2 2 3 1 4 5 5 6 6 8 7 7 8
REMARK H PARENT
REMARK Flexibility Score: inf
ROOT
ATOM      1  C   UNL     1     168.724 167.966 168.888  1.00  0.00     0.008 C 
ENDROOT
BRANCH   1   2
ATOM      2  C   UNL     1     167.397 168.157 168.137  1.00  0.00     0.000 C 
BRANCH   2   3
ATOM      3  C   UNL     1     166.565 169.279 168.768  1.00  0.00    -0.003 C 
ATOM      4  C   UNL     1     167.403 170.538 168.975  1.00  0.00     0.004 C 
ENDBRANCH   2   3
ENDBRANCH   1   2
BRANCH   1   5
ATOM      5  C   UNL     1     169.894 167.699 167.933  1.00  0.00     0.075 C 
BRANCH   5   6
ATOM      6  C   UNL     1     171.191 168.256 168.465  1.00  0.00     0.129 C 
ATOM      7  O   UNL     1     172.234 168.019 167.875  1.00  0.00    -0.300 OA
ATOM      8  C   UNL     1     171.228 169.086 169.713  1.00  0.00     0.087 C 
ENDBRANCH   5   6
ENDBRANCH   1   5
TORSDOF 4
ENDMDL
MODEL 8
REMARK VINA RESULT:    -2.757      3.122      4.253
REMARK INTER + INTRA:          -3.532
REMARK INTER:                  -3.207
REMARK INTRA:                  -0.325
REMARK UNBOUND:                -0.130
REMARK SMILES CCCCCC(C)=O
REMARK SMILES IDX 4 1 3 2 2 3 1 4 5 5 6 6 8 7 7 8
REMARK H PARENT
REMARK Flexibility Score: inf
ROOT
ATOM      1  C   UNL     1     168.953 168.601 169.906  1.00  0.00     0.008 C 
ENDROOT
BRANCH   1   2
ATOM      2  C   UNL     1     167.611 169.313 169.679  1.00  0.00     0.000 C 
BRANCH   2   3
ATOM      3  C   UNL     1     166.888 168.745 168.452  1.00  0.00    -0.003 C 
ATOM      4  C   UNL     1     166.347 167.345 168.730  1.00  0.00     0.004 C 
ENDBRANCH   2   3
ENDBRANCH   1   2
BRANCH   1   5
ATOM      5  C   UNL     1     170.007 169.013 168.870  1.00  0.00     0.075 C 
BRANCH   5   6
ATOM      6  C   UNL     1     170.706 167.816 168.275  1.00  0.00     0.129 C 
ATOM      7  O   UNL     1     171.873 167.913 167.927  1.00  0.00    -0.300 OA
ATOM      8  C   UNL     1     169.994 166.509 168.090  1.00  0.00     0.087 C 
ENDBRANCH   5   6
ENDBRANCH   1   5
TORSDOF 4
ENDMDL
MODEL 9
REMARK VINA RESULT:    -2.742      3.507      4.353
REMARK INTER + INTRA:          -3.514
REMARK INTER:                  -3.192
REMARK INTRA:                  -0.322
REMARK UNBOUND:                -0.130
REMARK SMILES CCCCCC(C)=O
REMARK SMILES IDX 4 1 3 2 2 3 1 4 5 5 6 6 8 7 7 8
REMARK H PARENT
REMARK Flexibility Score: inf
ROOT
ATOM      1  C   UNL     1     166.715 169.357 169.066  1.00  0.00     0.008 C 
ENDROOT
BRANCH   1   2
ATOM      2  C   UNL     1     168.131 169.570 168.512  1.00  0.00     0.000 C 
BRANCH   2   3
ATOM      3  C   UNL     1     169.083 168.470 168.999  1.00  0.00    -0.003 C 
ATOM      4  C   UNL     1     169.303 167.414 167.919  1.00  0.00     0.004 C 
ENDBRANCH   2   3
ENDBRANCH   1   2
BRANCH   1   5
ATOM      5  C   UNL     1     165.723 168.944 167.971  1.00  0.00     0.075 C 
BRANCH   5   6
ATOM      6  C   UNL     1     165.012 167.659 168.314  1.00  0.00     0.129 C 
ATOM      7  O   UNL     1     163.857 167.496 167.951  1.00  0.00    -0.300 OA
ATOM      8  C   UNL     1     165.690 166.579 169.102  1.00  0.00     0.087 C 
ENDBRANCH   5   6
ENDBRANCH   1   5
TORSDOF 4
ENDMDL
