MODEL 1
REMARK VINA RESULT:    -3.900      0.000      0.000
REMARK INTER + INTRA:         -11.319
REMARK INTER:                  -8.232
REMARK INTRA:                  -3.087
REMARK UNBOUND:                -3.087
REMARK SMILES CCC(=O)CCCCC[C@H]1NC(=O)[C@H]2CCCCN2C(=O)[C@H]([C@H](C)CC)NC(=O)[C@@H](Cc2cn(OC)c3ccccc23)NC1=O
REMARK SMILES IDX 9 1 10 2 44 3 43 4 45 6 30 7 28 8 27 9 29 11 22 12 23 14
REMARK SMILES IDX 24 15 25 16 26 17 31 18 32 19 33 20 42 21 34 22 37 23 41 24
REMARK SMILES IDX 38 25 40 26 39 27 35 28 36 29 11 30 12 31 13 33 14 34 19 35
REMARK SMILES IDX 15 36 18 37 16 38 17 39 20 40 21 41 8 43 7 44 6 45 5 46 3 47
REMARK SMILES IDX 4 48 2 49 1 50
REMARK H PARENT 43 5 27 10 11 32
REMARK Flexibility Score: 80.00
ROOT
ATOM      1  C   UNL     1      65.502  33.009  57.719  1.00  0.00     0.035 C 
ENDROOT
BRANCH   1   2
ATOM      2  C   UNL     1      66.455  31.960  57.100  1.00  0.00     0.171 C 
BRANCH   2   3
ATOM      3  C   UNL     1      66.215  30.572  57.635  1.00  0.00     0.243 C 
ATOM      4  N   UNL     1      66.584  30.225  58.975  1.00  0.00    -0.342 N 
ATOM      5  H   UNL     1      66.580  30.960  59.717  1.00  0.00     0.164 HD
ATOM      6  O   UNL     1      65.698  29.702  56.884  1.00  0.00    -0.273 OA
BRANCH   4   7
ATOM      7  C   UNL     1      67.147  28.917  59.302  1.00  0.00     0.175 C 
BRANCH   7   8
ATOM      8  C   UNL     1      68.604  29.099  59.633  1.00  0.00     0.243 C 
ATOM      9  N   UNL     1      69.529  29.440  58.591  1.00  0.00    -0.342 N 
ATOM     10  H   UNL     1      69.298  29.172  57.607  1.00  0.00     0.164 HD
ATOM     11  O   UNL     1      68.985  29.070  60.837  1.00  0.00    -0.273 OA
BRANCH   9  12
ATOM     12  C   UNL     1      70.691  30.300  58.829  1.00  0.00     0.174 CG0
ATOM     13  G   UNL     1      70.865  31.198  57.614  1.00  0.00     0.000 G0
BRANCH  12  14
ATOM     14  C   UNL     1      71.949  29.427  59.097  1.00  0.00     0.018 C 
ATOM     15  C   UNL     1      71.743  27.983  58.601  1.00  0.00     0.010 C 
BRANCH  14  16
ATOM     16  C   UNL     1      72.409  29.455  60.580  1.00  0.00     0.002 C 
ATOM     17  C   UNL     1      72.254  30.814  61.272  1.00  0.00     0.004 C 
ENDBRANCH  14  16
ENDBRANCH  12  14
ENDBRANCH   9  12
ENDBRANCH   7   8
BRANCH   7  18
ATOM     18  C   UNL     1      66.349  28.279  60.452  1.00  0.00     0.073 C 
BRANCH  18  19
ATOM     19  C   UNL     1      64.895  28.173  60.102  1.00  0.00    -0.016 A 
ATOM     20  C   UNL     1      64.311  27.234  59.267  1.00  0.00     0.134 A 
ATOM     21  C   UNL     1      63.886  29.047  60.453  1.00  0.00     0.006 A 
ATOM     22  N   UNL     1      62.992  27.492  59.114  1.00  0.00    -0.191 N 
ATOM     23  C   UNL     1      62.729  28.611  59.843  1.00  0.00     0.087 A 
ATOM     24  C   UNL     1      63.924  30.191  61.250  1.00  0.00     0.011 A 
ATOM     25  C   UNL     1      61.527  29.320  60.015  1.00  0.00     0.030 A 
ATOM     26  C   UNL     1      62.730  30.905  61.437  1.00  0.00     0.001 A 
ATOM     27  C   UNL     1      61.540  30.472  60.820  1.00  0.00     0.002 A 
BRANCH  22  28
ATOM     28  O   UNL     1      62.171  26.705  58.320  1.00  0.00    -0.417 OA
ATOM     29  C   UNL     1      61.309  27.194  57.305  1.00  0.00     0.313 C 
ENDBRANCH  22  28
ENDBRANCH  18  19
ENDBRANCH   7  18
ENDBRANCH   4   7
ENDBRANCH   2   3
BRANCH   2  30
ATOM     30  N   UNL     1      67.865  32.333  57.265  1.00  0.00    -0.343 N 
ATOM     31  C   UNL     1      68.649  32.913  56.207  1.00  0.00     0.243 C 
ATOM     32  H   UNL     1      68.366  32.002  58.114  1.00  0.00     0.164 HD
ATOM     33  O   UNL     1      68.123  33.137  55.081  1.00  0.00    -0.273 OA
BRANCH  31  34
ATOM     34  C   UNL     1      70.101  33.287  56.417  1.00  0.00     0.174 C 
ATOM     35  N   UNL     1      70.645  32.655  57.643  1.00  0.00    -0.329 N 
ATOM     36  C   UNL     1      70.319  34.816  56.353  1.00  0.00     0.035 C 
ATOM     37  C   UNL     1      70.731  33.389  58.921  1.00  0.00     0.120 C 
ATOM     38  C   UNL     1      70.136  35.510  57.696  1.00  0.00     0.004 C 
ATOM     39  C   UNL     1      71.043  34.871  58.736  1.00  0.00     0.022 C 
BRANCH  35  40
ATOM     40  C   UNL     1      70.905  31.228  57.608  1.00  0.00     0.246 CG0
ATOM     41  O   UNL     1      71.218  30.688  56.509  1.00  0.00    -0.272 OA
ATOM     42  G   UNL     1      70.698  30.323  58.811  1.00  0.00     0.000 G0
ENDBRANCH  35  40
ENDBRANCH  31  34
ENDBRANCH   2  30
ENDBRANCH   1   2
BRANCH   1  43
ATOM     43  C   UNL     1      64.147  32.452  58.199  1.00  0.00     0.003 C 
BRANCH  43  44
ATOM     44  C   UNL     1      62.954  32.969  57.370  1.00  0.00     0.001 C 
BRANCH  44  45
ATOM     45  C   UNL     1      61.915  33.767  58.186  1.00  0.00     0.008 C 
BRANCH  45  46
ATOM     46  C   UNL     1      62.303  34.035  59.650  1.00  0.00     0.075 C 
BRANCH  46  47
ATOM     47  C   UNL     1      62.899  35.404  59.850  1.00  0.00     0.132 C 
ATOM     48  O   UNL     1      62.807  36.235  58.954  1.00  0.00    -0.300 OA
BRANCH  47  49
ATOM     49  C   UNL     1      63.541  35.761  61.170  1.00  0.00     0.072 C 
ATOM     50  C   UNL     1      65.069  35.821  61.105  1.00  0.00     0.012 C 
ENDBRANCH  47  49
ENDBRANCH  46  47
ENDBRANCH  45  46
ENDBRANCH  44  45
ENDBRANCH  43  44
ENDBRANCH   1  43
TORSDOF 12
ENDMDL
MODEL 2
REMARK VINA RESULT:    -3.805      6.675     10.957
REMARK INTER + INTRA:         -11.119
REMARK INTER:                  -7.778
REMARK INTRA:                  -3.342
REMARK UNBOUND:                -3.087
REMARK SMILES CCC(=O)CCCCC[C@H]1NC(=O)[C@H]2CCCCN2C(=O)[C@H]([C@H](C)CC)NC(=O)[C@@H](Cc2cn(OC)c3ccccc23)NC1=O
REMARK SMILES IDX 9 1 10 2 44 3 43 4 45 6 30 7 28 8 27 9 29 11 22 12 23 14
REMARK SMILES IDX 24 15 25 16 26 17 31 18 32 19 33 20 42 21 34 22 37 23 41 24
REMARK SMILES IDX 38 25 40 26 39 27 35 28 36 29 11 30 12 31 13 33 14 34 19 35
REMARK SMILES IDX 15 36 18 37 16 38 17 39 20 40 21 41 8 43 7 44 6 45 5 46 3 47
REMARK SMILES IDX 4 48 2 49 1 50
REMARK H PARENT 43 5 27 10 11 32
REMARK Flexibility Score: 80.00
ROOT
ATOM      1  C   UNL     1      63.025  29.573  54.546  1.00  0.00     0.035 C 
ENDROOT
BRANCH   1   2
ATOM      2  C   UNL     1      62.208  30.234  53.413  1.00  0.00     0.171 C 
BRANCH   2   3
ATOM      3  C   UNL     1      60.945  30.886  53.912  1.00  0.00     0.243 C 
ATOM      4  N   UNL     1      59.875  30.103  54.453  1.00  0.00    -0.342 N 
ATOM      5  H   UNL     1      60.089  29.198  54.930  1.00  0.00     0.164 HD
ATOM      6  O   UNL     1      60.825  32.139  53.836  1.00  0.00    -0.273 OA
BRANCH   4   7
ATOM      7  C   UNL     1      58.475  30.433  54.198  1.00  0.00     0.175 C 
BRANCH   7   8
ATOM      8  C   UNL     1      57.859  29.306  53.412  1.00  0.00     0.243 C 
ATOM      9  N   UNL     1      57.719  29.430  51.990  1.00  0.00    -0.342 N 
ATOM     10  H   UNL     1      57.655  30.387  51.573  1.00  0.00     0.164 HD
ATOM     11  O   UNL     1      57.582  28.215  53.986  1.00  0.00    -0.273 OA
BRANCH   9  12
ATOM     12  C   UNL     1      57.840  28.280  51.090  1.00  0.00     0.174 CG0
ATOM     13  G   UNL     1      58.976  28.562  50.120  1.00  0.00     0.000 G0
BRANCH  12  14
ATOM     14  C   UNL     1      56.491  28.038  50.356  1.00  0.00     0.018 C 
ATOM     15  C   UNL     1      55.430  29.071  50.783  1.00  0.00     0.010 C 
BRANCH  14  16
ATOM     16  C   UNL     1      55.961  26.587  50.513  1.00  0.00     0.002 C 
ATOM     17  C   UNL     1      56.690  25.750  51.571  1.00  0.00     0.004 C 
ENDBRANCH  14  16
ENDBRANCH  12  14
ENDBRANCH   9  12
ENDBRANCH   7   8
BRANCH   7  18
ATOM     18  C   UNL     1      57.750  30.698  55.528  1.00  0.00     0.073 C 
BRANCH  18  19
ATOM     19  C   UNL     1      57.895  32.133  55.941  1.00  0.00    -0.016 A 
ATOM     20  C   UNL     1      57.138  33.203  55.492  1.00  0.00     0.134 A 
ATOM     21  C   UNL     1      58.869  32.672  56.756  1.00  0.00     0.006 A 
ATOM     22  N   UNL     1      57.602  34.362  56.014  1.00  0.00    -0.191 N 
ATOM     23  C   UNL     1      58.670  34.036  56.792  1.00  0.00     0.087 A 
ATOM     24  C   UNL     1      59.911  32.051  57.444  1.00  0.00     0.011 A 
ATOM     25  C   UNL     1      59.528  34.857  57.544  1.00  0.00     0.030 A 
ATOM     26  C   UNL     1      60.771  32.858  58.206  1.00  0.00     0.001 A 
ATOM     27  C   UNL     1      60.581  34.253  58.252  1.00  0.00     0.002 A 
BRANCH  22  28
ATOM     28  O   UNL     1      57.026  35.588  55.720  1.00  0.00    -0.417 OA
ATOM     29  C   UNL     1      56.561  35.983  54.439  1.00  0.00     0.313 C 
ENDBRANCH  22  28
ENDBRANCH  18  19
ENDBRANCH   7  18
ENDBRANCH   4   7
ENDBRANCH   2   3
BRANCH   2  30
ATOM     30  N   UNL     1      61.900  29.288  52.333  1.00  0.00    -0.343 N 
ATOM     31  C   UNL     1      61.817  29.679  50.952  1.00  0.00     0.243 C 
ATOM     32  H   UNL     1      61.551  28.343  52.591  1.00  0.00     0.164 HD
ATOM     33  O   UNL     1      62.028  30.880  50.621  1.00  0.00    -0.273 OA
BRANCH  31  34
ATOM     34  C   UNL     1      61.498  28.674  49.865  1.00  0.00     0.174 C 
ATOM     35  N   UNL     1      60.290  27.885  50.204  1.00  0.00    -0.329 N 
ATOM     36  C   UNL     1      62.726  27.809  49.501  1.00  0.00     0.035 C 
ATOM     37  C   UNL     1      60.384  26.541  50.807  1.00  0.00     0.120 C 
ATOM     38  C   UNL     1      62.866  26.561  50.363  1.00  0.00     0.004 C 
ATOM     39  C   UNL     1      61.585  25.745  50.300  1.00  0.00     0.022 C 
BRANCH  35  40
ATOM     40  C   UNL     1      59.003  28.550  50.115  1.00  0.00     0.246 CG0
ATOM     41  O   UNL     1      58.845  29.468  49.262  1.00  0.00    -0.272 OA
ATOM     42  G   UNL     1      57.867  28.279  51.088  1.00  0.00     0.000 G0
ENDBRANCH  35  40
ENDBRANCH  31  34
ENDBRANCH   2  30
ENDBRANCH   1   2
BRANCH   1  43
ATOM     43  C   UNL     1      63.037  30.352  55.877  1.00  0.00     0.003 C 
BRANCH  43  44
ATOM     44  C   UNL     1      62.684  29.473  57.094  1.00  0.00     0.001 C 
BRANCH  44  45
ATOM     45  C   UNL     1      63.754  29.474  58.207  1.00  0.00     0.008 C 
BRANCH  45  46
ATOM     46  C   UNL     1      63.231  29.140  59.613  1.00  0.00     0.075 C 
BRANCH  46  47
ATOM     47  C   UNL     1      62.937  30.370  60.430  1.00  0.00     0.132 C 
ATOM     48  O   UNL     1      63.422  31.445  60.092  1.00  0.00    -0.300 OA
BRANCH  47  49
ATOM     49  C   UNL     1      62.000  30.286  61.612  1.00  0.00     0.072 C 
ATOM     50  C   UNL     1      60.715  31.095  61.427  1.00  0.00     0.012 C 
ENDBRANCH  47  49
ENDBRANCH  46  47
ENDBRANCH  45  46
ENDBRANCH  44  45
ENDBRANCH  43  44
ENDBRANCH   1  43
TORSDOF 12
ENDMDL
MODEL 3
REMARK VINA RESULT:    -3.739      6.599     11.116
REMARK INTER + INTRA:         -10.980
REMARK INTER:                  -8.273
REMARK INTRA:                  -2.707
REMARK UNBOUND:                -3.087
REMARK SMILES CCC(=O)CCCCC[C@H]1NC(=O)[C@H]2CCCCN2C(=O)[C@H]([C@H](C)CC)NC(=O)[C@@H](Cc2cn(OC)c3ccccc23)NC1=O
REMARK SMILES IDX 9 1 10 2 44 3 43 4 45 6 30 7 28 8 27 9 29 11 22 12 23 14
REMARK SMILES IDX 24 15 25 16 26 17 31 18 32 19 33 20 42 21 34 22 37 23 41 24
REMARK SMILES IDX 38 25 40 26 39 27 35 28 36 29 11 30 12 31 13 33 14 34 19 35
REMARK SMILES IDX 15 36 18 37 16 38 17 39 20 40 21 41 8 43 7 44 6 45 5 46 3 47
REMARK SMILES IDX 4 48 2 49 1 50
REMARK H PARENT 43 5 27 10 11 32
REMARK Flexibility Score: 80.00
ROOT
ATOM      1  C   UNL     1      63.053  30.499  54.818  1.00  0.00     0.035 C 
ENDROOT
BRANCH   1   2
ATOM      2  C   UNL     1      61.736  29.934  55.396  1.00  0.00     0.171 C 
BRANCH   2   3
ATOM      3  C   UNL     1      60.770  29.503  54.323  1.00  0.00     0.243 C 
ATOM      4  N   UNL     1      60.045  30.470  53.553  1.00  0.00    -0.342 N 
ATOM      5  H   UNL     1      60.467  31.409  53.376  1.00  0.00     0.164 HD
ATOM      6  O   UNL     1      60.586  28.274  54.114  1.00  0.00    -0.273 OA
BRANCH   4   7
ATOM      7  C   UNL     1      58.654  30.255  53.163  1.00  0.00     0.175 C 
BRANCH   7   8
ATOM      8  C   UNL     1      57.819  31.355  53.762  1.00  0.00     0.243 C 
ATOM      9  N   UNL     1      57.147  31.133  55.009  1.00  0.00    -0.342 N 
ATOM     10  H   UNL     1      56.901  30.152  55.280  1.00  0.00     0.164 HD
ATOM     11  O   UNL     1      57.812  32.501  53.231  1.00  0.00    -0.273 OA
BRANCH   9  12
ATOM     12  C   UNL     1      56.951  32.201  55.993  1.00  0.00     0.174 CG0
ATOM     13  G   UNL     1      57.625  31.775  57.287  1.00  0.00     0.000 G0
BRANCH  12  14
ATOM     14  C   UNL     1      55.432  32.470  56.185  1.00  0.00     0.018 C 
ATOM     15  C   UNL     1      54.580  31.464  55.387  1.00  0.00     0.010 C 
BRANCH  14  16
ATOM     16  C   UNL     1      55.025  33.934  55.865  1.00  0.00     0.002 C 
ATOM     17  C   UNL     1      54.340  34.125  54.506  1.00  0.00     0.004 C 
ENDBRANCH  14  16
ENDBRANCH  12  14
ENDBRANCH   9  12
ENDBRANCH   7   8
BRANCH   7  18
ATOM     18  C   UNL     1      58.546  30.192  51.630  1.00  0.00     0.073 C 
BRANCH  18  19
ATOM     19  C   UNL     1      58.030  28.856  51.183  1.00  0.00    -0.016 A 
ATOM     20  C   UNL     1      58.783  27.720  50.931  1.00  0.00     0.134 A 
ATOM     21  C   UNL     1      56.733  28.536  50.836  1.00  0.00     0.006 A 
ATOM     22  N   UNL     1      57.994  26.725  50.465  1.00  0.00    -0.191 N 
ATOM     23  C   UNL     1      56.731  27.227  50.405  1.00  0.00     0.087 A 
ATOM     24  C   UNL     1      55.577  29.315  50.862  1.00  0.00     0.011 A 
ATOM     25  C   UNL     1      55.536  26.625  49.973  1.00  0.00     0.030 A 
ATOM     26  C   UNL     1      54.375  28.726  50.441  1.00  0.00     0.001 A 
ATOM     27  C   UNL     1      54.356  27.389  49.996  1.00  0.00     0.002 A 
BRANCH  22  28
ATOM     28  O   UNL     1      58.500  25.478  50.128  1.00  0.00    -0.417 OA
ATOM     29  C   UNL     1      59.733  24.948  50.588  1.00  0.00     0.313 C 
ENDBRANCH  22  28
ENDBRANCH  18  19
ENDBRANCH   7  18
ENDBRANCH   4   7
ENDBRANCH   2   3
BRANCH   2  30
ATOM     30  N   UNL     1      61.089  30.877  56.316  1.00  0.00    -0.343 N 
ATOM     31  C   UNL     1      60.487  30.470  57.557  1.00  0.00     0.243 C 
ATOM     32  H   UNL     1      60.897  31.841  55.977  1.00  0.00     0.164 HD
ATOM     33  O   UNL     1      60.514  29.256  57.904  1.00  0.00    -0.273 OA
BRANCH  31  34
ATOM     34  C   UNL     1      59.830  31.474  58.481  1.00  0.00     0.174 C 
ATOM     35  N   UNL     1      58.897  32.355  57.738  1.00  0.00    -0.329 N 
ATOM     36  C   UNL     1      60.867  32.240  59.333  1.00  0.00     0.035 C 
ATOM     37  C   UNL     1      59.298  33.701  57.282  1.00  0.00     0.120 C 
ATOM     38  C   UNL     1      61.405  33.492  58.651  1.00  0.00     0.004 C 
ATOM     39  C   UNL     1      60.250  34.397  58.251  1.00  0.00     0.022 C 
BRANCH  35  40
ATOM     40  C   UNL     1      57.641  31.783  57.290  1.00  0.00     0.246 CG0
ATOM     41  O   UNL     1      57.144  30.815  57.933  1.00  0.00    -0.272 OA
ATOM     42  G   UNL     1      56.952  32.212  56.005  1.00  0.00     0.000 G0
ENDBRANCH  35  40
ENDBRANCH  31  34
ENDBRANCH   2  30
ENDBRANCH   1   2
BRANCH   1  43
ATOM     43  C   UNL     1      63.837  31.424  55.772  1.00  0.00     0.003 C 
BRANCH  43  44
ATOM     44  C   UNL     1      64.893  30.673  56.606  1.00  0.00     0.001 C 
BRANCH  44  45
ATOM     45  C   UNL     1      65.018  31.169  58.063  1.00  0.00     0.008 C 
BRANCH  45  46
ATOM     46  C   UNL     1      65.926  30.317  58.965  1.00  0.00     0.075 C 
BRANCH  46  47
ATOM     47  C   UNL     1      65.238  29.878  60.231  1.00  0.00     0.132 C 
ATOM     48  O   UNL     1      65.700  28.938  60.869  1.00  0.00    -0.300 OA
BRANCH  47  49
ATOM     49  C   UNL     1      64.033  30.635  60.738  1.00  0.00     0.072 C 
ATOM     50  C   UNL     1      62.905  29.724  61.226  1.00  0.00     0.012 C 
ENDBRANCH  47  49
ENDBRANCH  46  47
ENDBRANCH  45  46
ENDBRANCH  44  45
ENDBRANCH  43  44
ENDBRANCH   1  43
TORSDOF 12
ENDMDL
MODEL 4
REMARK VINA RESULT:    -3.639      4.956      8.938
REMARK INTER + INTRA:         -10.769
REMARK INTER:                  -8.142
REMARK INTRA:                  -2.627
REMARK UNBOUND:                -3.087
REMARK SMILES CCC(=O)CCCCC[C@H]1NC(=O)[C@H]2CCCCN2C(=O)[C@H]([C@H](C)CC)NC(=O)[C@@H](Cc2cn(OC)c3ccccc23)NC1=O
REMARK SMILES IDX 9 1 10 2 44 3 43 4 45 6 30 7 28 8 27 9 29 11 22 12 23 14
REMARK SMILES IDX 24 15 25 16 26 17 31 18 32 19 33 20 42 21 34 22 37 23 41 24
REMARK SMILES IDX 38 25 40 26 39 27 35 28 36 29 11 30 12 31 13 33 14 34 19 35
REMARK SMILES IDX 15 36 18 37 16 38 17 39 20 40 21 41 8 43 7 44 6 45 5 46 3 47
REMARK SMILES IDX 4 48 2 49 1 50
REMARK H PARENT 43 5 27 10 11 32
REMARK Flexibility Score: 80.00
ROOT
ATOM      1  C   UNL     1      56.585  30.235  58.163  1.00  0.00     0.035 C 
ENDROOT
BRANCH   1   2
ATOM      2  C   UNL     1      57.966  30.499  57.520  1.00  0.00     0.171 C 
BRANCH   2   3
ATOM      3  C   UNL     1      59.103  29.959  58.347  1.00  0.00     0.243 C 
ATOM      4  N   UNL     1      59.577  30.664  59.500  1.00  0.00    -0.342 N 
ATOM      5  H   UNL     1      58.915  31.260  60.047  1.00  0.00     0.164 HD
ATOM      6  O   UNL     1      59.656  28.878  58.006  1.00  0.00    -0.273 OA
BRANCH   4   7
ATOM      7  C   UNL     1      60.998  30.730  59.831  1.00  0.00     0.175 C 
BRANCH   7   8
ATOM      8  C   UNL     1      61.404  32.179  59.891  1.00  0.00     0.243 C 
ATOM      9  N   UNL     1      61.987  32.798  58.737  1.00  0.00    -0.342 N 
ATOM     10  H   UNL     1      62.487  32.195  58.042  1.00  0.00     0.164 HD
ATOM     11  O   UNL     1      61.119  32.871  60.909  1.00  0.00    -0.273 OA
BRANCH   9  12
ATOM     12  C   UNL     1      61.758  34.207  58.406  1.00  0.00     0.174 CG0
ATOM     13  G   UNL     1      61.094  34.264  57.040  1.00  0.00     0.000 G0
BRANCH  12  14
ATOM     14  C   UNL     1      63.106  34.982  58.434  1.00  0.00     0.018 C 
ATOM     15  C   UNL     1      64.270  34.063  58.850  1.00  0.00     0.010 C 
BRANCH  14  16
ATOM     16  C   UNL     1      63.056  36.263  59.311  1.00  0.00     0.002 C 
ATOM     17  C   UNL     1      62.841  36.006  60.807  1.00  0.00     0.004 C 
ENDBRANCH  14  16
ENDBRANCH  12  14
ENDBRANCH   9  12
ENDBRANCH   7   8
BRANCH   7  18
ATOM     18  C   UNL     1      61.262  29.982  61.149  1.00  0.00     0.073 C 
BRANCH  18  19
ATOM     19  C   UNL     1      62.210  28.839  60.937  1.00  0.00    -0.016 A 
ATOM     20  C   UNL     1      61.923  27.490  61.072  1.00  0.00     0.134 A 
ATOM     21  C   UNL     1      63.562  28.914  60.673  1.00  0.00     0.006 A 
ATOM     22  N   UNL     1      63.039  26.749  60.885  1.00  0.00    -0.191 N 
ATOM     23  C   UNL     1      64.050  27.626  60.641  1.00  0.00     0.087 A 
ATOM     24  C   UNL     1      64.379  30.027  60.479  1.00  0.00     0.011 A 
ATOM     25  C   UNL     1      65.415  27.391  60.401  1.00  0.00     0.030 A 
ATOM     26  C   UNL     1      65.744  29.809  60.231  1.00  0.00     0.001 A 
ATOM     27  C   UNL     1      66.258  28.497  60.195  1.00  0.00     0.002 A 
BRANCH  22  28
ATOM     28  O   UNL     1      63.030  25.365  60.972  1.00  0.00    -0.417 OA
ATOM     29  C   UNL     1      62.301  24.614  61.930  1.00  0.00     0.313 C 
ENDBRANCH  22  28
ENDBRANCH  18  19
ENDBRANCH   7  18
ENDBRANCH   4   7
ENDBRANCH   2   3
BRANCH   2  30
ATOM     30  N   UNL     1      58.176  31.924  57.234  1.00  0.00    -0.343 N 
ATOM     31  C   UNL     1      58.748  32.397  56.002  1.00  0.00     0.243 C 
ATOM     32  H   UNL     1      58.078  32.602  58.016  1.00  0.00     0.164 HD
ATOM     33  O   UNL     1      59.080  31.575  55.103  1.00  0.00    -0.273 OA
BRANCH  31  34
ATOM     34  C   UNL     1      58.947  33.876  55.743  1.00  0.00     0.174 C 
ATOM     35  N   UNL     1      59.647  34.528  56.875  1.00  0.00    -0.329 N 
ATOM     36  C   UNL     1      57.629  34.574  55.338  1.00  0.00     0.035 C 
ATOM     37  C   UNL     1      58.912  35.262  57.923  1.00  0.00     0.120 C 
ATOM     38  C   UNL     1      56.820  35.077  56.527  1.00  0.00     0.004 C 
ATOM     39  C   UNL     1      57.681  35.989  57.387  1.00  0.00     0.022 C 
BRANCH  35  40
ATOM     40  C   UNL     1      61.063  34.256  57.039  1.00  0.00     0.246 CG0
ATOM     41  O   UNL     1      61.753  33.959  56.023  1.00  0.00    -0.272 OA
ATOM     42  G   UNL     1      61.737  34.188  58.401  1.00  0.00     0.000 G0
ENDBRANCH  35  40
ENDBRANCH  31  34
ENDBRANCH   2  30
ENDBRANCH   1   2
BRANCH   1  43
ATOM     43  C   UNL     1      55.563  29.536  57.244  1.00  0.00     0.003 C 
BRANCH  43  44
ATOM     44  C   UNL     1      54.476  28.770  58.022  1.00  0.00     0.001 C 
BRANCH  44  45
ATOM     45  C   UNL     1      54.908  28.319  59.434  1.00  0.00     0.008 C 
BRANCH  45  46
ATOM     46  C   UNL     1      55.608  26.952  59.495  1.00  0.00     0.075 C 
BRANCH  46  47
ATOM     47  C   UNL     1      55.713  26.416  60.899  1.00  0.00     0.132 C 
ATOM     48  O   UNL     1      54.820  25.697  61.335  1.00  0.00    -0.300 OA
BRANCH  47  49
ATOM     49  C   UNL     1      56.940  26.709  61.729  1.00  0.00     0.072 C 
ATOM     50  C   UNL     1      57.917  27.670  61.048  1.00  0.00     0.012 C 
ENDBRANCH  47  49
ENDBRANCH  46  47
ENDBRANCH  45  46
ENDBRANCH  44  45
ENDBRANCH  43  44
ENDBRANCH   1  43
TORSDOF 12
ENDMDL
MODEL 5
REMARK VINA RESULT:    -3.573      6.654     10.086
REMARK INTER + INTRA:         -10.629
REMARK INTER:                  -7.305
REMARK INTRA:                  -3.324
REMARK UNBOUND:                -3.087
REMARK SMILES CCC(=O)CCCCC[C@H]1NC(=O)[C@H]2CCCCN2C(=O)[C@H]([C@H](C)CC)NC(=O)[C@@H](Cc2cn(OC)c3ccccc23)NC1=O
REMARK SMILES IDX 9 1 10 2 44 3 43 4 45 6 30 7 28 8 27 9 29 11 22 12 23 14
REMARK SMILES IDX 24 15 25 16 26 17 31 18 32 19 33 20 42 21 34 22 37 23 41 24
REMARK SMILES IDX 38 25 40 26 39 27 35 28 36 29 11 30 12 31 13 33 14 34 19 35
REMARK SMILES IDX 15 36 18 37 16 38 17 39 20 40 21 41 8 43 7 44 6 45 5 46 3 47
REMARK SMILES IDX 4 48 2 49 1 50
REMARK H PARENT 43 5 27 10 11 32
REMARK Flexibility Score: 80.00
ROOT
ATOM      1  C   UNL     1      60.534  30.260  54.778  1.00  0.00     0.035 C 
ENDROOT
BRANCH   1   2
ATOM      2  C   UNL     1      59.484  29.127  54.743  1.00  0.00     0.171 C 
BRANCH   2   3
ATOM      3  C   UNL     1      59.805  28.008  55.700  1.00  0.00     0.243 C 
ATOM      4  N   UNL     1      60.946  27.167  55.494  1.00  0.00    -0.342 N 
ATOM      5  H   UNL     1      61.789  27.551  55.009  1.00  0.00     0.164 HD
ATOM      6  O   UNL     1      59.048  27.802  56.686  1.00  0.00    -0.273 OA
BRANCH   4   7
ATOM      7  C   UNL     1      60.905  25.734  55.771  1.00  0.00     0.175 C 
BRANCH   7   8
ATOM      8  C   UNL     1      61.037  24.995  54.466  1.00  0.00     0.243 C 
ATOM      9  N   UNL     1      59.859  24.669  53.716  1.00  0.00    -0.342 N 
ATOM     10  H   UNL     1      58.950  24.570  54.225  1.00  0.00     0.164 HD
ATOM     11  O   UNL     1      62.182  24.774  53.980  1.00  0.00    -0.273 OA
BRANCH   9  12
ATOM     12  C   UNL     1      59.847  24.645  52.251  1.00  0.00     0.174 CG0
ATOM     13  G   UNL     1      58.692  25.513  51.778  1.00  0.00     0.000 G0
BRANCH  12  14
ATOM     14  C   UNL     1      59.723  23.179  51.747  1.00  0.00     0.018 C 
ATOM     15  C   UNL     1      59.738  22.182  52.921  1.00  0.00     0.010 C 
BRANCH  14  16
ATOM     16  C   UNL     1      60.785  22.808  50.677  1.00  0.00     0.002 C 
ATOM     17  C   UNL     1      62.102  23.585  50.787  1.00  0.00     0.004 C 
ENDBRANCH  14  16
ENDBRANCH  12  14
ENDBRANCH   9  12
ENDBRANCH   7   8
BRANCH   7  18
ATOM     18  C   UNL     1      62.007  25.365  56.779  1.00  0.00     0.073 C 
BRANCH  18  19
ATOM     19  C   UNL     1      61.654  25.841  58.157  1.00  0.00    -0.016 A 
ATOM     20  C   UNL     1      60.570  25.436  58.920  1.00  0.00     0.134 A 
ATOM     21  C   UNL     1      62.272  26.841  58.878  1.00  0.00     0.006 A 
ATOM     22  N   UNL     1      60.519  26.136  60.076  1.00  0.00    -0.191 N 
ATOM     23  C   UNL     1      61.567  27.004  60.051  1.00  0.00     0.087 A 
ATOM     24  C   UNL     1      63.389  27.616  58.566  1.00  0.00     0.011 A 
ATOM     25  C   UNL     1      61.964  27.973  60.989  1.00  0.00     0.030 A 
ATOM     26  C   UNL     1      63.803  28.582  59.496  1.00  0.00     0.001 A 
ATOM     27  C   UNL     1      63.092  28.761  60.699  1.00  0.00     0.002 A 
BRANCH  22  28
ATOM     28  O   UNL     1      59.525  25.932  61.021  1.00  0.00    -0.417 OA
ATOM     29  C   UNL     1      58.367  26.738  61.173  1.00  0.00     0.313 C 
ENDBRANCH  22  28
ENDBRANCH  18  19
ENDBRANCH   7  18
ENDBRANCH   4   7
ENDBRANCH   2   3
BRANCH   2  30
ATOM     30  N   UNL     1      59.290  28.597  53.388  1.00  0.00    -0.343 N 
ATOM     31  C   UNL     1      57.990  28.393  52.807  1.00  0.00     0.243 C 
ATOM     32  H   UNL     1      60.109  28.186  52.898  1.00  0.00     0.164 HD
ATOM     33  O   UNL     1      56.951  28.687  53.463  1.00  0.00    -0.273 OA
BRANCH  31  34
ATOM     34  C   UNL     1      57.830  27.847  51.404  1.00  0.00     0.174 C 
ATOM     35  N   UNL     1      58.838  26.797  51.121  1.00  0.00    -0.329 N 
ATOM     36  C   UNL     1      57.788  28.973  50.347  1.00  0.00     0.035 C 
ATOM     37  C   UNL     1      60.084  27.095  50.388  1.00  0.00     0.120 C 
ATOM     38  C   UNL     1      59.166  29.378  49.837  1.00  0.00     0.004 C 
ATOM     39  C   UNL     1      59.898  28.156  49.306  1.00  0.00     0.022 C 
BRANCH  35  40
ATOM     40  C   UNL     1      58.665  25.506  51.759  1.00  0.00     0.246 CG0
ATOM     41  O   UNL     1      57.497  25.110  52.036  1.00  0.00    -0.272 OA
ATOM     42  G   UNL     1      59.834  24.654  52.228  1.00  0.00     0.000 G0
ENDBRANCH  35  40
ENDBRANCH  31  34
ENDBRANCH   2  30
ENDBRANCH   1   2
BRANCH   1  43
ATOM     43  C   UNL     1      60.659  30.989  56.131  1.00  0.00     0.003 C 
BRANCH  43  44
ATOM     44  C   UNL     1      59.294  31.343  56.753  1.00  0.00     0.001 C 
BRANCH  44  45
ATOM     45  C   UNL     1      59.355  31.694  58.255  1.00  0.00     0.008 C 
BRANCH  45  46
ATOM     46  C   UNL     1      60.377  30.887  59.072  1.00  0.00     0.075 C 
BRANCH  46  47
ATOM     47  C   UNL     1      60.925  31.660  60.242  1.00  0.00     0.132 C 
ATOM     48  O   UNL     1      60.659  31.293  61.381  1.00  0.00    -0.300 OA
BRANCH  47  49
ATOM     49  C   UNL     1      61.848  32.832  60.007  1.00  0.00     0.072 C 
ATOM     50  C   UNL     1      63.220  32.666  60.664  1.00  0.00     0.012 C 
ENDBRANCH  47  49
ENDBRANCH  46  47
ENDBRANCH  45  46
ENDBRANCH  44  45
ENDBRANCH  43  44
ENDBRANCH   1  43
TORSDOF 12
ENDMDL
MODEL 6
REMARK VINA RESULT:    -3.559      5.221      9.012
REMARK INTER + INTRA:         -10.599
REMARK INTER:                  -7.646
REMARK INTRA:                  -2.952
REMARK UNBOUND:                -3.087
REMARK SMILES CCC(=O)CCCCC[C@H]1NC(=O)[C@H]2CCCCN2C(=O)[C@H]([C@H](C)CC)NC(=O)[C@@H](Cc2cn(OC)c3ccccc23)NC1=O
REMARK SMILES IDX 9 1 10 2 44 3 43 4 45 6 30 7 28 8 27 9 29 11 22 12 23 14
REMARK SMILES IDX 24 15 25 16 26 17 31 18 32 19 33 20 42 21 34 22 37 23 41 24
REMARK SMILES IDX 38 25 40 26 39 27 35 28 36 29 11 30 12 31 13 33 14 34 19 35
REMARK SMILES IDX 15 36 18 37 16 38 17 39 20 40 21 41 8 43 7 44 6 45 5 46 3 47
REMARK SMILES IDX 4 48 2 49 1 50
REMARK H PARENT 43 5 27 10 11 32
REMARK Flexibility Score: 80.00
ROOT
ATOM      1  C   UNL     1      62.172  31.886  55.945  1.00  0.00     0.035 C 
ENDROOT
BRANCH   1   2
ATOM      2  C   UNL     1      62.437  30.409  56.315  1.00  0.00     0.171 C 
BRANCH   2   3
ATOM      3  C   UNL     1      61.658  29.447  55.457  1.00  0.00     0.243 C 
ATOM      4  N   UNL     1      60.269  29.198  55.703  1.00  0.00    -0.342 N 
ATOM      5  H   UNL     1      59.677  29.951  56.121  1.00  0.00     0.164 HD
ATOM      6  O   UNL     1      62.245  28.841  54.520  1.00  0.00    -0.273 OA
BRANCH   4   7
ATOM      7  C   UNL     1      59.691  27.864  55.561  1.00  0.00     0.175 C 
BRANCH   7   8
ATOM      8  C   UNL     1      59.151  27.438  56.901  1.00  0.00     0.243 C 
ATOM      9  N   UNL     1      60.019  26.787  57.838  1.00  0.00    -0.342 N 
ATOM     10  H   UNL     1      60.848  26.262  57.474  1.00  0.00     0.164 HD
ATOM     11  O   UNL     1      57.978  27.762  57.239  1.00  0.00    -0.273 OA
BRANCH   9  12
ATOM     12  C   UNL     1      59.888  26.975  59.285  1.00  0.00     0.174 CG0
ATOM     13  G   UNL     1      61.237  27.427  59.822  1.00  0.00     0.000 G0
BRANCH  12  14
ATOM     14  C   UNL     1      59.407  25.654  59.949  1.00  0.00     0.018 C 
ATOM     15  C   UNL     1      59.490  24.472  58.965  1.00  0.00     0.010 C 
BRANCH  14  16
ATOM     16  C   UNL     1      57.991  25.767  60.579  1.00  0.00     0.002 C 
ATOM     17  C   UNL     1      57.754  24.853  61.786  1.00  0.00     0.004 C 
ENDBRANCH  14  16
ENDBRANCH  12  14
ENDBRANCH   9  12
ENDBRANCH   7   8
BRANCH   7  18
ATOM     18  C   UNL     1      58.616  27.876  54.461  1.00  0.00     0.073 C 
BRANCH  18  19
ATOM     19  C   UNL     1      59.152  27.305  53.182  1.00  0.00    -0.016 A 
ATOM     20  C   UNL     1      59.892  26.142  53.041  1.00  0.00     0.134 A 
ATOM     21  C   UNL     1      59.104  27.878  51.928  1.00  0.00     0.006 A 
ATOM     22  N   UNL     1      60.277  25.981  51.754  1.00  0.00    -0.191 N 
ATOM     23  C   UNL     1      59.793  27.051  51.067  1.00  0.00     0.087 A 
ATOM     24  C   UNL     1      58.515  29.070  51.506  1.00  0.00     0.011 A 
ATOM     25  C   UNL     1      59.921  27.390  49.709  1.00  0.00     0.030 A 
ATOM     26  C   UNL     1      58.627  29.418  50.151  1.00  0.00     0.001 A 
ATOM     27  C   UNL     1      59.329  28.583  49.259  1.00  0.00     0.002 A 
BRANCH  22  28
ATOM     28  O   UNL     1      61.038  24.897  51.340  1.00  0.00    -0.417 OA
ATOM     29  C   UNL     1      62.453  24.888  51.236  1.00  0.00     0.313 C 
ENDBRANCH  22  28
ENDBRANCH  18  19
ENDBRANCH   7  18
ENDBRANCH   4   7
ENDBRANCH   2   3
BRANCH   2  30
ATOM     30  N   UNL     1      62.183  30.144  57.737  1.00  0.00    -0.343 N 
ATOM     31  C   UNL     1      63.172  29.577  58.614  1.00  0.00     0.243 C 
ATOM     32  H   UNL     1      61.203  30.196  58.080  1.00  0.00     0.164 HD
ATOM     33  O   UNL     1      64.322  29.299  58.175  1.00  0.00    -0.273 OA
BRANCH  31  34
ATOM     34  C   UNL     1      62.873  29.319  60.077  1.00  0.00     0.174 C 
ATOM     35  N   UNL     1      61.497  28.798  60.258  1.00  0.00    -0.329 N 
ATOM     36  C   UNL     1      63.196  30.548  60.957  1.00  0.00     0.035 C 
ATOM     37  C   UNL     1      60.377  29.681  60.640  1.00  0.00     0.120 C 
ATOM     38  C   UNL     1      62.036  31.527  61.080  1.00  0.00     0.004 C 
ATOM     39  C   UNL     1      60.799  30.802  61.586  1.00  0.00     0.022 C 
BRANCH  35  40
ATOM     40  C   UNL     1      61.235  27.430  59.852  1.00  0.00     0.246 CG0
ATOM     41  O   UNL     1      62.183  26.595  59.862  1.00  0.00    -0.272 OA
ATOM     42  G   UNL     1      59.895  26.978  59.292  1.00  0.00     0.000 G0
ENDBRANCH  35  40
ENDBRANCH  31  34
ENDBRANCH   2  30
ENDBRANCH   1   2
BRANCH   1  43
ATOM     43  C   UNL     1      61.441  32.706  57.029  1.00  0.00     0.003 C 
BRANCH  43  44
ATOM     44  C   UNL     1      62.321  33.813  57.643  1.00  0.00     0.001 C 
BRANCH  44  45
ATOM     45  C   UNL     1      63.832  33.496  57.639  1.00  0.00     0.008 C 
BRANCH  45  46
ATOM     46  C   UNL     1      64.498  33.482  59.024  1.00  0.00     0.075 C 
BRANCH  46  47
ATOM     47  C   UNL     1      64.371  34.799  59.743  1.00  0.00     0.132 C 
ATOM     48  O   UNL     1      65.021  35.762  59.350  1.00  0.00    -0.300 OA
BRANCH  47  49
ATOM     49  C   UNL     1      63.399  34.942  60.891  1.00  0.00     0.072 C 
ATOM     50  C   UNL     1      62.781  36.338  60.992  1.00  0.00     0.012 C 
ENDBRANCH  47  49
ENDBRANCH  46  47
ENDBRANCH  45  46
ENDBRANCH  44  45
ENDBRANCH  43  44
ENDBRANCH   1  43
TORSDOF 12
ENDMDL
MODEL 7
REMARK VINA RESULT:    -3.492      8.506     12.278
REMARK INTER + INTRA:         -10.457
REMARK INTER:                  -8.158
REMARK INTRA:                  -2.299
REMARK UNBOUND:                -3.087
REMARK SMILES CCC(=O)CCCCC[C@H]1NC(=O)[C@H]2CCCCN2C(=O)[C@H]([C@H](C)CC)NC(=O)[C@@H](Cc2cn(OC)c3ccccc23)NC1=O
REMARK SMILES IDX 9 1 10 2 44 3 43 4 45 6 30 7 28 8 27 9 29 11 22 12 23 14
REMARK SMILES IDX 24 15 25 16 26 17 31 18 32 19 33 20 42 21 34 22 37 23 41 24
REMARK SMILES IDX 38 25 40 26 39 27 35 28 36 29 11 30 12 31 13 33 14 34 19 35
REMARK SMILES IDX 15 36 18 37 16 38 17 39 20 40 21 41 8 43 7 44 6 45 5 46 3 47
REMARK SMILES IDX 4 48 2 49 1 50
REMARK H PARENT 43 5 27 10 11 32
REMARK Flexibility Score: 80.00
ROOT
ATOM      1  C   UNL     1      58.394  29.191  50.347  1.00  0.00     0.035 C 
ENDROOT
BRANCH   1   2
ATOM      2  C   UNL     1      59.452  29.254  51.472  1.00  0.00     0.171 C 
BRANCH   2   3
ATOM      3  C   UNL     1      60.324  30.479  51.379  1.00  0.00     0.243 C 
ATOM      4  N   UNL     1      61.043  30.783  50.178  1.00  0.00    -0.342 N 
ATOM      5  H   UNL     1      60.655  30.481  49.255  1.00  0.00     0.164 HD
ATOM      6  O   UNL     1      60.435  31.236  52.381  1.00  0.00    -0.273 OA
BRANCH   4   7
ATOM      7  C   UNL     1      62.394  31.338  50.209  1.00  0.00     0.175 C 
BRANCH   7   8
ATOM      8  C   UNL     1      63.364  30.242  49.857  1.00  0.00     0.243 C 
ATOM      9  N   UNL     1      63.730  29.276  50.850  1.00  0.00    -0.342 N 
ATOM     10  H   UNL     1      63.667  29.544  51.860  1.00  0.00     0.164 HD
ATOM     11  O   UNL     1      63.754  30.107  48.663  1.00  0.00    -0.273 OA
BRANCH   9  12
ATOM     12  C   UNL     1      64.018  27.879  50.513  1.00  0.00     0.174 CG0
ATOM     13  G   UNL     1      63.577  27.015  51.683  1.00  0.00     0.000 G0
BRANCH  12  14
ATOM     14  C   UNL     1      65.532  27.712  50.200  1.00  0.00     0.018 C 
ATOM     15  C   UNL     1      66.280  29.052  50.329  1.00  0.00     0.010 C 
BRANCH  14  16
ATOM     16  C   UNL     1      65.802  27.044  48.824  1.00  0.00     0.002 C 
ATOM     17  C   UNL     1      67.232  26.526  48.633  1.00  0.00     0.004 C 
ENDBRANCH  14  16
ENDBRANCH  12  14
ENDBRANCH   9  12
ENDBRANCH   7   8
BRANCH   7  18
ATOM     18  C   UNL     1      62.485  32.544  49.259  1.00  0.00     0.073 C 
BRANCH  18  19
ATOM     19  C   UNL     1      63.384  33.604  49.822  1.00  0.00    -0.016 A 
ATOM     20  C   UNL     1      63.018  34.631  50.677  1.00  0.00     0.134 A 
ATOM     21  C   UNL     1      64.712  33.820  49.516  1.00  0.00     0.006 A 
ATOM     22  N   UNL     1      64.071  35.447  50.913  1.00  0.00    -0.191 N 
ATOM     23  C   UNL     1      65.115  34.949  50.196  1.00  0.00     0.087 A 
ATOM     24  C   UNL     1      65.569  33.108  48.678  1.00  0.00     0.011 A 
ATOM     25  C   UNL     1      66.433  35.422  50.066  1.00  0.00     0.030 A 
ATOM     26  C   UNL     1      66.890  33.563  48.544  1.00  0.00     0.001 A 
ATOM     27  C   UNL     1      67.317  34.716  49.233  1.00  0.00     0.002 A 
BRANCH  22  28
ATOM     28  O   UNL     1      63.974  36.562  51.732  1.00  0.00    -0.417 OA
ATOM     29  C   UNL     1      63.036  36.719  52.785  1.00  0.00     0.313 C 
ENDBRANCH  22  28
ENDBRANCH  18  19
ENDBRANCH   7  18
ENDBRANCH   4   7
ENDBRANCH   2   3
BRANCH   2  30
ATOM     30  N   UNL     1      60.279  28.042  51.519  1.00  0.00    -0.343 N 
ATOM     31  C   UNL     1      60.620  27.376  52.747  1.00  0.00     0.243 C 
ATOM     32  H   UNL     1      60.786  27.759  50.656  1.00  0.00     0.164 HD
ATOM     33  O   UNL     1      60.191  27.821  53.848  1.00  0.00    -0.273 OA
BRANCH  31  34
ATOM     34  C   UNL     1      61.474  26.125  52.754  1.00  0.00     0.174 C 
ATOM     35  N   UNL     1      62.429  26.123  51.620  1.00  0.00    -0.329 N 
ATOM     36  C   UNL     1      60.619  24.842  52.853  1.00  0.00     0.035 C 
ATOM     37  C   UNL     1      62.147  25.390  50.370  1.00  0.00     0.120 C 
ATOM     38  C   UNL     1      60.169  24.308  51.499  1.00  0.00     0.004 C 
ATOM     39  C   UNL     1      61.379  24.091  50.603  1.00  0.00     0.022 C 
BRANCH  35  40
ATOM     40  C   UNL     1      63.561  27.027  51.690  1.00  0.00     0.246 CG0
ATOM     41  O   UNL     1      64.142  27.199  52.799  1.00  0.00    -0.272 OA
ATOM     42  G   UNL     1      64.010  27.879  50.513  1.00  0.00     0.000 G0
ENDBRANCH  35  40
ENDBRANCH  31  34
ENDBRANCH   2  30
ENDBRANCH   1   2
BRANCH   1  43
ATOM     43  C   UNL     1      56.940  29.020  50.832  1.00  0.00     0.003 C 
BRANCH  43  44
ATOM     44  C   UNL     1      56.804  28.008  51.986  1.00  0.00     0.001 C 
BRANCH  44  45
ATOM     45  C   UNL     1      57.108  26.548  51.587  1.00  0.00     0.008 C 
BRANCH  45  46
ATOM     46  C   UNL     1      55.929  25.572  51.740  1.00  0.00     0.075 C 
BRANCH  46  47
ATOM     47  C   UNL     1      54.669  26.078  51.088  1.00  0.00     0.132 C 
ATOM     48  O   UNL     1      53.826  26.646  51.773  1.00  0.00    -0.300 OA
BRANCH  47  49
ATOM     49  C   UNL     1      54.485  25.942  49.595  1.00  0.00     0.072 C 
ATOM     50  C   UNL     1      53.139  26.476  49.099  1.00  0.00     0.012 C 
ENDBRANCH  47  49
ENDBRANCH  46  47
ENDBRANCH  45  46
ENDBRANCH  44  45
ENDBRANCH  43  44
ENDBRANCH   1  43
TORSDOF 12
ENDMDL
MODEL 8
REMARK VINA RESULT:    -3.464      1.885      6.002
REMARK INTER + INTRA:         -10.398
REMARK INTER:                  -7.840
REMARK INTRA:                  -2.558
REMARK UNBOUND:                -3.087
REMARK SMILES CCC(=O)CCCCC[C@H]1NC(=O)[C@H]2CCCCN2C(=O)[C@H]([C@H](C)CC)NC(=O)[C@@H](Cc2cn(OC)c3ccccc23)NC1=O
REMARK SMILES IDX 9 1 10 2 44 3 43 4 45 6 30 7 28 8 27 9 29 11 22 12 23 14
REMARK SMILES IDX 24 15 25 16 26 17 31 18 32 19 33 20 42 21 34 22 37 23 41 24
REMARK SMILES IDX 38 25 40 26 39 27 35 28 36 29 11 30 12 31 13 33 14 34 19 35
REMARK SMILES IDX 15 36 18 37 16 38 17 39 20 40 21 41 8 43 7 44 6 45 5 46 3 47
REMARK SMILES IDX 4 48 2 49 1 50
REMARK H PARENT 43 5 27 10 11 32
REMARK Flexibility Score: 80.00
ROOT
ATOM      1  C   UNL     1      67.534  27.316  58.543  1.00  0.00     0.035 C 
ENDROOT
BRANCH   1   2
ATOM      2  C   UNL     1      68.012  28.552  59.338  1.00  0.00     0.171 C 
BRANCH   2   3
ATOM      3  C   UNL     1      67.121  29.751  59.139  1.00  0.00     0.243 C 
ATOM      4  N   UNL     1      67.107  30.460  57.894  1.00  0.00    -0.342 N 
ATOM      5  H   UNL     1      67.315  29.948  57.007  1.00  0.00     0.164 HD
ATOM      6  O   UNL     1      66.392  30.143  60.089  1.00  0.00    -0.273 OA
BRANCH   4   7
ATOM      7  C   UNL     1      66.994  31.915  57.840  1.00  0.00     0.175 C 
BRANCH   7   8
ATOM      8  C   UNL     1      68.225  32.460  57.165  1.00  0.00     0.243 C 
ATOM      9  N   UNL     1      69.282  33.012  57.962  1.00  0.00    -0.342 N 
ATOM     10  H   UNL     1      69.050  33.399  58.906  1.00  0.00     0.164 HD
ATOM     11  O   UNL     1      68.374  32.319  55.919  1.00  0.00    -0.273 OA
BRANCH   9  12
ATOM     12  C   UNL     1      70.691  32.894  57.579  1.00  0.00     0.174 CG0
ATOM     13  G   UNL     1      71.398  32.073  58.646  1.00  0.00     0.000 G0
BRANCH  12  14
ATOM     14  C   UNL     1      71.316  34.309  57.420  1.00  0.00     0.018 C 
ATOM     15  C   UNL     1      70.226  35.393  57.318  1.00  0.00     0.010 C 
BRANCH  14  16
ATOM     16  C   UNL     1      72.320  34.405  56.239  1.00  0.00     0.002 C 
ATOM     17  C   UNL     1      71.765  33.937  54.888  1.00  0.00     0.004 C 
ENDBRANCH  14  16
ENDBRANCH  12  14
ENDBRANCH   9  12
ENDBRANCH   7   8
BRANCH   7  18
ATOM     18  C   UNL     1      65.694  32.311  57.119  1.00  0.00     0.073 C 
BRANCH  18  19
ATOM     19  C   UNL     1      64.732  32.961  58.069  1.00  0.00    -0.016 A 
ATOM     20  C   UNL     1      64.766  34.273  58.513  1.00  0.00     0.134 A 
ATOM     21  C   UNL     1      63.703  32.354  58.759  1.00  0.00     0.006 A 
ATOM     22  N   UNL     1      63.792  34.488  59.427  1.00  0.00    -0.191 N 
ATOM     23  C   UNL     1      63.137  33.305  59.580  1.00  0.00     0.087 A 
ATOM     24  C   UNL     1      63.250  31.036  58.722  1.00  0.00     0.011 A 
ATOM     25  C   UNL     1      62.060  32.968  60.419  1.00  0.00     0.030 A 
ATOM     26  C   UNL     1      62.170  30.685  59.548  1.00  0.00     0.001 A 
ATOM     27  C   UNL     1      61.582  31.646  60.393  1.00  0.00     0.002 A 
BRANCH  22  28
ATOM     28  O   UNL     1      63.609  35.720  60.037  1.00  0.00    -0.417 OA
ATOM     29  C   UNL     1      63.839  35.990  61.411  1.00  0.00     0.313 C 
ENDBRANCH  22  28
ENDBRANCH  18  19
ENDBRANCH   7  18
ENDBRANCH   4   7
ENDBRANCH   2   3
BRANCH   2  30
ATOM     30  N   UNL     1      69.406  28.897  59.032  1.00  0.00    -0.343 N 
ATOM     31  C   UNL     1      70.304  29.458  60.006  1.00  0.00     0.243 C 
ATOM     32  H   UNL     1      69.703  28.908  58.036  1.00  0.00     0.164 HD
ATOM     33  O   UNL     1      69.909  29.659  61.188  1.00  0.00    -0.273 OA
BRANCH  31  34
ATOM     34  C   UNL     1      71.737  29.799  59.653  1.00  0.00     0.174 C 
ATOM     35  N   UNL     1      71.798  30.700  58.477  1.00  0.00    -0.329 N 
ATOM     36  C   UNL     1      72.615  28.534  59.517  1.00  0.00     0.035 C 
ATOM     37  C   UNL     1      72.050  30.184  57.117  1.00  0.00     0.120 C 
ATOM     38  C   UNL     1      72.603  27.936  58.116  1.00  0.00     0.004 C 
ATOM     39  C   UNL     1      73.006  28.994  57.100  1.00  0.00     0.022 C 
BRANCH  35  40
ATOM     40  C   UNL     1      71.401  32.082  58.665  1.00  0.00     0.246 CG0
ATOM     41  O   UNL     1      71.556  32.616  59.800  1.00  0.00    -0.272 OA
ATOM     42  G   UNL     1      70.689  32.889  57.591  1.00  0.00     0.000 G0
ENDBRANCH  35  40
ENDBRANCH  31  34
ENDBRANCH   2  30
ENDBRANCH   1   2
BRANCH   1  43
ATOM     43  C   UNL     1      66.342  26.563  59.169  1.00  0.00     0.003 C 
BRANCH  43  44
ATOM     44  C   UNL     1      64.983  27.217  58.854  1.00  0.00     0.001 C 
BRANCH  44  45
ATOM     45  C   UNL     1      64.046  27.350  60.074  1.00  0.00     0.008 C 
BRANCH  45  46
ATOM     46  C   UNL     1      63.391  26.038  60.538  1.00  0.00     0.075 C 
BRANCH  46  47
ATOM     47  C   UNL     1      61.950  26.219  60.937  1.00  0.00     0.132 C 
ATOM     48  O   UNL     1      61.639  27.170  61.645  1.00  0.00    -0.300 OA
BRANCH  47  49
ATOM     49  C   UNL     1      60.897  25.272  60.411  1.00  0.00     0.072 C 
ATOM     50  C   UNL     1      60.295  25.716  59.076  1.00  0.00     0.012 C 
ENDBRANCH  47  49
ENDBRANCH  46  47
ENDBRANCH  45  46
ENDBRANCH  44  45
ENDBRANCH  43  44
ENDBRANCH   1  43
TORSDOF 12
ENDMDL
MODEL 9
REMARK VINA RESULT:    -3.455      4.911      8.595
REMARK INTER + INTRA:         -10.380
REMARK INTER:                  -7.575
REMARK INTRA:                  -2.805
REMARK UNBOUND:                -3.087
REMARK SMILES CCC(=O)CCCCC[C@H]1NC(=O)[C@H]2CCCCN2C(=O)[C@H]([C@H](C)CC)NC(=O)[C@@H](Cc2cn(OC)c3ccccc23)NC1=O
REMARK SMILES IDX 9 1 10 2 44 3 43 4 45 6 30 7 28 8 27 9 29 11 22 12 23 14
REMARK SMILES IDX 24 15 25 16 26 17 31 18 32 19 33 20 42 21 34 22 37 23 41 24
REMARK SMILES IDX 38 25 40 26 39 27 35 28 36 29 11 30 12 31 13 33 14 34 19 35
REMARK SMILES IDX 15 36 18 37 16 38 17 39 20 40 21 41 8 43 7 44 6 45 5 46 3 47
REMARK SMILES IDX 4 48 2 49 1 50
REMARK H PARENT 43 5 27 10 11 32
REMARK Flexibility Score: 80.00
ROOT
ATOM      1  C   UNL     1      57.102  30.418  56.619  1.00  0.00     0.035 C 
ENDROOT
BRANCH   1   2
ATOM      2  C   UNL     1      58.604  30.784  56.600  1.00  0.00     0.171 C 
BRANCH   2   3
ATOM      3  C   UNL     1      59.397  30.038  57.641  1.00  0.00     0.243 C 
ATOM      4  N   UNL     1      59.511  30.538  58.978  1.00  0.00    -0.342 N 
ATOM      5  H   UNL     1      58.736  31.112  59.382  1.00  0.00     0.164 HD
ATOM      6  O   UNL     1      59.981  28.968  57.322  1.00  0.00    -0.273 OA
BRANCH   4   7
ATOM      7  C   UNL     1      60.756  30.430  59.735  1.00  0.00     0.175 C 
BRANCH   7   8
ATOM      8  C   UNL     1      61.125  31.801  60.235  1.00  0.00     0.243 C 
ATOM      9  N   UNL     1      62.015  32.619  59.463  1.00  0.00    -0.342 N 
ATOM     10  H   UNL     1      62.694  32.153  58.818  1.00  0.00     0.164 HD
ATOM     11  O   UNL     1      60.560  32.271  61.263  1.00  0.00    -0.273 OA
BRANCH   9  12
ATOM     12  C   UNL     1      61.889  34.078  59.413  1.00  0.00     0.174 CG0
ATOM     13  G   UNL     1      61.613  34.474  57.971  1.00  0.00     0.000 G0
BRANCH  12  14
ATOM     14  C   UNL     1      63.184  34.740  59.964  1.00  0.00     0.018 C 
ATOM     15  C   UNL     1      64.125  33.692  60.588  1.00  0.00     0.010 C 
BRANCH  14  16
ATOM     16  C   UNL     1      62.902  35.906  60.951  1.00  0.00     0.002 C 
ATOM     17  C   UNL     1      64.149  36.489  61.625  1.00  0.00     0.004 C 
ENDBRANCH  14  16
ENDBRANCH  12  14
ENDBRANCH   9  12
ENDBRANCH   7   8
BRANCH   7  18
ATOM     18  C   UNL     1      60.589  29.406  60.871  1.00  0.00     0.073 C 
BRANCH  18  19
ATOM     19  C   UNL     1      61.722  28.423  60.876  1.00  0.00    -0.016 A 
ATOM     20  C   UNL     1      63.065  28.707  60.689  1.00  0.00     0.134 A 
ATOM     21  C   UNL     1      61.633  27.049  60.959  1.00  0.00     0.006 A 
ATOM     22  N   UNL     1      63.792  27.566  60.674  1.00  0.00    -0.191 N 
ATOM     23  C   UNL     1      62.910  26.543  60.838  1.00  0.00     0.087 A 
ATOM     24  C   UNL     1      60.517  26.227  61.116  1.00  0.00     0.011 A 
ATOM     25  C   UNL     1      63.128  25.155  60.875  1.00  0.00     0.030 A 
ATOM     26  C   UNL     1      60.720  24.839  61.163  1.00  0.00     0.001 A 
ATOM     27  C   UNL     1      62.019  24.307  61.040  1.00  0.00     0.002 A 
BRANCH  22  28
ATOM     28  O   UNL     1      65.167  27.567  60.496  1.00  0.00    -0.417 OA
ATOM     29  C   UNL     1      65.902  28.590  59.843  1.00  0.00     0.313 C 
ENDBRANCH  22  28
ENDBRANCH  18  19
ENDBRANCH   7  18
ENDBRANCH   4   7
ENDBRANCH   2   3
BRANCH   2  30
ATOM     30  N   UNL     1      58.819  32.230  56.735  1.00  0.00    -0.343 N 
ATOM     31  C   UNL     1      59.742  32.964  55.912  1.00  0.00     0.243 C 
ATOM     32  H   UNL     1      58.428  32.709  57.571  1.00  0.00     0.164 HD
ATOM     33  O   UNL     1      60.401  32.367  55.015  1.00  0.00    -0.273 OA
BRANCH  31  34
ATOM     34  C   UNL     1      59.935  34.456  56.081  1.00  0.00     0.174 C 
ATOM     35  N   UNL     1      60.269  34.797  57.485  1.00  0.00    -0.329 N 
ATOM     36  C   UNL     1      58.746  35.261  55.509  1.00  0.00     0.035 C 
ATOM     37  C   UNL     1      59.241  35.269  58.434  1.00  0.00     0.120 C 
ATOM     38  C   UNL     1      57.621  35.476  56.513  1.00  0.00     0.004 C 
ATOM     39  C   UNL     1      58.170  36.132  57.770  1.00  0.00     0.022 C 
BRANCH  35  40
ATOM     40  C   UNL     1      61.597  34.463  57.963  1.00  0.00     0.246 CG0
ATOM     41  O   UNL     1      62.549  34.400  57.135  1.00  0.00    -0.272 OA
ATOM     42  G   UNL     1      61.878  34.060  59.402  1.00  0.00     0.000 G0
ENDBRANCH  35  40
ENDBRANCH  31  34
ENDBRANCH   2  30
ENDBRANCH   1   2
BRANCH   1  43
ATOM     43  C   UNL     1      56.339  30.871  57.880  1.00  0.00     0.003 C 
BRANCH  43  44
ATOM     44  C   UNL     1      55.039  30.077  58.116  1.00  0.00     0.001 C 
BRANCH  44  45
ATOM     45  C   UNL     1      55.086  28.620  57.609  1.00  0.00     0.008 C 
BRANCH  45  46
ATOM     46  C   UNL     1      55.225  27.553  58.706  1.00  0.00     0.075 C 
BRANCH  46  47
ATOM     47  C   UNL     1      56.571  27.587  59.382  1.00  0.00     0.132 C 
ATOM     48  O   UNL     1      57.568  27.254  58.751  1.00  0.00    -0.300 OA
BRANCH  47  49
ATOM     49  C   UNL     1      56.690  28.093  60.800  1.00  0.00     0.072 C 
ATOM     50  C   UNL     1      55.355  28.128  61.546  1.00  0.00     0.012 C 
ENDBRANCH  47  49
ENDBRANCH  46  47
ENDBRANCH  45  46
ENDBRANCH  44  45
ENDBRANCH  43  44
ENDBRANCH   1  43
TORSDOF 12
ENDMDL
