MODEL 1
REMARK VINA RESULT:    -7.045      0.000      0.000
REMARK INTER + INTRA:          -7.456
REMARK INTER:                  -7.456
REMARK INTRA:                   0.000
REMARK UNBOUND:                 0.000
REMARK SMILES CC1(C)[C@@H](O)CC[C@@]2(C)[C@H]3C=CC4=C(O)C(=O)C(=O)[C@@]4(C)[C@@]3(C)CC[C@@H]12
REMARK SMILES IDX 1 1 2 2 26 3 25 4 24 5 22 6 10 7 8 8 7 9 6 10 4 11 9 12
REMARK SMILES IDX 11 13 12 14 13 15 14 16 16 17 17 18 18 19 19 20 20 21 21 22
REMARK SMILES IDX 23 23 3 24 5 25 15 27
REMARK H PARENT 5 26 15 28
REMARK Flexibility Score: inf
ROOT
ATOM      1  C   UNL     1      32.091  31.622  15.456  1.00  0.00     0.014 C 
ATOM      2  C   UNL     1      31.399  32.509  14.377  1.00  0.00    -0.006 C 
ATOM      3  C   UNL     1      30.757  33.776  15.113  1.00  0.00     0.004 C 
ATOM      4  C   UNL     1      29.422  33.496  15.864  1.00  0.00     0.005 C 
ATOM      5  C   UNL     1      28.146  33.705  15.033  1.00  0.00     0.009 C 
ATOM      6  C   UNL     1      28.041  35.085  14.309  1.00  0.00    -0.009 C 
ATOM      7  C   UNL     1      29.400  35.355  13.499  1.00  0.00     0.025 C 
ATOM      8  C   UNL     1      30.743  35.168  14.355  1.00  0.00    -0.022 C 
ATOM      9  C   UNL     1      32.055  35.391  13.491  1.00  0.00     0.010 C 
ATOM     10  C   UNL     1      33.104  34.290  13.650  1.00  0.00     0.033 C 
ATOM     11  C   UNL     1      32.507  32.917  13.336  1.00  0.00     0.120 C 
ATOM     12  C   UNL     1      30.838  36.298  15.437  1.00  0.00     0.012 C 
ATOM     13  C   UNL     1      29.436  34.602  12.152  1.00  0.00    -0.022 C 
ATOM     14  C   UNL     1      28.384  34.030  11.565  1.00  0.00     0.005 C 
ATOM     15  C   UNL     1      27.085  34.058  12.214  1.00  0.00     0.012 C 
ATOM     16  C   UNL     1      26.127  33.137  12.076  1.00  0.00     0.171 C 
ATOM     17  C   UNL     1      25.103  33.361  13.066  1.00  0.00     0.264 C 
ATOM     18  O   UNL     1      24.059  32.677  13.227  1.00  0.00    -0.282 OA
ATOM     19  C   UNL     1      25.513  34.499  13.858  1.00  0.00     0.217 C 
ATOM     20  O   UNL     1      24.844  34.976  14.813  1.00  0.00    -0.289 OA
ATOM     21  C   UNL     1      26.807  35.061  13.302  1.00  0.00     0.069 C 
ATOM     22  C   UNL     1      26.515  36.430  12.639  1.00  0.00     0.026 C 
ATOM     23  C   UNL     1      27.758  36.204  15.366  1.00  0.00     0.013 C 
ATOM     24  C   UNL     1      30.352  31.592  13.692  1.00  0.00     0.014 C 
ENDROOT
BRANCH  11  25
ATOM     25  O   UNL     1      32.012  32.907  12.018  1.00  0.00    -0.393 OA
ATOM     26  H   UNL     1      32.675  32.423  11.458  1.00  0.00     0.210 HD
ENDBRANCH  11  25
BRANCH  16  27
ATOM     27  O   UNL     1      26.129  32.070  11.178  1.00  0.00    -0.504 OA
ATOM     28  H   UNL     1      26.040  31.110  11.481  1.00  0.00     0.293 HD
ENDBRANCH  16  27
TORSDOF 2
ENDMDL
MODEL 2
REMARK VINA RESULT:    -6.667      2.236      4.288
REMARK INTER + INTRA:          -7.057
REMARK INTER:                  -7.057
REMARK INTRA:                   0.000
REMARK UNBOUND:                 0.000
REMARK SMILES CC1(C)[C@@H](O)CC[C@@]2(C)[C@H]3C=CC4=C(O)C(=O)C(=O)[C@@]4(C)[C@@]3(C)CC[C@@H]12
REMARK SMILES IDX 1 1 2 2 26 3 25 4 24 5 22 6 10 7 8 8 7 9 6 10 4 11 9 12
REMARK SMILES IDX 11 13 12 14 13 15 14 16 16 17 17 18 18 19 19 20 20 21 21 22
REMARK SMILES IDX 23 23 3 24 5 25 15 27
REMARK H PARENT 5 26 15 28
REMARK Flexibility Score: inf
ROOT
ATOM      1  C   UNL     1      28.043  36.875  15.092  1.00  0.00     0.014 C 
ATOM      2  C   UNL     1      28.037  35.401  14.588  1.00  0.00    -0.006 C 
ATOM      3  C   UNL     1      27.587  35.402  13.052  1.00  0.00     0.004 C 
ATOM      4  C   UNL     1      26.059  35.582  12.813  1.00  0.00     0.005 C 
ATOM      5  C   UNL     1      25.248  34.279  12.740  1.00  0.00     0.009 C 
ATOM      6  C   UNL     1      25.796  33.208  11.743  1.00  0.00    -0.009 C 
ATOM      7  C   UNL     1      27.362  32.991  12.017  1.00  0.00     0.025 C 
ATOM      8  C   UNL     1      28.231  34.337  12.070  1.00  0.00    -0.022 C 
ATOM      9  C   UNL     1      29.759  34.067  12.402  1.00  0.00     0.010 C 
ATOM     10  C   UNL     1      30.326  34.956  13.508  1.00  0.00     0.033 C 
ATOM     11  C   UNL     1      29.494  34.839  14.785  1.00  0.00     0.120 C 
ATOM     12  C   UNL     1      28.289  34.982  10.643  1.00  0.00     0.012 C 
ATOM     13  C   UNL     1      27.619  32.061  13.223  1.00  0.00    -0.022 C 
ATOM     14  C   UNL     1      26.701  31.287  13.804  1.00  0.00     0.005 C 
ATOM     15  C   UNL     1      25.329  31.305  13.329  1.00  0.00     0.012 C 
ATOM     16  C   UNL     1      24.246  31.059  14.071  1.00  0.00     0.171 C 
ATOM     17  C   UNL     1      23.065  31.427  13.330  1.00  0.00     0.264 C 
ATOM     18  O   UNL     1      21.875  31.335  13.729  1.00  0.00    -0.282 OA
ATOM     19  C   UNL     1      23.504  31.949  12.054  1.00  0.00     0.217 C 
ATOM     20  O   UNL     1      22.727  32.359  11.151  1.00  0.00    -0.289 OA
ATOM     21  C   UNL     1      25.013  31.838  11.956  1.00  0.00     0.069 C 
ATOM     22  C   UNL     1      25.369  30.747  10.917  1.00  0.00     0.026 C 
ATOM     23  C   UNL     1      25.519  33.679  10.276  1.00  0.00     0.013 C 
ATOM     24  C   UNL     1      27.056  34.644  15.521  1.00  0.00     0.014 C 
ENDROOT
BRANCH  11  25
ATOM     25  O   UNL     1      29.481  33.500  15.220  1.00  0.00    -0.393 OA
ATOM     26  H   UNL     1      29.001  33.477  16.090  1.00  0.00     0.210 HD
ENDBRANCH  11  25
BRANCH  16  27
ATOM     27  O   UNL     1      24.233  30.594  15.386  1.00  0.00    -0.504 OA
ATOM     28  H   UNL     1      24.698  29.739  15.660  1.00  0.00     0.293 HD
ENDBRANCH  16  27
TORSDOF 2
ENDMDL
MODEL 3
REMARK VINA RESULT:    -6.661      1.727      5.773
REMARK INTER + INTRA:          -7.051
REMARK INTER:                  -7.051
REMARK INTRA:                   0.000
REMARK UNBOUND:                 0.000
REMARK SMILES CC1(C)[C@@H](O)CC[C@@]2(C)[C@H]3C=CC4=C(O)C(=O)C(=O)[C@@]4(C)[C@@]3(C)CC[C@@H]12
REMARK SMILES IDX 1 1 2 2 26 3 25 4 24 5 22 6 10 7 8 8 7 9 6 10 4 11 9 12
REMARK SMILES IDX 11 13 12 14 13 15 14 16 16 17 17 18 18 19 19 20 20 21 21 22
REMARK SMILES IDX 23 23 3 24 5 25 15 27
REMARK H PARENT 5 26 15 28
REMARK Flexibility Score: inf
ROOT
ATOM      1  C   UNL     1      25.784  36.269  10.408  1.00  0.00     0.014 C 
ATOM      2  C   UNL     1      26.354  35.011  11.131  1.00  0.00    -0.006 C 
ATOM      3  C   UNL     1      26.303  35.279  12.708  1.00  0.00     0.004 C 
ATOM      4  C   UNL     1      27.426  36.209  13.255  1.00  0.00     0.005 C 
ATOM      5  C   UNL     1      28.704  35.492  13.719  1.00  0.00     0.009 C 
ATOM      6  C   UNL     1      28.482  34.317  14.725  1.00  0.00    -0.009 C 
ATOM      7  C   UNL     1      27.355  33.335  14.140  1.00  0.00     0.025 C 
ATOM      8  C   UNL     1      26.003  34.060  13.676  1.00  0.00    -0.022 C 
ATOM      9  C   UNL     1      24.949  33.050  13.054  1.00  0.00     0.010 C 
ATOM     10  C   UNL     1      24.357  33.504  11.720  1.00  0.00     0.033 C 
ATOM     11  C   UNL     1      25.461  33.788  10.701  1.00  0.00     0.120 C 
ATOM     12  C   UNL     1      25.252  34.625  14.930  1.00  0.00     0.012 C 
ATOM     13  C   UNL     1      27.918  32.371  13.073  1.00  0.00    -0.022 C 
ATOM     14  C   UNL     1      29.214  32.149  12.848  1.00  0.00     0.005 C 
ATOM     15  C   UNL     1      30.219  32.867  13.613  1.00  0.00     0.012 C 
ATOM     16  C   UNL     1      31.445  33.180  13.184  1.00  0.00     0.171 C 
ATOM     17  C   UNL     1      32.049  34.110  14.105  1.00  0.00     0.264 C 
ATOM     18  O   UNL     1      33.196  34.619  14.007  1.00  0.00    -0.282 OA
ATOM     19  C   UNL     1      31.081  34.374  15.147  1.00  0.00     0.217 C 
ATOM     20  O   UNL     1      31.283  35.142  16.125  1.00  0.00    -0.289 OA
ATOM     21  C   UNL     1      29.848  33.522  14.917  1.00  0.00     0.069 C 
ATOM     22  C   UNL     1      29.784  32.427  16.010  1.00  0.00     0.026 C 
ATOM     23  C   UNL     1      28.082  34.901  16.120  1.00  0.00     0.013 C 
ATOM     24  C   UNL     1      27.792  34.827  10.578  1.00  0.00     0.014 C 
ENDROOT
BRANCH  11  25
ATOM     25  O   UNL     1      26.231  32.627  10.501  1.00  0.00    -0.393 OA
ATOM     26  H   UNL     1      25.614  31.850  10.556  1.00  0.00     0.210 HD
ENDBRANCH  11  25
BRANCH  16  27
ATOM     27  O   UNL     1      32.041  32.751  11.999  1.00  0.00    -0.504 OA
ATOM     28  H   UNL     1      33.018  32.494  11.949  1.00  0.00     0.293 HD
ENDBRANCH  16  27
TORSDOF 2
ENDMDL
MODEL 4
REMARK VINA RESULT:    -6.226      1.724      5.792
REMARK INTER + INTRA:          -6.590
REMARK INTER:                  -6.590
REMARK INTRA:                   0.000
REMARK UNBOUND:                 0.000
REMARK SMILES CC1(C)[C@@H](O)CC[C@@]2(C)[C@H]3C=CC4=C(O)C(=O)C(=O)[C@@]4(C)[C@@]3(C)CC[C@@H]12
REMARK SMILES IDX 1 1 2 2 26 3 25 4 24 5 22 6 10 7 8 8 7 9 6 10 4 11 9 12
REMARK SMILES IDX 11 13 12 14 13 15 14 16 16 17 17 18 18 19 19 20 20 21 21 22
REMARK SMILES IDX 23 23 3 24 5 25 15 27
REMARK H PARENT 5 26 15 28
REMARK Flexibility Score: inf
ROOT
ATOM      1  C   UNL     1      24.113  33.116  11.249  1.00  0.00     0.014 C 
ATOM      2  C   UNL     1      25.130  32.728  12.365  1.00  0.00    -0.006 C 
ATOM      3  C   UNL     1      25.569  34.067  13.124  1.00  0.00     0.004 C 
ATOM      4  C   UNL     1      26.605  34.946  12.363  1.00  0.00     0.005 C 
ATOM      5  C   UNL     1      28.079  34.640  12.675  1.00  0.00     0.009 C 
ATOM      6  C   UNL     1      28.449  34.617  14.193  1.00  0.00    -0.009 C 
ATOM      7  C   UNL     1      27.406  33.677  14.970  1.00  0.00     0.025 C 
ATOM      8  C   UNL     1      25.862  33.997  14.680  1.00  0.00    -0.022 C 
ATOM      9  C   UNL     1      24.879  33.001  15.428  1.00  0.00     0.010 C 
ATOM     10  C   UNL     1      23.791  32.406  14.535  1.00  0.00     0.033 C 
ATOM     11  C   UNL     1      24.402  31.709  13.319  1.00  0.00     0.120 C 
ATOM     12  C   UNL     1      25.489  35.389  15.296  1.00  0.00     0.012 C 
ATOM     13  C   UNL     1      27.748  32.178  14.821  1.00  0.00    -0.022 C 
ATOM     14  C   UNL     1      28.906  31.698  14.364  1.00  0.00     0.005 C 
ATOM     15  C   UNL     1      29.950  32.609  13.929  1.00  0.00     0.012 C 
ATOM     16  C   UNL     1      30.869  32.348  12.995  1.00  0.00     0.171 C 
ATOM     17  C   UNL     1      31.556  33.567  12.648  1.00  0.00     0.264 C 
ATOM     18  O   UNL     1      32.478  33.688  11.799  1.00  0.00    -0.282 OA
ATOM     19  C   UNL     1      30.971  34.629  13.435  1.00  0.00     0.217 C 
ATOM     20  O   UNL     1      31.340  35.833  13.387  1.00  0.00    -0.289 OA
ATOM     21  C   UNL     1      29.926  34.049  14.368  1.00  0.00     0.069 C 
ATOM     22  C   UNL     1      30.455  34.123  15.822  1.00  0.00     0.026 C 
ATOM     23  C   UNL     1      28.443  36.080  14.748  1.00  0.00     0.013 C 
ATOM     24  C   UNL     1      26.299  32.015  11.636  1.00  0.00     0.014 C 
ENDROOT
BRANCH  11  25
ATOM     25  O   UNL     1      25.269  30.686  13.746  1.00  0.00    -0.393 OA
ATOM     26  H   UNL     1      26.165  30.877  13.360  1.00  0.00     0.210 HD
ENDBRANCH  11  25
BRANCH  16  27
ATOM     27  O   UNL     1      31.097  31.117  12.381  1.00  0.00    -0.504 OA
ATOM     28  H   UNL     1      30.407  30.673  11.789  1.00  0.00     0.293 HD
ENDBRANCH  16  27
TORSDOF 2
ENDMDL
MODEL 5
REMARK VINA RESULT:    -5.752      1.757      3.062
REMARK INTER + INTRA:          -6.089
REMARK INTER:                  -6.089
REMARK INTRA:                   0.000
REMARK UNBOUND:                 0.000
REMARK SMILES CC1(C)[C@@H](O)CC[C@@]2(C)[C@H]3C=CC4=C(O)C(=O)C(=O)[C@@]4(C)[C@@]3(C)CC[C@@H]12
REMARK SMILES IDX 1 1 2 2 26 3 25 4 24 5 22 6 10 7 8 8 7 9 6 10 4 11 9 12
REMARK SMILES IDX 11 13 12 14 13 15 14 16 16 17 17 18 18 19 19 20 20 21 21 22
REMARK SMILES IDX 23 23 3 24 5 25 15 27
REMARK H PARENT 5 26 15 28
REMARK Flexibility Score: inf
ROOT
ATOM      1  C   UNL     1      32.736  33.500  12.390  1.00  0.00     0.014 C 
ATOM      2  C   UNL     1      31.514  34.134  13.121  1.00  0.00    -0.006 C 
ATOM      3  C   UNL     1      30.645  32.950  13.754  1.00  0.00     0.004 C 
ATOM      4  C   UNL     1      29.749  32.175  12.744  1.00  0.00     0.005 C 
ATOM      5  C   UNL     1      28.326  32.727  12.571  1.00  0.00     0.009 C 
ATOM      6  C   UNL     1      27.528  32.939  13.898  1.00  0.00    -0.009 C 
ATOM      7  C   UNL     1      28.435  33.775  14.925  1.00  0.00     0.025 C 
ATOM      8  C   UNL     1      29.916  33.200  15.140  1.00  0.00    -0.022 C 
ATOM      9  C   UNL     1      30.785  34.096  16.118  1.00  0.00     0.010 C 
ATOM     10  C   UNL     1      32.176  34.438  15.585  1.00  0.00     0.033 C 
ATOM     11  C   UNL     1      32.086  35.111  14.215  1.00  0.00     0.120 C 
ATOM     12  C   UNL     1      29.843  31.826  15.892  1.00  0.00     0.012 C 
ATOM     13  C   UNL     1      28.416  35.289  14.622  1.00  0.00    -0.022 C 
ATOM     14  C   UNL     1      27.548  35.897  13.812  1.00  0.00     0.005 C 
ATOM     15  C   UNL     1      26.543  35.121  13.108  1.00  0.00     0.012 C 
ATOM     16  C   UNL     1      26.004  35.436  11.926  1.00  0.00     0.171 C 
ATOM     17  C   UNL     1      25.254  34.310  11.429  1.00  0.00     0.264 C 
ATOM     18  O   UNL     1      24.623  34.256  10.341  1.00  0.00    -0.282 OA
ATOM     19  C   UNL     1      25.386  33.243  12.397  1.00  0.00     0.217 C 
ATOM     20  O   UNL     1      24.847  32.110  12.282  1.00  0.00    -0.289 OA
ATOM     21  C   UNL     1      26.186  33.738  13.586  1.00  0.00     0.069 C 
ATOM     22  C   UNL     1      25.242  33.873  14.806  1.00  0.00     0.026 C 
ATOM     23  C   UNL     1      27.116  31.547  14.481  1.00  0.00     0.013 C 
ATOM     24  C   UNL     1      30.758  34.949  12.039  1.00  0.00     0.014 C 
ENDROOT
BRANCH  11  25
ATOM     25  O   UNL     1      31.320  36.287  14.314  1.00  0.00    -0.393 OA
ATOM     26  H   UNL     1      31.682  36.932  13.650  1.00  0.00     0.210 HD
ENDBRANCH  11  25
BRANCH  16  27
ATOM     27  O   UNL     1      26.185  36.628  11.226  1.00  0.00    -0.504 OA
ATOM     28  H   UNL     1      25.407  37.170  10.873  1.00  0.00     0.293 HD
ENDBRANCH  16  27
TORSDOF 2
ENDMDL
MODEL 6
REMARK VINA RESULT:    -5.717      2.019      5.970
REMARK INTER + INTRA:          -6.051
REMARK INTER:                  -6.051
REMARK INTRA:                   0.000
REMARK UNBOUND:                 0.000
REMARK SMILES CC1(C)[C@@H](O)CC[C@@]2(C)[C@H]3C=CC4=C(O)C(=O)C(=O)[C@@]4(C)[C@@]3(C)CC[C@@H]12
REMARK SMILES IDX 1 1 2 2 26 3 25 4 24 5 22 6 10 7 8 8 7 9 6 10 4 11 9 12
REMARK SMILES IDX 11 13 12 14 13 15 14 16 16 17 17 18 18 19 19 20 20 21 21 22
REMARK SMILES IDX 23 23 3 24 5 25 15 27
REMARK H PARENT 5 26 15 28
REMARK Flexibility Score: inf
ROOT
ATOM      1  C   UNL     1      25.250  36.079  14.954  1.00  0.00     0.014 C 
ATOM      2  C   UNL     1      26.361  35.555  13.995  1.00  0.00    -0.006 C 
ATOM      3  C   UNL     1      26.554  33.990  14.267  1.00  0.00     0.004 C 
ATOM      4  C   UNL     1      27.371  33.639  15.546  1.00  0.00     0.005 C 
ATOM      5  C   UNL     1      28.885  33.486  15.335  1.00  0.00     0.009 C 
ATOM      6  C   UNL     1      29.304  32.517  14.183  1.00  0.00    -0.009 C 
ATOM      7  C   UNL     1      28.494  32.906  12.853  1.00  0.00     0.025 C 
ATOM      8  C   UNL     1      26.908  33.044  13.046  1.00  0.00    -0.022 C 
ATOM      9  C   UNL     1      26.167  33.486  11.714  1.00  0.00     0.010 C 
ATOM     10  C   UNL     1      25.187  34.644  11.898  1.00  0.00     0.033 C 
ATOM     11  C   UNL     1      25.881  35.853  12.526  1.00  0.00     0.120 C 
ATOM     12  C   UNL     1      26.290  31.635  13.342  1.00  0.00     0.012 C 
ATOM     13  C   UNL     1      29.119  34.114  12.122  1.00  0.00    -0.022 C 
ATOM     14  C   UNL     1      30.332  34.612  12.364  1.00  0.00     0.005 C 
ATOM     15  C   UNL     1      31.161  34.035  13.407  1.00  0.00     0.012 C 
ATOM     16  C   UNL     1      32.082  34.691  14.121  1.00  0.00     0.171 C 
ATOM     17  C   UNL     1      32.503  33.868  15.226  1.00  0.00     0.264 C 
ATOM     18  O   UNL     1      33.353  34.175  16.103  1.00  0.00    -0.282 OA
ATOM     19  C   UNL     1      31.747  32.637  15.159  1.00  0.00     0.217 C 
ATOM     20  O   UNL     1      31.870  31.684  15.974  1.00  0.00    -0.289 OA
ATOM     21  C   UNL     1      30.869  32.651  13.923  1.00  0.00     0.069 C 
ATOM     22  C   UNL     1      31.423  31.625  12.903  1.00  0.00     0.026 C 
ATOM     23  C   UNL     1      29.030  31.041  14.625  1.00  0.00     0.013 C 
ATOM     24  C   UNL     1      27.622  36.401  14.313  1.00  0.00     0.014 C 
ENDROOT
BRANCH  11  25
ATOM     25  O   UNL     1      26.947  36.266  11.704  1.00  0.00    -0.393 OA
ATOM     26  H   UNL     1      27.468  35.454  11.465  1.00  0.00     0.210 HD
ENDBRANCH  11  25
BRANCH  16  27
ATOM     27  O   UNL     1      32.526  35.993  13.898  1.00  0.00    -0.504 OA
ATOM     28  H   UNL     1      32.454  36.441  12.995  1.00  0.00     0.293 HD
ENDBRANCH  16  27
TORSDOF 2
ENDMDL
MODEL 7
REMARK VINA RESULT:    -5.580      1.905      3.856
REMARK INTER + INTRA:          -5.906
REMARK INTER:                  -5.906
REMARK INTRA:                   0.000
REMARK UNBOUND:                 0.000
REMARK SMILES CC1(C)[C@@H](O)CC[C@@]2(C)[C@H]3C=CC4=C(O)C(=O)C(=O)[C@@]4(C)[C@@]3(C)CC[C@@H]12
REMARK SMILES IDX 1 1 2 2 26 3 25 4 24 5 22 6 10 7 8 8 7 9 6 10 4 11 9 12
REMARK SMILES IDX 11 13 12 14 13 15 14 16 16 17 17 18 18 19 19 20 20 21 21 22
REMARK SMILES IDX 23 23 3 24 5 25 15 27
REMARK H PARENT 5 26 15 28
REMARK Flexibility Score: inf
ROOT
ATOM      1  C   UNL     1      33.090  34.527  12.903  1.00  0.00     0.014 C 
ATOM      2  C   UNL     1      31.747  34.452  13.690  1.00  0.00    -0.006 C 
ATOM      3  C   UNL     1      30.733  33.536  12.857  1.00  0.00     0.004 C 
ATOM      4  C   UNL     1      30.074  34.232  11.629  1.00  0.00     0.005 C 
ATOM      5  C   UNL     1      28.738  34.936  11.913  1.00  0.00     0.009 C 
ATOM      6  C   UNL     1      27.665  34.062  12.639  1.00  0.00    -0.009 C 
ATOM      7  C   UNL     1      28.332  33.379  13.929  1.00  0.00     0.025 C 
ATOM      8  C   UNL     1      29.714  32.616  13.649  1.00  0.00    -0.022 C 
ATOM      9  C   UNL     1      30.356  32.011  14.968  1.00  0.00     0.010 C 
ATOM     10  C   UNL     1      31.839  32.337  15.148  1.00  0.00     0.033 C 
ATOM     11  C   UNL     1      32.076  33.847  15.106  1.00  0.00     0.120 C 
ATOM     12  C   UNL     1      29.444  31.344  12.773  1.00  0.00     0.012 C 
ATOM     13  C   UNL     1      28.413  34.350  15.127  1.00  0.00    -0.022 C 
ATOM     14  C   UNL     1      27.764  35.512  15.217  1.00  0.00     0.005 C 
ATOM     15  C   UNL     1      26.929  35.966  14.119  1.00  0.00     0.012 C 
ATOM     16  C   UNL     1      26.678  37.241  13.807  1.00  0.00     0.171 C 
ATOM     17  C   UNL     1      26.038  37.300  12.518  1.00  0.00     0.264 C 
ATOM     18  O   UNL     1      25.669  38.342  11.915  1.00  0.00    -0.282 OA
ATOM     19  C   UNL     1      25.925  35.943  12.030  1.00  0.00     0.217 C 
ATOM     20  O   UNL     1      25.404  35.626  10.928  1.00  0.00    -0.289 OA
ATOM     21  C   UNL     1      26.445  34.985  13.084  1.00  0.00     0.069 C 
ATOM     22  C   UNL     1      25.252  34.198  13.679  1.00  0.00     0.026 C 
ATOM     23  C   UNL     1      27.103  32.998  11.638  1.00  0.00     0.013 C 
ATOM     24  C   UNL     1      31.272  35.920  13.848  1.00  0.00     0.014 C 
ENDROOT
BRANCH  11  25
ATOM     25  O   UNL     1      31.331  34.471  16.125  1.00  0.00    -0.393 OA
ATOM     26  H   UNL     1      30.376  34.240  15.976  1.00  0.00     0.210 HD
ENDBRANCH  11  25
BRANCH  16  27
ATOM     27  O   UNL     1      27.038  38.361  14.557  1.00  0.00    -0.504 OA
ATOM     28  H   UNL     1      27.990  38.700  14.597  1.00  0.00     0.293 HD
ENDBRANCH  16  27
TORSDOF 2
ENDMDL
MODEL 8
REMARK VINA RESULT:    -5.510     13.814     16.522
REMARK INTER + INTRA:          -5.832
REMARK INTER:                  -5.832
REMARK INTRA:                   0.000
REMARK UNBOUND:                 0.000
REMARK SMILES CC1(C)[C@@H](O)CC[C@@]2(C)[C@H]3C=CC4=C(O)C(=O)C(=O)[C@@]4(C)[C@@]3(C)CC[C@@H]12
REMARK SMILES IDX 1 1 2 2 26 3 25 4 24 5 22 6 10 7 8 8 7 9 6 10 4 11 9 12
REMARK SMILES IDX 11 13 12 14 13 15 14 16 16 17 17 18 18 19 19 20 20 21 21 22
REMARK SMILES IDX 23 23 3 24 5 25 15 27
REMARK H PARENT 5 26 15 28
REMARK Flexibility Score: inf
ROOT
ATOM      1  C   UNL     1      38.379  40.128   8.581  1.00  0.00     0.014 C 
ATOM      2  C   UNL     1      39.105  41.130   7.633  1.00  0.00    -0.006 C 
ATOM      3  C   UNL     1      39.849  42.220   8.539  1.00  0.00     0.004 C 
ATOM      4  C   UNL     1      38.926  43.321   9.138  1.00  0.00     0.005 C 
ATOM      5  C   UNL     1      38.764  44.583   8.276  1.00  0.00     0.009 C 
ATOM      6  C   UNL     1      40.099  45.242   7.803  1.00  0.00    -0.009 C 
ATOM      7  C   UNL     1      41.034  44.115   7.145  1.00  0.00     0.025 C 
ATOM      8  C   UNL     1      41.237  42.800   8.041  1.00  0.00    -0.022 C 
ATOM      9  C   UNL     1      42.121  41.699   7.318  1.00  0.00     0.010 C 
ATOM     10  C   UNL     1      41.518  40.294   7.348  1.00  0.00     0.033 C 
ATOM     11  C   UNL     1      40.108  40.292   6.756  1.00  0.00     0.120 C 
ATOM     12  C   UNL     1      42.085  43.156   9.310  1.00  0.00     0.012 C 
ATOM     13  C   UNL     1      40.627  43.794   5.691  1.00  0.00    -0.022 C 
ATOM     14  C   UNL     1      39.806  44.535   4.944  1.00  0.00     0.005 C 
ATOM     15  C   UNL     1      39.193  45.728   5.501  1.00  0.00     0.012 C 
ATOM     16  C   UNL     1      38.011  46.236   5.139  1.00  0.00     0.171 C 
ATOM     17  C   UNL     1      37.620  47.252   6.083  1.00  0.00     0.264 C 
ATOM     18  O   UNL     1      36.560  47.931   6.051  1.00  0.00    -0.282 OA
ATOM     19  C   UNL     1      38.655  47.326   7.090  1.00  0.00     0.217 C 
ATOM     20  O   UNL     1      38.637  48.119   8.069  1.00  0.00    -0.289 OA
ATOM     21  C   UNL     1      39.778  46.374   6.729  1.00  0.00     0.069 C 
ATOM     22  C   UNL     1      41.017  47.199   6.302  1.00  0.00     0.026 C 
ATOM     23  C   UNL     1      40.792  45.939   9.021  1.00  0.00     0.013 C 
ATOM     24  C   UNL     1      37.995  41.728   6.728  1.00  0.00     0.014 C 
ENDROOT
BRANCH  11  25
ATOM     25  O   UNL     1      40.151  40.756   5.428  1.00  0.00    -0.393 OA
ATOM     26  H   UNL     1      40.756  40.151   4.923  1.00  0.00     0.210 HD
ENDBRANCH  11  25
BRANCH  16  27
ATOM     27  O   UNL     1      37.224  45.816   4.067  1.00  0.00    -0.504 OA
ATOM     28  H   UNL     1      37.277  46.251   3.156  1.00  0.00     0.293 HD
ENDBRANCH  16  27
TORSDOF 2
ENDMDL
MODEL 9
REMARK VINA RESULT:    -5.432     13.725     16.915
REMARK INTER + INTRA:          -5.749
REMARK INTER:                  -5.749
REMARK INTRA:                   0.000
REMARK UNBOUND:                 0.000
REMARK SMILES CC1(C)[C@@H](O)CC[C@@]2(C)[C@H]3C=CC4=C(O)C(=O)C(=O)[C@@]4(C)[C@@]3(C)CC[C@@H]12
REMARK SMILES IDX 1 1 2 2 26 3 25 4 24 5 22 6 10 7 8 8 7 9 6 10 4 11 9 12
REMARK SMILES IDX 11 13 12 14 13 15 14 16 16 17 17 18 18 19 19 20 20 21 21 22
REMARK SMILES IDX 23 23 3 24 5 25 15 27
REMARK H PARENT 5 26 15 28
REMARK Flexibility Score: inf
ROOT
ATOM      1  C   UNL     1      41.761  47.943   6.222  1.00  0.00     0.014 C 
ATOM      2  C   UNL     1      40.666  46.834   6.226  1.00  0.00    -0.006 C 
ATOM      3  C   UNL     1      40.460  46.344   7.735  1.00  0.00     0.004 C 
ATOM      4  C   UNL     1      41.560  45.382   8.273  1.00  0.00     0.005 C 
ATOM      5  C   UNL     1      41.282  43.885   8.063  1.00  0.00     0.009 C 
ATOM      6  C   UNL     1      39.887  43.390   8.562  1.00  0.00    -0.009 C 
ATOM      7  C   UNL     1      38.748  44.357   7.974  1.00  0.00     0.025 C 
ATOM      8  C   UNL     1      39.006  45.922   8.205  1.00  0.00    -0.022 C 
ATOM      9  C   UNL     1      37.881  46.830   7.553  1.00  0.00     0.010 C 
ATOM     10  C   UNL     1      38.419  47.984   6.708  1.00  0.00     0.033 C 
ATOM     11  C   UNL     1      39.361  47.471   5.618  1.00  0.00     0.120 C 
ATOM     12  C   UNL     1      38.886  46.254   9.732  1.00  0.00     0.012 C 
ATOM     13  C   UNL     1      38.394  44.016   6.510  1.00  0.00    -0.022 C 
ATOM     14  C   UNL     1      38.746  42.896   5.877  1.00  0.00     0.005 C 
ATOM     15  C   UNL     1      39.555  41.899   6.557  1.00  0.00     0.012 C 
ATOM     16  C   UNL     1      40.410  41.058   5.968  1.00  0.00     0.171 C 
ATOM     17  C   UNL     1      41.214  40.413   6.975  1.00  0.00     0.264 C 
ATOM     18  O   UNL     1      42.125  39.567   6.773  1.00  0.00    -0.282 OA
ATOM     19  C   UNL     1      40.803  40.940   8.257  1.00  0.00     0.217 C 
ATOM     20  O   UNL     1      41.297  40.587   9.361  1.00  0.00    -0.289 OA
ATOM     21  C   UNL     1      39.645  41.899   8.060  1.00  0.00     0.069 C 
ATOM     22  C   UNL     1      38.356  41.251   8.624  1.00  0.00     0.026 C 
ATOM     23  C   UNL     1      39.878  43.362  10.127  1.00  0.00     0.013 C 
ATOM     24  C   UNL     1      41.194  45.723   5.279  1.00  0.00     0.014 C 
ENDROOT
BRANCH  11  25
ATOM     25  O   UNL     1      38.676  46.562   4.790  1.00  0.00    -0.393 OA
ATOM     26  H   UNL     1      37.885  47.038   4.421  1.00  0.00     0.210 HD
ENDBRANCH  11  25
BRANCH  16  27
ATOM     27  O   UNL     1      40.574  40.872   4.596  1.00  0.00    -0.504 OA
ATOM     28  H   UNL     1      41.469  40.641   4.185  1.00  0.00     0.293 HD
ENDBRANCH  16  27
TORSDOF 2
ENDMDL
