MODEL 1
REMARK VINA RESULT:    17.017      0.000      0.000
REMARK INTER + INTRA:          31.943
REMARK INTER:                  31.939
REMARK INTRA:                   0.004
REMARK UNBOUND:                 0.004
REMARK SMILES O=C([O-])CCCCCCCCCCCCCCC(=O)[O-]
REMARK SMILES IDX 10 1 9 2 8 3 7 4 6 5 5 6 4 7 2 8 1 9 3 10 11 11 12 12 13 13
REMARK SMILES IDX 14 14 15 15 16 16 17 17 18 18 19 19 20 20
REMARK H PARENT
REMARK Flexibility Score: inf
ROOT
ATOM      1  C   UNL     1     -17.961  -7.426 -28.653  1.00  0.00     0.000 C 
ENDROOT
BRANCH   1   2
ATOM      2  C   UNL     1     -18.977  -7.195 -27.521  1.00  0.00     0.000 C 
BRANCH   2   3
ATOM      3  C   UNL     1     -18.393  -6.388 -26.346  1.00  0.00     0.000 C 
BRANCH   3   4
ATOM      4  C   UNL     1     -16.860  -6.435 -26.212  1.00  0.00     0.000 C 
BRANCH   4   5
ATOM      5  C   UNL     1     -16.354  -5.844 -24.888  1.00  0.00     0.000 C 
BRANCH   5   6
ATOM      6  C   UNL     1     -16.792  -6.710 -23.697  1.00  0.00     0.006 C 
BRANCH   6   7
ATOM      7  C   UNL     1     -16.311  -6.139 -22.356  1.00  0.00     0.053 C 
BRANCH   7   8
ATOM      8  C   UNL     1     -17.455  -5.810 -21.449  1.00  0.00     0.041 C 
ATOM      9  O   UNL     1     -17.241  -5.483 -20.252  1.00  0.00    -0.550 OA
ATOM     10  O   UNL     1     -18.761  -5.899 -21.914  1.00  0.00    -0.550 OA
ENDBRANCH   7   8
ENDBRANCH   6   7
ENDBRANCH   5   6
ENDBRANCH   4   5
ENDBRANCH   3   4
ENDBRANCH   2   3
ENDBRANCH   1   2
BRANCH   1  11
ATOM     11  C   UNL     1     -18.335  -8.609 -29.565  1.00  0.00     0.000 C 
BRANCH  11  12
ATOM     12  C   UNL     1     -17.454  -8.785 -30.816  1.00  0.00     0.000 C 
BRANCH  12  13
ATOM     13  C   UNL     1     -17.486 -10.217 -31.378  1.00  0.00     0.000 C 
BRANCH  13  14
ATOM     14  C   UNL     1     -18.312 -11.183 -30.510  1.00  0.00     0.000 C 
BRANCH  14  15
ATOM     15  C   UNL     1     -17.518 -11.943 -29.427  1.00  0.00     0.000 C 
BRANCH  15  16
ATOM     16  C   UNL     1     -16.180 -11.298 -29.026  1.00  0.00     0.006 C 
BRANCH  16  17
ATOM     17  C   UNL     1     -15.120 -11.393 -30.130  1.00  0.00     0.053 C 
BRANCH  17  18
ATOM     18  C   UNL     1     -13.992 -10.449 -29.856  1.00  0.00     0.041 C 
ATOM     19  O   UNL     1     -13.089 -10.274 -30.715  1.00  0.00    -0.550 OA
ATOM     20  O   UNL     1     -13.910  -9.802 -28.630  1.00  0.00    -0.550 OA
ENDBRANCH  17  18
ENDBRANCH  16  17
ENDBRANCH  15  16
ENDBRANCH  14  15
ENDBRANCH  13  14
ENDBRANCH  12  13
ENDBRANCH  11  12
ENDBRANCH   1  11
TORSDOF 15
ENDMDL
MODEL 2
REMARK VINA RESULT:    17.379      0.706      7.981
REMARK INTER + INTRA:          32.622
REMARK INTER:                  32.820
REMARK INTRA:                  -0.198
REMARK UNBOUND:                 0.004
REMARK SMILES O=C([O-])CCCCCCCCCCCCCCC(=O)[O-]
REMARK SMILES IDX 10 1 9 2 8 3 7 4 6 5 5 6 4 7 2 8 1 9 3 10 11 11 12 12 13 13
REMARK SMILES IDX 14 14 15 15 16 16 17 17 18 18 19 19 20 20
REMARK H PARENT
REMARK Flexibility Score: inf
ROOT
ATOM      1  C   UNL     1     -18.279  -8.139 -29.274  1.00  0.00     0.000 C 
ENDROOT
BRANCH   1   2
ATOM      2  C   UNL     1     -18.837  -9.366 -30.015  1.00  0.00     0.000 C 
BRANCH   2   3
ATOM      3  C   UNL     1     -17.950  -9.812 -31.192  1.00  0.00     0.000 C 
BRANCH   3   4
ATOM      4  C   UNL     1     -17.498 -11.284 -31.155  1.00  0.00     0.000 C 
BRANCH   4   5
ATOM      5  C   UNL     1     -17.535 -11.888 -29.744  1.00  0.00     0.000 C 
BRANCH   5   6
ATOM      6  C   UNL     1     -16.220 -11.618 -28.996  1.00  0.00     0.006 C 
BRANCH   6   7
ATOM      7  C   UNL     1     -15.626 -10.246 -29.342  1.00  0.00     0.053 C 
BRANCH   7   8
ATOM      8  C   UNL     1     -14.163 -10.334 -29.646  1.00  0.00     0.041 C 
ATOM      9  O   UNL     1     -13.319  -9.845 -28.848  1.00  0.00    -0.550 OA
ATOM     10  O   UNL     1     -13.731 -10.923 -30.827  1.00  0.00    -0.550 OA
ENDBRANCH   7   8
ENDBRANCH   6   7
ENDBRANCH   5   6
ENDBRANCH   4   5
ENDBRANCH   3   4
ENDBRANCH   2   3
ENDBRANCH   1   2
BRANCH   1  11
ATOM     11  C   UNL     1     -19.140  -7.721 -28.068  1.00  0.00     0.000 C 
BRANCH  11  12
ATOM     12  C   UNL     1     -18.728  -6.404 -27.384  1.00  0.00     0.000 C 
BRANCH  12  13
ATOM     13  C   UNL     1     -18.028  -6.620 -26.032  1.00  0.00     0.000 C 
BRANCH  13  14
ATOM     14  C   UNL     1     -16.619  -6.002 -25.980  1.00  0.00     0.000 C 
BRANCH  14  15
ATOM     15  C   UNL     1     -15.950  -5.994 -24.590  1.00  0.00     0.000 C 
BRANCH  15  16
ATOM     16  C   UNL     1     -16.716  -6.755 -23.492  1.00  0.00     0.006 C 
BRANCH  16  17
ATOM     17  C   UNL     1     -16.350  -6.287 -22.079  1.00  0.00     0.053 C 
BRANCH  17  18
ATOM     18  C   UNL     1     -17.532  -5.656 -21.413  1.00  0.00     0.041 C 
ATOM     19  O   UNL     1     -18.600  -5.479 -22.055  1.00  0.00    -0.550 OA
ATOM     20  O   UNL     1     -17.438  -5.217 -20.099  1.00  0.00    -0.550 OA
ENDBRANCH  17  18
ENDBRANCH  16  17
ENDBRANCH  15  16
ENDBRANCH  14  15
ENDBRANCH  13  14
ENDBRANCH  12  13
ENDBRANCH  11  12
ENDBRANCH   1  11
TORSDOF 15
ENDMDL
