MODEL 1
REMARK VINA RESULT:    -3.934      0.000      0.000
REMARK INTER + INTRA:          -4.096
REMARK INTER:                  -4.854
REMARK INTRA:                   0.758
REMARK UNBOUND:                 0.758
REMARK SMILES CC1=CC=CC(C)(C)CC1=O
REMARK SMILES IDX 1 1 2 2 3 3 10 4 11 5 9 6 4 8 5 9 6 10 7 11 8 12
REMARK H PARENT
REMARK Flexibility Score: 80.00
ROOT
ATOM      1  C   UNL     1      16.112  19.021  24.339  1.00  0.00     0.048 C 
ATOM      2  C   UNL     1      15.387  18.271  25.431  1.00  0.00    -0.008 C 
ATOM      3  C   UNL     1      15.837  18.416  26.696  1.00  0.00     0.007 C 
ENDROOT
BRANCH   2   4
ATOM      4  C   UNL     1      14.281  17.373  25.015  1.00  0.00     0.159 C 
ATOM      5  O   UNL     1      14.123  17.132  23.786  1.00  0.00    -0.295 OA
BRANCH   4   6
ATOM      6  C   UNL     1      13.323  16.740  25.976  1.00  0.00     0.091 CG0
ATOM      7  G   UNL     1      14.017  15.841  27.025  1.00  0.00     0.000 G0
ENDBRANCH   4   6
ENDBRANCH   2   4
BRANCH   3   8
ATOM      8  C   UNL     1      15.357  17.798  27.954  1.00  0.00    -0.003 C 
ATOM      9  C   UNL     1      14.596  16.709  28.123  1.00  0.00    -0.020 C 
BRANCH   9  10
ATOM     10  C   UNL     1      14.009  15.846  27.031  1.00  0.00    -0.010 CG0
ATOM     11  C   UNL     1      15.106  14.939  26.428  1.00  0.00     0.016 C 
ATOM     12  C   UNL     1      12.929  14.936  27.660  1.00  0.00     0.016 C 
ATOM     13  G   UNL     1      13.326  16.740  25.971  1.00  0.00     0.000 G0
ENDBRANCH   9  10
ENDBRANCH   3   8
TORSDOF 0
ENDMDL
MODEL 2
REMARK VINA RESULT:    -3.682      1.625      2.554
REMARK INTER + INTRA:          -3.785
REMARK INTER:                  -4.818
REMARK INTRA:                   1.032
REMARK UNBOUND:                 0.758
REMARK SMILES CC1=CC=CC(C)(C)CC1=O
REMARK SMILES IDX 1 1 2 2 3 3 10 4 11 5 9 6 4 8 5 9 6 10 7 11 8 12
REMARK H PARENT
REMARK Flexibility Score: 80.00
ROOT
ATOM      1  C   UNL     1      16.170  18.695  25.487  1.00  0.00     0.048 C 
ATOM      2  C   UNL     1      15.069  17.719  25.827  1.00  0.00    -0.008 C 
ATOM      3  C   UNL     1      14.286  17.283  24.816  1.00  0.00     0.007 C 
ENDROOT
BRANCH   2   4
ATOM      4  C   UNL     1      14.888  17.374  27.259  1.00  0.00     0.159 C 
ATOM      5  O   UNL     1      15.806  17.665  28.075  1.00  0.00    -0.295 OA
BRANCH   4   6
ATOM      6  C   UNL     1      13.675  16.680  27.796  1.00  0.00     0.091 CG0
ATOM      7  G   UNL     1      13.428  15.298  27.150  1.00  0.00     0.000 G0
ENDBRANCH   4   6
ENDBRANCH   2   4
BRANCH   3   8
ATOM      8  C   UNL     1      13.128  16.358  24.840  1.00  0.00    -0.003 C 
ATOM      9  C   UNL     1      12.732  15.526  25.812  1.00  0.00    -0.020 C 
BRANCH   9  10
ATOM     10  C   UNL     1      13.415  15.310  27.142  1.00  0.00    -0.010 CG0
ATOM     11  C   UNL     1      12.559  14.379  28.031  1.00  0.00     0.016 C 
ATOM     12  C   UNL     1      14.769  14.609  26.883  1.00  0.00     0.016 C 
ATOM     13  G   UNL     1      13.700  16.674  27.809  1.00  0.00     0.000 G0
ENDBRANCH   9  10
ENDBRANCH   3   8
TORSDOF 0
ENDMDL
MODEL 3
REMARK VINA RESULT:    -3.525      2.120      2.804
REMARK INTER + INTRA:          -3.591
REMARK INTER:                  -4.343
REMARK INTRA:                   0.752
REMARK UNBOUND:                 0.758
REMARK SMILES CC1=CC=CC(C)(C)CC1=O
REMARK SMILES IDX 1 1 2 2 3 3 10 4 11 5 9 6 4 8 5 9 6 10 7 11 8 12
REMARK H PARENT
REMARK Flexibility Score: 80.00
ROOT
ATOM      1  C   UNL     1      15.905  18.131  27.753  1.00  0.00     0.048 C 
ATOM      2  C   UNL     1      14.977  16.939  27.753  1.00  0.00    -0.008 C 
ATOM      3  C   UNL     1      15.533  15.713  27.645  1.00  0.00     0.007 C 
ENDROOT
BRANCH   2   4
ATOM      4  C   UNL     1      13.520  17.217  27.797  1.00  0.00     0.159 C 
ATOM      5  O   UNL     1      13.120  18.398  27.604  1.00  0.00    -0.295 OA
BRANCH   4   6
ATOM      6  C   UNL     1      12.486  16.170  28.076  1.00  0.00     0.091 CG0
ATOM      7  G   UNL     1      12.481  15.029  27.034  1.00  0.00     0.000 G0
ENDBRANCH   4   6
ENDBRANCH   2   4
BRANCH   3   8
ATOM      8  C   UNL     1      14.890  14.379  27.590  1.00  0.00    -0.003 C 
ATOM      9  C   UNL     1      13.618  14.065  27.314  1.00  0.00    -0.020 C 
BRANCH   9  10
ATOM     10  C   UNL     1      12.500  15.035  27.012  1.00  0.00    -0.010 CG0
ATOM     11  C   UNL     1      12.635  15.563  25.566  1.00  0.00     0.016 C 
ATOM     12  C   UNL     1      11.157  14.275  27.118  1.00  0.00     0.016 C 
ATOM     13  G   UNL     1      12.495  16.168  28.063  1.00  0.00     0.000 G0
ENDBRANCH   9  10
ENDBRANCH   3   8
TORSDOF 0
ENDMDL
MODEL 4
REMARK VINA RESULT:    -3.460      1.465      3.583
REMARK INTER + INTRA:          -3.511
REMARK INTER:                  -4.286
REMARK INTRA:                   0.775
REMARK UNBOUND:                 0.758
REMARK SMILES CC1=CC=CC(C)(C)CC1=O
REMARK SMILES IDX 1 1 2 2 3 3 10 4 11 5 9 6 4 8 5 9 6 10 7 11 8 12
REMARK H PARENT
REMARK Flexibility Score: 80.00
ROOT
ATOM      1  C   UNL     1      11.137  14.064  26.644  1.00  0.00     0.048 C 
ATOM      2  C   UNL     1      12.394  14.888  26.502  1.00  0.00    -0.008 C 
ATOM      3  C   UNL     1      13.218  14.962  27.570  1.00  0.00     0.007 C 
ENDROOT
BRANCH   2   4
ATOM      4  C   UNL     1      12.586  15.614  25.222  1.00  0.00     0.159 C 
ATOM      5  O   UNL     1      11.619  15.689  24.414  1.00  0.00    -0.295 OA
BRANCH   4   6
ATOM      6  C   UNL     1      13.878  16.257  24.821  1.00  0.00     0.091 CG0
ATOM      7  G   UNL     1      14.338  17.359  25.800  1.00  0.00     0.000 G0
ENDBRANCH   4   6
ENDBRANCH   2   4
BRANCH   3   8
ATOM      8  C   UNL     1      14.491  15.701  27.740  1.00  0.00    -0.003 C 
ATOM      9  C   UNL     1      14.978  16.721  27.021  1.00  0.00    -0.020 C 
BRANCH   9  10
ATOM     10  C   UNL     1      14.332  17.354  25.810  1.00  0.00    -0.010 CG0
ATOM     11  C   UNL     1      13.163  18.265  26.251  1.00  0.00     0.016 C 
ATOM     12  C   UNL     1      15.387  18.239  25.106  1.00  0.00     0.016 C 
ATOM     13  G   UNL     1      13.890  16.253  24.820  1.00  0.00     0.000 G0
ENDBRANCH   9  10
ENDBRANCH   3   8
TORSDOF 0
ENDMDL
MODEL 5
REMARK VINA RESULT:    -3.435      1.971      3.527
REMARK INTER + INTRA:          -3.480
REMARK INTER:                  -4.249
REMARK INTRA:                   0.769
REMARK UNBOUND:                 0.758
REMARK SMILES CC1=CC=CC(C)(C)CC1=O
REMARK SMILES IDX 1 1 2 2 3 3 10 4 11 5 9 6 4 8 5 9 6 10 7 11 8 12
REMARK H PARENT
REMARK Flexibility Score: 80.00
ROOT
ATOM      1  C   UNL     1      11.153  14.716  25.522  1.00  0.00     0.048 C 
ATOM      2  C   UNL     1      12.282  15.679  25.801  1.00  0.00    -0.008 C 
ATOM      3  C   UNL     1      13.039  16.076  24.755  1.00  0.00     0.007 C 
ENDROOT
BRANCH   2   4
ATOM      4  C   UNL     1      12.516  16.055  27.218  1.00  0.00     0.159 C 
ATOM      5  O   UNL     1      11.911  15.419  28.124  1.00  0.00    -0.295 OA
BRANCH   4   6
ATOM      6  C   UNL     1      13.427  17.166  27.639  1.00  0.00     0.091 CG0
ATOM      7  G   UNL     1      14.887  16.967  27.171  1.00  0.00     0.000 G0
ENDBRANCH   4   6
ENDBRANCH   2   4
BRANCH   3   8
ATOM      8  C   UNL     1      14.214  16.979  24.719  1.00  0.00    -0.003 C 
ATOM      9  C   UNL     1      15.015  17.362  25.721  1.00  0.00    -0.020 C 
BRANCH   9  10
ATOM     10  C   UNL     1      14.885  16.971  27.174  1.00  0.00    -0.010 CG0
ATOM     11  C   UNL     1      15.381  15.521  27.377  1.00  0.00     0.016 C 
ATOM     12  C   UNL     1      15.789  17.905  28.010  1.00  0.00     0.016 C 
ATOM     13  G   UNL     1      13.425  17.171  27.639  1.00  0.00     0.000 G0
ENDBRANCH   9  10
ENDBRANCH   3   8
TORSDOF 0
ENDMDL
MODEL 6
REMARK VINA RESULT:    -3.120      1.954      3.888
REMARK INTER + INTRA:          -3.092
REMARK INTER:                  -3.831
REMARK INTRA:                   0.739
REMARK UNBOUND:                 0.758
REMARK SMILES CC1=CC=CC(C)(C)CC1=O
REMARK SMILES IDX 1 1 2 2 3 3 10 4 11 5 9 6 4 8 5 9 6 10 7 11 8 12
REMARK H PARENT
REMARK Flexibility Score: 80.00
ROOT
ATOM      1  C   UNL     1      13.623  13.157  28.022  1.00  0.00     0.048 C 
ATOM      2  C   UNL     1      13.878  14.642  27.921  1.00  0.00    -0.008 C 
ATOM      3  C   UNL     1      12.818  15.469  28.056  1.00  0.00     0.007 C 
ENDROOT
BRANCH   2   4
ATOM      4  C   UNL     1      15.263  15.071  27.607  1.00  0.00     0.159 C 
ATOM      5  O   UNL     1      16.103  14.200  27.248  1.00  0.00    -0.295 OA
BRANCH   4   6
ATOM      6  C   UNL     1      15.732  16.490  27.705  1.00  0.00     0.091 CG0
ATOM      7  G   UNL     1      14.938  17.458  26.799  1.00  0.00     0.000 G0
ENDBRANCH   4   6
ENDBRANCH   2   4
BRANCH   3   8
ATOM      8  C   UNL     1      12.749  16.948  27.980  1.00  0.00    -0.003 C 
ATOM      9  C   UNL     1      13.626  17.808  27.446  1.00  0.00    -0.020 C 
BRANCH   9  10
ATOM     10  C   UNL     1      14.946  17.457  26.799  1.00  0.00    -0.010 CG0
ATOM     11  C   UNL     1      14.706  16.909  25.374  1.00  0.00     0.016 C 
ATOM     12  C   UNL     1      15.784  18.751  26.678  1.00  0.00     0.016 C 
ATOM     13  G   UNL     1      15.719  16.466  27.697  1.00  0.00     0.000 G0
ENDBRANCH   9  10
ENDBRANCH   3   8
TORSDOF 0
ENDMDL
MODEL 7
REMARK VINA RESULT:    -2.875      1.394      2.099
REMARK INTER + INTRA:          -2.790
REMARK INTER:                  -3.835
REMARK INTRA:                   1.044
REMARK UNBOUND:                 0.758
REMARK SMILES CC1=CC=CC(C)(C)CC1=O
REMARK SMILES IDX 1 1 2 2 3 3 10 4 11 5 9 6 4 8 5 9 6 10 7 11 8 12
REMARK H PARENT
REMARK Flexibility Score: 80.00
ROOT
ATOM      1  C   UNL     1      16.355  18.502  27.069  1.00  0.00     0.048 C 
ATOM      2  C   UNL     1      15.500  17.281  26.826  1.00  0.00    -0.008 C 
ATOM      3  C   UNL     1      15.543  16.294  27.746  1.00  0.00     0.007 C 
ENDROOT
BRANCH   2   4
ATOM      4  C   UNL     1      14.737  17.233  25.554  1.00  0.00     0.159 C 
ATOM      5  O   UNL     1      14.638  18.285  24.864  1.00  0.00    -0.295 OA
BRANCH   4   6
ATOM      6  C   UNL     1      14.057  16.000  25.044  1.00  0.00     0.091 CG0
ATOM      7  G   UNL     1      13.043  15.405  26.046  1.00  0.00     0.000 G0
ENDBRANCH   4   6
ENDBRANCH   2   4
BRANCH   3   8
ATOM      8  C   UNL     1      14.848  14.985  27.770  1.00  0.00    -0.003 C 
ATOM      9  C   UNL     1      13.798  14.573  27.049  1.00  0.00    -0.020 C 
BRANCH   9  10
ATOM     10  C   UNL     1      13.035  15.386  26.029  1.00  0.00    -0.010 CG0
ATOM     11  C   UNL     1      11.969  14.504  25.341  1.00  0.00     0.016 C 
ATOM     12  C   UNL     1      12.303  16.528  26.770  1.00  0.00     0.016 C 
ATOM     13  G   UNL     1      14.023  16.020  25.025  1.00  0.00     0.000 G0
ENDBRANCH   9  10
ENDBRANCH   3   8
TORSDOF 0
ENDMDL
MODEL 8
REMARK VINA RESULT:    -2.649      1.619      2.110
REMARK INTER + INTRA:          -2.511
REMARK INTER:                  -3.286
REMARK INTRA:                   0.775
REMARK UNBOUND:                 0.758
REMARK SMILES CC1=CC=CC(C)(C)CC1=O
REMARK SMILES IDX 1 1 2 2 3 3 10 4 11 5 9 6 4 8 5 9 6 10 7 11 8 12
REMARK H PARENT
REMARK Flexibility Score: 80.00
ROOT
ATOM      1  C   UNL     1      14.706  18.184  25.147  1.00  0.00     0.048 C 
ATOM      2  C   UNL     1      13.822  17.201  25.877  1.00  0.00    -0.008 C 
ATOM      3  C   UNL     1      13.268  17.602  27.042  1.00  0.00     0.007 C 
ENDROOT
BRANCH   2   4
ATOM      4  C   UNL     1      13.694  15.843  25.292  1.00  0.00     0.159 C 
ATOM      5  O   UNL     1      14.414  15.536  24.303  1.00  0.00    -0.295 OA
BRANCH   4   6
ATOM      6  C   UNL     1      12.740  14.809  25.804  1.00  0.00     0.091 CG0
ATOM      7  G   UNL     1      12.910  14.516  27.312  1.00  0.00     0.000 G0
ENDBRANCH   4   6
ENDBRANCH   2   4
BRANCH   3   8
ATOM      8  C   UNL     1      12.393  16.865  27.983  1.00  0.00    -0.003 C 
ATOM      9  C   UNL     1      12.228  15.544  28.125  1.00  0.00    -0.020 C 
BRANCH   9  10
ATOM     10  C   UNL     1      12.901  14.464  27.310  1.00  0.00    -0.010 CG0
ATOM     11  C   UNL     1      14.379  14.320  27.742  1.00  0.00     0.016 C 
ATOM     12  C   UNL     1      12.187  13.123  27.600  1.00  0.00     0.016 C 
ATOM     13  G   UNL     1      12.748  14.775  25.805  1.00  0.00     0.000 G0
ENDBRANCH   9  10
ENDBRANCH   3   8
TORSDOF 0
ENDMDL
MODEL 9
REMARK VINA RESULT:    -2.161      1.991      3.968
REMARK INTER + INTRA:          -1.909
REMARK INTER:                  -2.649
REMARK INTRA:                   0.740
REMARK UNBOUND:                 0.758
REMARK SMILES CC1=CC=CC(C)(C)CC1=O
REMARK SMILES IDX 1 1 2 2 3 3 10 4 11 5 9 6 4 8 5 9 6 10 7 11 8 12
REMARK H PARENT
REMARK Flexibility Score: 80.00
ROOT
ATOM      1  C   UNL     1      14.385  13.173  27.751  1.00  0.00     0.048 C 
ATOM      2  C   UNL     1      13.755  14.388  27.111  1.00  0.00    -0.008 C 
ATOM      3  C   UNL     1      12.775  14.181  26.205  1.00  0.00     0.007 C 
ENDROOT
BRANCH   2   4
ATOM      4  C   UNL     1      14.318  15.712  27.476  1.00  0.00     0.159 C 
ATOM      5  O   UNL     1      15.400  15.756  28.124  1.00  0.00    -0.295 OA
BRANCH   4   6
ATOM      6  C   UNL     1      13.662  17.013  27.129  1.00  0.00     0.091 CG0
ATOM      7  G   UNL     1      13.499  17.225  25.607  1.00  0.00     0.000 G0
ENDBRANCH   4   6
ENDBRANCH   2   4
BRANCH   3   8
ATOM      8  C   UNL     1      11.999  15.157  25.404  1.00  0.00    -0.003 C 
ATOM      9  C   UNL     1      12.282  16.436  25.125  1.00  0.00    -0.020 C 
BRANCH   9  10
ATOM     10  C   UNL     1      13.485  17.213  25.604  1.00  0.00    -0.010 CG0
ATOM     11  C   UNL     1      14.732  16.815  24.782  1.00  0.00     0.016 C 
ATOM     12  C   UNL     1      13.217  18.717  25.365  1.00  0.00     0.016 C 
ATOM     13  G   UNL     1      13.677  16.995  27.122  1.00  0.00     0.000 G0
ENDBRANCH   9  10
ENDBRANCH   3   8
TORSDOF 0
ENDMDL
