MODEL 1
REMARK VINA RESULT:    -5.026      0.000      0.000
REMARK INTER + INTRA:          -5.026
REMARK INTER:                  -5.026
REMARK INTRA:                   0.000
REMARK UNBOUND:                 0.000
REMARK SMILES O=c1ccc2ccccc2o1
REMARK SMILES IDX 7 1 8 2 9 3 10 4 5 5 6 6 4 7 3 8 2 9 1 10 11 11
REMARK H PARENT
REMARK Flexibility Score: inf
ROOT
ATOM      1  C   UNL     1       6.844  -9.691 -45.791  1.00  0.00     0.001 A 
ATOM      2  C   UNL     1       6.417  -8.509 -46.405  1.00  0.00     0.004 A 
ATOM      3  C   UNL     1       5.055  -8.198 -46.465  1.00  0.00     0.048 A 
ATOM      4  C   UNL     1       4.112  -9.071 -45.909  1.00  0.00     0.138 A 
ATOM      5  C   UNL     1       4.543 -10.265 -45.288  1.00  0.00     0.018 A 
ATOM      6  C   UNL     1       5.911 -10.570 -45.232  1.00  0.00     0.012 A 
ATOM      7  C   UNL     1       3.579 -11.117 -44.741  1.00  0.00     0.019 A 
ATOM      8  C   UNL     1       2.232 -10.768 -44.824  1.00  0.00     0.094 A 
ATOM      9  C   UNL     1       1.879  -9.568 -45.453  1.00  0.00     0.336 A 
ATOM     10  O   UNL     1       0.668  -9.235 -45.537  1.00  0.00    -0.246 OA
ATOM     11  O   UNL     1       2.816  -8.775 -45.965  1.00  0.00    -0.423 OA
ENDROOT
TORSDOF 0
ENDMDL
MODEL 2
REMARK VINA RESULT:    -4.961      2.813      3.951
REMARK INTER + INTRA:          -4.961
REMARK INTER:                  -4.961
REMARK INTRA:                   0.000
REMARK UNBOUND:                 0.000
REMARK SMILES O=c1ccc2ccccc2o1
REMARK SMILES IDX 7 1 8 2 9 3 10 4 5 5 6 6 4 7 3 8 2 9 1 10 11 11
REMARK H PARENT
REMARK Flexibility Score: inf
ROOT
ATOM      1  C   UNL     1       2.771  -9.892 -46.289  1.00  0.00     0.001 A 
ATOM      2  C   UNL     1       4.163  -9.963 -46.415  1.00  0.00     0.004 A 
ATOM      3  C   UNL     1       4.982  -9.094 -45.686  1.00  0.00     0.048 A 
ATOM      4  C   UNL     1       4.410  -8.150 -44.826  1.00  0.00     0.138 A 
ATOM      5  C   UNL     1       3.005  -8.078 -44.697  1.00  0.00     0.018 A 
ATOM      6  C   UNL     1       2.190  -8.953 -45.431  1.00  0.00     0.012 A 
ATOM      7  C   UNL     1       2.462  -7.125 -43.830  1.00  0.00     0.019 A 
ATOM      8  C   UNL     1       3.316  -6.279 -43.123  1.00  0.00     0.094 A 
ATOM      9  C   UNL     1       4.699  -6.408 -43.300  1.00  0.00     0.336 A 
ATOM     10  O   UNL     1       5.485  -5.654 -42.670  1.00  0.00    -0.246 OA
ATOM     11  O   UNL     1       5.189  -7.323 -44.131  1.00  0.00    -0.423 OA
ENDROOT
TORSDOF 0
ENDMDL
MODEL 3
REMARK VINA RESULT:    -4.885      2.406      3.151
REMARK INTER + INTRA:          -4.885
REMARK INTER:                  -4.885
REMARK INTRA:                   0.000
REMARK UNBOUND:                 0.000
REMARK SMILES O=c1ccc2ccccc2o1
REMARK SMILES IDX 7 1 8 2 9 3 10 4 5 5 6 6 4 7 3 8 2 9 1 10 11 11
REMARK H PARENT
REMARK Flexibility Score: inf
ROOT
ATOM      1  C   UNL     1       6.383  -9.107 -46.400  1.00  0.00     0.001 A 
ATOM      2  C   UNL     1       4.995  -9.095 -46.581  1.00  0.00     0.004 A 
ATOM      3  C   UNL     1       4.165  -9.805 -45.708  1.00  0.00     0.048 A 
ATOM      4  C   UNL     1       4.721 -10.532 -44.648  1.00  0.00     0.138 A 
ATOM      5  C   UNL     1       6.122 -10.544 -44.466  1.00  0.00     0.018 A 
ATOM      6  C   UNL     1       6.948  -9.829 -45.345  1.00  0.00     0.012 A 
ATOM      7  C   UNL     1       6.649 -11.278 -43.398  1.00  0.00     0.019 A 
ATOM      8  C   UNL     1       5.784 -11.971 -42.553  1.00  0.00     0.094 A 
ATOM      9  C   UNL     1       4.407 -11.914 -42.795  1.00  0.00     0.336 A 
ATOM     10  O   UNL     1       3.610 -12.533 -42.042  1.00  0.00    -0.246 OA
ATOM     11  O   UNL     1       3.932 -11.208 -43.817  1.00  0.00    -0.423 OA
ENDROOT
TORSDOF 0
ENDMDL
MODEL 4
REMARK VINA RESULT:    -4.871      1.453      2.268
REMARK INTER + INTRA:          -4.871
REMARK INTER:                  -4.871
REMARK INTRA:                   0.000
REMARK UNBOUND:                 0.000
REMARK SMILES O=c1ccc2ccccc2o1
REMARK SMILES IDX 7 1 8 2 9 3 10 4 5 5 6 6 4 7 3 8 2 9 1 10 11 11
REMARK H PARENT
REMARK Flexibility Score: inf
ROOT
ATOM      1  C   UNL     1       6.316  -8.999 -46.567  1.00  0.00     0.001 A 
ATOM      2  C   UNL     1       6.646  -9.990 -45.636  1.00  0.00     0.004 A 
ATOM      3  C   UNL     1       5.699 -10.424 -44.703  1.00  0.00     0.048 A 
ATOM      4  C   UNL     1       4.415  -9.866 -44.696  1.00  0.00     0.138 A 
ATOM      5  C   UNL     1       4.081  -8.865 -45.635  1.00  0.00     0.018 A 
ATOM      6  C   UNL     1       5.036  -8.435 -46.569  1.00  0.00     0.012 A 
ATOM      7  C   UNL     1       2.791  -8.325 -45.606  1.00  0.00     0.019 A 
ATOM      8  C   UNL     1       1.880  -8.788 -44.657  1.00  0.00     0.094 A 
ATOM      9  C   UNL     1       2.281  -9.783 -43.758  1.00  0.00     0.336 A 
ATOM     10  O   UNL     1       1.471 -10.213 -42.895  1.00  0.00    -0.246 OA
ATOM     11  O   UNL     1       3.514 -10.278 -43.808  1.00  0.00    -0.423 OA
ENDROOT
TORSDOF 0
ENDMDL
MODEL 5
REMARK VINA RESULT:    -4.848      5.895      7.367
REMARK INTER + INTRA:          -4.848
REMARK INTER:                  -4.848
REMARK INTRA:                   0.000
REMARK UNBOUND:                 0.000
REMARK SMILES O=c1ccc2ccccc2o1
REMARK SMILES IDX 7 1 8 2 9 3 10 4 5 5 6 6 4 7 3 8 2 9 1 10 11 11
REMARK H PARENT
REMARK Flexibility Score: inf
ROOT
ATOM      1  C   UNL     1      -1.465  -5.868 -42.354  1.00  0.00     0.001 A 
ATOM      2  C   UNL     1      -1.325  -6.660 -41.209  1.00  0.00     0.004 A 
ATOM      3  C   UNL     1      -0.060  -6.880 -40.654  1.00  0.00     0.048 A 
ATOM      4  C   UNL     1       1.073  -6.307 -41.244  1.00  0.00     0.138 A 
ATOM      5  C   UNL     1       0.932  -5.507 -42.400  1.00  0.00     0.018 A 
ATOM      6  C   UNL     1      -0.340  -5.290 -42.950  1.00  0.00     0.012 A 
ATOM      7  C   UNL     1       2.081  -4.946 -42.968  1.00  0.00     0.019 A 
ATOM      8  C   UNL     1       3.322  -5.192 -42.381  1.00  0.00     0.094 A 
ATOM      9  C   UNL     1       3.385  -5.995 -41.236  1.00  0.00     0.336 A 
ATOM     10  O   UNL     1       4.496  -6.227 -40.693  1.00  0.00    -0.246 OA
ATOM     11  O   UNL     1       2.277  -6.515 -40.717  1.00  0.00    -0.423 OA
ENDROOT
TORSDOF 0
ENDMDL
MODEL 6
REMARK VINA RESULT:    -4.798      3.115      4.516
REMARK INTER + INTRA:          -4.798
REMARK INTER:                  -4.798
REMARK INTRA:                   0.000
REMARK UNBOUND:                 0.000
REMARK SMILES O=c1ccc2ccccc2o1
REMARK SMILES IDX 7 1 8 2 9 3 10 4 5 5 6 6 4 7 3 8 2 9 1 10 11 11
REMARK H PARENT
REMARK Flexibility Score: inf
ROOT
ATOM      1  C   UNL     1       4.544  -9.655 -46.506  1.00  0.00     0.001 A 
ATOM      2  C   UNL     1       5.340  -8.531 -46.750  1.00  0.00     0.004 A 
ATOM      3  C   UNL     1       6.500  -8.312 -46.000  1.00  0.00     0.048 A 
ATOM      4  C   UNL     1       6.869  -9.220 -45.001  1.00  0.00     0.138 A 
ATOM      5  C   UNL     1       6.066 -10.356 -44.754  1.00  0.00     0.018 A 
ATOM      6  C   UNL     1       4.905 -10.569 -45.511  1.00  0.00     0.012 A 
ATOM      7  C   UNL     1       6.460 -11.246 -43.750  1.00  0.00     0.019 A 
ATOM      8  C   UNL     1       7.624 -10.988 -43.027  1.00  0.00     0.094 A 
ATOM      9  C   UNL     1       8.370  -9.842 -43.326  1.00  0.00     0.336 A 
ATOM     10  O   UNL     1       9.424  -9.593 -42.685  1.00  0.00    -0.246 OA
ATOM     11  O   UNL     1       7.973  -9.012 -44.287  1.00  0.00    -0.423 OA
ENDROOT
TORSDOF 0
ENDMDL
MODEL 7
REMARK VINA RESULT:    -4.787      2.535      3.470
REMARK INTER + INTRA:          -4.787
REMARK INTER:                  -4.787
REMARK INTRA:                   0.000
REMARK UNBOUND:                 0.000
REMARK SMILES O=c1ccc2ccccc2o1
REMARK SMILES IDX 7 1 8 2 9 3 10 4 5 5 6 6 4 7 3 8 2 9 1 10 11 11
REMARK H PARENT
REMARK Flexibility Score: inf
ROOT
ATOM      1  C   UNL     1       4.244 -10.225 -46.375  1.00  0.00     0.001 A 
ATOM      2  C   UNL     1       2.859 -10.031 -46.375  1.00  0.00     0.004 A 
ATOM      3  C   UNL     1       2.290  -9.003 -45.614  1.00  0.00     0.048 A 
ATOM      4  C   UNL     1       3.109  -8.165 -44.849  1.00  0.00     0.138 A 
ATOM      5  C   UNL     1       4.508  -8.360 -44.849  1.00  0.00     0.018 A 
ATOM      6  C   UNL     1       5.071  -9.391 -45.614  1.00  0.00     0.012 A 
ATOM      7  C   UNL     1       5.301  -7.506 -44.075  1.00  0.00     0.019 A 
ATOM      8  C   UNL     1       4.692  -6.495 -43.332  1.00  0.00     0.094 A 
ATOM      9  C   UNL     1       3.299  -6.361 -43.381  1.00  0.00     0.336 A 
ATOM     10  O   UNL     1       2.732  -5.454 -42.717  1.00  0.00    -0.246 OA
ATOM     11  O   UNL     1       2.569  -7.187 -44.125  1.00  0.00    -0.423 OA
ENDROOT
TORSDOF 0
ENDMDL
MODEL 8
REMARK VINA RESULT:    -4.776      8.148      9.585
REMARK INTER + INTRA:          -4.776
REMARK INTER:                  -4.776
REMARK INTRA:                   0.000
REMARK UNBOUND:                 0.000
REMARK SMILES O=c1ccc2ccccc2o1
REMARK SMILES IDX 7 1 8 2 9 3 10 4 5 5 6 6 4 7 3 8 2 9 1 10 11 11
REMARK H PARENT
REMARK Flexibility Score: inf
ROOT
ATOM      1  C   UNL     1      -0.667 -14.340 -39.540  1.00  0.00     0.001 A 
ATOM      2  C   UNL     1      -0.847 -14.656 -38.189  1.00  0.00     0.004 A 
ATOM      3  C   UNL     1      -0.547 -13.714 -37.199  1.00  0.00     0.048 A 
ATOM      4  C   UNL     1      -0.064 -12.451 -37.558  1.00  0.00     0.138 A 
ATOM      5  C   UNL     1       0.119 -12.131 -38.922  1.00  0.00     0.018 A 
ATOM      6  C   UNL     1      -0.186 -13.080 -39.909  1.00  0.00     0.012 A 
ATOM      7  C   UNL     1       0.602 -10.861 -39.251  1.00  0.00     0.019 A 
ATOM      8  C   UNL     1       0.889  -9.954 -38.231  1.00  0.00     0.094 A 
ATOM      9  C   UNL     1       0.684 -10.340 -36.902  1.00  0.00     0.336 A 
ATOM     10  O   UNL     1       0.936  -9.535 -35.968  1.00  0.00    -0.246 OA
ATOM     11  O   UNL     1       0.222 -11.554 -36.617  1.00  0.00    -0.423 OA
ENDROOT
TORSDOF 0
ENDMDL
MODEL 9
REMARK VINA RESULT:    -4.707      2.946      3.869
REMARK INTER + INTRA:          -4.707
REMARK INTER:                  -4.707
REMARK INTRA:                   0.000
REMARK UNBOUND:                 0.000
REMARK SMILES O=c1ccc2ccccc2o1
REMARK SMILES IDX 7 1 8 2 9 3 10 4 5 5 6 6 4 7 3 8 2 9 1 10 11 11
REMARK H PARENT
REMARK Flexibility Score: inf
ROOT
ATOM      1  C   UNL     1       4.672  -8.924 -46.373  1.00  0.00     0.001 A 
ATOM      2  C   UNL     1       6.058  -9.045 -46.516  1.00  0.00     0.004 A 
ATOM      3  C   UNL     1       6.790  -9.850 -45.636  1.00  0.00     0.048 A 
ATOM      4  C   UNL     1       6.136 -10.537 -44.607  1.00  0.00     0.138 A 
ATOM      5  C   UNL     1       4.736 -10.414 -44.462  1.00  0.00     0.018 A 
ATOM      6  C   UNL     1       4.009  -9.606 -45.348  1.00  0.00     0.012 A 
ATOM      7  C   UNL     1       4.109 -11.113 -43.425  1.00  0.00     0.019 A 
ATOM      8  C   UNL     1       4.878 -11.902 -42.571  1.00  0.00     0.094 A 
ATOM      9  C   UNL     1       6.261 -11.977 -42.775  1.00  0.00     0.336 A 
ATOM     10  O   UNL     1       6.971 -12.686 -42.015  1.00  0.00    -0.246 OA
ATOM     11  O   UNL     1       6.831 -11.303 -43.770  1.00  0.00    -0.423 OA
ENDROOT
TORSDOF 0
ENDMDL
