MODEL 1
REMARK VINA RESULT:     5.610      0.000      0.000
REMARK INTER + INTRA:           8.213
REMARK INTER:                   8.561
REMARK INTRA:                  -0.348
REMARK UNBOUND:                -0.348
REMARK SMILES CCCCCCCCCCC(=O)[O-]
REMARK SMILES IDX 7 1 8 2 9 3 10 4 11 5 12 6 13 7 6 8 5 9 4 10 3 11 2 12 1 13
REMARK H PARENT
REMARK Flexibility Score: inf
ROOT
ATOM      1  C   UNL     1       9.600  18.044  29.242  1.00  0.00     0.000 C 
ENDROOT
BRANCH   1   2
ATOM      2  C   UNL     1       9.297  17.401  27.884  1.00  0.00     0.000 C 
BRANCH   2   3
ATOM      3  C   UNL     1       7.806  17.067  27.751  1.00  0.00     0.006 C 
BRANCH   3   4
ATOM      4  C   UNL     1       7.293  17.385  26.344  1.00  0.00     0.053 C 
BRANCH   4   5
ATOM      5  C   UNL     1       6.013  18.156  26.415  1.00  0.00     0.041 C 
ATOM      6  O   UNL     1       5.130  17.842  27.255  1.00  0.00    -0.550 OA
ATOM      7  O   UNL     1       5.815  19.252  25.585  1.00  0.00    -0.550 OA
ENDBRANCH   4   5
ENDBRANCH   3   4
ENDBRANCH   2   3
ENDBRANCH   1   2
BRANCH   1   8
ATOM      8  C   UNL     1       8.655  17.514  30.326  1.00  0.00     0.000 C 
BRANCH   8   9
ATOM      9  C   UNL     1       9.364  17.431  31.683  1.00  0.00    -0.000 C 
BRANCH   9  10
ATOM     10  C   UNL     1       8.397  16.964  32.782  1.00  0.00    -0.000 C 
BRANCH  10  11
ATOM     11  C   UNL     1       7.336  18.021  33.124  1.00  0.00    -0.000 C 
BRANCH  11  12
ATOM     12  C   UNL     1       7.858  19.456  32.967  1.00  0.00    -0.003 C 
ATOM     13  C   UNL     1       6.729  20.472  33.123  1.00  0.00     0.004 C 
ENDBRANCH  11  12
ENDBRANCH  10  11
ENDBRANCH   9  10
ENDBRANCH   8   9
ENDBRANCH   1   8
TORSDOF 9
ENDMDL
MODEL 2
REMARK VINA RESULT:     6.869      3.044      5.767
REMARK INTER + INTRA:          10.135
REMARK INTER:                  10.680
REMARK INTRA:                  -0.545
REMARK UNBOUND:                -0.348
REMARK SMILES CCCCCCCCCCC(=O)[O-]
REMARK SMILES IDX 7 1 8 2 9 3 10 4 11 5 12 6 13 7 6 8 5 9 4 10 3 11 2 12 1 13
REMARK H PARENT
REMARK Flexibility Score: inf
ROOT
ATOM      1  C   UNL     1       9.847  17.490  28.475  1.00  0.00     0.000 C 
ENDROOT
BRANCH   1   2
ATOM      2  C   UNL     1       8.809  17.483  29.603  1.00  0.00     0.000 C 
BRANCH   2   3
ATOM      3  C   UNL     1       9.296  18.301  30.806  1.00  0.00     0.006 C 
BRANCH   3   4
ATOM      4  C   UNL     1       9.377  17.433  32.064  1.00  0.00     0.053 C 
BRANCH   4   5
ATOM      5  C   UNL     1       8.064  17.423  32.779  1.00  0.00     0.041 C 
ATOM      6  O   UNL     1       7.530  16.332  33.110  1.00  0.00    -0.550 OA
ATOM      7  O   UNL     1       7.451  18.621  33.125  1.00  0.00    -0.550 OA
ENDBRANCH   4   5
ENDBRANCH   3   4
ENDBRANCH   2   3
ENDBRANCH   1   2
BRANCH   1   8
ATOM      8  C   UNL     1       9.246  16.956  27.170  1.00  0.00     0.000 C 
BRANCH   8   9
ATOM      9  C   UNL     1       7.722  17.123  27.156  1.00  0.00    -0.000 C 
BRANCH   9  10
ATOM     10  C   UNL     1       7.265  17.891  25.906  1.00  0.00    -0.000 C 
BRANCH  10  11
ATOM     11  C   UNL     1       5.798  18.340  25.990  1.00  0.00    -0.000 C 
BRANCH  11  12
ATOM     12  C   UNL     1       5.124  17.916  27.303  1.00  0.00    -0.003 C 
ATOM     13  C   UNL     1       3.605  17.900  27.161  1.00  0.00     0.004 C 
ENDBRANCH  11  12
ENDBRANCH  10  11
ENDBRANCH   9  10
ENDBRANCH   8   9
ENDBRANCH   1   8
TORSDOF 9
ENDMDL
MODEL 3
REMARK VINA RESULT:     7.284      2.747      5.682
REMARK INTER + INTRA:          10.768
REMARK INTER:                  10.758
REMARK INTRA:                   0.010
REMARK UNBOUND:                -0.348
REMARK SMILES CCCCCCCCCCC(=O)[O-]
REMARK SMILES IDX 7 1 8 2 9 3 10 4 11 5 12 6 13 7 6 8 5 9 4 10 3 11 2 12 1 13
REMARK H PARENT
REMARK Flexibility Score: inf
ROOT
ATOM      1  C   UNL     1       9.691  17.679  30.007  1.00  0.00     0.000 C 
ENDROOT
BRANCH   1   2
ATOM      2  C   UNL     1       8.364  17.479  30.748  1.00  0.00     0.000 C 
BRANCH   2   3
ATOM      3  C   UNL     1       8.602  17.145  32.226  1.00  0.00     0.006 C 
BRANCH   3   4
ATOM      4  C   UNL     1       7.610  17.888  33.125  1.00  0.00     0.053 C 
BRANCH   4   5
ATOM      5  C   UNL     1       7.587  19.344  32.787  1.00  0.00     0.041 C 
ATOM      6  O   UNL     1       8.607  19.899  32.302  1.00  0.00    -0.550 OA
ATOM      7  O   UNL     1       6.422  20.081  32.963  1.00  0.00    -0.550 OA
ENDBRANCH   4   5
ENDBRANCH   3   4
ENDBRANCH   2   3
ENDBRANCH   1   2
BRANCH   1   8
ATOM      8  C   UNL     1       9.457  18.230  28.597  1.00  0.00     0.000 C 
BRANCH   8   9
ATOM      9  C   UNL     1       9.075  17.109  27.623  1.00  0.00    -0.000 C 
BRANCH   9  10
ATOM     10  C   UNL     1       7.569  17.132  27.321  1.00  0.00    -0.000 C 
BRANCH  10  11
ATOM     11  C   UNL     1       7.242  17.833  25.994  1.00  0.00    -0.000 C 
BRANCH  11  12
ATOM     12  C   UNL     1       5.861  18.504  26.004  1.00  0.00    -0.003 C 
ATOM     13  C   UNL     1       4.983  17.939  27.117  1.00  0.00     0.004 C 
ENDBRANCH  11  12
ENDBRANCH  10  11
ENDBRANCH   9  10
ENDBRANCH   8   9
ENDBRANCH   1   8
TORSDOF 9
ENDMDL
MODEL 4
REMARK VINA RESULT:     7.392      1.132      1.972
REMARK INTER + INTRA:          10.932
REMARK INTER:                  11.364
REMARK INTRA:                  -0.431
REMARK UNBOUND:                -0.348
REMARK SMILES CCCCCCCCCCC(=O)[O-]
REMARK SMILES IDX 7 1 8 2 9 3 10 4 11 5 12 6 13 7 6 8 5 9 4 10 3 11 2 12 1 13
REMARK H PARENT
REMARK Flexibility Score: inf
ROOT
ATOM      1  C   UNL     1       9.462  17.790  27.928  1.00  0.00     0.000 C 
ENDROOT
BRANCH   1   2
ATOM      2  C   UNL     1       8.908  16.533  27.249  1.00  0.00     0.000 C 
BRANCH   2   3
ATOM      3  C   UNL     1       7.576  16.826  26.548  1.00  0.00     0.006 C 
BRANCH   3   4
ATOM      4  C   UNL     1       6.766  17.870  27.320  1.00  0.00     0.053 C 
BRANCH   4   5
ATOM      5  C   UNL     1       5.501  18.195  26.592  1.00  0.00     0.041 C 
ATOM      6  O   UNL     1       4.386  17.881  27.085  1.00  0.00    -0.550 OA
ATOM      7  O   UNL     1       5.549  18.890  25.389  1.00  0.00    -0.550 OA
ENDBRANCH   4   5
ENDBRANCH   3   4
ENDBRANCH   2   3
ENDBRANCH   1   2
BRANCH   1   8
ATOM      8  C   UNL     1       9.870  17.500  29.377  1.00  0.00     0.000 C 
BRANCH   8   9
ATOM      9  C   UNL     1       8.657  17.560  30.313  1.00  0.00    -0.000 C 
BRANCH   9  10
ATOM     10  C   UNL     1       8.959  18.420  31.550  1.00  0.00    -0.000 C 
BRANCH  10  11
ATOM     11  C   UNL     1       8.077  18.056  32.754  1.00  0.00    -0.000 C 
BRANCH  11  12
ATOM     12  C   UNL     1       7.318  16.737  32.554  1.00  0.00    -0.003 C 
ATOM     13  C   UNL     1       8.102  15.559  33.125  1.00  0.00     0.004 C 
ENDBRANCH  11  12
ENDBRANCH  10  11
ENDBRANCH   9  10
ENDBRANCH   8   9
ENDBRANCH   1   8
TORSDOF 9
ENDMDL
