MODEL 1
REMARK VINA RESULT:    -6.092      0.000      0.000
REMARK INTER + INTRA:          -7.666
REMARK INTER:                  -7.338
REMARK INTRA:                  -0.328
REMARK UNBOUND:                -0.328
REMARK SMILES Oc1cc(O)c2c(c1)O[C@@H](c1ccc(O)c(O)c1)[C@@H](O)C2
REMARK SMILES IDX 21 1 19 2 10 3 9 4 7 5 8 6 2 7 3 8 4 9 6 10 20 11 11 13
REMARK SMILES IDX 18 14 12 15 16 16 13 17 14 18 17 19 15 21 5 23 1 25
REMARK H PARENT 20 12 17 20 15 22 5 24 1 26
REMARK Flexibility Score: inf
ROOT
ATOM      1  C   UNL     1     214.405 203.291 153.168  1.00  0.00     0.079 C 
ATOM      2  C   UNL     1     214.239 204.657 152.475  1.00  0.00     0.164 C 
ATOM      3  C   UNL     1     212.781 205.126 152.611  1.00  0.00     0.232 C 
ATOM      4  O   UNL     1     212.419 205.194 153.989  1.00  0.00    -0.482 OA
ATOM      5  C   UNL     1     212.837 204.232 154.915  1.00  0.00     0.131 A 
ATOM      6  C   UNL     1     212.293 204.246 156.202  1.00  0.00     0.093 A 
ATOM      7  C   UNL     1     212.682 203.286 157.143  1.00  0.00     0.122 A 
ATOM      8  C   UNL     1     213.609 202.304 156.789  1.00  0.00     0.092 A 
ATOM      9  C   UNL     1     214.163 202.273 155.504  1.00  0.00     0.126 A 
ATOM     10  C   UNL     1     213.808 203.269 154.562  1.00  0.00     0.039 A 
ENDROOT
BRANCH   2  11
ATOM     11  O   UNL     1     215.102 205.598 153.064  1.00  0.00    -0.389 OA
ATOM     12  H   UNL     1     215.927 205.615 152.512  1.00  0.00     0.211 HD
ENDBRANCH   2  11
BRANCH   3  13
ATOM     13  C   UNL     1     212.565 206.463 151.937  1.00  0.00    -0.001 A 
ATOM     14  C   UNL     1     212.472 207.646 152.692  1.00  0.00     0.057 A 
ATOM     15  C   UNL     1     212.517 206.541 150.536  1.00  0.00     0.012 A 
ATOM     16  C   UNL     1     212.307 208.884 152.060  1.00  0.00     0.157 A 
ATOM     17  C   UNL     1     212.352 207.775 149.902  1.00  0.00     0.050 A 
ATOM     18  C   UNL     1     212.244 208.949 150.658  1.00  0.00     0.157 A 
BRANCH  16  19
ATOM     19  O   UNL     1     212.210 210.036 152.840  1.00  0.00    -0.504 OA
ATOM     20  H   UNL     1     212.064 210.951 152.433  1.00  0.00     0.293 HD
ENDBRANCH  16  19
BRANCH  18  21
ATOM     21  O   UNL     1     212.078 210.179 150.022  1.00  0.00    -0.504 OA
ATOM     22  H   UNL     1     211.718 210.244 149.077  1.00  0.00     0.293 HD
ENDBRANCH  18  21
ENDBRANCH   3  13
BRANCH   9  23
ATOM     23  O   UNL     1     215.050 201.239 155.195  1.00  0.00    -0.507 OA
ATOM     24  H   UNL     1     216.054 201.355 155.172  1.00  0.00     0.293 HD
ENDBRANCH   9  23
BRANCH   7  25
ATOM     25  O   UNL     1     212.146 203.295 158.428  1.00  0.00    -0.508 OA
ATOM     26  H   UNL     1     212.466 203.950 159.131  1.00  0.00     0.293 HD
ENDBRANCH   7  25
TORSDOF 6
ENDMDL
MODEL 2
REMARK VINA RESULT:    -5.933      1.841      6.975
REMARK INTER + INTRA:          -7.474
REMARK INTER:                  -7.191
REMARK INTRA:                  -0.283
REMARK UNBOUND:                -0.328
REMARK SMILES Oc1cc(O)c2c(c1)O[C@@H](c1ccc(O)c(O)c1)[C@@H](O)C2
REMARK SMILES IDX 21 1 19 2 10 3 9 4 7 5 8 6 2 7 3 8 4 9 6 10 20 11 11 13
REMARK SMILES IDX 18 14 12 15 16 16 13 17 14 18 17 19 15 21 5 23 1 25
REMARK H PARENT 20 12 17 20 15 22 5 24 1 26
REMARK Flexibility Score: inf
ROOT
ATOM      1  C   UNL     1     214.074 205.882 152.119  1.00  0.00     0.079 C 
ATOM      2  C   UNL     1     213.505 205.126 153.335  1.00  0.00     0.164 C 
ATOM      3  C   UNL     1     214.097 205.713 154.627  1.00  0.00     0.232 C 
ATOM      4  O   UNL     1     213.811 207.110 154.701  1.00  0.00    -0.482 OA
ATOM      5  C   UNL     1     213.863 207.939 153.575  1.00  0.00     0.131 A 
ATOM      6  C   UNL     1     213.763 209.322 153.746  1.00  0.00     0.093 A 
ATOM      7  C   UNL     1     213.827 210.175 152.639  1.00  0.00     0.122 A 
ATOM      8  C   UNL     1     214.003 209.641 151.361  1.00  0.00     0.092 A 
ATOM      9  C   UNL     1     214.106 208.259 151.171  1.00  0.00     0.126 A 
ATOM     10  C   UNL     1     213.997 207.387 152.282  1.00  0.00     0.039 A 
ENDROOT
BRANCH   2  11
ATOM     11  O   UNL     1     212.103 205.240 153.355  1.00  0.00    -0.389 OA
ATOM     12  H   UNL     1     211.893 206.098 153.807  1.00  0.00     0.211 HD
ENDBRANCH   2  11
BRANCH   3  13
ATOM     13  C   UNL     1     213.574 204.997 155.851  1.00  0.00    -0.001 A 
ATOM     14  C   UNL     1     213.425 203.598 155.863  1.00  0.00     0.057 A 
ATOM     15  C   UNL     1     213.288 205.724 157.018  1.00  0.00     0.012 A 
ATOM     16  C   UNL     1     212.973 202.939 157.012  1.00  0.00     0.157 A 
ATOM     17  C   UNL     1     212.836 205.070 158.167  1.00  0.00     0.050 A 
ATOM     18  C   UNL     1     212.674 203.678 158.169  1.00  0.00     0.157 A 
BRANCH  16  19
ATOM     19  O   UNL     1     212.830 201.552 156.986  1.00  0.00    -0.504 OA
ATOM     20  H   UNL     1     212.543 201.057 156.150  1.00  0.00     0.293 HD
ENDBRANCH  16  19
BRANCH  18  21
ATOM     21  O   UNL     1     212.222 203.028 159.317  1.00  0.00    -0.504 OA
ATOM     22  H   UNL     1     212.784 202.329 159.788  1.00  0.00     0.293 HD
ENDBRANCH  18  21
ENDBRANCH   3  13
BRANCH   9  23
ATOM     23  O   UNL     1     214.328 207.788 149.875  1.00  0.00    -0.507 OA
ATOM     24  H   UNL     1     214.439 206.808 149.650  1.00  0.00     0.293 HD
ENDBRANCH   9  23
BRANCH   7  25
ATOM     25  O   UNL     1     213.727 211.555 152.801  1.00  0.00    -0.508 OA
ATOM     26  H   UNL     1     214.402 212.188 152.388  1.00  0.00     0.293 HD
ENDBRANCH   7  25
TORSDOF 6
ENDMDL
MODEL 3
REMARK VINA RESULT:    -5.927      1.426      2.049
REMARK INTER + INTRA:          -7.468
REMARK INTER:                  -7.079
REMARK INTRA:                  -0.388
REMARK UNBOUND:                -0.328
REMARK SMILES Oc1cc(O)c2c(c1)O[C@@H](c1ccc(O)c(O)c1)[C@@H](O)C2
REMARK SMILES IDX 21 1 19 2 10 3 9 4 7 5 8 6 2 7 3 8 4 9 6 10 20 11 11 13
REMARK SMILES IDX 18 14 12 15 16 16 13 17 14 18 17 19 15 21 5 23 1 25
REMARK H PARENT 20 12 17 20 15 22 5 24 1 26
REMARK Flexibility Score: inf
ROOT
ATOM      1  C   UNL     1     213.201 204.108 152.740  1.00  0.00     0.079 C 
ATOM      2  C   UNL     1     213.425 205.552 152.251  1.00  0.00     0.164 C 
ATOM      3  C   UNL     1     212.709 206.530 153.197  1.00  0.00     0.232 C 
ATOM      4  O   UNL     1     213.186 206.352 154.531  1.00  0.00    -0.482 OA
ATOM      5  C   UNL     1     213.460 205.085 155.058  1.00  0.00     0.131 A 
ATOM      6  C   UNL     1     213.736 204.962 156.422  1.00  0.00     0.093 A 
ATOM      7  C   UNL     1     213.998 203.706 156.979  1.00  0.00     0.122 A 
ATOM      8  C   UNL     1     213.972 202.569 156.168  1.00  0.00     0.092 A 
ATOM      9  C   UNL     1     213.696 202.672 154.800  1.00  0.00     0.126 A 
ATOM     10  C   UNL     1     213.475 203.947 154.222  1.00  0.00     0.039 A 
ENDROOT
BRANCH   2  11
ATOM     11  O   UNL     1     214.802 205.836 152.219  1.00  0.00    -0.389 OA
ATOM     12  H   UNL     1     215.276 204.971 152.327  1.00  0.00     0.211 HD
ENDBRANCH   2  11
BRANCH   3  13
ATOM     13  C   UNL     1     212.894 207.964 152.754  1.00  0.00    -0.001 A 
ATOM     14  C   UNL     1     212.410 208.404 151.509  1.00  0.00     0.057 A 
ATOM     15  C   UNL     1     213.501 208.890 153.617  1.00  0.00     0.012 A 
ATOM     16  C   UNL     1     212.553 209.741 151.121  1.00  0.00     0.157 A 
ATOM     17  C   UNL     1     213.646 210.226 153.233  1.00  0.00     0.050 A 
ATOM     18  C   UNL     1     213.177 210.657 151.985  1.00  0.00     0.157 A 
BRANCH  16  19
ATOM     19  O   UNL     1     212.069 210.141 149.875  1.00  0.00    -0.504 OA
ATOM     20  H   UNL     1     212.201 211.081 149.523  1.00  0.00     0.293 HD
ENDBRANCH  16  19
BRANCH  18  21
ATOM     21  O   UNL     1     213.324 211.990 151.604  1.00  0.00    -0.504 OA
ATOM     22  H   UNL     1     212.528 212.559 151.344  1.00  0.00     0.293 HD
ENDBRANCH  18  21
ENDBRANCH   3  13
BRANCH   9  23
ATOM     23  O   UNL     1     213.639 201.496 154.050  1.00  0.00    -0.507 OA
ATOM     24  H   UNL     1     214.444 200.909 153.873  1.00  0.00     0.293 HD
ENDBRANCH   9  23
BRANCH   7  25
ATOM     25  O   UNL     1     214.276 203.576 158.337  1.00  0.00    -0.508 OA
ATOM     26  H   UNL     1     214.795 204.284 158.842  1.00  0.00     0.293 HD
ENDBRANCH   7  25
TORSDOF 6
ENDMDL
MODEL 4
REMARK VINA RESULT:    -5.802     14.363     17.142
REMARK INTER + INTRA:          -7.317
REMARK INTER:                  -7.002
REMARK INTRA:                  -0.315
REMARK UNBOUND:                -0.328
REMARK SMILES Oc1cc(O)c2c(c1)O[C@@H](c1ccc(O)c(O)c1)[C@@H](O)C2
REMARK SMILES IDX 21 1 19 2 10 3 9 4 7 5 8 6 2 7 3 8 4 9 6 10 20 11 11 13
REMARK SMILES IDX 18 14 12 15 16 16 13 17 14 18 17 19 15 21 5 23 1 25
REMARK H PARENT 20 12 17 20 15 22 5 24 1 26
REMARK Flexibility Score: inf
ROOT
ATOM      1  C   UNL     1     205.066 202.419 168.577  1.00  0.00     0.079 C 
ATOM      2  C   UNL     1     206.444 203.107 168.543  1.00  0.00     0.164 C 
ATOM      3  C   UNL     1     206.340 204.426 167.759  1.00  0.00     0.232 C 
ATOM      4  O   UNL     1     205.351 205.267 168.353  1.00  0.00    -0.482 OA
ATOM      5  C   UNL     1     204.147 204.759 168.853  1.00  0.00     0.131 A 
ATOM      6  C   UNL     1     203.144 205.650 169.243  1.00  0.00     0.093 A 
ATOM      7  C   UNL     1     201.925 205.169 169.731  1.00  0.00     0.122 A 
ATOM      8  C   UNL     1     201.707 203.792 169.819  1.00  0.00     0.092 A 
ATOM      9  C   UNL     1     202.700 202.885 169.432  1.00  0.00     0.126 A 
ATOM     10  C   UNL     1     203.953 203.366 168.979  1.00  0.00     0.039 A 
ENDROOT
BRANCH   2  11
ATOM     11  O   UNL     1     206.881 203.364 169.855  1.00  0.00    -0.389 OA
ATOM     12  H   UNL     1     206.286 204.067 170.223  1.00  0.00     0.211 HD
ENDBRANCH   2  11
BRANCH   3  13
ATOM     13  C   UNL     1     207.673 205.137 167.692  1.00  0.00    -0.001 A 
ATOM     14  C   UNL     1     208.854 204.433 167.397  1.00  0.00     0.057 A 
ATOM     15  C   UNL     1     207.732 206.529 167.863  1.00  0.00     0.012 A 
ATOM     16  C   UNL     1     210.079 205.104 167.302  1.00  0.00     0.157 A 
ATOM     17  C   UNL     1     208.952 207.202 167.769  1.00  0.00     0.050 A 
ATOM     18  C   UNL     1     210.130 206.495 167.492  1.00  0.00     0.157 A 
BRANCH  16  19
ATOM     19  O   UNL     1     211.232 204.373 167.017  1.00  0.00    -0.504 OA
ATOM     20  H   UNL     1     211.663 204.383 166.100  1.00  0.00     0.293 HD
ENDBRANCH  16  19
BRANCH  18  21
ATOM     21  O   UNL     1     211.347 207.170 167.400  1.00  0.00    -0.504 OA
ATOM     22  H   UNL     1     211.710 207.717 168.171  1.00  0.00     0.293 HD
ENDBRANCH  18  21
ENDBRANCH   3  13
BRANCH   9  23
ATOM     23  O   UNL     1     202.406 201.522 169.498  1.00  0.00    -0.507 OA
ATOM     24  H   UNL     1     202.353 200.923 168.685  1.00  0.00     0.293 HD
ENDBRANCH   9  23
BRANCH   7  25
ATOM     25  O   UNL     1     200.920 206.051 170.124  1.00  0.00    -0.508 OA
ATOM     26  H   UNL     1     199.968 205.951 169.793  1.00  0.00     0.293 HD
ENDBRANCH   7  25
TORSDOF 6
ENDMDL
MODEL 5
REMARK VINA RESULT:    -5.749     14.763     17.658
REMARK INTER + INTRA:          -7.253
REMARK INTER:                  -6.871
REMARK INTRA:                  -0.382
REMARK UNBOUND:                -0.328
REMARK SMILES Oc1cc(O)c2c(c1)O[C@@H](c1ccc(O)c(O)c1)[C@@H](O)C2
REMARK SMILES IDX 21 1 19 2 10 3 9 4 7 5 8 6 2 7 3 8 4 9 6 10 20 11 11 13
REMARK SMILES IDX 18 14 12 15 16 16 13 17 14 18 17 19 15 21 5 23 1 25
REMARK H PARENT 20 12 17 20 15 22 5 24 1 26
REMARK Flexibility Score: inf
ROOT
ATOM      1  C   UNL     1     207.619 204.506 167.269  1.00  0.00     0.079 C 
ATOM      2  C   UNL     1     206.120 204.169 167.381  1.00  0.00     0.164 C 
ATOM      3  C   UNL     1     205.659 204.364 168.835  1.00  0.00     0.232 C 
ATOM      4  O   UNL     1     205.924 205.702 169.253  1.00  0.00    -0.482 OA
ATOM      5  C   UNL     1     207.097 206.374 168.891  1.00  0.00     0.131 A 
ATOM      6  C   UNL     1     207.387 207.604 169.488  1.00  0.00     0.093 A 
ATOM      7  C   UNL     1     208.560 208.289 169.157  1.00  0.00     0.122 A 
ATOM      8  C   UNL     1     209.449 207.736 168.233  1.00  0.00     0.092 A 
ATOM      9  C   UNL     1     209.176 206.505 167.626  1.00  0.00     0.126 A 
ATOM     10  C   UNL     1     207.969 205.828 167.924  1.00  0.00     0.039 A 
ENDROOT
BRANCH   2  11
ATOM     11  O   UNL     1     205.378 205.004 166.527  1.00  0.00    -0.389 OA
ATOM     12  H   UNL     1     204.618 205.355 167.059  1.00  0.00     0.211 HD
ENDBRANCH   2  11
BRANCH   3  13
ATOM     13  C   UNL     1     204.191 204.037 168.999  1.00  0.00    -0.001 A 
ATOM     14  C   UNL     1     203.283 205.002 169.470  1.00  0.00     0.057 A 
ATOM     15  C   UNL     1     203.709 202.774 168.618  1.00  0.00     0.012 A 
ATOM     16  C   UNL     1     201.921 204.703 169.585  1.00  0.00     0.157 A 
ATOM     17  C   UNL     1     202.350 202.471 168.732  1.00  0.00     0.050 A 
ATOM     18  C   UNL     1     201.451 203.430 169.218  1.00  0.00     0.157 A 
BRANCH  16  19
ATOM     19  O   UNL     1     201.050 205.681 170.065  1.00  0.00    -0.504 OA
ATOM     20  H   UNL     1     200.539 206.298 169.445  1.00  0.00     0.293 HD
ENDBRANCH  16  19
BRANCH  18  21
ATOM     21  O   UNL     1     200.096 203.125 169.332  1.00  0.00    -0.504 OA
ATOM     22  H   UNL     1     199.743 202.549 170.086  1.00  0.00     0.293 HD
ENDBRANCH  18  21
ENDBRANCH   3  13
BRANCH   9  23
ATOM     23  O   UNL     1     210.126 205.981 166.747  1.00  0.00    -0.507 OA
ATOM     24  H   UNL     1     210.315 204.992 166.656  1.00  0.00     0.293 HD
ENDBRANCH   9  23
BRANCH   7  25
ATOM     25  O   UNL     1     208.855 209.516 169.746  1.00  0.00    -0.508 OA
ATOM     26  H   UNL     1     208.364 209.840 170.571  1.00  0.00     0.293 HD
ENDBRANCH   7  25
TORSDOF 6
ENDMDL
MODEL 6
REMARK VINA RESULT:    -5.524      2.112      7.207
REMARK INTER + INTRA:          -6.982
REMARK INTER:                  -6.597
REMARK INTRA:                  -0.384
REMARK UNBOUND:                -0.328
REMARK SMILES Oc1cc(O)c2c(c1)O[C@@H](c1ccc(O)c(O)c1)[C@@H](O)C2
REMARK SMILES IDX 21 1 19 2 10 3 9 4 7 5 8 6 2 7 3 8 4 9 6 10 20 11 11 13
REMARK SMILES IDX 18 14 12 15 16 16 13 17 14 18 17 19 15 21 5 23 1 25
REMARK H PARENT 20 12 17 20 15 22 5 24 1 26
REMARK Flexibility Score: inf
ROOT
ATOM      1  C   UNL     1     212.763 204.774 153.243  1.00  0.00     0.079 C 
ATOM      2  C   UNL     1     212.937 204.198 154.662  1.00  0.00     0.164 C 
ATOM      3  C   UNL     1     214.100 204.915 155.367  1.00  0.00     0.232 C 
ATOM      4  O   UNL     1     213.854 206.321 155.402  1.00  0.00    -0.482 OA
ATOM      5  C   UNL     1     213.285 207.001 154.320  1.00  0.00     0.131 A 
ATOM      6  C   UNL     1     213.249 208.398 154.339  1.00  0.00     0.093 A 
ATOM      7  C   UNL     1     212.700 209.105 153.264  1.00  0.00     0.122 A 
ATOM      8  C   UNL     1     212.197 208.410 152.162  1.00  0.00     0.092 A 
ATOM      9  C   UNL     1     212.226 207.011 152.124  1.00  0.00     0.126 A 
ATOM     10  C   UNL     1     212.739 206.289 153.229  1.00  0.00     0.039 A 
ENDROOT
BRANCH   2  11
ATOM     11  O   UNL     1     211.750 204.373 155.396  1.00  0.00    -0.389 OA
ATOM     12  H   UNL     1     211.315 203.483 155.455  1.00  0.00     0.211 HD
ENDBRANCH   2  11
BRANCH   3  13
ATOM     13  C   UNL     1     214.315 204.379 156.764  1.00  0.00    -0.001 A 
ATOM     14  C   UNL     1     214.610 203.020 156.980  1.00  0.00     0.057 A 
ATOM     15  C   UNL     1     214.284 205.253 157.862  1.00  0.00     0.012 A 
ATOM     16  C   UNL     1     214.843 202.538 158.273  1.00  0.00     0.157 A 
ATOM     17  C   UNL     1     214.516 204.776 159.154  1.00  0.00     0.050 A 
ATOM     18  C   UNL     1     214.793 203.419 159.367  1.00  0.00     0.157 A 
BRANCH  16  19
ATOM     19  O   UNL     1     215.124 201.184 158.451  1.00  0.00    -0.504 OA
ATOM     20  H   UNL     1     215.981 200.864 158.887  1.00  0.00     0.293 HD
ENDBRANCH  16  19
BRANCH  18  21
ATOM     21  O   UNL     1     215.022 202.945 160.658  1.00  0.00    -0.504 OA
ATOM     22  H   UNL     1     215.018 203.564 161.459  1.00  0.00     0.293 HD
ENDBRANCH  18  21
ENDBRANCH   3  13
BRANCH   9  23
ATOM     23  O   UNL     1     211.750 206.375 150.976  1.00  0.00    -0.507 OA
ATOM     24  H   UNL     1     210.796 206.057 150.870  1.00  0.00     0.293 HD
ENDBRANCH   9  23
BRANCH   7  25
ATOM     25  O   UNL     1     212.659 210.497 153.277  1.00  0.00    -0.508 OA
ATOM     26  H   UNL     1     212.066 211.015 152.640  1.00  0.00     0.293 HD
ENDBRANCH   7  25
TORSDOF 6
ENDMDL
MODEL 7
REMARK VINA RESULT:    -5.520      2.314      3.527
REMARK INTER + INTRA:          -6.977
REMARK INTER:                  -6.826
REMARK INTRA:                  -0.151
REMARK UNBOUND:                -0.328
REMARK SMILES Oc1cc(O)c2c(c1)O[C@@H](c1ccc(O)c(O)c1)[C@@H](O)C2
REMARK SMILES IDX 21 1 19 2 10 3 9 4 7 5 8 6 2 7 3 8 4 9 6 10 20 11 11 13
REMARK SMILES IDX 18 14 12 15 16 16 13 17 14 18 17 19 15 21 5 23 1 25
REMARK H PARENT 20 12 17 20 15 22 5 24 1 26
REMARK Flexibility Score: inf
ROOT
ATOM      1  C   UNL     1     214.821 205.389 158.153  1.00  0.00     0.079 C 
ATOM      2  C   UNL     1     214.209 206.392 157.156  1.00  0.00     0.164 C 
ATOM      3  C   UNL     1     214.244 205.793 155.740  1.00  0.00     0.232 C 
ATOM      4  O   UNL     1     213.545 204.549 155.722  1.00  0.00    -0.482 OA
ATOM      5  C   UNL     1     213.637 203.631 156.774  1.00  0.00     0.131 A 
ATOM      6  C   UNL     1     213.089 202.355 156.612  1.00  0.00     0.093 A 
ATOM      7  C   UNL     1     213.181 201.412 157.641  1.00  0.00     0.122 A 
ATOM      8  C   UNL     1     213.832 201.745 158.830  1.00  0.00     0.092 A 
ATOM      9  C   UNL     1     214.388 203.017 159.010  1.00  0.00     0.126 A 
ATOM     10  C   UNL     1     214.259 203.990 157.989  1.00  0.00     0.039 A 
ENDROOT
BRANCH   2  11
ATOM     11  O   UNL     1     212.882 206.679 157.522  1.00  0.00    -0.389 OA
ATOM     12  H   UNL     1     212.797 207.668 157.539  1.00  0.00     0.211 HD
ENDBRANCH   2  11
BRANCH   3  13
ATOM     13  C   UNL     1     213.659 206.746 154.721  1.00  0.00    -0.001 A 
ATOM     14  C   UNL     1     212.976 206.265 153.590  1.00  0.00     0.057 A 
ATOM     15  C   UNL     1     213.741 208.132 154.932  1.00  0.00     0.012 A 
ATOM     16  C   UNL     1     212.407 207.153 152.670  1.00  0.00     0.157 A 
ATOM     17  C   UNL     1     213.175 209.021 154.016  1.00  0.00     0.050 A 
ATOM     18  C   UNL     1     212.509 208.539 152.881  1.00  0.00     0.157 A 
BRANCH  16  19
ATOM     19  O   UNL     1     211.744 206.642 151.555  1.00  0.00    -0.504 OA
ATOM     20  H   UNL     1     210.930 206.045 151.639  1.00  0.00     0.293 HD
ENDBRANCH  16  19
BRANCH  18  21
ATOM     21  O   UNL     1     211.946 209.429 151.968  1.00  0.00    -0.504 OA
ATOM     22  H   UNL     1     211.188 209.153 151.356  1.00  0.00     0.293 HD
ENDBRANCH  18  21
ENDBRANCH   3  13
BRANCH   9  23
ATOM     23  O   UNL     1     215.067 203.275 160.203  1.00  0.00    -0.507 OA
ATOM     24  H   UNL     1     214.691 203.056 161.116  1.00  0.00     0.293 HD
ENDBRANCH   9  23
BRANCH   7  25
ATOM     25  O   UNL     1     212.636 200.140 157.488  1.00  0.00    -0.508 OA
ATOM     26  H   UNL     1     212.977 199.349 158.021  1.00  0.00     0.293 HD
ENDBRANCH   7  25
TORSDOF 6
ENDMDL
MODEL 8
REMARK VINA RESULT:    -5.503     14.142     17.398
REMARK INTER + INTRA:          -6.956
REMARK INTER:                  -6.739
REMARK INTRA:                  -0.217
REMARK UNBOUND:                -0.328
REMARK SMILES Oc1cc(O)c2c(c1)O[C@@H](c1ccc(O)c(O)c1)[C@@H](O)C2
REMARK SMILES IDX 21 1 19 2 10 3 9 4 7 5 8 6 2 7 3 8 4 9 6 10 20 11 11 13
REMARK SMILES IDX 18 14 12 15 16 16 13 17 14 18 17 19 15 21 5 23 1 25
REMARK H PARENT 20 12 17 20 15 22 5 24 1 26
REMARK Flexibility Score: inf
ROOT
ATOM      1  C   UNL     1     203.961 206.754 169.487  1.00  0.00     0.079 C 
ATOM      2  C   UNL     1     205.295 206.916 168.733  1.00  0.00     0.164 C 
ATOM      3  C   UNL     1     206.289 205.847 169.215  1.00  0.00     0.232 C 
ATOM      4  O   UNL     1     205.735 204.546 169.020  1.00  0.00    -0.482 OA
ATOM      5  C   UNL     1     204.384 204.272 169.257  1.00  0.00     0.131 A 
ATOM      6  C   UNL     1     203.946 202.945 169.235  1.00  0.00     0.093 A 
ATOM      7  C   UNL     1     202.604 202.640 169.484  1.00  0.00     0.122 A 
ATOM      8  C   UNL     1     201.701 203.668 169.765  1.00  0.00     0.092 A 
ATOM      9  C   UNL     1     202.121 205.002 169.792  1.00  0.00     0.126 A 
ATOM     10  C   UNL     1     203.469 205.320 169.497  1.00  0.00     0.039 A 
ENDROOT
BRANCH   2  11
ATOM     11  O   UNL     1     205.081 206.782 167.349  1.00  0.00    -0.389 OA
ATOM     12  H   UNL     1     204.981 205.811 167.168  1.00  0.00     0.211 HD
ENDBRANCH   2  11
BRANCH   3  13
ATOM     13  C   UNL     1     207.620 205.969 168.508  1.00  0.00    -0.001 A 
ATOM     14  C   UNL     1     208.353 204.826 168.141  1.00  0.00     0.057 A 
ATOM     15  C   UNL     1     208.110 207.236 168.153  1.00  0.00     0.012 A 
ATOM     16  C   UNL     1     209.567 204.946 167.456  1.00  0.00     0.157 A 
ATOM     17  C   UNL     1     209.322 207.361 167.469  1.00  0.00     0.050 A 
ATOM     18  C   UNL     1     210.056 206.220 167.120  1.00  0.00     0.157 A 
BRANCH  16  19
ATOM     19  O   UNL     1     210.271 203.791 167.115  1.00  0.00    -0.504 OA
ATOM     20  H   UNL     1     211.280 203.781 167.031  1.00  0.00     0.293 HD
ENDBRANCH  16  19
BRANCH  18  21
ATOM     21  O   UNL     1     211.266 206.347 166.438  1.00  0.00    -0.504 OA
ATOM     22  H   UNL     1     211.662 207.255 166.226  1.00  0.00     0.293 HD
ENDBRANCH  18  21
ENDBRANCH   3  13
BRANCH   9  23
ATOM     23  O   UNL     1     201.181 205.980 170.125  1.00  0.00    -0.507 OA
ATOM     24  H   UNL     1     200.189 205.797 170.196  1.00  0.00     0.293 HD
ENDBRANCH   9  23
BRANCH   7  25
ATOM     25  O   UNL     1     202.160 201.321 169.462  1.00  0.00    -0.508 OA
ATOM     26  H   UNL     1     202.188 200.738 170.291  1.00  0.00     0.293 HD
ENDBRANCH   7  25
TORSDOF 6
ENDMDL
MODEL 9
REMARK VINA RESULT:    -5.321     15.829     17.196
REMARK INTER + INTRA:          -6.737
REMARK INTER:                  -6.572
REMARK INTRA:                  -0.165
REMARK UNBOUND:                -0.328
REMARK SMILES Oc1cc(O)c2c(c1)O[C@@H](c1ccc(O)c(O)c1)[C@@H](O)C2
REMARK SMILES IDX 21 1 19 2 10 3 9 4 7 5 8 6 2 7 3 8 4 9 6 10 20 11 11 13
REMARK SMILES IDX 18 14 12 15 16 16 13 17 14 18 17 19 15 21 5 23 1 25
REMARK H PARENT 20 12 17 20 15 22 5 24 1 26
REMARK Flexibility Score: inf
ROOT
ATOM      1  C   UNL     1     205.834 203.439 167.560  1.00  0.00     0.079 C 
ATOM      2  C   UNL     1     207.120 204.153 168.019  1.00  0.00     0.164 C 
ATOM      3  C   UNL     1     206.917 205.675 167.940  1.00  0.00     0.232 C 
ATOM      4  O   UNL     1     205.796 206.057 168.737  1.00  0.00    -0.482 OA
ATOM      5  C   UNL     1     204.628 205.289 168.792  1.00  0.00     0.131 A 
ATOM      6  C   UNL     1     203.501 205.811 169.432  1.00  0.00     0.093 A 
ATOM      7  C   UNL     1     202.315 205.071 169.487  1.00  0.00     0.122 A 
ATOM      8  C   UNL     1     202.256 203.810 168.890  1.00  0.00     0.092 A 
ATOM      9  C   UNL     1     203.375 203.272 168.244  1.00  0.00     0.126 A 
ATOM     10  C   UNL     1     204.591 203.997 168.224  1.00  0.00     0.039 A 
ENDROOT
BRANCH   2  11
ATOM     11  O   UNL     1     207.429 203.778 169.339  1.00  0.00    -0.389 OA
ATOM     12  H   UNL     1     206.865 204.337 169.935  1.00  0.00     0.211 HD
ENDBRANCH   2  11
BRANCH   3  13
ATOM     13  C   UNL     1     208.158 206.423 168.376  1.00  0.00    -0.001 A 
ATOM     14  C   UNL     1     208.062 207.660 169.037  1.00  0.00     0.057 A 
ATOM     15  C   UNL     1     209.425 205.851 168.176  1.00  0.00     0.012 A 
ATOM     16  C   UNL     1     209.214 208.329 169.468  1.00  0.00     0.157 A 
ATOM     17  C   UNL     1     210.577 206.515 168.604  1.00  0.00     0.050 A 
ATOM     18  C   UNL     1     210.478 207.756 169.248  1.00  0.00     0.157 A 
BRANCH  16  19
ATOM     19  O   UNL     1     209.082 209.559 170.113  1.00  0.00    -0.504 OA
ATOM     20  H   UNL     1     208.424 210.262 169.801  1.00  0.00     0.293 HD
ENDBRANCH  16  19
BRANCH  18  21
ATOM     21  O   UNL     1     211.630 208.418 169.673  1.00  0.00    -0.504 OA
ATOM     22  H   UNL     1     212.529 208.249 169.240  1.00  0.00     0.293 HD
ENDBRANCH  18  21
ENDBRANCH   3  13
BRANCH   9  23
ATOM     23  O   UNL     1     203.240 202.027 167.626  1.00  0.00    -0.507 OA
ATOM     24  H   UNL     1     202.829 201.901 166.710  1.00  0.00     0.293 HD
ENDBRANCH   9  23
BRANCH   7  25
ATOM     25  O   UNL     1     201.188 205.584 170.125  1.00  0.00    -0.508 OA
ATOM     26  H   UNL     1     200.344 205.034 170.233  1.00  0.00     0.293 HD
ENDBRANCH   7  25
TORSDOF 6
ENDMDL
