MODEL 1
REMARK VINA RESULT:    -3.960      0.000      0.000
REMARK INTER + INTRA:          -6.423
REMARK INTER:                  -6.043
REMARK INTRA:                  -0.380
REMARK UNBOUND:                -0.380
REMARK SMILES CCCCCCCCCCC(=O)[O-]
REMARK SMILES IDX 7 1 8 2 9 3 10 4 11 5 12 6 13 7 6 8 5 9 4 10 3 11 2 12 1 13
REMARK H PARENT
REMARK Flexibility Score: inf
ROOT
ATOM      1  C   UNL     1      28.398  20.929  -2.262  1.00  0.00     0.000 C 
ENDROOT
BRANCH   1   2
ATOM      2  C   UNL     1      28.458  21.657  -3.610  1.00  0.00     0.000 C 
BRANCH   2   3
ATOM      3  C   UNL     1      28.310  23.175  -3.423  1.00  0.00     0.006 C 
BRANCH   3   4
ATOM      4  C   UNL     1      28.454  23.595  -1.955  1.00  0.00     0.053 C 
BRANCH   4   5
ATOM      5  C   UNL     1      27.182  24.169  -1.411  1.00  0.00     0.041 C 
ATOM      6  O   UNL     1      26.115  24.088  -2.077  1.00  0.00    -0.550 OA
ATOM      7  O   UNL     1      27.167  24.762  -0.155  1.00  0.00    -0.550 OA
ENDBRANCH   4   5
ENDBRANCH   3   4
ENDBRANCH   2   3
ENDBRANCH   1   2
BRANCH   1   8
ATOM      8  C   UNL     1      28.223  19.419  -2.459  1.00  0.00     0.000 C 
BRANCH   8   9
ATOM      9  C   UNL     1      28.966  18.633  -1.372  1.00  0.00    -0.000 C 
BRANCH   9  10
ATOM     10  C   UNL     1      28.349  17.238  -1.184  1.00  0.00    -0.000 C 
BRANCH  10  11
ATOM     11  C   UNL     1      27.953  16.957   0.274  1.00  0.00    -0.000 C 
BRANCH  11  12
ATOM     12  C   UNL     1      26.433  16.875   0.468  1.00  0.00    -0.003 C 
ATOM     13  C   UNL     1      26.020  17.447   1.821  1.00  0.00     0.004 C 
ENDBRANCH  11  12
ENDBRANCH  10  11
ENDBRANCH   9  10
ENDBRANCH   8   9
ENDBRANCH   1   8
TORSDOF 9
ENDMDL
MODEL 2
REMARK VINA RESULT:    -3.774     18.521     20.243
REMARK INTER + INTRA:          -6.140
REMARK INTER:                  -5.235
REMARK INTRA:                  -0.905
REMARK UNBOUND:                -0.380
REMARK SMILES CCCCCCCCCCC(=O)[O-]
REMARK SMILES IDX 7 1 8 2 9 3 10 4 11 5 12 6 13 7 6 8 5 9 4 10 3 11 2 12 1 13
REMARK H PARENT
REMARK Flexibility Score: inf
ROOT
ATOM      1  C   UNL     1      11.991  31.734 -10.785  1.00  0.00     0.000 C 
ENDROOT
BRANCH   1   2
ATOM      2  C   UNL     1      13.352  32.306 -10.370  1.00  0.00     0.000 C 
BRANCH   2   3
ATOM      3  C   UNL     1      13.890  31.593  -9.120  1.00  0.00     0.006 C 
BRANCH   3   4
ATOM      4  C   UNL     1      14.937  32.435  -8.378  1.00  0.00     0.053 C 
BRANCH   4   5
ATOM      5  C   UNL     1      16.114  32.754  -9.247  1.00  0.00     0.041 C 
ATOM      6  O   UNL     1      16.492  33.947  -9.389  1.00  0.00    -0.550 OA
ATOM      7  O   UNL     1      16.816  31.731  -9.872  1.00  0.00    -0.550 OA
ENDBRANCH   4   5
ENDBRANCH   3   4
ENDBRANCH   2   3
ENDBRANCH   1   2
BRANCH   1   8
ATOM      8  C   UNL     1      10.884  32.202  -9.833  1.00  0.00     0.000 C 
BRANCH   8   9
ATOM      9  C   UNL     1       9.689  31.242  -9.866  1.00  0.00    -0.000 C 
BRANCH   9  10
ATOM     10  C   UNL     1       9.704  30.304  -8.649  1.00  0.00    -0.000 C 
BRANCH  10  11
ATOM     11  C   UNL     1       9.914  28.832  -9.037  1.00  0.00    -0.000 C 
BRANCH  11  12
ATOM     12  C   UNL     1      11.397  28.439  -9.084  1.00  0.00    -0.003 C 
ATOM     13  C   UNL     1      12.130  28.910  -7.831  1.00  0.00     0.004 C 
ENDBRANCH  11  12
ENDBRANCH  10  11
ENDBRANCH   9  10
ENDBRANCH   8   9
ENDBRANCH   1   8
TORSDOF 9
ENDMDL
MODEL 3
REMARK VINA RESULT:    -3.733     11.455     12.310
REMARK INTER + INTRA:          -6.077
REMARK INTER:                  -5.574
REMARK INTRA:                  -0.503
REMARK UNBOUND:                -0.380
REMARK SMILES CCCCCCCCCCC(=O)[O-]
REMARK SMILES IDX 7 1 8 2 9 3 10 4 11 5 12 6 13 7 6 8 5 9 4 10 3 11 2 12 1 13
REMARK H PARENT
REMARK Flexibility Score: inf
ROOT
ATOM      1  C   UNL     1      21.581  18.360 -11.088  1.00  0.00     0.000 C 
ENDROOT
BRANCH   1   2
ATOM      2  C   UNL     1      22.200  19.763 -11.112  1.00  0.00     0.000 C 
BRANCH   2   3
ATOM      3  C   UNL     1      21.126  20.841 -10.897  1.00  0.00     0.006 C 
BRANCH   3   4
ATOM      4  C   UNL     1      21.672  22.257 -11.125  1.00  0.00     0.053 C 
BRANCH   4   5
ATOM      5  C   UNL     1      22.742  22.608 -10.138  1.00  0.00     0.041 C 
ATOM      6  O   UNL     1      22.509  22.544  -8.901  1.00  0.00    -0.550 OA
ATOM      7  O   UNL     1      24.007  22.973 -10.582  1.00  0.00    -0.550 OA
ENDBRANCH   4   5
ENDBRANCH   3   4
ENDBRANCH   2   3
ENDBRANCH   1   2
BRANCH   1   8
ATOM      8  C   UNL     1      20.050  18.434 -11.106  1.00  0.00     0.000 C 
BRANCH   8   9
ATOM      9  C   UNL     1      19.432  17.030 -11.110  1.00  0.00    -0.000 C 
BRANCH   9  10
ATOM     10  C   UNL     1      17.901  17.104 -10.999  1.00  0.00    -0.000 C 
BRANCH  10  11
ATOM     11  C   UNL     1      17.414  18.432 -10.397  1.00  0.00    -0.000 C 
BRANCH  11  12
ATOM     12  C   UNL     1      16.334  18.233  -9.324  1.00  0.00    -0.003 C 
ATOM     13  C   UNL     1      15.168  19.196  -9.534  1.00  0.00     0.004 C 
ENDBRANCH  11  12
ENDBRANCH  10  11
ENDBRANCH   9  10
ENDBRANCH   8   9
ENDBRANCH   1   8
TORSDOF 9
ENDMDL
MODEL 4
REMARK VINA RESULT:    -3.639     18.871     20.692
REMARK INTER + INTRA:          -5.933
REMARK INTER:                  -5.171
REMARK INTRA:                  -0.763
REMARK UNBOUND:                -0.380
REMARK SMILES CCCCCCCCCCC(=O)[O-]
REMARK SMILES IDX 7 1 8 2 9 3 10 4 11 5 12 6 13 7 6 8 5 9 4 10 3 11 2 12 1 13
REMARK H PARENT
REMARK Flexibility Score: inf
ROOT
ATOM      1  C   UNL     1      11.702  32.199  -9.959  1.00  0.00     0.000 C 
ENDROOT
BRANCH   1   2
ATOM      2  C   UNL     1      10.475  31.280  -9.922  1.00  0.00     0.000 C 
BRANCH   2   3
ATOM      3  C   UNL     1      10.744  29.971 -10.681  1.00  0.00     0.006 C 
BRANCH   3   4
ATOM      4  C   UNL     1      10.153  28.752  -9.962  1.00  0.00     0.053 C 
BRANCH   4   5
ATOM      5  C   UNL     1      10.806  28.516  -8.635  1.00  0.00     0.041 C 
ATOM      6  O   UNL     1      10.120  28.131  -7.651  1.00  0.00    -0.550 OA
ATOM      7  O   UNL     1      12.178  28.687  -8.494  1.00  0.00    -0.550 OA
ENDBRANCH   4   5
ENDBRANCH   3   4
ENDBRANCH   2   3
ENDBRANCH   1   2
BRANCH   1   8
ATOM      8  C   UNL     1      12.687  31.757 -11.047  1.00  0.00     0.000 C 
BRANCH   8   9
ATOM      9  C   UNL     1      14.105  31.612 -10.480  1.00  0.00    -0.000 C 
BRANCH   9  10
ATOM     10  C   UNL     1      14.123  31.893  -8.969  1.00  0.00    -0.000 C 
BRANCH  10  11
ATOM     11  C   UNL     1      15.477  32.433  -8.483  1.00  0.00    -0.000 C 
BRANCH  11  12
ATOM     12  C   UNL     1      16.378  32.895  -9.637  1.00  0.00    -0.003 C 
ATOM     13  C   UNL     1      16.486  34.417  -9.674  1.00  0.00     0.004 C 
ENDBRANCH  11  12
ENDBRANCH  10  11
ENDBRANCH   9  10
ENDBRANCH   8   9
ENDBRANCH   1   8
TORSDOF 9
ENDMDL
MODEL 5
REMARK VINA RESULT:    -3.615      1.329      2.233
REMARK INTER + INTRA:          -5.897
REMARK INTER:                  -5.599
REMARK INTRA:                  -0.298
REMARK UNBOUND:                -0.380
REMARK SMILES CCCCCCCCCCC(=O)[O-]
REMARK SMILES IDX 7 1 8 2 9 3 10 4 11 5 12 6 13 7 6 8 5 9 4 10 3 11 2 12 1 13
REMARK H PARENT
REMARK Flexibility Score: inf
ROOT
ATOM      1  C   UNL     1      27.909  21.975  -2.718  1.00  0.00     0.000 C 
ENDROOT
BRANCH   1   2
ATOM      2  C   UNL     1      28.737  23.264  -2.777  1.00  0.00     0.000 C 
BRANCH   2   3
ATOM      3  C   UNL     1      28.025  24.410  -2.042  1.00  0.00     0.006 C 
BRANCH   3   4
ATOM      4  C   UNL     1      28.982  25.209  -1.148  1.00  0.00     0.053 C 
BRANCH   4   5
ATOM      5  C   UNL     1      28.412  25.435   0.218  1.00  0.00     0.041 C 
ATOM      6  O   UNL     1      29.115  25.968   1.118  1.00  0.00    -0.550 OA
ATOM      7  O   UNL     1      27.094  25.090   0.488  1.00  0.00    -0.550 OA
ENDBRANCH   4   5
ENDBRANCH   3   4
ENDBRANCH   2   3
ENDBRANCH   1   2
BRANCH   1   8
ATOM      8  C   UNL     1      28.606  20.838  -3.473  1.00  0.00     0.000 C 
BRANCH   8   9
ATOM      9  C   UNL     1      28.030  19.475  -3.070  1.00  0.00    -0.000 C 
BRANCH   9  10
ATOM     10  C   UNL     1      29.125  18.566  -2.492  1.00  0.00    -0.000 C 
BRANCH  10  11
ATOM     11  C   UNL     1      28.836  18.137  -1.044  1.00  0.00    -0.000 C 
BRANCH  11  12
ATOM     12  C   UNL     1      27.965  16.875  -0.964  1.00  0.00    -0.003 C 
ATOM     13  C   UNL     1      27.104  16.881   0.296  1.00  0.00     0.004 C 
ENDBRANCH  11  12
ENDBRANCH  10  11
ENDBRANCH   9  10
ENDBRANCH   8   9
ENDBRANCH   1   8
TORSDOF 9
ENDMDL
MODEL 6
REMARK VINA RESULT:    -3.209      1.750      3.351
REMARK INTER + INTRA:          -5.278
REMARK INTER:                  -5.009
REMARK INTRA:                  -0.269
REMARK UNBOUND:                -0.380
REMARK SMILES CCCCCCCCCCC(=O)[O-]
REMARK SMILES IDX 7 1 8 2 9 3 10 4 11 5 12 6 13 7 6 8 5 9 4 10 3 11 2 12 1 13
REMARK H PARENT
REMARK Flexibility Score: inf
ROOT
ATOM      1  C   UNL     1      27.264  23.230  -2.455  1.00  0.00     0.000 C 
ENDROOT
BRANCH   1   2
ATOM      2  C   UNL     1      27.797  24.629  -2.125  1.00  0.00     0.000 C 
BRANCH   2   3
ATOM      3  C   UNL     1      29.037  24.547  -1.221  1.00  0.00     0.006 C 
BRANCH   3   4
ATOM      4  C   UNL     1      29.125  25.730  -0.248  1.00  0.00     0.053 C 
BRANCH   4   5
ATOM      5  C   UNL     1      28.325  25.491   0.995  1.00  0.00     0.041 C 
ATOM      6  O   UNL     1      28.850  25.657   2.128  1.00  0.00    -0.550 OA
ATOM      7  O   UNL     1      26.989  25.119   0.903  1.00  0.00    -0.550 OA
ENDBRANCH   4   5
ENDBRANCH   3   4
ENDBRANCH   2   3
ENDBRANCH   1   2
BRANCH   1   8
ATOM      8  C   UNL     1      28.145  22.538  -3.502  1.00  0.00     0.000 C 
BRANCH   8   9
ATOM      9  C   UNL     1      28.884  21.339  -2.895  1.00  0.00    -0.000 C 
BRANCH   9  10
ATOM     10  C   UNL     1      28.772  20.107  -3.806  1.00  0.00    -0.000 C 
BRANCH  10  11
ATOM     11  C   UNL     1      28.909  18.785  -3.033  1.00  0.00    -0.000 C 
BRANCH  11  12
ATOM     12  C   UNL     1      28.010  18.730  -1.790  1.00  0.00    -0.003 C 
ATOM     13  C   UNL     1      28.371  17.542  -0.904  1.00  0.00     0.004 C 
ENDBRANCH  11  12
ENDBRANCH  10  11
ENDBRANCH   9  10
ENDBRANCH   8   9
ENDBRANCH   1   8
TORSDOF 9
ENDMDL
MODEL 7
REMARK VINA RESULT:    -3.140      2.604      4.169
REMARK INTER + INTRA:          -5.172
REMARK INTER:                  -4.642
REMARK INTRA:                  -0.531
REMARK UNBOUND:                -0.380
REMARK SMILES CCCCCCCCCCC(=O)[O-]
REMARK SMILES IDX 7 1 8 2 9 3 10 4 11 5 12 6 13 7 6 8 5 9 4 10 3 11 2 12 1 13
REMARK H PARENT
REMARK Flexibility Score: inf
ROOT
ATOM      1  C   UNL     1      27.087  24.339  -1.629  1.00  0.00     0.000 C 
ENDROOT
BRANCH   1   2
ATOM      2  C   UNL     1      28.255  25.292  -1.909  1.00  0.00     0.000 C 
BRANCH   2   3
ATOM      3  C   UNL     1      28.937  25.726  -0.602  1.00  0.00     0.006 C 
BRANCH   3   4
ATOM      4  C   UNL     1      28.034  25.516   0.621  1.00  0.00     0.053 C 
BRANCH   4   5
ATOM      5  C   UNL     1      28.756  25.801   1.902  1.00  0.00     0.041 C 
ATOM      6  O   UNL     1      29.125  26.975   2.174  1.00  0.00    -0.550 OA
ATOM      7  O   UNL     1      28.990  24.777   2.811  1.00  0.00    -0.550 OA
ENDBRANCH   4   5
ENDBRANCH   3   4
ENDBRANCH   2   3
ENDBRANCH   1   2
BRANCH   1   8
ATOM      8  C   UNL     1      27.243  23.031  -2.414  1.00  0.00     0.000 C 
BRANCH   8   9
ATOM      9  C   UNL     1      28.720  22.737  -2.705  1.00  0.00    -0.000 C 
BRANCH   9  10
ATOM     10  C   UNL     1      29.056  21.268  -2.404  1.00  0.00    -0.000 C 
BRANCH  10  11
ATOM     11  C   UNL     1      27.824  20.352  -2.473  1.00  0.00    -0.000 C 
BRANCH  11  12
ATOM     12  C   UNL     1      28.192  18.884  -2.733  1.00  0.00    -0.003 C 
ATOM     13  C   UNL     1      28.829  18.251  -1.499  1.00  0.00     0.004 C 
ENDBRANCH  11  12
ENDBRANCH  10  11
ENDBRANCH   9  10
ENDBRANCH   8   9
ENDBRANCH   1   8
TORSDOF 9
ENDMDL
MODEL 8
REMARK VINA RESULT:    -3.057      3.532      6.350
REMARK INTER + INTRA:          -5.046
REMARK INTER:                  -4.529
REMARK INTRA:                  -0.517
REMARK UNBOUND:                -0.380
REMARK SMILES CCCCCCCCCCC(=O)[O-]
REMARK SMILES IDX 7 1 8 2 9 3 10 4 11 5 12 6 13 7 6 8 5 9 4 10 3 11 2 12 1 13
REMARK H PARENT
REMARK Flexibility Score: inf
ROOT
ATOM      1  C   UNL     1      27.374  22.675  -2.079  1.00  0.00     0.000 C 
ENDROOT
BRANCH   1   2
ATOM      2  C   UNL     1      28.235  22.435  -3.325  1.00  0.00     0.000 C 
BRANCH   2   3
ATOM      3  C   UNL     1      29.055  21.143  -3.186  1.00  0.00     0.006 C 
BRANCH   3   4
ATOM      4  C   UNL     1      28.445  20.176  -2.163  1.00  0.00     0.053 C 
BRANCH   4   5
ATOM      5  C   UNL     1      28.512  18.755  -2.630  1.00  0.00     0.041 C 
ATOM      6  O   UNL     1      28.647  18.497  -3.855  1.00  0.00    -0.550 OA
ATOM      7  O   UNL     1      28.460  17.716  -1.709  1.00  0.00    -0.550 OA
ENDBRANCH   4   5
ENDBRANCH   3   4
ENDBRANCH   2   3
ENDBRANCH   1   2
BRANCH   1   8
ATOM      8  C   UNL     1      27.276  24.171  -1.757  1.00  0.00     0.000 C 
BRANCH   8   9
ATOM      9  C   UNL     1      28.588  24.892  -2.089  1.00  0.00    -0.000 C 
BRANCH   9  10
ATOM     10  C   UNL     1      29.001  25.834  -0.948  1.00  0.00    -0.000 C 
BRANCH  10  11
ATOM     11  C   UNL     1      28.367  25.448   0.398  1.00  0.00    -0.000 C 
BRANCH  11  12
ATOM     12  C   UNL     1      29.120  26.040   1.598  1.00  0.00    -0.003 C 
ATOM     13  C   UNL     1      28.551  25.521   2.915  1.00  0.00     0.004 C 
ENDBRANCH  11  12
ENDBRANCH  10  11
ENDBRANCH   9  10
ENDBRANCH   8   9
ENDBRANCH   1   8
TORSDOF 9
ENDMDL
