MODEL 1
REMARK VINA RESULT:    -4.688      0.000      0.000
REMARK INTER + INTRA:         -10.590
REMARK INTER:                  -8.250
REMARK INTRA:                  -2.340
REMARK UNBOUND:                -2.340
REMARK SMILES CCCCCCC=CCCCCCCCC(=O)[O-]
REMARK SMILES IDX 10 1 11 2 12 3 13 4 14 5 15 6 16 7 17 8 18 9 9 10 8 11 7 12
REMARK SMILES IDX 6 13 5 14 4 15 3 16 2 17 1 18
REMARK H PARENT
REMARK Flexibility Score: inf
ROOT
ATOM      1  C   UNL     1      21.806  -5.762  33.785  1.00  0.00     0.004 C 
ENDROOT
BRANCH   1   2
ATOM      2  C   UNL     1      21.157  -7.155  33.769  1.00  0.00     0.000 C 
BRANCH   2   3
ATOM      3  C   UNL     1      19.620  -7.102  33.832  1.00  0.00     0.000 C 
BRANCH   3   4
ATOM      4  C   UNL     1      18.898  -7.785  32.658  1.00  0.00     0.000 C 
BRANCH   4   5
ATOM      5  C   UNL     1      17.368  -7.796  32.819  1.00  0.00     0.006 C 
BRANCH   5   6
ATOM      6  C   UNL     1      16.911  -8.737  33.942  1.00  0.00     0.053 C 
BRANCH   6   7
ATOM      7  C   UNL     1      16.003  -8.043  34.910  1.00  0.00     0.041 C 
ATOM      8  O   UNL     1      16.363  -6.968  35.456  1.00  0.00    -0.550 OA
ATOM      9  O   UNL     1      14.773  -8.603  35.236  1.00  0.00    -0.550 OA
ENDBRANCH   6   7
ENDBRANCH   5   6
ENDBRANCH   4   5
ENDBRANCH   3   4
ENDBRANCH   2   3
ENDBRANCH   1   2
BRANCH   1  10
ATOM     10  C   UNL     1      22.638  -5.530  32.518  1.00  0.00     0.027 C 
BRANCH  10  11
ATOM     11  C   UNL     1      22.208  -6.454  31.406  1.00  0.00    -0.031 C 
ATOM     12  C   UNL     1      21.342  -6.101  30.439  1.00  0.00    -0.031 C 
BRANCH  12  13
ATOM     13  C   UNL     1      20.652  -4.762  30.363  1.00  0.00     0.027 C 
BRANCH  13  14
ATOM     14  C   UNL     1      19.138  -4.918  30.544  1.00  0.00     0.004 C 
BRANCH  14  15
ATOM     15  C   UNL     1      18.648  -4.146  31.777  1.00  0.00     0.000 C 
BRANCH  15  16
ATOM     16  C   UNL     1      19.680  -3.106  32.264  1.00  0.00    -0.000 C 
BRANCH  16  17
ATOM     17  C   UNL     1      19.594  -2.813  33.771  1.00  0.00    -0.003 C 
ATOM     18  C   UNL     1      20.628  -1.794  34.243  1.00  0.00     0.004 C 
ENDBRANCH  16  17
ENDBRANCH  15  16
ENDBRANCH  14  15
ENDBRANCH  13  14
ENDBRANCH  12  13
ENDBRANCH  10  11
ENDBRANCH   1  10
TORSDOF 13
ENDMDL
MODEL 2
REMARK VINA RESULT:    -4.675      3.404      5.975
REMARK INTER + INTRA:         -10.567
REMARK INTER:                  -8.298
REMARK INTRA:                  -2.269
REMARK UNBOUND:                -2.340
REMARK SMILES CCCCCCC=CCCCCCCCC(=O)[O-]
REMARK SMILES IDX 10 1 11 2 12 3 13 4 14 5 15 6 16 7 17 8 18 9 9 10 8 11 7 12
REMARK SMILES IDX 6 13 5 14 4 15 3 16 2 17 1 18
REMARK H PARENT
REMARK Flexibility Score: inf
ROOT
ATOM      1  C   UNL     1      19.388  -5.310  30.240  1.00  0.00     0.004 C 
ENDROOT
BRANCH   1   2
ATOM      2  C   UNL     1      18.658  -4.291  31.129  1.00  0.00     0.000 C 
BRANCH   2   3
ATOM      3  C   UNL     1      19.584  -3.181  31.655  1.00  0.00     0.000 C 
BRANCH   3   4
ATOM      4  C   UNL     1      19.353  -2.784  33.125  1.00  0.00     0.000 C 
BRANCH   4   5
ATOM      5  C   UNL     1      20.646  -2.364  33.843  1.00  0.00     0.006 C 
BRANCH   5   6
ATOM      6  C   UNL     1      20.381  -1.350  34.965  1.00  0.00     0.053 C 
BRANCH   6   7
ATOM      7  C   UNL     1      21.592  -0.517  35.254  1.00  0.00     0.041 C 
ATOM      8  O   UNL     1      22.369  -0.834  36.192  1.00  0.00    -0.550 OA
ATOM      9  O   UNL     1      21.843   0.630  34.510  1.00  0.00    -0.550 OA
ENDBRANCH   6   7
ENDBRANCH   5   6
ENDBRANCH   4   5
ENDBRANCH   3   4
ENDBRANCH   2   3
ENDBRANCH   1   2
BRANCH   1  10
ATOM     10  C   UNL     1      20.843  -4.888  30.004  1.00  0.00     0.027 C 
BRANCH  10  11
ATOM     11  C   UNL     1      21.781  -6.061  30.155  1.00  0.00    -0.031 C 
ATOM     12  C   UNL     1      22.330  -6.427  31.327  1.00  0.00    -0.031 C 
BRANCH  12  13
ATOM     13  C   UNL     1      22.125  -5.692  32.628  1.00  0.00     0.027 C 
BRANCH  13  14
ATOM     14  C   UNL     1      21.598  -6.638  33.712  1.00  0.00     0.004 C 
BRANCH  14  15
ATOM     15  C   UNL     1      20.376  -6.035  34.422  1.00  0.00     0.000 C 
BRANCH  15  16
ATOM     16  C   UNL     1      19.047  -6.485  33.780  1.00  0.00    -0.000 C 
BRANCH  16  17
ATOM     17  C   UNL     1      19.161  -7.794  32.980  1.00  0.00    -0.003 C 
ATOM     18  C   UNL     1      17.883  -8.629  33.014  1.00  0.00     0.004 C 
ENDBRANCH  16  17
ENDBRANCH  15  16
ENDBRANCH  14  15
ENDBRANCH  13  14
ENDBRANCH  12  13
ENDBRANCH  10  11
ENDBRANCH   1  10
TORSDOF 13
ENDMDL
MODEL 3
REMARK VINA RESULT:    -4.674      1.991      3.858
REMARK INTER + INTRA:         -10.567
REMARK INTER:                  -8.312
REMARK INTRA:                  -2.254
REMARK UNBOUND:                -2.340
REMARK SMILES CCCCCCC=CCCCCCCCC(=O)[O-]
REMARK SMILES IDX 10 1 11 2 12 3 13 4 14 5 15 6 16 7 17 8 18 9 9 10 8 11 7 12
REMARK SMILES IDX 6 13 5 14 4 15 3 16 2 17 1 18
REMARK H PARENT
REMARK Flexibility Score: inf
ROOT
ATOM      1  C   UNL     1      21.978  -6.645  33.205  1.00  0.00     0.004 C 
ENDROOT
BRANCH   1   2
ATOM      2  C   UNL     1      22.596  -5.859  32.038  1.00  0.00     0.000 C 
BRANCH   2   3
ATOM      3  C   UNL     1      21.911  -6.148  30.690  1.00  0.00     0.000 C 
BRANCH   3   4
ATOM      4  C   UNL     1      20.900  -5.081  30.234  1.00  0.00     0.000 C 
BRANCH   4   5
ATOM      5  C   UNL     1      19.457  -5.402  30.659  1.00  0.00     0.006 C 
BRANCH   5   6
ATOM      6  C   UNL     1      19.245  -6.903  30.898  1.00  0.00     0.053 C 
BRANCH   6   7
ATOM      7  C   UNL     1      18.427  -7.157  32.127  1.00  0.00     0.041 C 
ATOM      8  O   UNL     1      17.484  -6.381  32.431  1.00  0.00    -0.550 OA
ATOM      9  O   UNL     1      18.727  -8.232  32.955  1.00  0.00    -0.550 OA
ENDBRANCH   6   7
ENDBRANCH   5   6
ENDBRANCH   4   5
ENDBRANCH   3   4
ENDBRANCH   2   3
ENDBRANCH   1   2
BRANCH   1  10
ATOM     10  C   UNL     1      21.863  -5.768  34.457  1.00  0.00     0.027 C 
BRANCH  10  11
ATOM     11  C   UNL     1      20.419  -5.478  34.787  1.00  0.00    -0.031 C 
ATOM     12  C   UNL     1      19.767  -4.378  34.371  1.00  0.00    -0.031 C 
BRANCH  12  13
ATOM     13  C   UNL     1      20.399  -3.269  33.566  1.00  0.00     0.027 C 
BRANCH  13  14
ATOM     14  C   UNL     1      19.898  -1.900  34.036  1.00  0.00     0.004 C 
BRANCH  14  15
ATOM     15  C   UNL     1      20.414  -1.579  35.446  1.00  0.00     0.000 C 
BRANCH  15  16
ATOM     16  C   UNL     1      21.779  -0.858  35.419  1.00  0.00    -0.000 C 
BRANCH  16  17
ATOM     17  C   UNL     1      22.837  -1.508  36.326  1.00  0.00    -0.003 C 
ATOM     18  C   UNL     1      23.479  -2.747  35.705  1.00  0.00     0.004 C 
ENDBRANCH  16  17
ENDBRANCH  15  16
ENDBRANCH  14  15
ENDBRANCH  13  14
ENDBRANCH  12  13
ENDBRANCH  10  11
ENDBRANCH   1  10
TORSDOF 13
ENDMDL
MODEL 4
REMARK VINA RESULT:    -4.650      2.695      5.088
REMARK INTER + INTRA:         -10.524
REMARK INTER:                  -8.230
REMARK INTRA:                  -2.294
REMARK UNBOUND:                -2.340
REMARK SMILES CCCCCCC=CCCCCCCCC(=O)[O-]
REMARK SMILES IDX 10 1 11 2 12 3 13 4 14 5 15 6 16 7 17 8 18 9 9 10 8 11 7 12
REMARK SMILES IDX 6 13 5 14 4 15 3 16 2 17 1 18
REMARK H PARENT
REMARK Flexibility Score: inf
ROOT
ATOM      1  C   UNL     1      20.960  -4.753  34.268  1.00  0.00     0.004 C 
ENDROOT
BRANCH   1   2
ATOM      2  C   UNL     1      22.317  -5.297  33.796  1.00  0.00     0.000 C 
BRANCH   2   3
ATOM      3  C   UNL     1      22.185  -6.363  32.693  1.00  0.00     0.000 C 
BRANCH   3   4
ATOM      4  C   UNL     1      22.395  -5.843  31.260  1.00  0.00     0.000 C 
BRANCH   4   5
ATOM      5  C   UNL     1      21.158  -6.032  30.366  1.00  0.00     0.006 C 
BRANCH   5   6
ATOM      6  C   UNL     1      19.969  -6.618  31.141  1.00  0.00     0.053 C 
BRANCH   6   7
ATOM      7  C   UNL     1      18.878  -5.609  31.326  1.00  0.00     0.041 C 
ATOM      8  O   UNL     1      18.910  -4.519  30.696  1.00  0.00    -0.550 OA
ATOM      9  O   UNL     1      17.844  -5.856  32.221  1.00  0.00    -0.550 OA
ENDBRANCH   6   7
ENDBRANCH   5   6
ENDBRANCH   4   5
ENDBRANCH   3   4
ENDBRANCH   2   3
ENDBRANCH   1   2
BRANCH   1  10
ATOM     10  C   UNL     1      20.654  -3.400  33.614  1.00  0.00     0.027 C 
BRANCH  10  11
ATOM     11  C   UNL     1      19.755  -2.563  34.490  1.00  0.00    -0.031 C 
ATOM     12  C   UNL     1      20.132  -1.397  35.044  1.00  0.00    -0.031 C 
BRANCH  12  13
ATOM     13  C   UNL     1      21.510  -0.798  34.908  1.00  0.00     0.027 C 
BRANCH  13  14
ATOM     14  C   UNL     1      22.388  -1.174  36.105  1.00  0.00     0.004 C 
BRANCH  14  15
ATOM     15  C   UNL     1      23.408  -2.257  35.722  1.00  0.00     0.000 C 
BRANCH  15  16
ATOM     16  C   UNL     1      23.408  -3.437  36.718  1.00  0.00    -0.000 C 
BRANCH  16  17
ATOM     17  C   UNL     1      22.221  -3.417  37.696  1.00  0.00    -0.003 C 
ATOM     18  C   UNL     1      21.590  -4.792  37.901  1.00  0.00     0.004 C 
ENDBRANCH  16  17
ENDBRANCH  15  16
ENDBRANCH  14  15
ENDBRANCH  13  14
ENDBRANCH  12  13
ENDBRANCH  10  11
ENDBRANCH   1  10
TORSDOF 13
ENDMDL
MODEL 5
REMARK VINA RESULT:    -4.619      3.707      6.277
REMARK INTER + INTRA:         -10.469
REMARK INTER:                  -8.228
REMARK INTRA:                  -2.241
REMARK UNBOUND:                -2.340
REMARK SMILES CCCCCCC=CCCCCCCCC(=O)[O-]
REMARK SMILES IDX 10 1 11 2 12 3 13 4 14 5 15 6 16 7 17 8 18 9 9 10 8 11 7 12
REMARK SMILES IDX 6 13 5 14 4 15 3 16 2 17 1 18
REMARK H PARENT
REMARK Flexibility Score: inf
ROOT
ATOM      1  C   UNL     1      18.927  -4.049  31.563  1.00  0.00     0.004 C 
ENDROOT
BRANCH   1   2
ATOM      2  C   UNL     1      19.358  -2.848  32.419  1.00  0.00     0.000 C 
BRANCH   2   3
ATOM      3  C   UNL     1      18.961  -2.993  33.899  1.00  0.00     0.000 C 
BRANCH   3   4
ATOM      4  C   UNL     1      19.692  -2.041  34.863  1.00  0.00     0.000 C 
BRANCH   4   5
ATOM      5  C   UNL     1      21.084  -1.629  34.358  1.00  0.00     0.006 C 
BRANCH   5   6
ATOM      6  C   UNL     1      21.808  -0.703  35.346  1.00  0.00     0.053 C 
BRANCH   6   7
ATOM      7  C   UNL     1      21.488   0.738  35.090  1.00  0.00     0.041 C 
ATOM      8  O   UNL     1      22.262   1.444  34.392  1.00  0.00    -0.550 OA
ATOM      9  O   UNL     1      20.353   1.310  35.652  1.00  0.00    -0.550 OA
ENDBRANCH   6   7
ENDBRANCH   5   6
ENDBRANCH   4   5
ENDBRANCH   3   4
ENDBRANCH   2   3
ENDBRANCH   1   2
BRANCH   1  10
ATOM     10  C   UNL     1      19.877  -4.247  30.377  1.00  0.00     0.027 C 
BRANCH  10  11
ATOM     11  C   UNL     1      19.939  -5.698  29.965  1.00  0.00    -0.031 C 
ATOM     12  C   UNL     1      21.052  -6.449  30.054  1.00  0.00    -0.031 C 
BRANCH  12  13
ATOM     13  C   UNL     1      22.389  -5.935  30.525  1.00  0.00     0.027 C 
BRANCH  13  14
ATOM     14  C   UNL     1      22.667  -6.375  31.965  1.00  0.00     0.004 C 
BRANCH  14  15
ATOM     15  C   UNL     1      22.261  -5.281  32.964  1.00  0.00     0.000 C 
BRANCH  15  16
ATOM     16  C   UNL     1      21.303  -5.809  34.052  1.00  0.00    -0.000 C 
BRANCH  16  17
ATOM     17  C   UNL     1      20.792  -7.235  33.784  1.00  0.00    -0.003 C 
ATOM     18  C   UNL     1      19.348  -7.270  33.289  1.00  0.00     0.004 C 
ENDBRANCH  16  17
ENDBRANCH  15  16
ENDBRANCH  14  15
ENDBRANCH  13  14
ENDBRANCH  12  13
ENDBRANCH  10  11
ENDBRANCH   1  10
TORSDOF 13
ENDMDL
MODEL 6
REMARK VINA RESULT:    -4.610      9.856     12.098
REMARK INTER + INTRA:         -10.454
REMARK INTER:                  -8.836
REMARK INTRA:                  -1.618
REMARK UNBOUND:                -2.340
REMARK SMILES CCCCCCC=CCCCCCCCC(=O)[O-]
REMARK SMILES IDX 10 1 11 2 12 3 13 4 14 5 15 6 16 7 17 8 18 9 9 10 8 11 7 12
REMARK SMILES IDX 6 13 5 14 4 15 3 16 2 17 1 18
REMARK H PARENT
REMARK Flexibility Score: inf
ROOT
ATOM      1  C   UNL     1      11.621  -1.979  41.185  1.00  0.00     0.004 C 
ENDROOT
BRANCH   1   2
ATOM      2  C   UNL     1      11.948  -3.087  42.196  1.00  0.00     0.000 C 
BRANCH   2   3
ATOM      3  C   UNL     1      13.432  -3.109  42.605  1.00  0.00     0.000 C 
BRANCH   3   4
ATOM      4  C   UNL     1      14.428  -2.974  41.440  1.00  0.00     0.000 C 
BRANCH   4   5
ATOM      5  C   UNL     1      15.592  -3.975  41.527  1.00  0.00     0.006 C 
BRANCH   5   6
ATOM      6  C   UNL     1      15.112  -5.393  41.866  1.00  0.00     0.053 C 
BRANCH   6   7
ATOM      7  C   UNL     1      16.260  -6.343  42.025  1.00  0.00     0.041 C 
ATOM      8  O   UNL     1      17.000  -6.610  41.043  1.00  0.00    -0.550 OA
ATOM      9  O   UNL     1      16.490  -6.960  43.248  1.00  0.00    -0.550 OA
ENDBRANCH   6   7
ENDBRANCH   5   6
ENDBRANCH   4   5
ENDBRANCH   3   4
ENDBRANCH   2   3
ENDBRANCH   1   2
BRANCH   1  10
ATOM     10  C   UNL     1      11.362  -0.646  41.895  1.00  0.00     0.027 C 
BRANCH  10  11
ATOM     11  C   UNL     1      11.857   0.517  41.071  1.00  0.00    -0.031 C 
ATOM     12  C   UNL     1      12.888   1.301  41.435  1.00  0.00    -0.031 C 
BRANCH  12  13
ATOM     13  C   UNL     1      13.649   1.158  42.729  1.00  0.00     0.027 C 
BRANCH  13  14
ATOM     14  C   UNL     1      14.976   0.426  42.503  1.00  0.00     0.004 C 
BRANCH  14  15
ATOM     15  C   UNL     1      15.513  -0.158  43.818  1.00  0.00     0.000 C 
BRANCH  15  16
ATOM     16  C   UNL     1      16.863  -0.882  43.627  1.00  0.00    -0.000 C 
BRANCH  16  17
ATOM     17  C   UNL     1      17.793  -0.783  44.848  1.00  0.00    -0.003 C 
ATOM     18  C   UNL     1      19.262  -0.606  44.469  1.00  0.00     0.004 C 
ENDBRANCH  16  17
ENDBRANCH  15  16
ENDBRANCH  14  15
ENDBRANCH  13  14
ENDBRANCH  12  13
ENDBRANCH  10  11
ENDBRANCH   1  10
TORSDOF 13
ENDMDL
MODEL 7
REMARK VINA RESULT:    -4.610      3.770      5.364
REMARK INTER + INTRA:         -10.453
REMARK INTER:                  -8.243
REMARK INTRA:                  -2.210
REMARK UNBOUND:                -2.340
REMARK SMILES CCCCCCC=CCCCCCCCC(=O)[O-]
REMARK SMILES IDX 10 1 11 2 12 3 13 4 14 5 15 6 16 7 17 8 18 9 9 10 8 11 7 12
REMARK SMILES IDX 6 13 5 14 4 15 3 16 2 17 1 18
REMARK H PARENT
REMARK Flexibility Score: inf
ROOT
ATOM      1  C   UNL     1      22.269  -5.374  33.306  1.00  0.00     0.004 C 
ENDROOT
BRANCH   1   2
ATOM      2  C   UNL     1      21.422  -5.876  34.485  1.00  0.00     0.000 C 
BRANCH   2   3
ATOM      3  C   UNL     1      21.545  -4.985  35.734  1.00  0.00     0.000 C 
BRANCH   3   4
ATOM      4  C   UNL     1      22.854  -5.153  36.526  1.00  0.00     0.000 C 
BRANCH   4   5
ATOM      5  C   UNL     1      23.533  -3.812  36.853  1.00  0.00     0.006 C 
BRANCH   5   6
ATOM      6  C   UNL     1      23.235  -2.739  35.797  1.00  0.00     0.053 C 
BRANCH   6   7
ATOM      7  C   UNL     1      22.892  -1.424  36.426  1.00  0.00     0.041 C 
ATOM      8  O   UNL     1      22.414  -1.384  37.590  1.00  0.00    -0.550 OA
ATOM      9  O   UNL     1      23.068  -0.244  35.714  1.00  0.00    -0.550 OA
ENDBRANCH   6   7
ENDBRANCH   5   6
ENDBRANCH   4   5
ENDBRANCH   3   4
ENDBRANCH   2   3
ENDBRANCH   1   2
BRANCH   1  10
ATOM     10  C   UNL     1      22.480  -6.485  32.270  1.00  0.00     0.027 C 
BRANCH  10  11
ATOM     11  C   UNL     1      22.545  -5.920  30.872  1.00  0.00    -0.031 C 
ATOM     12  C   UNL     1      21.477  -5.818  30.061  1.00  0.00    -0.031 C 
BRANCH  12  13
ATOM     13  C   UNL     1      20.091  -6.296  30.417  1.00  0.00     0.027 C 
BRANCH  13  14
ATOM     14  C   UNL     1      19.185  -5.118  30.788  1.00  0.00     0.004 C 
BRANCH  14  15
ATOM     15  C   UNL     1      18.513  -5.346  32.149  1.00  0.00     0.000 C 
BRANCH  15  16
ATOM     16  C   UNL     1      18.588  -4.099  33.055  1.00  0.00    -0.000 C 
BRANCH  16  17
ATOM     17  C   UNL     1      19.554  -3.020  32.538  1.00  0.00    -0.003 C 
ATOM     18  C   UNL     1      20.263  -2.264  33.659  1.00  0.00     0.004 C 
ENDBRANCH  16  17
ENDBRANCH  15  16
ENDBRANCH  14  15
ENDBRANCH  13  14
ENDBRANCH  12  13
ENDBRANCH  10  11
ENDBRANCH   1  10
TORSDOF 13
ENDMDL
MODEL 8
REMARK VINA RESULT:    -4.589      3.880      5.537
REMARK INTER + INTRA:         -10.416
REMARK INTER:                  -8.549
REMARK INTRA:                  -1.867
REMARK UNBOUND:                -2.340
REMARK SMILES CCCCCCC=CCCCCCCCC(=O)[O-]
REMARK SMILES IDX 10 1 11 2 12 3 13 4 14 5 15 6 16 7 17 8 18 9 9 10 8 11 7 12
REMARK SMILES IDX 6 13 5 14 4 15 3 16 2 17 1 18
REMARK H PARENT
REMARK Flexibility Score: inf
ROOT
ATOM      1  C   UNL     1      21.308  -5.830  34.424  1.00  0.00     0.004 C 
ENDROOT
BRANCH   1   2
ATOM      2  C   UNL     1      22.370  -4.721  34.393  1.00  0.00     0.000 C 
BRANCH   2   3
ATOM      3  C   UNL     1      22.132  -3.631  35.453  1.00  0.00     0.000 C 
BRANCH   3   4
ATOM      4  C   UNL     1      23.357  -2.754  35.769  1.00  0.00     0.000 C 
BRANCH   4   5
ATOM      5  C   UNL     1      23.003  -1.266  35.930  1.00  0.00     0.006 C 
BRANCH   5   6
ATOM      6  C   UNL     1      21.628  -0.931  35.337  1.00  0.00     0.053 C 
BRANCH   6   7
ATOM      7  C   UNL     1      20.817  -0.079  36.265  1.00  0.00     0.041 C 
ATOM      8  O   UNL     1      19.765   0.479  35.856  1.00  0.00    -0.550 OA
ATOM      9  O   UNL     1      21.242   0.127  37.572  1.00  0.00    -0.550 OA
ENDBRANCH   6   7
ENDBRANCH   5   6
ENDBRANCH   4   5
ENDBRANCH   3   4
ENDBRANCH   2   3
ENDBRANCH   1   2
BRANCH   1  10
ATOM     10  C   UNL     1      21.535  -6.841  33.295  1.00  0.00     0.027 C 
BRANCH  10  11
ATOM     11  C   UNL     1      22.618  -6.372  32.354  1.00  0.00    -0.031 C 
ATOM     12  C   UNL     1      22.416  -6.143  31.044  1.00  0.00    -0.031 C 
BRANCH  12  13
ATOM     13  C   UNL     1      21.105  -6.370  30.333  1.00  0.00     0.027 C 
BRANCH  13  14
ATOM     14  C   UNL     1      20.429  -5.037  29.997  1.00  0.00     0.004 C 
BRANCH  14  15
ATOM     15  C   UNL     1      19.371  -4.675  31.050  1.00  0.00     0.000 C 
BRANCH  15  16
ATOM     16  C   UNL     1      19.325  -3.159  31.334  1.00  0.00    -0.000 C 
BRANCH  16  17
ATOM     17  C   UNL     1      19.855  -2.777  32.727  1.00  0.00    -0.003 C 
ATOM     18  C   UNL     1      18.807  -2.925  33.827  1.00  0.00     0.004 C 
ENDBRANCH  16  17
ENDBRANCH  15  16
ENDBRANCH  14  15
ENDBRANCH  13  14
ENDBRANCH  12  13
ENDBRANCH  10  11
ENDBRANCH   1  10
TORSDOF 13
ENDMDL
MODEL 9
REMARK VINA RESULT:    -4.506      4.648      7.037
REMARK INTER + INTRA:         -10.270
REMARK INTER:                  -8.922
REMARK INTRA:                  -1.348
REMARK UNBOUND:                -2.340
REMARK SMILES CCCCCCC=CCCCCCCCC(=O)[O-]
REMARK SMILES IDX 10 1 11 2 12 3 13 4 14 5 15 6 16 7 17 8 18 9 9 10 8 11 7 12
REMARK SMILES IDX 6 13 5 14 4 15 3 16 2 17 1 18
REMARK H PARENT
REMARK Flexibility Score: inf
ROOT
ATOM      1  C   UNL     1      23.025  -1.495  36.872  1.00  0.00     0.004 C 
ENDROOT
BRANCH   1   2
ATOM      2  C   UNL     1      22.624  -2.777  37.619  1.00  0.00     0.000 C 
BRANCH   2   3
ATOM      3  C   UNL     1      23.156  -4.055  36.947  1.00  0.00     0.000 C 
BRANCH   3   4
ATOM      4  C   UNL     1      24.181  -4.847  37.777  1.00  0.00     0.000 C 
BRANCH   4   5
ATOM      5  C   UNL     1      23.780  -4.980  39.256  1.00  0.00     0.006 C 
BRANCH   5   6
ATOM      6  C   UNL     1      24.815  -5.771  40.068  1.00  0.00     0.053 C 
BRANCH   6   7
ATOM      7  C   UNL     1      24.559  -7.245  40.003  1.00  0.00     0.041 C 
ATOM      8  O   UNL     1      23.380  -7.681  39.947  1.00  0.00    -0.550 OA
ATOM      9  O   UNL     1      25.623  -8.140  40.039  1.00  0.00    -0.550 OA
ENDBRANCH   6   7
ENDBRANCH   5   6
ENDBRANCH   4   5
ENDBRANCH   3   4
ENDBRANCH   2   3
ENDBRANCH   1   2
BRANCH   1  10
ATOM     10  C   UNL     1      22.403  -1.458  35.472  1.00  0.00     0.027 C 
BRANCH  10  11
ATOM     11  C   UNL     1      20.896  -1.486  35.545  1.00  0.00    -0.031 C 
ATOM     12  C   UNL     1      20.124  -2.208  34.713  1.00  0.00    -0.031 C 
BRANCH  12  13
ATOM     13  C   UNL     1      20.653  -3.041  33.572  1.00  0.00     0.027 C 
BRANCH  13  14
ATOM     14  C   UNL     1      20.847  -4.498  34.004  1.00  0.00     0.004 C 
BRANCH  14  15
ATOM     15  C   UNL     1      22.247  -5.004  33.625  1.00  0.00     0.000 C 
BRANCH  15  16
ATOM     16  C   UNL     1      22.191  -6.253  32.721  1.00  0.00    -0.000 C 
BRANCH  16  17
ATOM     17  C   UNL     1      22.191  -5.927  31.218  1.00  0.00    -0.003 C 
ATOM     18  C   UNL     1      20.852  -6.213  30.543  1.00  0.00     0.004 C 
ENDBRANCH  16  17
ENDBRANCH  15  16
ENDBRANCH  14  15
ENDBRANCH  13  14
ENDBRANCH  12  13
ENDBRANCH  10  11
ENDBRANCH   1  10
TORSDOF 13
ENDMDL
