MODEL 1
REMARK VINA RESULT:    -7.034      0.000      0.000
REMARK INTER + INTRA:          -7.650
REMARK INTER:                  -7.650
REMARK INTRA:                   0.000
REMARK UNBOUND:                 0.000
REMARK SMILES Cc1cc(O)c2c(c1)C(=O)c1cc(O)cc(O)c1C2=O
REMARK SMILES IDX 1 1 2 2 8 3 7 4 6 5 4 6 3 7 19 8 20 9 18 10 11 11 9 12 10 13
REMARK SMILES IDX 12 14 13 15 15 16 16 17 5 18 17 20 14 22
REMARK H PARENT 5 19 17 21 14 23
REMARK Flexibility Score: inf
ROOT
ATOM      1  C   UNL     1      21.468  33.250  31.126  1.00  0.00     0.044 C 
ATOM      2  C   UNL     1      21.532  32.746  29.715  1.00  0.00    -0.047 A 
ATOM      3  C   UNL     1      21.674  33.644  28.651  1.00  0.00     0.016 A 
ATOM      4  C   UNL     1      21.698  33.186  27.321  1.00  0.00     0.038 A 
ATOM      5  C   UNL     1      21.567  31.806  27.051  1.00  0.00     0.076 A 
ATOM      6  C   UNL     1      21.403  30.904  28.131  1.00  0.00     0.127 A 
ATOM      7  C   UNL     1      21.382  31.382  29.447  1.00  0.00     0.050 A 
ATOM      8  C   UNL     1      21.597  31.333  25.638  1.00  0.00     0.201 C 
ATOM      9  O   UNL     1      21.488  30.102  25.388  1.00  0.00    -0.288 OA
ATOM     10  C   UNL     1      21.757  32.302  24.518  1.00  0.00     0.076 A 
ATOM     11  C   UNL     1      21.885  33.679  24.807  1.00  0.00     0.041 A 
ATOM     12  C   UNL     1      21.859  34.151  26.210  1.00  0.00     0.194 C 
ATOM     13  O   UNL     1      21.976  35.382  26.459  1.00  0.00    -0.289 OA
ATOM     14  C   UNL     1      22.037  34.602  23.757  1.00  0.00     0.059 A 
ATOM     15  C   UNL     1      22.063  34.171  22.428  1.00  0.00     0.120 A 
ATOM     16  C   UNL     1      21.938  32.815  22.137  1.00  0.00     0.093 A 
ATOM     17  C   UNL     1      21.785  31.876  23.166  1.00  0.00     0.131 A 
ENDROOT
BRANCH   6  18
ATOM     18  O   UNL     1      21.260  29.535  27.904  1.00  0.00    -0.507 OA
ATOM     19  H   UNL     1      20.351  29.109  27.766  1.00  0.00     0.293 HD
ENDBRANCH   6  18
BRANCH  17  20
ATOM     20  O   UNL     1      21.662  30.525  22.839  1.00  0.00    -0.507 OA
ATOM     21  H   UNL     1      20.816  30.152  22.423  1.00  0.00     0.293 HD
ENDBRANCH  17  20
BRANCH  15  22
ATOM     22  O   UNL     1      22.214  35.085  21.387  1.00  0.00    -0.508 OA
ATOM     23  H   UNL     1      23.126  35.437  21.118  1.00  0.00     0.293 HD
ENDBRANCH  15  22
TORSDOF 3
ENDMDL
MODEL 2
REMARK VINA RESULT:    -6.738      1.448      5.360
REMARK INTER + INTRA:          -7.329
REMARK INTER:                  -7.329
REMARK INTRA:                   0.000
REMARK UNBOUND:                 0.000
REMARK SMILES Cc1cc(O)c2c(c1)C(=O)c1cc(O)cc(O)c1C2=O
REMARK SMILES IDX 1 1 2 2 8 3 7 4 6 5 4 6 3 7 19 8 20 9 18 10 11 11 9 12 10 13
REMARK SMILES IDX 12 14 13 15 15 16 16 17 5 18 17 20 14 22
REMARK H PARENT 5 19 17 21 14 23
REMARK Flexibility Score: inf
ROOT
ATOM      1  C   UNL     1      21.497  32.600  20.774  1.00  0.00     0.044 C 
ATOM      2  C   UNL     1      21.471  32.351  22.253  1.00  0.00    -0.047 A 
ATOM      3  C   UNL     1      21.472  33.425  23.149  1.00  0.00     0.016 A 
ATOM      4  C   UNL     1      21.485  33.205  24.538  1.00  0.00     0.038 A 
ATOM      5  C   UNL     1      21.510  31.885  25.039  1.00  0.00     0.076 A 
ATOM      6  C   UNL     1      21.529  30.801  24.128  1.00  0.00     0.127 A 
ATOM      7  C   UNL     1      21.516  31.044  22.748  1.00  0.00     0.050 A 
ATOM      8  C   UNL     1      21.520  31.664  26.513  1.00  0.00     0.201 C 
ATOM      9  O   UNL     1      21.534  30.489  26.969  1.00  0.00    -0.288 OA
ATOM     10  C   UNL     1      21.512  32.820  27.452  1.00  0.00     0.076 A 
ATOM     11  C   UNL     1      21.490  34.134  26.933  1.00  0.00     0.041 A 
ATOM     12  C   UNL     1      21.475  34.355  25.470  1.00  0.00     0.194 C 
ATOM     13  O   UNL     1      21.454  35.532  25.014  1.00  0.00    -0.289 OA
ATOM     14  C   UNL     1      21.482  35.232  27.812  1.00  0.00     0.059 A 
ATOM     15  C   UNL     1      21.495  35.037  29.195  1.00  0.00     0.120 A 
ATOM     16  C   UNL     1      21.517  33.745  29.713  1.00  0.00     0.093 A 
ATOM     17  C   UNL     1      21.526  32.634  28.858  1.00  0.00     0.131 A 
ENDROOT
BRANCH   6  18
ATOM     18  O   UNL     1      21.564  29.483  24.583  1.00  0.00    -0.507 OA
ATOM     19  H   UNL     1      20.719  28.936  24.700  1.00  0.00     0.293 HD
ENDBRANCH   6  18
BRANCH  17  20
ATOM     20  O   UNL     1      21.548  31.353  29.410  1.00  0.00    -0.507 OA
ATOM     21  H   UNL     1      21.239  30.541  28.888  1.00  0.00     0.293 HD
ENDBRANCH  17  20
BRANCH  15  22
ATOM     22  O   UNL     1      21.488  36.125  30.066  1.00  0.00    -0.508 OA
ATOM     23  H   UNL     1      22.222  36.260  30.752  1.00  0.00     0.293 HD
ENDBRANCH  15  22
TORSDOF 3
ENDMDL
MODEL 3
REMARK VINA RESULT:    -6.419      0.827      0.863
REMARK INTER + INTRA:          -6.982
REMARK INTER:                  -6.982
REMARK INTRA:                   0.000
REMARK UNBOUND:                 0.000
REMARK SMILES Cc1cc(O)c2c(c1)C(=O)c1cc(O)cc(O)c1C2=O
REMARK SMILES IDX 1 1 2 2 8 3 7 4 6 5 4 6 3 7 19 8 20 9 18 10 11 11 9 12 10 13
REMARK SMILES IDX 12 14 13 15 15 16 16 17 5 18 17 20 14 22
REMARK H PARENT 5 19 17 21 14 23
REMARK Flexibility Score: inf
ROOT
ATOM      1  C   UNL     1      21.637  33.188  30.338  1.00  0.00     0.044 C 
ATOM      2  C   UNL     1      21.658  32.750  28.903  1.00  0.00    -0.047 A 
ATOM      3  C   UNL     1      21.871  33.684  27.884  1.00  0.00     0.016 A 
ATOM      4  C   UNL     1      21.857  33.292  26.533  1.00  0.00     0.038 A 
ATOM      5  C   UNL     1      21.612  31.943  26.196  1.00  0.00     0.076 A 
ATOM      6  C   UNL     1      21.377  31.005  27.231  1.00  0.00     0.127 A 
ATOM      7  C   UNL     1      21.396  31.418  28.570  1.00  0.00     0.050 A 
ATOM      8  C   UNL     1      21.602  31.539  24.762  1.00  0.00     0.201 C 
ATOM      9  O   UNL     1      21.392  30.335  24.452  1.00  0.00    -0.288 OA
ATOM     10  C   UNL     1      21.840  32.546  23.689  1.00  0.00     0.076 A 
ATOM     11  C   UNL     1      22.080  33.892  24.045  1.00  0.00     0.041 A 
ATOM     12  C   UNL     1      22.095  34.294  25.469  1.00  0.00     0.194 C 
ATOM     13  O   UNL     1      22.312  35.499  25.778  1.00  0.00    -0.289 OA
ATOM     14  C   UNL     1      22.306  34.850  23.041  1.00  0.00     0.059 A 
ATOM     15  C   UNL     1      22.295  34.484  21.692  1.00  0.00     0.120 A 
ATOM     16  C   UNL     1      22.059  33.159  21.336  1.00  0.00     0.093 A 
ATOM     17  C   UNL     1      21.831  32.186  22.319  1.00  0.00     0.131 A 
ENDROOT
BRANCH   6  18
ATOM     18  O   UNL     1      21.122  29.665  26.939  1.00  0.00    -0.507 OA
ATOM     19  H   UNL     1      21.055  29.330  25.986  1.00  0.00     0.293 HD
ENDBRANCH   6  18
BRANCH  17  20
ATOM     20  O   UNL     1      21.597  30.868  21.926  1.00  0.00    -0.507 OA
ATOM     21  H   UNL     1      21.501  30.118  22.602  1.00  0.00     0.293 HD
ENDBRANCH  17  20
BRANCH  15  22
ATOM     22  O   UNL     1      22.519  35.433  20.696  1.00  0.00    -0.508 OA
ATOM     23  H   UNL     1      23.302  35.357  20.058  1.00  0.00     0.293 HD
ENDBRANCH  15  22
TORSDOF 3
ENDMDL
MODEL 4
REMARK VINA RESULT:    -6.357     14.160     14.677
REMARK INTER + INTRA:          -6.915
REMARK INTER:                  -6.915
REMARK INTRA:                   0.000
REMARK UNBOUND:                 0.000
REMARK SMILES Cc1cc(O)c2c(c1)C(=O)c1cc(O)cc(O)c1C2=O
REMARK SMILES IDX 1 1 2 2 8 3 7 4 6 5 4 6 3 7 19 8 20 9 18 10 11 11 9 12 10 13
REMARK SMILES IDX 12 14 13 15 15 16 16 17 5 18 17 20 14 22
REMARK H PARENT 5 19 17 21 14 23
REMARK Flexibility Score: inf
ROOT
ATOM      1  C   UNL     1      36.111  29.507  25.953  1.00  0.00     0.044 C 
ATOM      2  C   UNL     1      35.558  28.675  24.834  1.00  0.00    -0.047 A 
ATOM      3  C   UNL     1      35.755  29.062  23.504  1.00  0.00     0.016 A 
ATOM      4  C   UNL     1      35.211  28.310  22.447  1.00  0.00     0.038 A 
ATOM      5  C   UNL     1      34.446  27.157  22.727  1.00  0.00     0.076 A 
ATOM      6  C   UNL     1      34.233  26.782  24.076  1.00  0.00     0.127 A 
ATOM      7  C   UNL     1      34.784  27.545  25.113  1.00  0.00     0.050 A 
ATOM      8  C   UNL     1      33.877  26.367  21.599  1.00  0.00     0.201 C 
ATOM      9  O   UNL     1      33.199  25.332  21.839  1.00  0.00    -0.288 OA
ATOM     10  C   UNL     1      34.105  26.789  20.188  1.00  0.00     0.076 A 
ATOM     11  C   UNL     1      34.871  27.947  19.927  1.00  0.00     0.041 A 
ATOM     12  C   UNL     1      35.440  28.731  21.046  1.00  0.00     0.194 C 
ATOM     13  O   UNL     1      36.125  29.763  20.804  1.00  0.00    -0.289 OA
ATOM     14  C   UNL     1      35.092  28.353  18.599  1.00  0.00     0.059 A 
ATOM     15  C   UNL     1      34.560  27.623  17.533  1.00  0.00     0.120 A 
ATOM     16  C   UNL     1      33.805  26.481  17.784  1.00  0.00     0.093 A 
ATOM     17  C   UNL     1      33.570  26.055  19.099  1.00  0.00     0.131 A 
ENDROOT
BRANCH   6  18
ATOM     18  O   UNL     1      33.474  25.655  24.394  1.00  0.00    -0.507 OA
ATOM     19  H   UNL     1      32.865  25.213  23.716  1.00  0.00     0.293 HD
ENDBRANCH   6  18
BRANCH  17  20
ATOM     20  O   UNL     1      32.808  24.907  19.315  1.00  0.00    -0.507 OA
ATOM     21  H   UNL     1      31.906  24.944  19.776  1.00  0.00     0.293 HD
ENDBRANCH  17  20
BRANCH  15  22
ATOM     22  O   UNL     1      34.778  28.025  16.216  1.00  0.00    -0.508 OA
ATOM     23  H   UNL     1      34.396  27.507  15.434  1.00  0.00     0.293 HD
ENDBRANCH  15  22
TORSDOF 3
ENDMDL
MODEL 5
REMARK VINA RESULT:    -6.324     14.219     15.717
REMARK INTER + INTRA:          -6.879
REMARK INTER:                  -6.879
REMARK INTRA:                   0.000
REMARK UNBOUND:                 0.000
REMARK SMILES Cc1cc(O)c2c(c1)C(=O)c1cc(O)cc(O)c1C2=O
REMARK SMILES IDX 1 1 2 2 8 3 7 4 6 5 4 6 3 7 19 8 20 9 18 10 11 11 9 12 10 13
REMARK SMILES IDX 12 14 13 15 15 16 16 17 5 18 17 20 14 22
REMARK H PARENT 5 19 17 21 14 23
REMARK Flexibility Score: inf
ROOT
ATOM      1  C   UNL     1      32.822  24.298  17.544  1.00  0.00     0.044 C 
ATOM      2  C   UNL     1      33.422  25.391  18.379  1.00  0.00    -0.047 A 
ATOM      3  C   UNL     1      33.422  25.293  19.774  1.00  0.00     0.016 A 
ATOM      4  C   UNL     1      33.948  26.327  20.569  1.00  0.00     0.038 A 
ATOM      5  C   UNL     1      34.473  27.486  19.956  1.00  0.00     0.076 A 
ATOM      6  C   UNL     1      34.452  27.588  18.543  1.00  0.00     0.127 A 
ATOM      7  C   UNL     1      33.923  26.546  17.771  1.00  0.00     0.050 A 
ATOM      8  C   UNL     1      35.031  28.574  20.807  1.00  0.00     0.201 C 
ATOM      9  O   UNL     1      35.508  29.609  20.268  1.00  0.00    -0.288 OA
ATOM     10  C   UNL     1      35.031  28.449  22.292  1.00  0.00     0.076 A 
ATOM     11  C   UNL     1      34.500  27.284  22.889  1.00  0.00     0.041 A 
ATOM     12  C   UNL     1      33.949  26.200  22.044  1.00  0.00     0.194 C 
ATOM     13  O   UNL     1      33.478  25.162  22.585  1.00  0.00    -0.289 OA
ATOM     14  C   UNL     1      34.495  27.156  24.289  1.00  0.00     0.059 A 
ATOM     15  C   UNL     1      35.012  28.171  25.099  1.00  0.00     0.120 A 
ATOM     16  C   UNL     1      35.537  29.321  24.516  1.00  0.00     0.093 A 
ATOM     17  C   UNL     1      35.552  29.473  23.122  1.00  0.00     0.131 A 
ENDROOT
BRANCH   6  18
ATOM     18  O   UNL     1      34.952  28.721  17.900  1.00  0.00    -0.507 OA
ATOM     19  H   UNL     1      34.354  29.499  17.647  1.00  0.00     0.293 HD
ENDBRANCH   6  18
BRANCH  17  20
ATOM     20  O   UNL     1      36.085  30.639  22.573  1.00  0.00    -0.507 OA
ATOM     21  H   UNL     1      36.349  31.429  23.150  1.00  0.00     0.293 HD
ENDBRANCH  17  20
BRANCH  15  22
ATOM     22  O   UNL     1      35.007  28.045  26.486  1.00  0.00    -0.508 OA
ATOM     23  H   UNL     1      34.255  27.571  26.973  1.00  0.00     0.293 HD
ENDBRANCH  15  22
TORSDOF 3
ENDMDL
MODEL 6
REMARK VINA RESULT:    -6.290     14.160     15.867
REMARK INTER + INTRA:          -6.841
REMARK INTER:                  -6.841
REMARK INTRA:                   0.000
REMARK UNBOUND:                 0.000
REMARK SMILES Cc1cc(O)c2c(c1)C(=O)c1cc(O)cc(O)c1C2=O
REMARK SMILES IDX 1 1 2 2 8 3 7 4 6 5 4 6 3 7 19 8 20 9 18 10 11 11 9 12 10 13
REMARK SMILES IDX 12 14 13 15 15 16 16 17 5 18 17 20 14 22
REMARK H PARENT 5 19 17 21 14 23
REMARK Flexibility Score: inf
ROOT
ATOM      1  C   UNL     1      22.349  17.228  25.632  1.00  0.00     0.044 C 
ATOM      2  C   UNL     1      21.205  17.391  26.588  1.00  0.00    -0.047 A 
ATOM      3  C   UNL     1      21.353  18.175  27.738  1.00  0.00     0.016 A 
ATOM      4  C   UNL     1      20.299  18.307  28.660  1.00  0.00     0.038 A 
ATOM      5  C   UNL     1      19.080  17.632  28.435  1.00  0.00     0.076 A 
ATOM      6  C   UNL     1      18.943  16.823  27.280  1.00  0.00     0.127 A 
ATOM      7  C   UNL     1      20.005  16.706  26.374  1.00  0.00     0.050 A 
ATOM      8  C   UNL     1      17.970  17.781  29.418  1.00  0.00     0.201 C 
ATOM      9  O   UNL     1      16.876  17.188  29.220  1.00  0.00    -0.288 OA
ATOM     10  C   UNL     1      18.142  18.628  30.632  1.00  0.00     0.076 A 
ATOM     11  C   UNL     1      19.370  19.294  30.842  1.00  0.00     0.041 A 
ATOM     12  C   UNL     1      20.472  19.150  29.865  1.00  0.00     0.194 C 
ATOM     13  O   UNL     1      21.565  19.750  30.060  1.00  0.00    -0.289 OA
ATOM     14  C   UNL     1      19.543  20.095  31.985  1.00  0.00     0.059 A 
ATOM     15  C   UNL     1      18.511  20.240  32.916  1.00  0.00     0.120 A 
ATOM     16  C   UNL     1      17.299  19.586  32.713  1.00  0.00     0.093 A 
ATOM     17  C   UNL     1      17.102  18.781  31.582  1.00  0.00     0.131 A 
ENDROOT
BRANCH   6  18
ATOM     18  O   UNL     1      17.758  16.131  27.027  1.00  0.00    -0.507 OA
ATOM     19  H   UNL     1      17.193  16.322  26.208  1.00  0.00     0.293 HD
ENDBRANCH   6  18
BRANCH  17  20
ATOM     20  O   UNL     1      15.875  18.140  31.411  1.00  0.00    -0.507 OA
ATOM     21  H   UNL     1      15.226  18.015  32.180  1.00  0.00     0.293 HD
ENDBRANCH  17  20
BRANCH  15  22
ATOM     22  O   UNL     1      18.681  21.034  34.049  1.00  0.00    -0.508 OA
ATOM     23  H   UNL     1      18.821  22.035  33.978  1.00  0.00     0.293 HD
ENDBRANCH  15  22
TORSDOF 3
ENDMDL
MODEL 7
REMARK VINA RESULT:    -6.216     14.149     15.600
REMARK INTER + INTRA:          -6.761
REMARK INTER:                  -6.761
REMARK INTRA:                   0.000
REMARK UNBOUND:                 0.000
REMARK SMILES Cc1cc(O)c2c(c1)C(=O)c1cc(O)cc(O)c1C2=O
REMARK SMILES IDX 1 1 2 2 8 3 7 4 6 5 4 6 3 7 19 8 20 9 18 10 11 11 9 12 10 13
REMARK SMILES IDX 12 14 13 15 15 16 16 17 5 18 17 20 14 22
REMARK H PARENT 5 19 17 21 14 23
REMARK Flexibility Score: inf
ROOT
ATOM      1  C   UNL     1      34.740  27.865  15.977  1.00  0.00     0.044 C 
ATOM      2  C   UNL     1      34.495  27.515  17.414  1.00  0.00    -0.047 A 
ATOM      3  C   UNL     1      35.032  28.308  18.434  1.00  0.00     0.016 A 
ATOM      4  C   UNL     1      34.840  27.969  19.786  1.00  0.00     0.038 A 
ATOM      5  C   UNL     1      34.108  26.810  20.123  1.00  0.00     0.076 A 
ATOM      6  C   UNL     1      33.585  26.000  19.086  1.00  0.00     0.127 A 
ATOM      7  C   UNL     1      33.788  26.356  17.746  1.00  0.00     0.050 A 
ATOM      8  C   UNL     1      33.909  26.463  21.558  1.00  0.00     0.201 C 
ATOM      9  O   UNL     1      33.251  25.433  21.867  1.00  0.00    -0.288 OA
ATOM     10  C   UNL     1      34.480  27.324  22.632  1.00  0.00     0.076 A 
ATOM     11  C   UNL     1      35.212  28.480  22.276  1.00  0.00     0.041 A 
ATOM     12  C   UNL     1      35.407  28.828  20.851  1.00  0.00     0.194 C 
ATOM     13  O   UNL     1      36.060  29.862  20.543  1.00  0.00    -0.289 OA
ATOM     14  C   UNL     1      35.755  29.299  23.282  1.00  0.00     0.059 A 
ATOM     15  C   UNL     1      35.578  28.982  24.631  1.00  0.00     0.120 A 
ATOM     16  C   UNL     1      34.858  27.845  24.987  1.00  0.00     0.093 A 
ATOM     17  C   UNL     1      34.307  27.012  24.003  1.00  0.00     0.131 A 
ENDROOT
BRANCH   6  18
ATOM     18  O   UNL     1      32.865  24.840  19.376  1.00  0.00    -0.507 OA
ATOM     19  H   UNL     1      33.202  24.156  20.043  1.00  0.00     0.293 HD
ENDBRANCH   6  18
BRANCH  17  20
ATOM     20  O   UNL     1      33.592  25.880  24.395  1.00  0.00    -0.507 OA
ATOM     21  H   UNL     1      33.552  25.047  23.819  1.00  0.00     0.293 HD
ENDBRANCH  17  20
BRANCH  15  22
ATOM     22  O   UNL     1      36.116  29.794  25.629  1.00  0.00    -0.508 OA
ATOM     23  H   UNL     1      36.777  30.531  25.413  1.00  0.00     0.293 HD
ENDBRANCH  15  22
TORSDOF 3
ENDMDL
MODEL 8
REMARK VINA RESULT:    -6.153      2.655      6.701
REMARK INTER + INTRA:          -6.693
REMARK INTER:                  -6.693
REMARK INTRA:                   0.000
REMARK UNBOUND:                 0.000
REMARK SMILES Cc1cc(O)c2c(c1)C(=O)c1cc(O)cc(O)c1C2=O
REMARK SMILES IDX 1 1 2 2 8 3 7 4 6 5 4 6 3 7 19 8 20 9 18 10 11 11 9 12 10 13
REMARK SMILES IDX 12 14 13 15 15 16 16 17 5 18 17 20 14 22
REMARK H PARENT 5 19 17 21 14 23
REMARK Flexibility Score: inf
ROOT
ATOM      1  C   UNL     1      19.293  32.896  17.037  1.00  0.00     0.044 C 
ATOM      2  C   UNL     1      19.628  32.330  18.385  1.00  0.00    -0.047 A 
ATOM      3  C   UNL     1      20.010  33.178  19.431  1.00  0.00     0.016 A 
ATOM      4  C   UNL     1      20.361  32.657  20.689  1.00  0.00     0.038 A 
ATOM      5  C   UNL     1      20.342  31.261  20.901  1.00  0.00     0.076 A 
ATOM      6  C   UNL     1      19.975  30.406  19.833  1.00  0.00     0.127 A 
ATOM      7  C   UNL     1      19.628  30.947  18.588  1.00  0.00     0.050 A 
ATOM      8  C   UNL     1      20.713  30.720  22.239  1.00  0.00     0.201 C 
ATOM      9  O   UNL     1      20.692  29.476  22.439  1.00  0.00    -0.288 OA
ATOM     10  C   UNL     1      21.109  31.639  23.344  1.00  0.00     0.076 A 
ATOM     11  C   UNL     1      21.124  33.033  23.113  1.00  0.00     0.041 A 
ATOM     12  C   UNL     1      20.752  33.571  21.786  1.00  0.00     0.194 C 
ATOM     13  O   UNL     1      20.767  34.818  21.588  1.00  0.00    -0.289 OA
ATOM     14  C   UNL     1      21.496  33.908  24.149  1.00  0.00     0.059 A 
ATOM     15  C   UNL     1      21.850  33.413  25.407  1.00  0.00     0.120 A 
ATOM     16  C   UNL     1      21.836  32.041  25.640  1.00  0.00     0.093 A 
ATOM     17  C   UNL     1      21.470  31.148  24.623  1.00  0.00     0.131 A 
ENDROOT
BRANCH   6  18
ATOM     18  O   UNL     1      19.954  29.021  19.999  1.00  0.00    -0.507 OA
ATOM     19  H   UNL     1      20.017  28.592  20.914  1.00  0.00     0.293 HD
ENDBRANCH   6  18
BRANCH  17  20
ATOM     20  O   UNL     1      21.468  29.779  24.891  1.00  0.00    -0.507 OA
ATOM     21  H   UNL     1      21.464  29.420  25.839  1.00  0.00     0.293 HD
ENDBRANCH  17  20
BRANCH  15  22
ATOM     22  O   UNL     1      22.218  34.280  26.434  1.00  0.00    -0.508 OA
ATOM     23  H   UNL     1      21.775  35.184  26.550  1.00  0.00     0.293 HD
ENDBRANCH  15  22
TORSDOF 3
ENDMDL
MODEL 9
REMARK VINA RESULT:    -6.122      2.633      4.306
REMARK INTER + INTRA:          -6.659
REMARK INTER:                  -6.659
REMARK INTRA:                   0.000
REMARK UNBOUND:                 0.000
REMARK SMILES Cc1cc(O)c2c(c1)C(=O)c1cc(O)cc(O)c1C2=O
REMARK SMILES IDX 1 1 2 2 8 3 7 4 6 5 4 6 3 7 19 8 20 9 18 10 11 11 9 12 10 13
REMARK SMILES IDX 12 14 13 15 15 16 16 17 5 18 17 20 14 22
REMARK H PARENT 5 19 17 21 14 23
REMARK Flexibility Score: inf
ROOT
ATOM      1  C   UNL     1      22.225  34.337  26.514  1.00  0.00     0.044 C 
ATOM      2  C   UNL     1      21.871  33.392  25.404  1.00  0.00    -0.047 A 
ATOM      3  C   UNL     1      21.508  33.887  24.146  1.00  0.00     0.016 A 
ATOM      4  C   UNL     1      21.138  33.012  23.109  1.00  0.00     0.038 A 
ATOM      5  C   UNL     1      21.119  31.619  23.337  1.00  0.00     0.076 A 
ATOM      6  C   UNL     1      21.467  31.126  24.618  1.00  0.00     0.127 A 
ATOM      7  C   UNL     1      21.832  32.015  25.638  1.00  0.00     0.050 A 
ATOM      8  C   UNL     1      20.728  30.703  22.229  1.00  0.00     0.201 C 
ATOM      9  O   UNL     1      20.715  29.457  22.422  1.00  0.00    -0.288 OA
ATOM     10  C   UNL     1      20.353  31.246  20.893  1.00  0.00     0.076 A 
ATOM     11  C   UNL     1      20.376  32.643  20.683  1.00  0.00     0.041 A 
ATOM     12  C   UNL     1      20.768  33.555  21.781  1.00  0.00     0.194 C 
ATOM     13  O   UNL     1      20.787  34.801  21.585  1.00  0.00    -0.289 OA
ATOM     14  C   UNL     1      20.024  33.166  19.426  1.00  0.00     0.059 A 
ATOM     15  C   UNL     1      19.652  32.317  18.380  1.00  0.00     0.120 A 
ATOM     16  C   UNL     1      19.628  30.940  18.581  1.00  0.00     0.093 A 
ATOM     17  C   UNL     1      19.974  30.394  19.826  1.00  0.00     0.131 A 
ENDROOT
BRANCH   6  18
ATOM     18  O   UNL     1      21.450  29.757  24.887  1.00  0.00    -0.507 OA
ATOM     19  H   UNL     1      21.922  29.089  24.289  1.00  0.00     0.293 HD
ENDBRANCH   6  18
BRANCH  17  20
ATOM     20  O   UNL     1      19.939  29.010  19.992  1.00  0.00    -0.507 OA
ATOM     21  H   UNL     1      20.016  28.580  20.907  1.00  0.00     0.293 HD
ENDBRANCH  17  20
BRANCH  15  22
ATOM     22  O   UNL     1      19.304  32.835  17.134  1.00  0.00    -0.508 OA
ATOM     23  H   UNL     1      18.377  32.701  16.745  1.00  0.00     0.293 HD
ENDBRANCH  15  22
TORSDOF 3
ENDMDL
