MODEL 1
REMARK VINA RESULT:    -4.338      0.000      0.000
REMARK INTER + INTRA:          -6.422
REMARK INTER:                  -6.114
REMARK INTRA:                  -0.308
REMARK UNBOUND:                -0.308
REMARK SMILES CCCCCCCCC(=O)[O-]
REMARK SMILES IDX 6 1 7 2 8 3 9 4 10 5 11 6 5 7 4 8 3 9 2 10 1 11
REMARK H PARENT
REMARK Flexibility Score: inf
ROOT
ATOM      1  C   UNL     1      -0.238  -5.433   6.570  1.00  0.00     0.000 C 
ENDROOT
BRANCH   1   2
ATOM      2  C   UNL     1       0.283  -5.796   7.967  1.00  0.00     0.006 C 
BRANCH   2   3
ATOM      3  C   UNL     1       0.473  -4.542   8.826  1.00  0.00     0.053 C 
BRANCH   3   4
ATOM      4  C   UNL     1       1.889  -4.440   9.297  1.00  0.00     0.041 C 
ATOM      5  O   UNL     1       2.304  -3.377   9.831  1.00  0.00    -0.550 OA
ATOM      6  O   UNL     1       2.766  -5.499   9.102  1.00  0.00    -0.550 OA
ENDBRANCH   3   4
ENDBRANCH   2   3
ENDBRANCH   1   2
BRANCH   1   7
ATOM      7  C   UNL     1      -0.826  -4.013   6.557  1.00  0.00     0.000 C 
BRANCH   7   8
ATOM      8  C   UNL     1      -1.526  -3.673   5.231  1.00  0.00    -0.000 C 
BRANCH   8   9
ATOM      9  C   UNL     1      -1.484  -2.169   4.910  1.00  0.00    -0.000 C 
BRANCH   9  10
ATOM     10  C   UNL     1      -1.469  -1.891   3.398  1.00  0.00    -0.003 C 
ATOM     11  C   UNL     1      -1.302  -3.160   2.563  1.00  0.00     0.004 C 
ENDBRANCH   9  10
ENDBRANCH   8   9
ENDBRANCH   7   8
ENDBRANCH   1   7
TORSDOF 7
ENDMDL
MODEL 2
REMARK VINA RESULT:    -4.308      3.335      5.720
REMARK INTER + INTRA:          -6.380
REMARK INTER:                  -5.908
REMARK INTRA:                  -0.471
REMARK UNBOUND:                -0.308
REMARK SMILES CCCCCCCCC(=O)[O-]
REMARK SMILES IDX 6 1 7 2 8 3 9 4 10 5 11 6 5 7 4 8 3 9 2 10 1 11
REMARK H PARENT
REMARK Flexibility Score: inf
ROOT
ATOM      1  C   UNL     1      -0.249  -4.901   6.402  1.00  0.00     0.000 C 
ENDROOT
BRANCH   1   2
ATOM      2  C   UNL     1      -1.430  -4.219   5.699  1.00  0.00     0.006 C 
BRANCH   2   3
ATOM      3  C   UNL     1      -1.284  -2.694   5.732  1.00  0.00     0.053 C 
BRANCH   3   4
ATOM      4  C   UNL     1      -1.521  -2.116   4.373  1.00  0.00     0.041 C 
ATOM      5  O   UNL     1      -1.447  -2.849   3.352  1.00  0.00    -0.550 OA
ATOM      6  O   UNL     1      -1.774  -0.758   4.229  1.00  0.00    -0.550 OA
ENDBRANCH   3   4
ENDBRANCH   2   3
ENDBRANCH   1   2
BRANCH   1   7
ATOM      7  C   UNL     1      -0.720  -6.125   7.203  1.00  0.00     0.000 C 
BRANCH   7   8
ATOM      8  C   UNL     1      -0.398  -6.014   8.702  1.00  0.00    -0.000 C 
BRANCH   8   9
ATOM      9  C   UNL     1       0.533  -4.831   9.020  1.00  0.00    -0.000 C 
BRANCH   9  10
ATOM     10  C   UNL     1       1.922  -5.289   9.495  1.00  0.00    -0.003 C 
ATOM     11  C   UNL     1       2.984  -5.199   8.398  1.00  0.00     0.004 C 
ENDBRANCH   9  10
ENDBRANCH   8   9
ENDBRANCH   7   8
ENDBRANCH   1   7
TORSDOF 7
ENDMDL
MODEL 3
REMARK VINA RESULT:    -4.219      2.703      3.425
REMARK INTER + INTRA:          -6.254
REMARK INTER:                  -5.947
REMARK INTRA:                  -0.307
REMARK UNBOUND:                -0.308
REMARK SMILES CCCCCCCCC(=O)[O-]
REMARK SMILES IDX 6 1 7 2 8 3 9 4 10 5 11 6 5 7 4 8 3 9 2 10 1 11
REMARK H PARENT
REMARK Flexibility Score: inf
ROOT
ATOM      1  C   UNL     1      -0.044  -4.586   7.208  1.00  0.00     0.000 C 
ENDROOT
BRANCH   1   2
ATOM      2  C   UNL     1       0.132  -5.991   7.797  1.00  0.00     0.006 C 
BRANCH   2   3
ATOM      3  C   UNL     1      -0.809  -6.993   7.119  1.00  0.00     0.053 C 
BRANCH   3   4
ATOM      4  C   UNL     1      -1.823  -7.500   8.095  1.00  0.00     0.041 C 
ATOM      5  O   UNL     1      -2.546  -8.488   7.800  1.00  0.00    -0.550 OA
ATOM      6  O   UNL     1      -2.007  -6.851   9.309  1.00  0.00    -0.550 OA
ENDBRANCH   3   4
ENDBRANCH   2   3
ENDBRANCH   1   2
BRANCH   1   7
ATOM      7  C   UNL     1      -0.929  -4.625   5.952  1.00  0.00     0.000 C 
BRANCH   7   8
ATOM      8  C   UNL     1      -1.430  -3.232   5.535  1.00  0.00    -0.000 C 
BRANCH   8   9
ATOM      9  C   UNL     1      -1.456  -3.047   4.008  1.00  0.00    -0.000 C 
BRANCH   9  10
ATOM     10  C   UNL     1      -1.510  -1.567   3.595  1.00  0.00    -0.003 C 
ATOM     11  C   UNL     1      -1.435  -0.616   4.790  1.00  0.00     0.004 C 
ENDBRANCH   9  10
ENDBRANCH   8   9
ENDBRANCH   7   8
ENDBRANCH   1   7
TORSDOF 7
ENDMDL
MODEL 4
REMARK VINA RESULT:    -4.160      4.682      6.203
REMARK INTER + INTRA:          -6.171
REMARK INTER:                  -5.849
REMARK INTRA:                  -0.322
REMARK UNBOUND:                -0.308
REMARK SMILES CCCCCCCCC(=O)[O-]
REMARK SMILES IDX 6 1 7 2 8 3 9 4 10 5 11 6 5 7 4 8 3 9 2 10 1 11
REMARK H PARENT
REMARK Flexibility Score: inf
ROOT
ATOM      1  C   UNL     1      -1.425  -6.995   8.105  1.00  0.00     0.000 C 
ENDROOT
BRANCH   1   2
ATOM      2  C   UNL     1      -2.242  -8.289   7.983  1.00  0.00     0.006 C 
BRANCH   2   3
ATOM      3  C   UNL     1      -3.523  -8.210   8.819  1.00  0.00     0.053 C 
BRANCH   3   4
ATOM      4  C   UNL     1      -4.726  -8.182   7.931  1.00  0.00     0.041 C 
ATOM      5  O   UNL     1      -5.191  -7.082   7.529  1.00  0.00    -0.550 OA
ATOM      6  O   UNL     1      -5.366  -9.366   7.587  1.00  0.00    -0.550 OA
ENDBRANCH   3   4
ENDBRANCH   2   3
ENDBRANCH   1   2
BRANCH   1   7
ATOM      7  C   UNL     1      -0.445  -6.853   6.930  1.00  0.00     0.000 C 
BRANCH   7   8
ATOM      8  C   UNL     1       0.436  -5.597   7.041  1.00  0.00    -0.000 C 
BRANCH   8   9
ATOM      9  C   UNL     1       0.441  -5.003   8.460  1.00  0.00    -0.000 C 
BRANCH   9  10
ATOM     10  C   UNL     1       1.713  -5.367   9.244  1.00  0.00    -0.003 C 
ATOM     11  C   UNL     1       2.988  -5.196   8.419  1.00  0.00     0.004 C 
ENDBRANCH   9  10
ENDBRANCH   8   9
ENDBRANCH   7   8
ENDBRANCH   1   7
TORSDOF 7
ENDMDL
MODEL 5
REMARK VINA RESULT:    -4.045      3.667      5.905
REMARK INTER + INTRA:          -6.008
REMARK INTER:                  -5.695
REMARK INTRA:                  -0.313
REMARK UNBOUND:                -0.308
REMARK SMILES CCCCCCCCC(=O)[O-]
REMARK SMILES IDX 6 1 7 2 8 3 9 4 10 5 11 6 5 7 4 8 3 9 2 10 1 11
REMARK H PARENT
REMARK Flexibility Score: inf
ROOT
ATOM      1  C   UNL     1      -0.449  -3.556   7.297  1.00  0.00     0.000 C 
ENDROOT
BRANCH   1   2
ATOM      2  C   UNL     1      -1.089  -2.512   6.372  1.00  0.00     0.006 C 
BRANCH   2   3
ATOM      3  C   UNL     1      -1.539  -3.150   5.054  1.00  0.00     0.053 C 
BRANCH   3   4
ATOM      4  C   UNL     1      -1.525  -2.139   3.951  1.00  0.00     0.041 C 
ATOM      5  O   UNL     1      -1.321  -2.502   2.762  1.00  0.00    -0.550 OA
ATOM      6  O   UNL     1      -1.686  -0.790   4.241  1.00  0.00    -0.550 OA
ENDBRANCH   3   4
ENDBRANCH   2   3
ENDBRANCH   1   2
BRANCH   1   7
ATOM      7  C   UNL     1      -0.440  -4.943   6.636  1.00  0.00     0.000 C 
BRANCH   7   8
ATOM      8  C   UNL     1      -0.302  -6.085   7.656  1.00  0.00    -0.000 C 
BRANCH   8   9
ATOM      9  C   UNL     1      -1.006  -7.374   7.196  1.00  0.00    -0.000 C 
BRANCH   9  10
ATOM     10  C   UNL     1      -2.276  -7.672   8.010  1.00  0.00    -0.003 C 
ATOM     11  C   UNL     1      -2.096  -7.414   9.506  1.00  0.00     0.004 C 
ENDBRANCH   9  10
ENDBRANCH   8   9
ENDBRANCH   7   8
ENDBRANCH   1   7
TORSDOF 7
ENDMDL
MODEL 6
REMARK VINA RESULT:    -3.901      1.275      2.010
REMARK INTER + INTRA:          -5.806
REMARK INTER:                  -5.503
REMARK INTRA:                  -0.302
REMARK UNBOUND:                -0.308
REMARK SMILES CCCCCCCCC(=O)[O-]
REMARK SMILES IDX 6 1 7 2 8 3 9 4 10 5 11 6 5 7 4 8 3 9 2 10 1 11
REMARK H PARENT
REMARK Flexibility Score: inf
ROOT
ATOM      1  C   UNL     1      -0.895  -5.080   6.693  1.00  0.00     0.000 C 
ENDROOT
BRANCH   1   2
ATOM      2  C   UNL     1       0.524  -5.513   7.084  1.00  0.00     0.006 C 
BRANCH   2   3
ATOM      3  C   UNL     1       0.670  -5.607   8.607  1.00  0.00     0.053 C 
BRANCH   3   4
ATOM      4  C   UNL     1       1.256  -4.345   9.155  1.00  0.00     0.041 C 
ATOM      5  O   UNL     1       2.502  -4.241   9.311  1.00  0.00    -0.550 OA
ATOM      6  O   UNL     1       0.425  -3.301   9.540  1.00  0.00    -0.550 OA
ENDBRANCH   3   4
ENDBRANCH   2   3
ENDBRANCH   1   2
BRANCH   1   7
ATOM      7  C   UNL     1      -0.933  -3.587   6.335  1.00  0.00     0.000 C 
BRANCH   7   8
ATOM      8  C   UNL     1      -1.530  -3.325   4.942  1.00  0.00    -0.000 C 
BRANCH   8   9
ATOM      9  C   UNL     1      -1.619  -1.825   4.611  1.00  0.00    -0.000 C 
BRANCH   9  10
ATOM     10  C   UNL     1      -1.424  -0.937   5.851  1.00  0.00    -0.003 C 
ATOM     11  C   UNL     1      -1.099   0.514   5.496  1.00  0.00     0.004 C 
ENDBRANCH   9  10
ENDBRANCH   8   9
ENDBRANCH   7   8
ENDBRANCH   1   7
TORSDOF 7
ENDMDL
MODEL 7
REMARK VINA RESULT:    -3.794     13.396     14.371
REMARK INTER + INTRA:          -5.654
REMARK INTER:                  -5.219
REMARK INTRA:                  -0.436
REMARK UNBOUND:                -0.308
REMARK SMILES CCCCCCCCC(=O)[O-]
REMARK SMILES IDX 6 1 7 2 8 3 9 4 10 5 11 6 5 7 4 8 3 9 2 10 1 11
REMARK H PARENT
REMARK Flexibility Score: inf
ROOT
ATOM      1  C   UNL     1       8.103  10.030   7.205  1.00  0.00     0.000 C 
ENDROOT
BRANCH   1   2
ATOM      2  C   UNL     1       8.917   8.841   7.732  1.00  0.00     0.006 C 
BRANCH   2   3
ATOM      3  C   UNL     1       8.437   8.421   9.125  1.00  0.00     0.053 C 
BRANCH   3   4
ATOM      4  C   UNL     1       7.274   7.486   9.018  1.00  0.00     0.041 C 
ATOM      5  O   UNL     1       7.462   6.267   8.761  1.00  0.00    -0.550 OA
ATOM      6  O   UNL     1       5.978   7.969   9.151  1.00  0.00    -0.550 OA
ENDBRANCH   3   4
ENDBRANCH   2   3
ENDBRANCH   1   2
BRANCH   1   7
ATOM      7  C   UNL     1       7.290   9.631   5.964  1.00  0.00     0.000 C 
BRANCH   7   8
ATOM      8  C   UNL     1       5.792   9.947   6.108  1.00  0.00    -0.000 C 
BRANCH   8   9
ATOM      9  C   UNL     1       4.902   8.935   5.366  1.00  0.00    -0.000 C 
BRANCH   9  10
ATOM     10  C   UNL     1       5.536   8.447   4.053  1.00  0.00    -0.003 C 
ATOM     11  C   UNL     1       4.973   7.104   3.586  1.00  0.00     0.004 C 
ENDBRANCH   9  10
ENDBRANCH   8   9
ENDBRANCH   7   8
ENDBRANCH   1   7
TORSDOF 7
ENDMDL
MODEL 8
REMARK VINA RESULT:    -3.768     11.631     12.572
REMARK INTER + INTRA:          -5.618
REMARK INTER:                  -5.149
REMARK INTRA:                  -0.469
REMARK UNBOUND:                -0.308
REMARK SMILES CCCCCCCCC(=O)[O-]
REMARK SMILES IDX 6 1 7 2 8 3 9 4 10 5 11 6 5 7 4 8 3 9 2 10 1 11
REMARK H PARENT
REMARK Flexibility Score: inf
ROOT
ATOM      1  C   UNL     1       6.843  -8.057  -3.646  1.00  0.00     0.000 C 
ENDROOT
BRANCH   1   2
ATOM      2  C   UNL     1       7.536  -7.949  -2.281  1.00  0.00     0.006 C 
BRANCH   2   3
ATOM      3  C   UNL     1       7.507  -9.291  -1.543  1.00  0.00     0.053 C 
BRANCH   3   4
ATOM      4  C   UNL     1       8.138  -9.160  -0.193  1.00  0.00     0.041 C 
ATOM      5  O   UNL     1       9.260  -9.686   0.035  1.00  0.00    -0.550 OA
ATOM      6  O   UNL     1       7.467  -8.499   0.829  1.00  0.00    -0.550 OA
ENDBRANCH   3   4
ENDBRANCH   2   3
ENDBRANCH   1   2
BRANCH   1   7
ATOM      7  C   UNL     1       5.679  -7.059  -3.750  1.00  0.00     0.000 C 
BRANCH   7   8
ATOM      8  C   UNL     1       4.395  -7.700  -4.304  1.00  0.00    -0.000 C 
BRANCH   8   9
ATOM      9  C   UNL     1       4.379  -9.229  -4.137  1.00  0.00    -0.000 C 
BRANCH   9  10
ATOM     10  C   UNL     1       4.123  -9.962  -5.464  1.00  0.00    -0.003 C 
ATOM     11  C   UNL     1       4.774  -9.268  -6.661  1.00  0.00     0.004 C 
ENDBRANCH   9  10
ENDBRANCH   8   9
ENDBRANCH   7   8
ENDBRANCH   1   7
TORSDOF 7
ENDMDL
MODEL 9
REMARK VINA RESULT:    -3.670      2.879      4.733
REMARK INTER + INTRA:          -5.480
REMARK INTER:                  -5.226
REMARK INTRA:                  -0.254
REMARK UNBOUND:                -0.308
REMARK SMILES CCCCCCCCC(=O)[O-]
REMARK SMILES IDX 6 1 7 2 8 3 9 4 10 5 11 6 5 7 4 8 3 9 2 10 1 11
REMARK H PARENT
REMARK Flexibility Score: inf
ROOT
ATOM      1  C   UNL     1      -0.397  -5.770   7.011  1.00  0.00     0.000 C 
ENDROOT
BRANCH   1   2
ATOM      2  C   UNL     1       1.033  -5.583   7.534  1.00  0.00     0.006 C 
BRANCH   2   3
ATOM      3  C   UNL     1       1.032  -5.257   9.032  1.00  0.00     0.053 C 
BRANCH   3   4
ATOM      4  C   UNL     1       2.395  -4.830   9.476  1.00  0.00     0.041 C 
ATOM      5  O   UNL     1       3.225  -5.685   9.884  1.00  0.00    -0.550 OA
ATOM      6  O   UNL     1       2.733  -3.483   9.486  1.00  0.00    -0.550 OA
ENDBRANCH   3   4
ENDBRANCH   2   3
ENDBRANCH   1   2
BRANCH   1   7
ATOM      7  C   UNL     1      -0.833  -7.239   7.121  1.00  0.00     0.000 C 
BRANCH   7   8
ATOM      8  C   UNL     1      -1.946  -7.452   8.161  1.00  0.00    -0.000 C 
BRANCH   8   9
ATOM      9  C   UNL     1      -2.542  -8.869   8.106  1.00  0.00    -0.000 C 
BRANCH   9  10
ATOM     10  C   UNL     1      -4.028  -8.898   8.499  1.00  0.00    -0.003 C 
ATOM     11  C   UNL     1      -4.814  -7.716   7.931  1.00  0.00     0.004 C 
ENDBRANCH   9  10
ENDBRANCH   8   9
ENDBRANCH   7   8
ENDBRANCH   1   7
TORSDOF 7
ENDMDL
