MODEL 1
REMARK VINA RESULT:    32.339      0.000      0.000
REMARK INTER + INTRA:          82.412
REMARK INTER:                  81.493
REMARK INTRA:                   0.919
REMARK UNBOUND:                 0.919
REMARK SMILES CCCCCCCCCCCCCCCCCCCCCCCCCCCC(=O)[O-]
REMARK SMILES IDX 15 1 16 2 17 3 18 4 19 5 20 6 21 7 22 8 23 9 24 10 25 11
REMARK SMILES IDX 26 12 27 13 28 14 29 15 30 16 14 17 13 18 12 19 11 20 10 21
REMARK SMILES IDX 9 22 8 23 7 24 6 25 5 26 4 27 3 28 2 29 1 30
REMARK H PARENT
REMARK Flexibility Score: inf
ROOT
ATOM      1  C   UNL     1      16.216   7.692  10.080  1.00  0.00     0.000 C 
ENDROOT
BRANCH   1   2
ATOM      2  C   UNL     1      16.954   8.916  10.649  1.00  0.00     0.000 C 
BRANCH   2   3
ATOM      3  C   UNL     1      18.125   8.521  11.564  1.00  0.00     0.000 C 
BRANCH   3   4
ATOM      4  C   UNL     1      17.770   7.360  12.510  1.00  0.00     0.000 C 
BRANCH   4   5
ATOM      5  C   UNL     1      17.258   7.850  13.874  1.00  0.00     0.000 C 
BRANCH   5   6
ATOM      6  C   UNL     1      18.117   7.335  15.042  1.00  0.00     0.000 C 
BRANCH   6   7
ATOM      7  C   UNL     1      17.541   7.716  16.418  1.00  0.00     0.000 C 
BRANCH   7   8
ATOM      8  C   UNL     1      17.884   6.739  17.562  1.00  0.00     0.000 C 
BRANCH   8   9
ATOM      9  C   UNL     1      16.776   5.730  17.913  1.00  0.00     0.000 C 
BRANCH   9  10
ATOM     10  C   UNL     1      15.603   6.371  18.671  1.00  0.00     0.000 C 
BRANCH  10  11
ATOM     11  C   UNL     1      14.844   5.323  19.493  1.00  0.00     0.000 C 
BRANCH  11  12
ATOM     12  C   UNL     1      14.106   4.335  18.578  1.00  0.00     0.006 C 
BRANCH  12  13
ATOM     13  C   UNL     1      12.583   4.501  18.652  1.00  0.00     0.053 C 
BRANCH  13  14
ATOM     14  C   UNL     1      11.953   3.459  19.525  1.00  0.00     0.041 C 
ATOM     15  O   UNL     1      12.260   3.383  20.744  1.00  0.00    -0.550 OA
ATOM     16  O   UNL     1      11.053   2.549  18.985  1.00  0.00    -0.550 OA
ENDBRANCH  13  14
ENDBRANCH  12  13
ENDBRANCH  11  12
ENDBRANCH  10  11
ENDBRANCH   9  10
ENDBRANCH   8   9
ENDBRANCH   7   8
ENDBRANCH   6   7
ENDBRANCH   5   6
ENDBRANCH   4   5
ENDBRANCH   3   4
ENDBRANCH   2   3
ENDBRANCH   1   2
BRANCH   1  17
ATOM     17  C   UNL     1      17.164   6.527   9.753  1.00  0.00     0.000 C 
BRANCH  17  18
ATOM     18  C   UNL     1      17.687   6.577   8.307  1.00  0.00     0.000 C 
BRANCH  18  19
ATOM     19  C   UNL     1      17.963   5.178   7.732  1.00  0.00     0.000 C 
BRANCH  19  20
ATOM     20  C   UNL     1      17.371   4.987   6.325  1.00  0.00     0.000 C 
BRANCH  20  21
ATOM     21  C   UNL     1      15.835   4.931   6.333  1.00  0.00     0.000 C 
BRANCH  21  22
ATOM     22  C   UNL     1      15.228   5.564   7.594  1.00  0.00    -0.000 C 
BRANCH  22  23
ATOM     23  C   UNL     1      14.740   6.991   7.311  1.00  0.00    -0.000 C 
BRANCH  23  24
ATOM     24  C   UNL     1      13.347   7.273   7.898  1.00  0.00    -0.000 C 
BRANCH  24  25
ATOM     25  C   UNL     1      12.277   6.212   7.574  1.00  0.00    -0.000 C 
BRANCH  25  26
ATOM     26  C   UNL     1      11.294   5.941   8.734  1.00  0.00    -0.000 C 
BRANCH  26  27
ATOM     27  C   UNL     1      10.021   5.209   8.270  1.00  0.00    -0.000 C 
BRANCH  27  28
ATOM     28  C   UNL     1      10.346   3.952   7.435  1.00  0.00    -0.000 C 
BRANCH  28  29
ATOM     29  C   UNL     1      10.869   2.774   8.276  1.00  0.00    -0.003 C 
ATOM     30  C   UNL     1      10.216   2.689   9.654  1.00  0.00     0.004 C 
ENDBRANCH  28  29
ENDBRANCH  27  28
ENDBRANCH  26  27
ENDBRANCH  25  26
ENDBRANCH  24  25
ENDBRANCH  23  24
ENDBRANCH  22  23
ENDBRANCH  21  22
ENDBRANCH  20  21
ENDBRANCH  19  20
ENDBRANCH  18  19
ENDBRANCH  17  18
ENDBRANCH   1  17
TORSDOF 26
ENDMDL
MODEL 2
REMARK VINA RESULT:    33.379      8.745     13.396
REMARK INTER + INTRA:          85.034
REMARK INTER:                  86.804
REMARK INTRA:                  -1.770
REMARK UNBOUND:                 0.919
REMARK SMILES CCCCCCCCCCCCCCCCCCCCCCCCCCCC(=O)[O-]
REMARK SMILES IDX 15 1 16 2 17 3 18 4 19 5 20 6 21 7 22 8 23 9 24 10 25 11
REMARK SMILES IDX 26 12 27 13 28 14 29 15 30 16 14 17 13 18 12 19 11 20 10 21
REMARK SMILES IDX 9 22 8 23 7 24 6 25 5 26 4 27 3 28 2 29 1 30
REMARK H PARENT
REMARK Flexibility Score: inf
ROOT
ATOM      1  C   UNL     1      13.289   7.663  26.085  1.00  0.00     0.000 C 
ENDROOT
BRANCH   1   2
ATOM      2  C   UNL     1      14.111   6.364  26.117  1.00  0.00     0.000 C 
BRANCH   2   3
ATOM      3  C   UNL     1      15.625   6.627  26.060  1.00  0.00     0.000 C 
BRANCH   3   4
ATOM      4  C   UNL     1      16.285   6.009  24.815  1.00  0.00     0.000 C 
BRANCH   4   5
ATOM      5  C   UNL     1      16.854   4.608  25.086  1.00  0.00     0.000 C 
BRANCH   5   6
ATOM      6  C   UNL     1      16.175   3.523  24.232  1.00  0.00     0.000 C 
BRANCH   6   7
ATOM      7  C   UNL     1      14.664   3.412  24.501  1.00  0.00     0.000 C 
BRANCH   7   8
ATOM      8  C   UNL     1      13.762   3.654  23.273  1.00  0.00     0.000 C 
BRANCH   8   9
ATOM      9  C   UNL     1      14.136   2.844  22.019  1.00  0.00     0.000 C 
BRANCH   9  10
ATOM     10  C   UNL     1      12.976   2.725  21.018  1.00  0.00     0.000 C 
BRANCH  10  11
ATOM     11  C   UNL     1      12.512   4.108  20.549  1.00  0.00     0.000 C 
BRANCH  11  12
ATOM     12  C   UNL     1      11.852   4.027  19.165  1.00  0.00     0.006 C 
BRANCH  12  13
ATOM     13  C   UNL     1      12.217   5.223  18.276  1.00  0.00     0.053 C 
BRANCH  13  14
ATOM     14  C   UNL     1      11.427   6.444  18.638  1.00  0.00     0.041 C 
ATOM     15  O   UNL     1      11.976   7.395  19.253  1.00  0.00    -0.550 OA
ATOM     16  O   UNL     1      10.075   6.516  18.326  1.00  0.00    -0.550 OA
ENDBRANCH  13  14
ENDBRANCH  12  13
ENDBRANCH  11  12
ENDBRANCH  10  11
ENDBRANCH   9  10
ENDBRANCH   8   9
ENDBRANCH   7   8
ENDBRANCH   6   7
ENDBRANCH   5   6
ENDBRANCH   4   5
ENDBRANCH   3   4
ENDBRANCH   2   3
ENDBRANCH   1   2
BRANCH   1  17
ATOM     17  C   UNL     1      11.773   7.406  26.089  1.00  0.00     0.000 C 
BRANCH  17  18
ATOM     18  C   UNL     1      10.961   8.652  25.694  1.00  0.00     0.000 C 
BRANCH  18  19
ATOM     19  C   UNL     1      10.016   8.388  24.510  1.00  0.00     0.000 C 
BRANCH  19  20
ATOM     20  C   UNL     1       9.668   6.898  24.351  1.00  0.00     0.000 C 
BRANCH  20  21
ATOM     21  C   UNL     1       8.284   6.550  24.921  1.00  0.00     0.000 C 
BRANCH  21  22
ATOM     22  C   UNL     1       8.079   5.037  25.090  1.00  0.00    -0.000 C 
BRANCH  22  23
ATOM     23  C   UNL     1       7.834   4.361  23.734  1.00  0.00    -0.000 C 
BRANCH  23  24
ATOM     24  C   UNL     1       6.540   4.840  23.053  1.00  0.00    -0.000 C 
BRANCH  24  25
ATOM     25  C   UNL     1       5.691   3.726  22.411  1.00  0.00    -0.000 C 
BRANCH  25  26
ATOM     26  C   UNL     1       6.214   3.254  21.037  1.00  0.00    -0.000 C 
BRANCH  26  27
ATOM     27  C   UNL     1       7.751   3.244  20.962  1.00  0.00    -0.000 C 
BRANCH  27  28
ATOM     28  C   UNL     1       8.332   1.823  21.126  1.00  0.00    -0.000 C 
BRANCH  28  29
ATOM     29  C   UNL     1       8.250   1.288  22.566  1.00  0.00    -0.003 C 
ATOM     30  C   UNL     1       7.099   0.306  22.772  1.00  0.00     0.004 C 
ENDBRANCH  28  29
ENDBRANCH  27  28
ENDBRANCH  26  27
ENDBRANCH  25  26
ENDBRANCH  24  25
ENDBRANCH  23  24
ENDBRANCH  22  23
ENDBRANCH  21  22
ENDBRANCH  20  21
ENDBRANCH  19  20
ENDBRANCH  18  19
ENDBRANCH  17  18
ENDBRANCH   1  17
TORSDOF 26
ENDMDL
MODEL 3
REMARK VINA RESULT:    33.706      1.335      3.586
REMARK INTER + INTRA:          85.856
REMARK INTER:                  87.009
REMARK INTRA:                  -1.153
REMARK UNBOUND:                 0.919
REMARK SMILES CCCCCCCCCCCCCCCCCCCCCCCCCCCC(=O)[O-]
REMARK SMILES IDX 15 1 16 2 17 3 18 4 19 5 20 6 21 7 22 8 23 9 24 10 25 11
REMARK SMILES IDX 26 12 27 13 28 14 29 15 30 16 14 17 13 18 12 19 11 20 10 21
REMARK SMILES IDX 9 22 8 23 7 24 6 25 5 26 4 27 3 28 2 29 1 30
REMARK H PARENT
REMARK Flexibility Score: inf
ROOT
ATOM      1  C   UNL     1      17.361   8.372  15.234  1.00  0.00     0.000 C 
ENDROOT
BRANCH   1   2
ATOM      2  C   UNL     1      16.951   6.966  15.706  1.00  0.00     0.000 C 
BRANCH   2   3
ATOM      3  C   UNL     1      18.123   6.194  16.334  1.00  0.00     0.000 C 
BRANCH   3   4
ATOM      4  C   UNL     1      17.707   5.409  17.591  1.00  0.00     0.000 C 
BRANCH   4   5
ATOM      5  C   UNL     1      17.921   6.213  18.882  1.00  0.00     0.000 C 
BRANCH   5   6
ATOM      6  C   UNL     1      16.634   6.907  19.362  1.00  0.00     0.000 C 
BRANCH   6   7
ATOM      7  C   UNL     1      15.384   6.442  18.593  1.00  0.00     0.000 C 
BRANCH   7   8
ATOM      8  C   UNL     1      14.187   7.413  18.645  1.00  0.00     0.000 C 
BRANCH   8   9
ATOM      9  C   UNL     1      12.810   6.765  18.417  1.00  0.00     0.000 C 
BRANCH   9  10
ATOM     10  C   UNL     1      12.543   5.582  19.360  1.00  0.00     0.000 C 
BRANCH  10  11
ATOM     11  C   UNL     1      11.876   4.422  18.611  1.00  0.00     0.000 C 
BRANCH  11  12
ATOM     12  C   UNL     1      11.340   3.370  19.592  1.00  0.00     0.006 C 
BRANCH  12  13
ATOM     13  C   UNL     1      12.400   2.323  19.958  1.00  0.00     0.053 C 
BRANCH  13  14
ATOM     14  C   UNL     1      13.154   2.707  21.195  1.00  0.00     0.041 C 
ATOM     15  O   UNL     1      13.975   1.905  21.712  1.00  0.00    -0.550 OA
ATOM     16  O   UNL     1      12.925   3.939  21.795  1.00  0.00    -0.550 OA
ENDBRANCH  13  14
ENDBRANCH  12  13
ENDBRANCH  11  12
ENDBRANCH  10  11
ENDBRANCH   9  10
ENDBRANCH   8   9
ENDBRANCH   7   8
ENDBRANCH   6   7
ENDBRANCH   5   6
ENDBRANCH   4   5
ENDBRANCH   3   4
ENDBRANCH   2   3
ENDBRANCH   1   2
BRANCH   1  17
ATOM     17  C   UNL     1      18.112   8.352  13.893  1.00  0.00     0.000 C 
BRANCH  17  18
ATOM     18  C   UNL     1      17.372   7.544  12.812  1.00  0.00     0.000 C 
BRANCH  18  19
ATOM     19  C   UNL     1      18.044   7.652  11.434  1.00  0.00     0.000 C 
BRANCH  19  20
ATOM     20  C   UNL     1      17.026   7.723  10.282  1.00  0.00     0.000 C 
BRANCH  20  21
ATOM     21  C   UNL     1      17.425   6.845   9.085  1.00  0.00     0.000 C 
BRANCH  21  22
ATOM     22  C   UNL     1      16.335   5.831   8.709  1.00  0.00    -0.000 C 
BRANCH  22  23
ATOM     23  C   UNL     1      15.762   6.132   7.317  1.00  0.00    -0.000 C 
BRANCH  23  24
ATOM     24  C   UNL     1      14.344   6.723   7.371  1.00  0.00    -0.000 C 
BRANCH  24  25
ATOM     25  C   UNL     1      13.492   6.266   8.571  1.00  0.00    -0.000 C 
BRANCH  25  26
ATOM     26  C   UNL     1      11.978   6.511   8.394  1.00  0.00    -0.000 C 
BRANCH  26  27
ATOM     27  C   UNL     1      11.431   5.907   7.088  1.00  0.00    -0.000 C 
BRANCH  27  28
ATOM     28  C   UNL     1      10.690   4.575   7.330  1.00  0.00    -0.000 C 
BRANCH  28  29
ATOM     29  C   UNL     1      10.383   4.303   8.814  1.00  0.00    -0.003 C 
ATOM     30  C   UNL     1      10.768   2.892   9.253  1.00  0.00     0.004 C 
ENDBRANCH  28  29
ENDBRANCH  27  28
ENDBRANCH  26  27
ENDBRANCH  25  26
ENDBRANCH  24  25
ENDBRANCH  23  24
ENDBRANCH  22  23
ENDBRANCH  21  22
ENDBRANCH  20  21
ENDBRANCH  19  20
ENDBRANCH  18  19
ENDBRANCH  17  18
ENDBRANCH   1  17
TORSDOF 26
ENDMDL
MODEL 4
REMARK VINA RESULT:    33.935      5.736      9.794
REMARK INTER + INTRA:          86.433
REMARK INTER:                  87.807
REMARK INTRA:                  -1.374
REMARK UNBOUND:                 0.919
REMARK SMILES CCCCCCCCCCCCCCCCCCCCCCCCCCCC(=O)[O-]
REMARK SMILES IDX 15 1 16 2 17 3 18 4 19 5 20 6 21 7 22 8 23 9 24 10 25 11
REMARK SMILES IDX 26 12 27 13 28 14 29 15 30 16 14 17 13 18 12 19 11 20 10 21
REMARK SMILES IDX 9 22 8 23 7 24 6 25 5 26 4 27 3 28 2 29 1 30
REMARK H PARENT
REMARK Flexibility Score: inf
ROOT
ATOM      1  C   UNL     1      10.266   4.489   9.233  1.00  0.00     0.000 C 
ENDROOT
BRANCH   1   2
ATOM      2  C   UNL     1      10.961   5.852   9.074  1.00  0.00     0.000 C 
BRANCH   2   3
ATOM      3  C   UNL     1      11.153   6.244   7.600  1.00  0.00     0.000 C 
BRANCH   3   4
ATOM      4  C   UNL     1      11.539   7.724   7.428  1.00  0.00     0.000 C 
BRANCH   4   5
ATOM      5  C   UNL     1      13.017   7.987   7.754  1.00  0.00     0.000 C 
BRANCH   5   6
ATOM      6  C   UNL     1      13.946   7.661   6.571  1.00  0.00     0.000 C 
BRANCH   6   7
ATOM      7  C   UNL     1      15.235   6.942   7.007  1.00  0.00     0.000 C 
BRANCH   7   8
ATOM      8  C   UNL     1      15.021   5.697   7.892  1.00  0.00     0.000 C 
BRANCH   8   9
ATOM      9  C   UNL     1      16.036   4.560   7.676  1.00  0.00     0.000 C 
BRANCH   9  10
ATOM     10  C   UNL     1      17.317   5.030   6.971  1.00  0.00     0.000 C 
BRANCH  10  11
ATOM     11  C   UNL     1      18.019   6.126   7.782  1.00  0.00     0.000 C 
BRANCH  11  12
ATOM     12  C   UNL     1      17.802   5.919   9.288  1.00  0.00     0.006 C 
BRANCH  12  13
ATOM     13  C   UNL     1      18.123   7.181  10.100  1.00  0.00     0.053 C 
BRANCH  13  14
ATOM     14  C   UNL     1      17.046   8.214   9.966  1.00  0.00     0.041 C 
ATOM     15  O   UNL     1      15.834   7.880  10.036  1.00  0.00    -0.550 OA
ATOM     16  O   UNL     1      17.380   9.542   9.731  1.00  0.00    -0.550 OA
ENDBRANCH  13  14
ENDBRANCH  12  13
ENDBRANCH  11  12
ENDBRANCH  10  11
ENDBRANCH   9  10
ENDBRANCH   8   9
ENDBRANCH   7   8
ENDBRANCH   6   7
ENDBRANCH   5   6
ENDBRANCH   4   5
ENDBRANCH   3   4
ENDBRANCH   2   3
ENDBRANCH   1   2
BRANCH   1  17
ATOM     17  C   UNL     1      10.741   3.457   8.198  1.00  0.00     0.000 C 
BRANCH  17  18
ATOM     18  C   UNL     1      10.332   2.019   8.565  1.00  0.00     0.000 C 
BRANCH  18  19
ATOM     19  C   UNL     1       9.874   1.208   7.342  1.00  0.00     0.000 C 
BRANCH  19  20
ATOM     20  C   UNL     1       9.234  -0.137   7.728  1.00  0.00     0.000 C 
BRANCH  20  21
ATOM     21  C   UNL     1       7.869  -0.356   7.056  1.00  0.00     0.000 C 
BRANCH  21  22
ATOM     22  C   UNL     1       7.287  -1.748   7.343  1.00  0.00    -0.000 C 
BRANCH  22  23
ATOM     23  C   UNL     1       7.909  -2.352   8.610  1.00  0.00    -0.000 C 
BRANCH  23  24
ATOM     24  C   UNL     1       7.741  -3.879   8.687  1.00  0.00    -0.000 C 
BRANCH  24  25
ATOM     25  C   UNL     1       9.053  -4.683   8.603  1.00  0.00    -0.000 C 
BRANCH  25  26
ATOM     26  C   UNL     1      10.290  -3.919   9.124  1.00  0.00    -0.000 C 
BRANCH  26  27
ATOM     27  C   UNL     1      11.541  -4.162   8.260  1.00  0.00    -0.000 C 
BRANCH  27  28
ATOM     28  C   UNL     1      11.667  -3.132   7.117  1.00  0.00    -0.000 C 
BRANCH  28  29
ATOM     29  C   UNL     1      12.297  -1.799   7.558  1.00  0.00    -0.003 C 
ATOM     30  C   UNL     1      13.774  -1.930   7.923  1.00  0.00     0.004 C 
ENDBRANCH  28  29
ENDBRANCH  27  28
ENDBRANCH  26  27
ENDBRANCH  25  26
ENDBRANCH  24  25
ENDBRANCH  23  24
ENDBRANCH  22  23
ENDBRANCH  21  22
ENDBRANCH  20  21
ENDBRANCH  19  20
ENDBRANCH  18  19
ENDBRANCH  17  18
ENDBRANCH   1  17
TORSDOF 26
ENDMDL
MODEL 5
REMARK VINA RESULT:    34.035      1.686      2.535
REMARK INTER + INTRA:          86.686
REMARK INTER:                  86.777
REMARK INTRA:                  -0.091
REMARK UNBOUND:                 0.919
REMARK SMILES CCCCCCCCCCCCCCCCCCCCCCCCCCCC(=O)[O-]
REMARK SMILES IDX 15 1 16 2 17 3 18 4 19 5 20 6 21 7 22 8 23 9 24 10 25 11
REMARK SMILES IDX 26 12 27 13 28 14 29 15 30 16 14 17 13 18 12 19 11 20 10 21
REMARK SMILES IDX 9 22 8 23 7 24 6 25 5 26 4 27 3 28 2 29 1 30
REMARK H PARENT
REMARK Flexibility Score: inf
ROOT
ATOM      1  C   UNL     1      16.474   6.661  11.617  1.00  0.00     0.000 C 
ENDROOT
BRANCH   1   2
ATOM      2  C   UNL     1      17.039   7.422  12.829  1.00  0.00     0.000 C 
BRANCH   2   3
ATOM      3  C   UNL     1      17.023   6.575  14.112  1.00  0.00     0.000 C 
BRANCH   3   4
ATOM      4  C   UNL     1      17.738   7.268  15.286  1.00  0.00     0.000 C 
BRANCH   4   5
ATOM      5  C   UNL     1      18.123   6.284  16.401  1.00  0.00     0.000 C 
BRANCH   5   6
ATOM      6  C   UNL     1      18.125   6.943  17.792  1.00  0.00     0.000 C 
BRANCH   6   7
ATOM      7  C   UNL     1      17.240   6.197  18.806  1.00  0.00     0.000 C 
BRANCH   7   8
ATOM      8  C   UNL     1      15.721   6.350  18.584  1.00  0.00     0.000 C 
BRANCH   8   9
ATOM      9  C   UNL     1      15.003   5.082  18.086  1.00  0.00     0.000 C 
BRANCH   9  10
ATOM     10  C   UNL     1      14.118   4.436  19.163  1.00  0.00     0.000 C 
BRANCH  10  11
ATOM     11  C   UNL     1      12.976   3.634  18.526  1.00  0.00     0.000 C 
BRANCH  11  12
ATOM     12  C   UNL     1      11.629   4.345  18.723  1.00  0.00     0.006 C 
BRANCH  12  13
ATOM     13  C   UNL     1      11.749   5.576  19.631  1.00  0.00     0.053 C 
BRANCH  13  14
ATOM     14  C   UNL     1      11.210   6.808  18.968  1.00  0.00     0.041 C 
ATOM     15  O   UNL     1      11.783   7.283  17.952  1.00  0.00    -0.550 OA
ATOM     16  O   UNL     1      10.096   7.450  19.493  1.00  0.00    -0.550 OA
ENDBRANCH  13  14
ENDBRANCH  12  13
ENDBRANCH  11  12
ENDBRANCH  10  11
ENDBRANCH   9  10
ENDBRANCH   8   9
ENDBRANCH   7   8
ENDBRANCH   6   7
ENDBRANCH   5   6
ENDBRANCH   4   5
ENDBRANCH   3   4
ENDBRANCH   2   3
ENDBRANCH   1   2
BRANCH   1  17
ATOM     17  C   UNL     1      16.494   7.500  10.329  1.00  0.00     0.000 C 
BRANCH  17  18
ATOM     18  C   UNL     1      17.785   7.304   9.515  1.00  0.00     0.000 C 
BRANCH  18  19
ATOM     19  C   UNL     1      17.746   6.036   8.646  1.00  0.00     0.000 C 
BRANCH  19  20
ATOM     20  C   UNL     1      16.332   5.713   8.132  1.00  0.00     0.000 C 
BRANCH  20  21
ATOM     21  C   UNL     1      15.349   6.876   8.335  1.00  0.00     0.000 C 
BRANCH  21  22
ATOM     22  C   UNL     1      14.307   6.971   7.211  1.00  0.00    -0.000 C 
BRANCH  22  23
ATOM     23  C   UNL     1      13.189   7.956   7.580  1.00  0.00    -0.000 C 
BRANCH  23  24
ATOM     24  C   UNL     1      11.831   7.574   6.968  1.00  0.00    -0.000 C 
BRANCH  24  25
ATOM     25  C   UNL     1      11.027   6.530   7.767  1.00  0.00    -0.000 C 
BRANCH  25  26
ATOM     26  C   UNL     1      10.787   5.208   7.004  1.00  0.00    -0.000 C 
BRANCH  26  27
ATOM     27  C   UNL     1      11.316   3.982   7.769  1.00  0.00    -0.000 C 
BRANCH  27  28
ATOM     28  C   UNL     1      10.709   3.873   9.185  1.00  0.00    -0.000 C 
BRANCH  28  29
ATOM     29  C   UNL     1      10.265   2.447   9.555  1.00  0.00    -0.003 C 
ATOM     30  C   UNL     1      10.299   1.485   8.369  1.00  0.00     0.004 C 
ENDBRANCH  28  29
ENDBRANCH  27  28
ENDBRANCH  26  27
ENDBRANCH  25  26
ENDBRANCH  24  25
ENDBRANCH  23  24
ENDBRANCH  22  23
ENDBRANCH  21  22
ENDBRANCH  20  21
ENDBRANCH  19  20
ENDBRANCH  18  19
ENDBRANCH  17  18
ENDBRANCH   1  17
TORSDOF 26
ENDMDL
MODEL 6
REMARK VINA RESULT:    34.094      5.697      9.700
REMARK INTER + INTRA:          86.834
REMARK INTER:                  85.246
REMARK INTRA:                   1.588
REMARK UNBOUND:                 0.919
REMARK SMILES CCCCCCCCCCCCCCCCCCCCCCCCCCCC(=O)[O-]
REMARK SMILES IDX 15 1 16 2 17 3 18 4 19 5 20 6 21 7 22 8 23 9 24 10 25 11
REMARK SMILES IDX 26 12 27 13 28 14 29 15 30 16 14 17 13 18 12 19 11 20 10 21
REMARK SMILES IDX 9 22 8 23 7 24 6 25 5 26 4 27 3 28 2 29 1 30
REMARK H PARENT
REMARK Flexibility Score: inf
ROOT
ATOM      1  C   UNL     1      10.892   4.060   7.367  1.00  0.00     0.000 C 
ENDROOT
BRANCH   1   2
ATOM      2  C   UNL     1      10.135   2.740   7.595  1.00  0.00     0.000 C 
BRANCH   2   3
ATOM      3  C   UNL     1      10.442   2.119   8.967  1.00  0.00     0.000 C 
BRANCH   3   4
ATOM      4  C   UNL     1      11.194   3.085   9.899  1.00  0.00     0.000 C 
BRANCH   4   5
ATOM      5  C   UNL     1      12.357   2.404  10.637  1.00  0.00     0.000 C 
BRANCH   5   6
ATOM      6  C   UNL     1      11.976   1.014  11.177  1.00  0.00     0.000 C 
BRANCH   6   7
ATOM      7  C   UNL     1      12.896  -0.102  10.650  1.00  0.00     0.000 C 
BRANCH   7   8
ATOM      8  C   UNL     1      12.201  -1.157   9.764  1.00  0.00     0.000 C 
BRANCH   8   9
ATOM      9  C   UNL     1      12.422  -0.985   8.251  1.00  0.00     0.000 C 
BRANCH   9  10
ATOM     10  C   UNL     1      12.223  -2.291   7.467  1.00  0.00     0.000 C 
BRANCH  10  11
ATOM     11  C   UNL     1      11.382  -3.290   8.270  1.00  0.00     0.000 C 
BRANCH  11  12
ATOM     12  C   UNL     1      12.076  -4.659   8.344  1.00  0.00     0.006 C 
BRANCH  12  13
ATOM     13  C   UNL     1      12.280  -5.129   9.790  1.00  0.00     0.053 C 
BRANCH  13  14
ATOM     14  C   UNL     1      11.702  -6.493  10.016  1.00  0.00     0.041 C 
ATOM     15  O   UNL     1      11.176  -7.125   9.062  1.00  0.00    -0.550 OA
ATOM     16  O   UNL     1      11.714  -7.052  11.287  1.00  0.00    -0.550 OA
ENDBRANCH  13  14
ENDBRANCH  12  13
ENDBRANCH  11  12
ENDBRANCH  10  11
ENDBRANCH   9  10
ENDBRANCH   8   9
ENDBRANCH   7   8
ENDBRANCH   6   7
ENDBRANCH   5   6
ENDBRANCH   4   5
ENDBRANCH   3   4
ENDBRANCH   2   3
ENDBRANCH   1   2
BRANCH   1  17
ATOM     17  C   UNL     1       9.981   5.293   7.475  1.00  0.00     0.000 C 
BRANCH  17  18
ATOM     18  C   UNL     1      10.124   6.017   8.826  1.00  0.00     0.000 C 
BRANCH  18  19
ATOM     19  C   UNL     1      10.908   7.334   8.707  1.00  0.00     0.000 C 
BRANCH  19  20
ATOM     20  C   UNL     1      11.831   7.366   7.476  1.00  0.00     0.000 C 
BRANCH  20  21
ATOM     21  C   UNL     1      13.293   7.046   7.825  1.00  0.00     0.000 C 
BRANCH  21  22
ATOM     22  C   UNL     1      14.291   7.801   6.935  1.00  0.00    -0.000 C 
BRANCH  22  23
ATOM     23  C   UNL     1      15.531   6.943   6.650  1.00  0.00    -0.000 C 
BRANCH  23  24
ATOM     24  C   UNL     1      15.375   5.490   7.129  1.00  0.00    -0.000 C 
BRANCH  24  25
ATOM     25  C   UNL     1      16.190   4.451   6.335  1.00  0.00    -0.000 C 
BRANCH  25  26
ATOM     26  C   UNL     1      17.719   4.617   6.473  1.00  0.00    -0.000 C 
BRANCH  26  27
ATOM     27  C   UNL     1      18.124   5.270   7.807  1.00  0.00    -0.000 C 
BRANCH  27  28
ATOM     28  C   UNL     1      16.936   5.980   8.491  1.00  0.00    -0.000 C 
BRANCH  28  29
ATOM     29  C   UNL     1      17.358   6.929   9.627  1.00  0.00    -0.003 C 
ATOM     30  C   UNL     1      16.242   7.878  10.057  1.00  0.00     0.004 C 
ENDBRANCH  28  29
ENDBRANCH  27  28
ENDBRANCH  26  27
ENDBRANCH  25  26
ENDBRANCH  24  25
ENDBRANCH  23  24
ENDBRANCH  22  23
ENDBRANCH  21  22
ENDBRANCH  20  21
ENDBRANCH  19  20
ENDBRANCH  18  19
ENDBRANCH  17  18
ENDBRANCH   1  17
TORSDOF 26
ENDMDL
MODEL 7
REMARK VINA RESULT:    34.421      5.817      9.360
REMARK INTER + INTRA:          87.658
REMARK INTER:                  88.822
REMARK INTRA:                  -1.165
REMARK UNBOUND:                 0.919
REMARK SMILES CCCCCCCCCCCCCCCCCCCCCCCCCCCC(=O)[O-]
REMARK SMILES IDX 15 1 16 2 17 3 18 4 19 5 20 6 21 7 22 8 23 9 24 10 25 11
REMARK SMILES IDX 26 12 27 13 28 14 29 15 30 16 14 17 13 18 12 19 11 20 10 21
REMARK SMILES IDX 9 22 8 23 7 24 6 25 5 26 4 27 3 28 2 29 1 30
REMARK H PARENT
REMARK Flexibility Score: inf
ROOT
ATOM      1  C   UNL     1      10.224   4.453   9.060  1.00  0.00     0.000 C 
ENDROOT
BRANCH   1   2
ATOM      2  C   UNL     1      10.796   5.881   9.027  1.00  0.00     0.000 C 
BRANCH   2   3
ATOM      3  C   UNL     1      11.062   6.373   7.595  1.00  0.00     0.000 C 
BRANCH   3   4
ATOM      4  C   UNL     1      11.496   7.849   7.548  1.00  0.00     0.000 C 
BRANCH   4   5
ATOM      5  C   UNL     1      12.984   8.034   7.881  1.00  0.00     0.000 C 
BRANCH   5   6
ATOM      6  C   UNL     1      13.893   7.778   6.667  1.00  0.00     0.000 C 
BRANCH   6   7
ATOM      7  C   UNL     1      15.159   6.979   7.028  1.00  0.00     0.000 C 
BRANCH   7   8
ATOM      8  C   UNL     1      14.906   5.680   7.821  1.00  0.00     0.000 C 
BRANCH   8   9
ATOM      9  C   UNL     1      15.848   4.512   7.478  1.00  0.00     0.000 C 
BRANCH   9  10
ATOM     10  C   UNL     1      17.107   4.963   6.722  1.00  0.00     0.000 C 
BRANCH  10  11
ATOM     11  C   UNL     1      17.893   5.999   7.534  1.00  0.00     0.000 C 
BRANCH  11  12
ATOM     12  C   UNL     1      17.739   5.747   9.041  1.00  0.00     0.006 C 
BRANCH  12  13
ATOM     13  C   UNL     1      18.124   6.975   9.878  1.00  0.00     0.053 C 
BRANCH  13  14
ATOM     14  C   UNL     1      17.053   8.022   9.850  1.00  0.00     0.041 C 
ATOM     15  O   UNL     1      15.844   7.697   9.985  1.00  0.00    -0.550 OA
ATOM     16  O   UNL     1      17.387   9.354   9.640  1.00  0.00    -0.550 OA
ENDBRANCH  13  14
ENDBRANCH  12  13
ENDBRANCH  11  12
ENDBRANCH  10  11
ENDBRANCH   9  10
ENDBRANCH   8   9
ENDBRANCH   7   8
ENDBRANCH   6   7
ENDBRANCH   5   6
ENDBRANCH   4   5
ENDBRANCH   3   4
ENDBRANCH   2   3
ENDBRANCH   1   2
BRANCH   1  17
ATOM     17  C   UNL     1      10.851   3.538   7.995  1.00  0.00     0.000 C 
BRANCH  17  18
ATOM     18  C   UNL     1      10.556   2.049   8.247  1.00  0.00     0.000 C 
BRANCH  18  19
ATOM     19  C   UNL     1      11.839   1.210   8.378  1.00  0.00     0.000 C 
BRANCH  19  20
ATOM     20  C   UNL     1      11.571  -0.302   8.281  1.00  0.00     0.000 C 
BRANCH  20  21
ATOM     21  C   UNL     1      12.745  -1.072   7.657  1.00  0.00     0.000 C 
BRANCH  21  22
ATOM     22  C   UNL     1      12.654  -2.585   7.900  1.00  0.00    -0.000 C 
BRANCH  22  23
ATOM     23  C   UNL     1      11.220  -3.090   7.689  1.00  0.00    -0.000 C 
BRANCH  23  24
ATOM     24  C   UNL     1      10.725  -3.981   8.841  1.00  0.00    -0.000 C 
BRANCH  24  25
ATOM     25  C   UNL     1       9.335  -3.614   9.396  1.00  0.00    -0.000 C 
BRANCH  25  26
ATOM     26  C   UNL     1       8.283  -3.321   8.305  1.00  0.00    -0.000 C 
BRANCH  26  27
ATOM     27  C   UNL     1       7.558  -1.982   8.529  1.00  0.00    -0.000 C 
BRANCH  27  28
ATOM     28  C   UNL     1       8.259  -0.812   7.805  1.00  0.00    -0.000 C 
BRANCH  28  29
ATOM     29  C   UNL     1       8.036  -0.810   6.282  1.00  0.00    -0.003 C 
ATOM     30  C   UNL     1       6.583  -0.545   5.894  1.00  0.00     0.004 C 
ENDBRANCH  28  29
ENDBRANCH  27  28
ENDBRANCH  26  27
ENDBRANCH  25  26
ENDBRANCH  24  25
ENDBRANCH  23  24
ENDBRANCH  22  23
ENDBRANCH  21  22
ENDBRANCH  20  21
ENDBRANCH  19  20
ENDBRANCH  18  19
ENDBRANCH  17  18
ENDBRANCH   1  17
TORSDOF 26
ENDMDL
MODEL 8
REMARK VINA RESULT:    34.541      2.873      9.711
REMARK INTER + INTRA:          87.962
REMARK INTER:                  89.249
REMARK INTRA:                  -1.287
REMARK UNBOUND:                 0.919
REMARK SMILES CCCCCCCCCCCCCCCCCCCCCCCCCCCC(=O)[O-]
REMARK SMILES IDX 15 1 16 2 17 3 18 4 19 5 20 6 21 7 22 8 23 9 24 10 25 11
REMARK SMILES IDX 26 12 27 13 28 14 29 15 30 16 14 17 13 18 12 19 11 20 10 21
REMARK SMILES IDX 9 22 8 23 7 24 6 25 5 26 4 27 3 28 2 29 1 30
REMARK H PARENT
REMARK Flexibility Score: inf
ROOT
ATOM      1  C   UNL     1      17.167   7.430  13.738  1.00  0.00     0.000 C 
ENDROOT
BRANCH   1   2
ATOM      2  C   UNL     1      18.125   7.236  12.550  1.00  0.00     0.000 C 
BRANCH   2   3
ATOM      3  C   UNL     1      18.125   8.440  11.594  1.00  0.00     0.000 C 
BRANCH   3   4
ATOM      4  C   UNL     1      17.356   8.160  10.291  1.00  0.00     0.000 C 
BRANCH   4   5
ATOM      5  C   UNL     1      16.876   6.704  10.194  1.00  0.00     0.000 C 
BRANCH   5   6
ATOM      6  C   UNL     1      16.229   6.388   8.834  1.00  0.00     0.000 C 
BRANCH   6   7
ATOM      7  C   UNL     1      15.616   7.630   8.163  1.00  0.00     0.000 C 
BRANCH   7   8
ATOM      8  C   UNL     1      14.146   7.474   7.722  1.00  0.00     0.000 C 
BRANCH   8   9
ATOM      9  C   UNL     1      13.374   6.336   8.412  1.00  0.00     0.000 C 
BRANCH   9  10
ATOM     10  C   UNL     1      12.983   5.207   7.446  1.00  0.00     0.000 C 
BRANCH  10  11
ATOM     11  C   UNL     1      11.483   4.902   7.537  1.00  0.00     0.000 C 
BRANCH  11  12
ATOM     12  C   UNL     1      11.194   3.445   7.147  1.00  0.00     0.006 C 
BRANCH  12  13
ATOM     13  C   UNL     1      10.143   2.798   8.058  1.00  0.00     0.053 C 
BRANCH  13  14
ATOM     14  C   UNL     1      10.410   3.087   9.504  1.00  0.00     0.041 C 
ATOM     15  O   UNL     1       9.769   3.994  10.098  1.00  0.00    -0.550 OA
ATOM     16  O   UNL     1      11.389   2.377  10.187  1.00  0.00    -0.550 OA
ENDBRANCH  13  14
ENDBRANCH  12  13
ENDBRANCH  11  12
ENDBRANCH  10  11
ENDBRANCH   9  10
ENDBRANCH   8   9
ENDBRANCH   7   8
ENDBRANCH   6   7
ENDBRANCH   5   6
ENDBRANCH   4   5
ENDBRANCH   3   4
ENDBRANCH   2   3
ENDBRANCH   1   2
BRANCH   1  17
ATOM     17  C   UNL     1      17.886   7.367  15.096  1.00  0.00     0.000 C 
BRANCH  17  18
ATOM     18  C   UNL     1      17.476   6.138  15.926  1.00  0.00     0.000 C 
BRANCH  18  19
ATOM     19  C   UNL     1      17.695   6.348  17.433  1.00  0.00     0.000 C 
BRANCH  19  20
ATOM     20  C   UNL     1      16.385   6.629  18.190  1.00  0.00     0.000 C 
BRANCH  20  21
ATOM     21  C   UNL     1      16.359   8.027  18.827  1.00  0.00     0.000 C 
BRANCH  21  22
ATOM     22  C   UNL     1      14.997   8.720  18.674  1.00  0.00    -0.000 C 
BRANCH  22  23
ATOM     23  C   UNL     1      13.866   7.832  19.211  1.00  0.00    -0.000 C 
BRANCH  23  24
ATOM     24  C   UNL     1      12.621   7.840  18.308  1.00  0.00    -0.000 C 
BRANCH  24  25
ATOM     25  C   UNL     1      11.373   7.167  18.912  1.00  0.00    -0.000 C 
BRANCH  25  26
ATOM     26  C   UNL     1      11.304   5.644  18.666  1.00  0.00    -0.000 C 
BRANCH  26  27
ATOM     27  C   UNL     1      12.381   4.871  19.447  1.00  0.00    -0.000 C 
BRANCH  27  28
ATOM     28  C   UNL     1      12.897   3.643  18.665  1.00  0.00    -0.000 C 
BRANCH  28  29
ATOM     29  C   UNL     1      12.318   2.308  19.166  1.00  0.00    -0.003 C 
ATOM     30  C   UNL     1      11.346   2.479  20.331  1.00  0.00     0.004 C 
ENDBRANCH  28  29
ENDBRANCH  27  28
ENDBRANCH  26  27
ENDBRANCH  25  26
ENDBRANCH  24  25
ENDBRANCH  23  24
ENDBRANCH  22  23
ENDBRANCH  21  22
ENDBRANCH  20  21
ENDBRANCH  19  20
ENDBRANCH  18  19
ENDBRANCH  17  18
ENDBRANCH   1  17
TORSDOF 26
ENDMDL
MODEL 9
REMARK VINA RESULT:    35.011      2.851      9.514
REMARK INTER + INTRA:          89.145
REMARK INTER:                  85.223
REMARK INTRA:                   3.922
REMARK UNBOUND:                 0.919
REMARK SMILES CCCCCCCCCCCCCCCCCCCCCCCCCCCC(=O)[O-]
REMARK SMILES IDX 15 1 16 2 17 3 18 4 19 5 20 6 21 7 22 8 23 9 24 10 25 11
REMARK SMILES IDX 26 12 27 13 28 14 29 15 30 16 14 17 13 18 12 19 11 20 10 21
REMARK SMILES IDX 9 22 8 23 7 24 6 25 5 26 4 27 3 28 2 29 1 30
REMARK H PARENT
REMARK Flexibility Score: inf
ROOT
ATOM      1  C   UNL     1      16.960   6.664   9.199  1.00  0.00     0.000 C 
ENDROOT
BRANCH   1   2
ATOM      2  C   UNL     1      17.640   5.806   8.119  1.00  0.00     0.000 C 
BRANCH   2   3
ATOM      3  C   UNL     1      16.714   5.524   6.925  1.00  0.00     0.000 C 
BRANCH   3   4
ATOM      4  C   UNL     1      15.419   4.803   7.338  1.00  0.00     0.000 C 
BRANCH   4   5
ATOM      5  C   UNL     1      14.385   5.759   7.952  1.00  0.00     0.000 C 
BRANCH   5   6
ATOM      6  C   UNL     1      14.757   7.237   7.746  1.00  0.00     0.000 C 
BRANCH   6   7
ATOM      7  C   UNL     1      13.570   8.089   7.261  1.00  0.00     0.000 C 
BRANCH   7   8
ATOM      8  C   UNL     1      12.194   7.395   7.342  1.00  0.00     0.000 C 
BRANCH   8   9
ATOM      9  C   UNL     1      11.718   7.053   8.765  1.00  0.00     0.000 C 
BRANCH   9  10
ATOM     10  C   UNL     1      10.300   6.462   8.795  1.00  0.00     0.000 C 
BRANCH  10  11
ATOM     11  C   UNL     1      10.341   4.935   8.662  1.00  0.00     0.000 C 
BRANCH  11  12
ATOM     12  C   UNL     1      10.277   4.510   7.187  1.00  0.00     0.006 C 
BRANCH  12  13
ATOM     13  C   UNL     1      10.675   3.041   6.988  1.00  0.00     0.053 C 
BRANCH  13  14
ATOM     14  C   UNL     1      10.553   2.257   8.259  1.00  0.00     0.041 C 
ATOM     15  O   UNL     1      10.324   1.020   8.221  1.00  0.00    -0.550 OA
ATOM     16  O   UNL     1      10.660   2.900   9.486  1.00  0.00    -0.550 OA
ENDBRANCH  13  14
ENDBRANCH  12  13
ENDBRANCH  11  12
ENDBRANCH  10  11
ENDBRANCH   9  10
ENDBRANCH   8   9
ENDBRANCH   7   8
ENDBRANCH   6   7
ENDBRANCH   5   6
ENDBRANCH   4   5
ENDBRANCH   3   4
ENDBRANCH   2   3
ENDBRANCH   1   2
BRANCH   1  17
ATOM     17  C   UNL     1      17.969   7.379  10.112  1.00  0.00     0.000 C 
BRANCH  17  18
ATOM     18  C   UNL     1      17.296   8.077  11.306  1.00  0.00     0.000 C 
BRANCH  18  19
ATOM     19  C   UNL     1      18.125   7.966  12.596  1.00  0.00     0.000 C 
BRANCH  19  20
ATOM     20  C   UNL     1      17.287   8.213  13.863  1.00  0.00     0.000 C 
BRANCH  20  21
ATOM     21  C   UNL     1      17.910   7.581  15.117  1.00  0.00     0.000 C 
BRANCH  21  22
ATOM     22  C   UNL     1      16.942   6.638  15.846  1.00  0.00    -0.000 C 
BRANCH  22  23
ATOM     23  C   UNL     1      17.663   5.861  16.956  1.00  0.00    -0.000 C 
BRANCH  23  24
ATOM     24  C   UNL     1      16.780   5.627  18.193  1.00  0.00    -0.000 C 
BRANCH  24  25
ATOM     25  C   UNL     1      15.553   6.553  18.301  1.00  0.00    -0.000 C 
BRANCH  25  26
ATOM     26  C   UNL     1      14.273   5.841  18.792  1.00  0.00    -0.000 C 
BRANCH  26  27
ATOM     27  C   UNL     1      14.516   4.360  19.134  1.00  0.00    -0.000 C 
BRANCH  27  28
ATOM     28  C   UNL     1      13.309   3.473  18.761  1.00  0.00    -0.000 C 
BRANCH  28  29
ATOM     29  C   UNL     1      11.957   4.202  18.857  1.00  0.00    -0.003 C 
ATOM     30  C   UNL     1      12.093   5.653  19.311  1.00  0.00     0.004 C 
ENDBRANCH  28  29
ENDBRANCH  27  28
ENDBRANCH  26  27
ENDBRANCH  25  26
ENDBRANCH  24  25
ENDBRANCH  23  24
ENDBRANCH  22  23
ENDBRANCH  21  22
ENDBRANCH  20  21
ENDBRANCH  19  20
ENDBRANCH  18  19
ENDBRANCH  17  18
ENDBRANCH   1  17
TORSDOF 26
ENDMDL
