MODEL 1
REMARK VINA RESULT:    -5.245      0.000      0.000
REMARK INTER + INTRA:          -6.569
REMARK INTER:                  -6.319
REMARK INTRA:                  -0.251
REMARK UNBOUND:                -0.251
REMARK SMILES C=CCc1ccc(O)c(OC)c1
REMARK SMILES IDX 9 1 7 2 6 3 5 4 4 5 12 6 10 7 11 8 8 9 3 11 2 12 1 13
REMARK H PARENT 8 10
REMARK Flexibility Score: inf
ROOT
ATOM      1  C   UNL     1       5.561  -2.902  46.392  1.00  0.00     0.160 A 
ATOM      2  C   UNL     1       5.515  -1.655  45.743  1.00  0.00     0.157 A 
ATOM      3  C   UNL     1       6.143  -0.544  46.314  1.00  0.00     0.050 A 
ATOM      4  C   UNL     1       6.820  -0.663  47.529  1.00  0.00     0.008 A 
ATOM      5  C   UNL     1       6.885  -1.900  48.184  1.00  0.00    -0.040 A 
ATOM      6  C   UNL     1       6.248  -3.015  47.617  1.00  0.00     0.054 A 
ENDROOT
BRANCH   1   7
ATOM      7  O   UNL     1       4.916  -4.000  45.798  1.00  0.00    -0.493 OA
ATOM      8  C   UNL     1       4.830  -5.297  46.378  1.00  0.00     0.278 C 
ENDBRANCH   1   7
BRANCH   2   9
ATOM      9  O   UNL     1       4.847  -1.499  44.528  1.00  0.00    -0.504 OA
ATOM     10  H   UNL     1       5.240  -1.819  43.650  1.00  0.00     0.293 HD
ENDBRANCH   2   9
BRANCH   5  11
ATOM     11  C   UNL     1       7.591  -2.016  49.509  1.00  0.00     0.062 C 
BRANCH  11  12
ATOM     12  C   UNL     1       8.822  -2.871  49.384  1.00  0.00    -0.030 C 
ATOM     13  C   UNL     1       9.853  -2.511  48.615  1.00  0.00     0.004 C 
ENDBRANCH  11  12
ENDBRANCH   5  11
TORSDOF 4
ENDMDL
MODEL 2
REMARK VINA RESULT:    -4.904      2.253      2.942
REMARK INTER + INTRA:          -6.158
REMARK INTER:                  -5.900
REMARK INTRA:                  -0.258
REMARK UNBOUND:                -0.251
REMARK SMILES C=CCc1ccc(O)c(OC)c1
REMARK SMILES IDX 9 1 7 2 6 3 5 4 4 5 12 6 10 7 11 8 8 9 3 11 2 12 1 13
REMARK H PARENT 8 10
REMARK Flexibility Score: inf
ROOT
ATOM      1  C   UNL     1       5.764  -1.961  46.938  1.00  0.00     0.160 A 
ATOM      2  C   UNL     1       7.082  -1.491  47.084  1.00  0.00     0.157 A 
ATOM      3  C   UNL     1       7.735  -1.605  48.316  1.00  0.00     0.050 A 
ATOM      4  C   UNL     1       7.087  -2.186  49.407  1.00  0.00     0.008 A 
ATOM      5  C   UNL     1       5.778  -2.669  49.276  1.00  0.00    -0.040 A 
ATOM      6  C   UNL     1       5.117  -2.548  48.044  1.00  0.00     0.054 A 
ENDROOT
BRANCH   1   7
ATOM      7  O   UNL     1       5.131  -1.827  45.691  1.00  0.00    -0.493 OA
ATOM      8  C   UNL     1       4.796  -2.914  44.835  1.00  0.00     0.278 C 
ENDBRANCH   1   7
BRANCH   2   9
ATOM      9  O   UNL     1       7.761  -0.904  46.015  1.00  0.00    -0.504 OA
ATOM     10  H   UNL     1       8.378  -1.433  45.411  1.00  0.00     0.293 HD
ENDBRANCH   2   9
BRANCH   5  11
ATOM     11  C   UNL     1       5.073  -3.268  50.465  1.00  0.00     0.062 C 
BRANCH  11  12
ATOM     12  C   UNL     1       5.051  -4.769  50.371  1.00  0.00    -0.030 C 
ATOM     13  C   UNL     1       6.045  -5.518  50.857  1.00  0.00     0.004 C 
ENDBRANCH  11  12
ENDBRANCH   5  11
TORSDOF 4
ENDMDL
MODEL 3
REMARK VINA RESULT:    -4.869     12.659     14.170
REMARK INTER + INTRA:          -6.116
REMARK INTER:                  -5.899
REMARK INTRA:                  -0.217
REMARK UNBOUND:                -0.251
REMARK SMILES C=CCc1ccc(O)c(OC)c1
REMARK SMILES IDX 9 1 7 2 6 3 5 4 4 5 12 6 10 7 11 8 8 9 3 11 2 12 1 13
REMARK H PARENT 8 10
REMARK Flexibility Score: inf
ROOT
ATOM      1  C   UNL     1      -0.852   7.361  40.936  1.00  0.00     0.160 A 
ATOM      2  C   UNL     1      -0.807   6.949  42.281  1.00  0.00     0.157 A 
ATOM      3  C   UNL     1      -1.488   5.796  42.684  1.00  0.00     0.050 A 
ATOM      4  C   UNL     1      -2.213   5.044  41.758  1.00  0.00     0.008 A 
ATOM      5  C   UNL     1      -2.259   5.434  40.412  1.00  0.00    -0.040 A 
ATOM      6  C   UNL     1      -1.584   6.596  40.006  1.00  0.00     0.054 A 
ENDROOT
BRANCH   1   7
ATOM      7  O   UNL     1      -0.164   8.527  40.561  1.00  0.00    -0.493 OA
ATOM      8  C   UNL     1      -0.751   9.623  39.867  1.00  0.00     0.278 C 
ENDBRANCH   1   7
BRANCH   2   9
ATOM      9  O   UNL     1      -0.093   7.676  43.234  1.00  0.00    -0.504 OA
ATOM     10  H   UNL     1      -0.115   7.442  44.220  1.00  0.00     0.293 HD
ENDBRANCH   2   9
BRANCH   5  11
ATOM     11  C   UNL     1      -3.067   4.636  39.423  1.00  0.00     0.062 C 
BRANCH  11  12
ATOM     12  C   UNL     1      -2.172   3.983  38.406  1.00  0.00    -0.030 C 
ATOM     13  C   UNL     1      -2.051   2.655  38.327  1.00  0.00     0.004 C 
ENDBRANCH  11  12
ENDBRANCH   5  11
TORSDOF 4
ENDMDL
MODEL 4
REMARK VINA RESULT:    -4.774      2.885      4.443
REMARK INTER + INTRA:          -6.001
REMARK INTER:                  -5.813
REMARK INTRA:                  -0.188
REMARK UNBOUND:                -0.251
REMARK SMILES C=CCc1ccc(O)c(OC)c1
REMARK SMILES IDX 9 1 7 2 6 3 5 4 4 5 12 6 10 7 11 8 8 9 3 11 2 12 1 13
REMARK H PARENT 8 10
REMARK Flexibility Score: inf
ROOT
ATOM      1  C   UNL     1       7.270  -4.024  49.575  1.00  0.00     0.160 A 
ATOM      2  C   UNL     1       8.516  -4.606  49.277  1.00  0.00     0.157 A 
ATOM      3  C   UNL     1       9.413  -3.946  48.431  1.00  0.00     0.050 A 
ATOM      4  C   UNL     1       9.082  -2.708  47.878  1.00  0.00     0.008 A 
ATOM      5  C   UNL     1       7.849  -2.109  48.173  1.00  0.00    -0.040 A 
ATOM      6  C   UNL     1       6.943  -2.773  49.015  1.00  0.00     0.054 A 
ENDROOT
BRANCH   1   7
ATOM      7  O   UNL     1       6.387  -4.713  50.424  1.00  0.00    -0.493 OA
ATOM      8  C   UNL     1       4.976  -4.523  50.446  1.00  0.00     0.278 C 
ENDBRANCH   1   7
BRANCH   2   9
ATOM      9  O   UNL     1       8.881  -5.843  49.811  1.00  0.00    -0.504 OA
ATOM     10  H   UNL     1       9.848  -6.131  49.893  1.00  0.00     0.293 HD
ENDBRANCH   2   9
BRANCH   5  11
ATOM     11  C   UNL     1       7.485  -0.787  47.551  1.00  0.00     0.062 C 
BRANCH  11  12
ATOM     12  C   UNL     1       6.045  -0.782  47.116  1.00  0.00    -0.030 C 
ATOM     13  C   UNL     1       5.651  -1.368  45.983  1.00  0.00     0.004 C 
ENDBRANCH  11  12
ENDBRANCH   5  11
TORSDOF 4
ENDMDL
MODEL 5
REMARK VINA RESULT:    -4.756      2.723      3.773
REMARK INTER + INTRA:          -5.979
REMARK INTER:                  -5.756
REMARK INTRA:                  -0.223
REMARK UNBOUND:                -0.251
REMARK SMILES C=CCc1ccc(O)c(OC)c1
REMARK SMILES IDX 9 1 7 2 6 3 5 4 4 5 12 6 10 7 11 8 8 9 3 11 2 12 1 13
REMARK H PARENT 8 10
REMARK Flexibility Score: inf
ROOT
ATOM      1  C   UNL     1       7.747  -2.151  48.263  1.00  0.00     0.160 A 
ATOM      2  C   UNL     1       7.074  -1.845  47.066  1.00  0.00     0.157 A 
ATOM      3  C   UNL     1       5.700  -2.080  46.954  1.00  0.00     0.050 A 
ATOM      4  C   UNL     1       4.987  -2.617  48.027  1.00  0.00     0.008 A 
ATOM      5  C   UNL     1       5.639  -2.918  49.230  1.00  0.00    -0.040 A 
ATOM      6  C   UNL     1       7.020  -2.691  49.343  1.00  0.00     0.054 A 
ENDROOT
BRANCH   1   7
ATOM      7  O   UNL     1       9.129  -1.910  48.344  1.00  0.00    -0.493 OA
ATOM      8  C   UNL     1      10.052  -2.735  49.046  1.00  0.00     0.278 C 
ENDBRANCH   1   7
BRANCH   2   9
ATOM      9  O   UNL     1       7.755  -1.308  45.973  1.00  0.00    -0.504 OA
ATOM     10  H   UNL     1       7.826  -1.796  45.088  1.00  0.00     0.293 HD
ENDBRANCH   2   9
BRANCH   5  11
ATOM     11  C   UNL     1       4.870  -3.524  50.374  1.00  0.00     0.062 C 
BRANCH  11  12
ATOM     12  C   UNL     1       5.694  -4.569  51.076  1.00  0.00    -0.030 C 
ATOM     13  C   UNL     1       5.606  -5.864  50.758  1.00  0.00     0.004 C 
ENDBRANCH  11  12
ENDBRANCH   5  11
TORSDOF 4
ENDMDL
MODEL 6
REMARK VINA RESULT:    -4.615     12.611     14.247
REMARK INTER + INTRA:          -5.810
REMARK INTER:                  -5.597
REMARK INTRA:                  -0.213
REMARK UNBOUND:                -0.251
REMARK SMILES C=CCc1ccc(O)c(OC)c1
REMARK SMILES IDX 9 1 7 2 6 3 5 4 4 5 12 6 10 7 11 8 8 9 3 11 2 12 1 13
REMARK H PARENT 8 10
REMARK Flexibility Score: inf
ROOT
ATOM      1  C   UNL     1       2.338  11.503  48.226  1.00  0.00     0.160 A 
ATOM      2  C   UNL     1       2.900  12.319  49.224  1.00  0.00     0.157 A 
ATOM      3  C   UNL     1       4.279  12.554  49.244  1.00  0.00     0.050 A 
ATOM      4  C   UNL     1       5.106  11.984  48.275  1.00  0.00     0.008 A 
ATOM      5  C   UNL     1       4.561  11.177  47.267  1.00  0.00    -0.040 A 
ATOM      6  C   UNL     1       3.179  10.932  47.249  1.00  0.00     0.054 A 
ENDROOT
BRANCH   1   7
ATOM      7  O   UNL     1       0.951  11.280  48.235  1.00  0.00    -0.493 OA
ATOM      8  C   UNL     1       0.330  10.045  47.891  1.00  0.00     0.278 C 
ENDBRANCH   1   7
BRANCH   2   9
ATOM      9  O   UNL     1       2.104  12.905  50.210  1.00  0.00    -0.504 OA
ATOM     10  H   UNL     1       1.108  12.731  50.273  1.00  0.00     0.293 HD
ENDBRANCH   2   9
BRANCH   5  11
ATOM     11  C   UNL     1       5.461  10.540  46.241  1.00  0.00     0.062 C 
BRANCH  11  12
ATOM     12  C   UNL     1       6.857  10.385  46.779  1.00  0.00    -0.030 C 
ATOM     13  C   UNL     1       7.678   9.427  46.339  1.00  0.00     0.004 C 
ENDBRANCH  11  12
ENDBRANCH   5  11
TORSDOF 4
ENDMDL
MODEL 7
REMARK VINA RESULT:    -4.573      2.805      4.388
REMARK INTER + INTRA:          -5.760
REMARK INTER:                  -5.547
REMARK INTRA:                  -0.213
REMARK UNBOUND:                -0.251
REMARK SMILES C=CCc1ccc(O)c(OC)c1
REMARK SMILES IDX 9 1 7 2 6 3 5 4 4 5 12 6 10 7 11 8 8 9 3 11 2 12 1 13
REMARK H PARENT 8 10
REMARK Flexibility Score: inf
ROOT
ATOM      1  C   UNL     1       5.099  -3.792  49.239  1.00  0.00     0.160 A 
ATOM      2  C   UNL     1       5.587  -2.946  50.252  1.00  0.00     0.157 A 
ATOM      3  C   UNL     1       6.113  -1.692  49.925  1.00  0.00     0.050 A 
ATOM      4  C   UNL     1       6.157  -1.270  48.595  1.00  0.00     0.008 A 
ATOM      5  C   UNL     1       5.664  -2.095  47.575  1.00  0.00    -0.040 A 
ATOM      6  C   UNL     1       5.144  -3.358  47.899  1.00  0.00     0.054 A 
ENDROOT
BRANCH   1   7
ATOM      7  O   UNL     1       4.582  -5.049  49.597  1.00  0.00    -0.493 OA
ATOM      8  C   UNL     1       3.197  -5.331  49.773  1.00  0.00     0.278 C 
ENDBRANCH   1   7
BRANCH   2   9
ATOM      9  O   UNL     1       5.560  -3.336  51.592  1.00  0.00    -0.504 OA
ATOM     10  H   UNL     1       5.340  -4.283  51.874  1.00  0.00     0.293 HD
ENDBRANCH   2   9
BRANCH   5  11
ATOM     11  C   UNL     1       5.741  -1.648  46.139  1.00  0.00     0.062 C 
BRANCH  11  12
ATOM     12  C   UNL     1       5.044  -2.628  45.237  1.00  0.00    -0.030 C 
ATOM     13  C   UNL     1       4.324  -2.227  44.185  1.00  0.00     0.004 C 
ENDBRANCH  11  12
ENDBRANCH   5  11
TORSDOF 4
ENDMDL
MODEL 8
REMARK VINA RESULT:    -4.504      2.222      3.634
REMARK INTER + INTRA:          -5.676
REMARK INTER:                  -5.472
REMARK INTRA:                  -0.204
REMARK UNBOUND:                -0.251
REMARK SMILES C=CCc1ccc(O)c(OC)c1
REMARK SMILES IDX 9 1 7 2 6 3 5 4 4 5 12 6 10 7 11 8 8 9 3 11 2 12 1 13
REMARK H PARENT 8 10
REMARK Flexibility Score: inf
ROOT
ATOM      1  C   UNL     1       4.960  -4.331  48.549  1.00  0.00     0.160 A 
ATOM      2  C   UNL     1       4.534  -4.207  49.884  1.00  0.00     0.157 A 
ATOM      3  C   UNL     1       5.125  -3.257  50.724  1.00  0.00     0.050 A 
ATOM      4  C   UNL     1       6.138  -2.425  50.245  1.00  0.00     0.008 A 
ATOM      5  C   UNL     1       6.567  -2.527  48.915  1.00  0.00    -0.040 A 
ATOM      6  C   UNL     1       5.983  -3.486  48.072  1.00  0.00     0.054 A 
ENDROOT
BRANCH   1   7
ATOM      7  O   UNL     1       4.353  -5.298  47.731  1.00  0.00    -0.493 OA
ATOM      8  C   UNL     1       4.685  -5.523  46.365  1.00  0.00     0.278 C 
ENDBRANCH   1   7
BRANCH   2   9
ATOM      9  O   UNL     1       3.525  -5.023  50.397  1.00  0.00    -0.504 OA
ATOM     10  H   UNL     1       2.725  -5.305  49.843  1.00  0.00     0.293 HD
ENDBRANCH   2   9
BRANCH   5  11
ATOM     11  C   UNL     1       7.681  -1.647  48.412  1.00  0.00     0.062 C 
BRANCH  11  12
ATOM     12  C   UNL     1       7.366  -1.119  47.040  1.00  0.00    -0.030 C 
ATOM     13  C   UNL     1       6.514  -0.106  46.855  1.00  0.00     0.004 C 
ENDBRANCH  11  12
ENDBRANCH   5  11
TORSDOF 4
ENDMDL
MODEL 9
REMARK VINA RESULT:    -4.412      8.985     10.292
REMARK INTER + INTRA:          -5.565
REMARK INTER:                  -5.366
REMARK INTRA:                  -0.199
REMARK UNBOUND:                -0.251
REMARK SMILES C=CCc1ccc(O)c(OC)c1
REMARK SMILES IDX 9 1 7 2 6 3 5 4 4 5 12 6 10 7 11 8 8 9 3 11 2 12 1 13
REMARK H PARENT 8 10
REMARK Flexibility Score: inf
ROOT
ATOM      1  C   UNL     1      10.416   2.558  54.163  1.00  0.00     0.160 A 
ATOM      2  C   UNL     1      10.402   2.006  55.456  1.00  0.00     0.157 A 
ATOM      3  C   UNL     1       9.185   1.760  56.101  1.00  0.00     0.050 A 
ATOM      4  C   UNL     1       7.978   2.058  55.467  1.00  0.00     0.008 A 
ATOM      5  C   UNL     1       7.973   2.599  54.174  1.00  0.00    -0.040 A 
ATOM      6  C   UNL     1       9.193   2.855  53.528  1.00  0.00     0.054 A 
ENDROOT
BRANCH   1   7
ATOM      7  O   UNL     1      11.653   2.800  53.543  1.00  0.00    -0.493 OA
ATOM      8  C   UNL     1      11.817   3.497  52.312  1.00  0.00     0.278 C 
ENDBRANCH   1   7
BRANCH   2   9
ATOM      9  O   UNL     1      11.589   1.696  56.121  1.00  0.00    -0.504 OA
ATOM     10  H   UNL     1      11.963   2.279  56.860  1.00  0.00     0.293 HD
ENDBRANCH   2   9
BRANCH   5  11
ATOM     11  C   UNL     1       6.669   2.946  53.506  1.00  0.00     0.062 C 
BRANCH  11  12
ATOM     12  C   UNL     1       6.759   4.282  52.823  1.00  0.00    -0.030 C 
ATOM     13  C   UNL     1       5.913   5.277  53.109  1.00  0.00     0.004 C 
ENDBRANCH  11  12
ENDBRANCH   5  11
TORSDOF 4
ENDMDL
