MODEL 1
REMARK VINA RESULT:    -2.720      0.000      0.000
REMARK INTER + INTRA:          -3.400
REMARK INTER:                  -3.276
REMARK INTRA:                  -0.123
REMARK UNBOUND:                -0.123
REMARK SMILES CC[C@@H](C)[C@H]([NH3+])C(=O)[O-]
REMARK SMILES IDX 3 1 4 2 5 3 6 4 7 8 8 9 9 10 2 11 1 12
REMARK H PARENT 6 5 6 6 6 7
REMARK Flexibility Score: inf
ROOT
ATOM      1  C   UNL     1      15.317 -12.345 -13.016  1.00  0.00     0.050 C 
ATOM      2  C   UNL     1      16.507 -11.974 -13.924  1.00  0.00     0.014 C 
ENDROOT
BRANCH   1   3
ATOM      3  C   UNL     1      15.020 -11.215 -11.978  1.00  0.00     0.230 C 
BRANCH   3   4
ATOM      4  N   UNL     1      16.050 -10.163 -11.994  1.00  0.00    -0.350 N 
ATOM      5  H   UNL     1      15.610  -9.226 -11.837  1.00  0.00     0.345 HD
ATOM      6  H   UNL     1      16.763 -10.332 -11.247  1.00  0.00     0.345 HD
ATOM      7  H   UNL     1      16.517 -10.127 -12.928  1.00  0.00     0.345 HD
ENDBRANCH   3   4
BRANCH   3   8
ATOM      8  C   UNL     1      14.918 -11.781 -10.582  1.00  0.00     0.099 C 
ATOM      9  O   UNL     1      13.880 -12.395 -10.222  1.00  0.00    -0.544 OA
ATOM     10  O   UNL     1      15.966 -11.619  -9.684  1.00  0.00    -0.544 OA
ENDBRANCH   3   8
ENDBRANCH   1   3
BRANCH   1  11
ATOM     11  C   UNL     1      14.058 -12.644 -13.877  1.00  0.00     0.006 C 
ATOM     12  C   UNL     1      13.295 -13.890 -13.420  1.00  0.00     0.004 C 
ENDBRANCH   1  11
TORSDOF 4
ENDMDL
MODEL 2
REMARK VINA RESULT:    -2.711      4.201      5.091
REMARK INTER + INTRA:          -3.389
REMARK INTER:                  -3.272
REMARK INTRA:                  -0.117
REMARK UNBOUND:                -0.123
REMARK SMILES CC[C@@H](C)[C@H]([NH3+])C(=O)[O-]
REMARK SMILES IDX 3 1 4 2 5 3 6 4 7 8 8 9 9 10 2 11 1 12
REMARK H PARENT 6 5 6 6 6 7
REMARK Flexibility Score: inf
ROOT
ATOM      1  C   UNL     1      12.190 -13.592 -12.650  1.00  0.00     0.050 C 
ATOM      2  C   UNL     1      12.598 -13.037 -11.270  1.00  0.00     0.014 C 
ENDROOT
BRANCH   1   3
ATOM      3  C   UNL     1      11.312 -12.567 -13.438  1.00  0.00     0.230 C 
BRANCH   3   4
ATOM      4  N   UNL     1      10.299 -11.930 -12.581  1.00  0.00    -0.350 N 
ATOM      5  H   UNL     1      10.368 -12.301 -11.604  1.00  0.00     0.345 HD
ATOM      6  H   UNL     1      10.433 -10.892 -12.559  1.00  0.00     0.345 HD
ATOM      7  H   UNL     1       9.339 -12.156 -12.925  1.00  0.00     0.345 HD
ENDBRANCH   3   4
BRANCH   3   8
ATOM      8  C   UNL     1      10.620 -13.235 -14.602  1.00  0.00     0.099 C 
ATOM      9  O   UNL     1       9.622 -13.976 -14.405  1.00  0.00    -0.544 OA
ATOM     10  O   UNL     1      11.087 -13.043 -15.896  1.00  0.00    -0.544 OA
ENDBRANCH   3   8
ENDBRANCH   1   3
BRANCH   1  11
ATOM     11  C   UNL     1      13.455 -13.975 -13.469  1.00  0.00     0.006 C 
ATOM     12  C   UNL     1      14.446 -12.819 -13.624  1.00  0.00     0.004 C 
ENDBRANCH   1  11
TORSDOF 4
ENDMDL
MODEL 3
REMARK VINA RESULT:    -2.694      2.747      3.587
REMARK INTER + INTRA:          -3.368
REMARK INTER:                  -3.288
REMARK INTRA:                  -0.080
REMARK UNBOUND:                -0.123
REMARK SMILES CC[C@@H](C)[C@H]([NH3+])C(=O)[O-]
REMARK SMILES IDX 3 1 4 2 5 3 6 4 7 8 8 9 9 10 2 11 1 12
REMARK H PARENT 6 5 6 6 6 7
REMARK Flexibility Score: inf
ROOT
ATOM      1  C   UNL     1      14.270 -12.103 -13.847  1.00  0.00     0.050 C 
ATOM      2  C   UNL     1      14.422 -11.176 -15.071  1.00  0.00     0.014 C 
ENDROOT
BRANCH   1   3
ATOM      3  C   UNL     1      13.174 -13.189 -14.091  1.00  0.00     0.230 C 
BRANCH   3   4
ATOM      4  N   UNL     1      11.965 -12.628 -14.716  1.00  0.00    -0.350 N 
ATOM      5  H   UNL     1      11.883 -12.960 -15.705  1.00  0.00     0.345 HD
ATOM      6  H   UNL     1      11.109 -12.916 -14.189  1.00  0.00     0.345 HD
ATOM      7  H   UNL     1      12.026 -11.585 -14.750  1.00  0.00     0.345 HD
ENDBRANCH   3   4
BRANCH   3   8
ATOM      8  C   UNL     1      12.789 -13.863 -12.795  1.00  0.00     0.099 C 
ATOM      9  O   UNL     1      12.600 -15.107 -12.760  1.00  0.00    -0.544 OA
ATOM     10  O   UNL     1      12.631 -13.112 -11.637  1.00  0.00    -0.544 OA
ENDBRANCH   3   8
ENDBRANCH   1   3
BRANCH   1  11
ATOM     11  C   UNL     1      15.633 -12.766 -13.504  1.00  0.00     0.006 C 
ATOM     12  C   UNL     1      16.837 -11.890 -13.859  1.00  0.00     0.004 C 
ENDBRANCH   1  11
TORSDOF 4
ENDMDL
MODEL 4
REMARK VINA RESULT:    -2.645      2.819      3.858
REMARK INTER + INTRA:          -3.310
REMARK INTER:                  -3.238
REMARK INTRA:                  -0.071
REMARK UNBOUND:                -0.123
REMARK SMILES CC[C@@H](C)[C@H]([NH3+])C(=O)[O-]
REMARK SMILES IDX 3 1 4 2 5 3 6 4 7 8 8 9 9 10 2 11 1 12
REMARK H PARENT 6 5 6 6 6 7
REMARK Flexibility Score: inf
ROOT
ATOM      1  C   UNL     1      14.558 -12.721 -13.233  1.00  0.00     0.050 C 
ATOM      2  C   UNL     1      14.279 -11.829 -12.007  1.00  0.00     0.014 C 
ENDROOT
BRANCH   1   3
ATOM      3  C   UNL     1      13.286 -12.866 -14.130  1.00  0.00     0.230 C 
BRANCH   3   4
ATOM      4  N   UNL     1      12.743 -11.561 -14.539  1.00  0.00    -0.350 N 
ATOM      5  H   UNL     1      12.867 -11.426 -15.570  1.00  0.00     0.345 HD
ATOM      6  H   UNL     1      11.725 -11.495 -14.309  1.00  0.00     0.345 HD
ATOM      7  H   UNL     1      13.265 -10.788 -14.067  1.00  0.00     0.345 HD
ENDBRANCH   3   4
BRANCH   3   8
ATOM      8  C   UNL     1      12.208 -13.642 -13.411  1.00  0.00     0.099 C 
ATOM      9  O   UNL     1      12.491 -14.714 -12.813  1.00  0.00    -0.544 OA
ATOM     10  O   UNL     1      10.897 -13.183 -13.413  1.00  0.00    -0.544 OA
ENDBRANCH   3   8
ENDBRANCH   1   3
BRANCH   1  11
ATOM     11  C   UNL     1      15.746 -12.148 -14.055  1.00  0.00     0.006 C 
ATOM     12  C   UNL     1      17.107 -12.387 -13.397  1.00  0.00     0.004 C 
ENDBRANCH   1  11
TORSDOF 4
ENDMDL
MODEL 5
REMARK VINA RESULT:    -2.632      2.032      2.680
REMARK INTER + INTRA:          -3.294
REMARK INTER:                  -3.162
REMARK INTRA:                  -0.131
REMARK UNBOUND:                -0.123
REMARK SMILES CC[C@@H](C)[C@H]([NH3+])C(=O)[O-]
REMARK SMILES IDX 3 1 4 2 5 3 6 4 7 8 8 9 9 10 2 11 1 12
REMARK H PARENT 6 5 6 6 6 7
REMARK Flexibility Score: inf
ROOT
ATOM      1  C   UNL     1      15.005 -12.319 -13.883  1.00  0.00     0.050 C 
ATOM      2  C   UNL     1      16.485 -12.410 -13.457  1.00  0.00     0.014 C 
ENDROOT
BRANCH   1   3
ATOM      3  C   UNL     1      14.074 -12.081 -12.651  1.00  0.00     0.230 C 
BRANCH   3   4
ATOM      4  N   UNL     1      14.837 -11.784 -11.427  1.00  0.00    -0.350 N 
ATOM      5  H   UNL     1      15.248 -12.663 -11.036  1.00  0.00     0.345 HD
ATOM      6  H   UNL     1      15.610 -11.109 -11.629  1.00  0.00     0.345 HD
ATOM      7  H   UNL     1      14.205 -11.391 -10.693  1.00  0.00     0.345 HD
ENDBRANCH   3   4
BRANCH   3   8
ATOM      8  C   UNL     1      13.195 -13.283 -12.401  1.00  0.00     0.099 C 
ATOM      9  O   UNL     1      12.504 -13.356 -11.352  1.00  0.00    -0.544 OA
ATOM     10  O   UNL     1      13.152 -14.321 -13.324  1.00  0.00    -0.544 OA
ENDBRANCH   3   8
ENDBRANCH   1   3
BRANCH   1  11
ATOM     11  C   UNL     1      14.818 -11.194 -14.938  1.00  0.00     0.006 C 
ATOM     12  C   UNL     1      13.436 -11.205 -15.595  1.00  0.00     0.004 C 
ENDBRANCH   1  11
TORSDOF 4
ENDMDL
MODEL 6
REMARK VINA RESULT:    -2.608      3.073      3.974
REMARK INTER + INTRA:          -3.265
REMARK INTER:                  -3.195
REMARK INTRA:                  -0.070
REMARK UNBOUND:                -0.123
REMARK SMILES CC[C@@H](C)[C@H]([NH3+])C(=O)[O-]
REMARK SMILES IDX 3 1 4 2 5 3 6 4 7 8 8 9 9 10 2 11 1 12
REMARK H PARENT 6 5 6 6 6 7
REMARK Flexibility Score: inf
ROOT
ATOM      1  C   UNL     1      13.219 -13.290 -12.575  1.00  0.00     0.050 C 
ATOM      2  C   UNL     1      12.783 -14.702 -13.015  1.00  0.00     0.014 C 
ENDROOT
BRANCH   1   3
ATOM      3  C   UNL     1      13.257 -12.304 -13.786  1.00  0.00     0.230 C 
BRANCH   3   4
ATOM      4  N   UNL     1      12.493 -12.811 -14.938  1.00  0.00    -0.350 N 
ATOM      5  H   UNL     1      13.082 -13.467 -15.501  1.00  0.00     0.345 HD
ATOM      6  H   UNL     1      11.634 -13.315 -14.619  1.00  0.00     0.345 HD
ATOM      7  H   UNL     1      12.226 -12.023 -15.571  1.00  0.00     0.345 HD
ENDBRANCH   3   4
BRANCH   3   8
ATOM      8  C   UNL     1      14.679 -12.038 -14.219  1.00  0.00     0.099 C 
ATOM      9  O   UNL     1      14.923 -11.163 -15.090  1.00  0.00    -0.544 OA
ATOM     10  O   UNL     1      15.725 -12.766 -13.665  1.00  0.00    -0.544 OA
ENDBRANCH   3   8
ENDBRANCH   1   3
BRANCH   1  11
ATOM     11  C   UNL     1      12.272 -12.758 -11.463  1.00  0.00     0.006 C 
ATOM     12  C   UNL     1      12.936 -12.691 -10.086  1.00  0.00     0.004 C 
ENDBRANCH   1  11
TORSDOF 4
ENDMDL
MODEL 7
REMARK VINA RESULT:    -2.599      7.959      8.502
REMARK INTER + INTRA:          -3.254
REMARK INTER:                  -3.183
REMARK INTRA:                  -0.071
REMARK UNBOUND:                -0.123
REMARK SMILES CC[C@@H](C)[C@H]([NH3+])C(=O)[O-]
REMARK SMILES IDX 3 1 4 2 5 3 6 4 7 8 8 9 9 10 2 11 1 12
REMARK H PARENT 6 5 6 6 6 7
REMARK Flexibility Score: inf
ROOT
ATOM      1  C   UNL     1      13.501 -16.812  -6.252  1.00  0.00     0.050 C 
ATOM      2  C   UNL     1      12.073 -16.468  -6.724  1.00  0.00     0.014 C 
ENDROOT
BRANCH   1   3
ATOM      3  C   UNL     1      13.624 -16.712  -4.698  1.00  0.00     0.230 C 
BRANCH   3   4
ATOM      4  N   UNL     1      12.312 -16.748  -4.033  1.00  0.00    -0.350 N 
ATOM      5  H   UNL     1      12.306 -16.101  -3.211  1.00  0.00     0.345 HD
ATOM      6  H   UNL     1      11.554 -16.463  -4.695  1.00  0.00     0.345 HD
ATOM      7  H   UNL     1      12.119 -17.708  -3.665  1.00  0.00     0.345 HD
ENDBRANCH   3   4
BRANCH   3   8
ATOM      8  C   UNL     1      14.343 -15.446  -4.296  1.00  0.00     0.099 C 
ATOM      9  O   UNL     1      14.785 -15.312  -3.125  1.00  0.00    -0.544 OA
ATOM     10  O   UNL     1      14.512 -14.417  -5.215  1.00  0.00    -0.544 OA
ENDBRANCH   3   8
ENDBRANCH   1   3
BRANCH   1  11
ATOM     11  C   UNL     1      13.902 -18.230  -6.745  1.00  0.00     0.006 C 
ATOM     12  C   UNL     1      12.829 -18.894  -7.610  1.00  0.00     0.004 C 
ENDBRANCH   1  11
TORSDOF 4
ENDMDL
MODEL 8
REMARK VINA RESULT:    -2.554      3.383      4.683
REMARK INTER + INTRA:          -3.200
REMARK INTER:                  -3.275
REMARK INTRA:                   0.075
REMARK UNBOUND:                -0.123
REMARK SMILES CC[C@@H](C)[C@H]([NH3+])C(=O)[O-]
REMARK SMILES IDX 3 1 4 2 5 3 6 4 7 8 8 9 9 10 2 11 1 12
REMARK H PARENT 6 5 6 6 6 7
REMARK Flexibility Score: inf
ROOT
ATOM      1  C   UNL     1      13.230 -13.559 -13.931  1.00  0.00     0.050 C 
ATOM      2  C   UNL     1      12.675 -14.466 -12.814  1.00  0.00     0.014 C 
ENDROOT
BRANCH   1   3
ATOM      3  C   UNL     1      12.080 -12.992 -14.825  1.00  0.00     0.230 C 
BRANCH   3   4
ATOM      4  N   UNL     1      12.400 -11.659 -15.361  1.00  0.00    -0.350 N 
ATOM      5  H   UNL     1      11.537 -11.067 -15.394  1.00  0.00     0.345 HD
ATOM      6  H   UNL     1      13.116 -11.183 -14.766  1.00  0.00     0.345 HD
ATOM      7  H   UNL     1      12.750 -11.738 -16.343  1.00  0.00     0.345 HD
ENDBRANCH   3   4
BRANCH   3   8
ATOM      8  C   UNL     1      10.787 -12.911 -14.049  1.00  0.00     0.099 C 
ATOM      9  O   UNL     1      10.611 -11.996 -13.203  1.00  0.00    -0.544 OA
ATOM     10  O   UNL     1       9.787 -13.853 -14.259  1.00  0.00    -0.544 OA
ENDBRANCH   3   8
ENDBRANCH   1   3
BRANCH   1  11
ATOM     11  C   UNL     1      14.068 -12.403 -13.317  1.00  0.00     0.006 C 
ATOM     12  C   UNL     1      15.550 -12.465 -13.694  1.00  0.00     0.004 C 
ENDBRANCH   1  11
TORSDOF 4
ENDMDL
MODEL 9
REMARK VINA RESULT:    -2.472      2.033      2.848
REMARK INTER + INTRA:          -3.101
REMARK INTER:                  -2.977
REMARK INTRA:                  -0.124
REMARK UNBOUND:                -0.123
REMARK SMILES CC[C@@H](C)[C@H]([NH3+])C(=O)[O-]
REMARK SMILES IDX 3 1 4 2 5 3 6 4 7 8 8 9 9 10 2 11 1 12
REMARK H PARENT 6 5 6 6 6 7
REMARK Flexibility Score: inf
ROOT
ATOM      1  C   UNL     1      13.429 -12.875 -12.729  1.00  0.00     0.050 C 
ATOM      2  C   UNL     1      12.712 -14.178 -13.137  1.00  0.00     0.014 C 
ENDROOT
BRANCH   1   3
ATOM      3  C   UNL     1      13.537 -12.750 -11.175  1.00  0.00     0.230 C 
BRANCH   3   4
ATOM      4  N   UNL     1      12.217 -12.660 -10.532  1.00  0.00    -0.350 N 
ATOM      5  H   UNL     1      12.074 -11.703 -10.133  1.00  0.00     0.345 HD
ATOM      6  H   UNL     1      11.455 -12.858 -11.222  1.00  0.00     0.345 HD
ATOM      7  H   UNL     1      12.156 -13.333  -9.735  1.00  0.00     0.345 HD
ENDBRANCH   3   4
BRANCH   3   8
ATOM      8  C   UNL     1      14.354 -11.540 -10.790  1.00  0.00     0.099 C 
ATOM      9  O   UNL     1      15.421 -11.678 -10.136  1.00  0.00    -0.544 OA
ATOM     10  O   UNL     1      13.928 -10.266 -11.146  1.00  0.00    -0.544 OA
ENDBRANCH   3   8
ENDBRANCH   1   3
BRANCH   1  11
ATOM     11  C   UNL     1      14.837 -12.809 -13.385  1.00  0.00     0.006 C 
ATOM     12  C   UNL     1      14.966 -11.698 -14.428  1.00  0.00     0.004 C 
ENDBRANCH   1  11
TORSDOF 4
ENDMDL
