MODEL 1
REMARK VINA RESULT:    -5.192      0.000      0.000
REMARK INTER + INTRA:          -6.592
REMARK INTER:                  -6.406
REMARK INTRA:                  -0.186
REMARK UNBOUND:                -0.186
REMARK SMILES C=CC[C@H](C)C(=O)CC
REMARK SMILES IDX 4 1 5 2 6 3 7 4 8 5 9 6 3 7 2 8 1 9
REMARK H PARENT
REMARK Flexibility Score: inf
ROOT
ATOM      1  C   UNL     1      10.995  15.463  29.638  1.00  0.00     0.057 C 
ATOM      2  C   UNL     1      12.467  15.601  30.039  1.00  0.00     0.016 C 
ENDROOT
BRANCH   1   3
ATOM      3  C   UNL     1      10.880  14.663  28.355  1.00  0.00     0.135 C 
ATOM      4  O   UNL     1      10.253  15.120  27.410  1.00  0.00    -0.299 OA
BRANCH   3   5
ATOM      5  C   UNL     1      11.542  13.317  28.215  1.00  0.00     0.072 C 
ATOM      6  C   UNL     1      10.515  12.234  27.900  1.00  0.00     0.012 C 
ENDBRANCH   3   5
ENDBRANCH   1   3
BRANCH   1   7
ATOM      7  C   UNL     1      10.343  16.854  29.489  1.00  0.00     0.038 C 
BRANCH   7   8
ATOM      8  C   UNL     1      11.296  17.969  29.835  1.00  0.00    -0.034 C 
ATOM      9  C   UNL     1      11.082  19.226  29.435  1.00  0.00     0.004 C 
ENDBRANCH   7   8
ENDBRANCH   1   7
TORSDOF 4
ENDMDL
MODEL 2
REMARK VINA RESULT:    -4.996      3.278      4.386
REMARK INTER + INTRA:          -6.350
REMARK INTER:                  -6.173
REMARK INTRA:                  -0.176
REMARK UNBOUND:                -0.186
REMARK SMILES C=CC[C@H](C)C(=O)CC
REMARK SMILES IDX 4 1 5 2 6 3 7 4 8 5 9 6 3 7 2 8 1 9
REMARK H PARENT
REMARK Flexibility Score: inf
ROOT
ATOM      1  C   UNL     1      13.974  16.854  31.292  1.00  0.00     0.057 C 
ATOM      2  C   UNL     1      14.331  15.433  31.738  1.00  0.00     0.016 C 
ENDROOT
BRANCH   1   3
ATOM      3  C   UNL     1      12.774  16.819  30.365  1.00  0.00     0.135 C 
ATOM      4  O   UNL     1      12.218  17.862  30.054  1.00  0.00    -0.299 OA
BRANCH   3   5
ATOM      5  C   UNL     1      12.262  15.518  29.803  1.00  0.00     0.072 C 
ATOM      6  C   UNL     1      10.765  15.595  29.524  1.00  0.00     0.012 C 
ENDBRANCH   3   5
ENDBRANCH   1   3
BRANCH   1   7
ATOM      7  C   UNL     1      15.184  17.528  30.614  1.00  0.00     0.038 C 
BRANCH   7   8
ATOM      8  C   UNL     1      16.201  18.013  31.614  1.00  0.00    -0.034 C 
ATOM      9  C   UNL     1      17.437  17.507  31.663  1.00  0.00     0.004 C 
ENDBRANCH   7   8
ENDBRANCH   1   7
TORSDOF 4
ENDMDL
MODEL 3
REMARK VINA RESULT:    -4.971      7.488      8.714
REMARK INTER + INTRA:          -6.319
REMARK INTER:                  -6.112
REMARK INTRA:                  -0.208
REMARK UNBOUND:                -0.186
REMARK SMILES C=CC[C@H](C)C(=O)CC
REMARK SMILES IDX 4 1 5 2 6 3 7 4 8 5 9 6 3 7 2 8 1 9
REMARK H PARENT
REMARK Flexibility Score: inf
ROOT
ATOM      1  C   UNL     1      18.336  20.132  31.565  1.00  0.00     0.057 C 
ATOM      2  C   UNL     1      17.435  21.060  30.745  1.00  0.00     0.016 C 
ENDROOT
BRANCH   1   3
ATOM      3  C   UNL     1      17.673  18.777  31.727  1.00  0.00     0.135 C 
ATOM      4  O   UNL     1      18.311  17.841  32.185  1.00  0.00    -0.299 OA
BRANCH   3   5
ATOM      5  C   UNL     1      16.230  18.567  31.347  1.00  0.00     0.072 C 
ATOM      6  C   UNL     1      15.769  17.160  31.712  1.00  0.00     0.012 C 
ENDBRANCH   3   5
ENDBRANCH   1   3
BRANCH   1   7
ATOM      7  C   UNL     1      18.657  20.763  32.936  1.00  0.00     0.038 C 
BRANCH   7   8
ATOM      8  C   UNL     1      17.916  22.057  33.154  1.00  0.00    -0.034 C 
ATOM      9  C   UNL     1      18.152  22.832  34.218  1.00  0.00     0.004 C 
ENDBRANCH   7   8
ENDBRANCH   1   7
TORSDOF 4
ENDMDL
MODEL 4
REMARK VINA RESULT:    -4.810      6.906      8.782
REMARK INTER + INTRA:          -6.120
REMARK INTER:                  -5.932
REMARK INTRA:                  -0.188
REMARK UNBOUND:                -0.186
REMARK SMILES C=CC[C@H](C)C(=O)CC
REMARK SMILES IDX 4 1 5 2 6 3 7 4 8 5 9 6 3 7 2 8 1 9
REMARK H PARENT
REMARK Flexibility Score: inf
ROOT
ATOM      1  C   UNL     1      17.764  18.586  31.433  1.00  0.00     0.057 C 
ATOM      2  C   UNL     1      18.327  17.497  32.351  1.00  0.00     0.016 C 
ENDROOT
BRANCH   1   3
ATOM      3  C   UNL     1      18.284  19.945  31.862  1.00  0.00     0.135 C 
ATOM      4  O   UNL     1      18.985  20.037  32.860  1.00  0.00    -0.299 OA
BRANCH   3   5
ATOM      5  C   UNL     1      17.966  21.187  31.071  1.00  0.00     0.072 C 
ATOM      6  C   UNL     1      17.631  22.353  31.996  1.00  0.00     0.012 C 
ENDBRANCH   3   5
ENDBRANCH   1   3
BRANCH   1   7
ATOM      7  C   UNL     1      16.221  18.552  31.437  1.00  0.00     0.038 C 
BRANCH   7   8
ATOM      8  C   UNL     1      15.683  17.178  31.742  1.00  0.00    -0.034 C 
ATOM      9  C   UNL     1      14.439  16.820  31.411  1.00  0.00     0.004 C 
ENDBRANCH   7   8
ENDBRANCH   1   7
TORSDOF 4
ENDMDL
MODEL 5
REMARK VINA RESULT:    -4.768      2.006      4.504
REMARK INTER + INTRA:          -6.068
REMARK INTER:                  -5.922
REMARK INTRA:                  -0.146
REMARK UNBOUND:                -0.186
REMARK SMILES C=CC[C@H](C)C(=O)CC
REMARK SMILES IDX 4 1 5 2 6 3 7 4 8 5 9 6 3 7 2 8 1 9
REMARK H PARENT
REMARK Flexibility Score: inf
ROOT
ATOM      1  C   UNL     1      11.566  15.519  29.864  1.00  0.00     0.057 C 
ATOM      2  C   UNL     1      10.478  16.488  29.388  1.00  0.00     0.016 C 
ENDROOT
BRANCH   1   3
ATOM      3  C   UNL     1      12.747  16.298  30.412  1.00  0.00     0.135 C 
ATOM      4  O   UNL     1      12.851  17.491  30.169  1.00  0.00    -0.299 OA
BRANCH   3   5
ATOM      5  C   UNL     1      13.791  15.628  31.268  1.00  0.00     0.072 C 
ATOM      6  C   UNL     1      14.896  16.608  31.648  1.00  0.00     0.012 C 
ENDBRANCH   3   5
ENDBRANCH   1   3
BRANCH   1   7
ATOM      7  C   UNL     1      11.998  14.586  28.714  1.00  0.00     0.038 C 
BRANCH   7   8
ATOM      8  C   UNL     1      10.821  13.935  28.036  1.00  0.00    -0.034 C 
ATOM      9  C   UNL     1      10.742  12.609  27.882  1.00  0.00     0.004 C 
ENDBRANCH   7   8
ENDBRANCH   1   7
TORSDOF 4
ENDMDL
MODEL 6
REMARK VINA RESULT:    -4.768      7.610      9.566
REMARK INTER + INTRA:          -6.068
REMARK INTER:                  -5.856
REMARK INTRA:                  -0.212
REMARK UNBOUND:                -0.186
REMARK SMILES C=CC[C@H](C)C(=O)CC
REMARK SMILES IDX 4 1 5 2 6 3 7 4 8 5 9 6 3 7 2 8 1 9
REMARK H PARENT
REMARK Flexibility Score: inf
ROOT
ATOM      1  C   UNL     1      18.324  19.930  31.745  1.00  0.00     0.057 C 
ATOM      2  C   UNL     1      19.112  18.860  32.508  1.00  0.00     0.016 C 
ENDROOT
BRANCH   1   3
ATOM      3  C   UNL     1      18.275  21.211  32.556  1.00  0.00     0.135 C 
ATOM      4  O   UNL     1      18.815  21.256  33.652  1.00  0.00    -0.299 OA
BRANCH   3   5
ATOM      5  C   UNL     1      17.584  22.442  32.027  1.00  0.00     0.072 C 
ATOM      6  C   UNL     1      16.366  22.791  32.875  1.00  0.00     0.012 C 
ENDBRANCH   3   5
ENDBRANCH   1   3
BRANCH   1   7
ATOM      7  C   UNL     1      16.904  19.424  31.416  1.00  0.00     0.038 C 
BRANCH   7   8
ATOM      8  C   UNL     1      16.740  17.956  31.713  1.00  0.00    -0.034 C 
ATOM      9  C   UNL     1      15.638  17.286  31.362  1.00  0.00     0.004 C 
ENDBRANCH   7   8
ENDBRANCH   1   7
TORSDOF 4
ENDMDL
MODEL 7
REMARK VINA RESULT:    -4.627      8.051     10.126
REMARK INTER + INTRA:          -5.895
REMARK INTER:                  -5.689
REMARK INTRA:                  -0.206
REMARK UNBOUND:                -0.186
REMARK SMILES C=CC[C@H](C)C(=O)CC
REMARK SMILES IDX 4 1 5 2 6 3 7 4 8 5 9 6 3 7 2 8 1 9
REMARK H PARENT
REMARK Flexibility Score: inf
ROOT
ATOM      1  C   UNL     1      17.624  20.635  31.904  1.00  0.00     0.057 C 
ATOM      2  C   UNL     1      17.275  21.234  30.538  1.00  0.00     0.016 C 
ENDROOT
BRANCH   1   3
ATOM      3  C   UNL     1      17.964  21.742  32.883  1.00  0.00     0.135 C 
ATOM      4  O   UNL     1      18.692  21.506  33.836  1.00  0.00    -0.299 OA
BRANCH   3   5
ATOM      5  C   UNL     1      17.433  23.140  32.694  1.00  0.00     0.072 C 
ATOM      6  C   UNL     1      16.021  23.268  33.256  1.00  0.00     0.012 C 
ENDBRANCH   3   5
ENDBRANCH   1   3
BRANCH   1   7
ATOM      7  C   UNL     1      18.787  19.630  31.771  1.00  0.00     0.038 C 
BRANCH   7   8
ATOM      8  C   UNL     1      18.386  18.237  32.181  1.00  0.00    -0.034 C 
ATOM      9  C   UNL     1      17.244  17.682  31.763  1.00  0.00     0.004 C 
ENDBRANCH   7   8
ENDBRANCH   1   7
TORSDOF 4
ENDMDL
MODEL 8
REMARK VINA RESULT:    -4.597      6.687      7.871
REMARK INTER + INTRA:          -5.858
REMARK INTER:                  -5.586
REMARK INTRA:                  -0.272
REMARK UNBOUND:                -0.186
REMARK SMILES C=CC[C@H](C)C(=O)CC
REMARK SMILES IDX 4 1 5 2 6 3 7 4 8 5 9 6 3 7 2 8 1 9
REMARK H PARENT
REMARK Flexibility Score: inf
ROOT
ATOM      1  C   UNL     1      17.753  19.537  32.124  1.00  0.00     0.057 C 
ATOM      2  C   UNL     1      19.125  19.244  32.742  1.00  0.00     0.016 C 
ENDROOT
BRANCH   1   3
ATOM      3  C   UNL     1      17.136  18.253  31.605  1.00  0.00     0.135 C 
ATOM      4  O   UNL     1      17.762  17.206  31.680  1.00  0.00    -0.299 OA
BRANCH   3   5
ATOM      5  C   UNL     1      15.751  18.240  31.010  1.00  0.00     0.072 C 
ATOM      6  C   UNL     1      14.968  17.017  31.475  1.00  0.00     0.012 C 
ENDBRANCH   3   5
ENDBRANCH   1   3
BRANCH   1   7
ATOM      7  C   UNL     1      17.879  20.590  31.004  1.00  0.00     0.038 C 
BRANCH   7   8
ATOM      8  C   UNL     1      17.426  21.955  31.451  1.00  0.00    -0.034 C 
ATOM      9  C   UNL     1      16.606  22.117  32.495  1.00  0.00     0.004 C 
ENDBRANCH   7   8
ENDBRANCH   1   7
TORSDOF 4
ENDMDL
MODEL 9
REMARK VINA RESULT:    -4.595      1.759      2.694
REMARK INTER + INTRA:          -5.855
REMARK INTER:                  -5.689
REMARK INTRA:                  -0.166
REMARK UNBOUND:                -0.186
REMARK SMILES C=CC[C@H](C)C(=O)CC
REMARK SMILES IDX 4 1 5 2 6 3 7 4 8 5 9 6 3 7 2 8 1 9
REMARK H PARENT
REMARK Flexibility Score: inf
ROOT
ATOM      1  C   UNL     1      11.876  16.637  29.457  1.00  0.00     0.057 C 
ATOM      2  C   UNL     1      11.207  17.958  29.853  1.00  0.00     0.016 C 
ENDROOT
BRANCH   1   3
ATOM      3  C   UNL     1      10.827  15.554  29.299  1.00  0.00     0.135 C 
ATOM      4  O   UNL     1      10.114  15.258  30.247  1.00  0.00    -0.299 OA
BRANCH   3   5
ATOM      5  C   UNL     1      10.633  14.843  27.984  1.00  0.00     0.072 C 
ATOM      6  C   UNL     1      11.187  13.423  28.044  1.00  0.00     0.012 C 
ENDBRANCH   3   5
ENDBRANCH   1   3
BRANCH   1   7
ATOM      7  C   UNL     1      12.940  16.237  30.499  1.00  0.00     0.038 C 
BRANCH   7   8
ATOM      8  C   UNL     1      14.033  17.266  30.622  1.00  0.00    -0.034 C 
ATOM      9  C   UNL     1      15.043  17.122  31.486  1.00  0.00     0.004 C 
ENDBRANCH   7   8
ENDBRANCH   1   7
TORSDOF 4
ENDMDL
