MODEL 1
REMARK VINA RESULT:    -4.132      0.000      0.000
REMARK INTER + INTRA:          -4.784
REMARK INTER:                  -4.736
REMARK INTRA:                  -0.048
REMARK UNBOUND:                -0.048
REMARK SMILES O=C([O-])c1cc(O)c(O)c(O)c1
REMARK SMILES IDX 4 1 5 2 12 3 6 4 10 5 8 6 2 7 1 8 3 9 7 10 11 12 9 14
REMARK H PARENT 7 11 11 13 9 15
REMARK Flexibility Score: inf
ROOT
ATOM      1  C   UNL     1      15.579  32.002  28.894  1.00  0.00     0.005 A 
ATOM      2  C   UNL     1      14.880  30.797  29.075  1.00  0.00     0.060 A 
ATOM      3  C   UNL     1      16.328  32.524  29.963  1.00  0.00     0.060 A 
ATOM      4  C   UNL     1      14.928  30.121  30.302  1.00  0.00     0.162 A 
ATOM      5  C   UNL     1      16.377  31.853  31.192  1.00  0.00     0.162 A 
ATOM      6  C   UNL     1      15.679  30.652  31.365  1.00  0.00     0.200 A 
ENDROOT
BRANCH   1   7
ATOM      7  C   UNL     1      15.525  32.708  27.594  1.00  0.00     0.072 C 
ATOM      8  O   UNL     1      14.419  32.942  27.036  1.00  0.00    -0.545 OA
ATOM      9  O   UNL     1      16.696  33.125  26.970  1.00  0.00    -0.545 OA
ENDBRANCH   1   7
BRANCH   4  10
ATOM     10  O   UNL     1      14.230  28.927  30.471  1.00  0.00    -0.504 OA
ATOM     11  H   UNL     1      14.406  28.121  29.882  1.00  0.00     0.293 HD
ENDBRANCH   4  10
BRANCH   5  12
ATOM     12  O   UNL     1      17.121  32.375  32.249  1.00  0.00    -0.504 OA
ATOM     13  H   UNL     1      18.128  32.471  32.193  1.00  0.00     0.293 HD
ENDBRANCH   5  12
BRANCH   6  14
ATOM     14  O   UNL     1      15.740  29.999  32.595  1.00  0.00    -0.502 OA
ATOM     15  H   UNL     1      15.023  30.110  33.302  1.00  0.00     0.293 HD
ENDBRANCH   6  14
TORSDOF 4
ENDMDL
MODEL 2
REMARK VINA RESULT:    -4.098      0.115      2.595
REMARK INTER + INTRA:          -4.745
REMARK INTER:                  -4.696
REMARK INTRA:                  -0.049
REMARK UNBOUND:                -0.048
REMARK SMILES O=C([O-])c1cc(O)c(O)c(O)c1
REMARK SMILES IDX 4 1 5 2 12 3 6 4 10 5 8 6 2 7 1 8 3 9 7 10 11 12 9 14
REMARK H PARENT 7 11 11 13 9 15
REMARK Flexibility Score: inf
ROOT
ATOM      1  C   UNL     1      15.608  31.942  28.886  1.00  0.00     0.005 A 
ATOM      2  C   UNL     1      16.360  32.474  29.946  1.00  0.00     0.060 A 
ATOM      3  C   UNL     1      14.874  30.761  29.094  1.00  0.00     0.060 A 
ATOM      4  C   UNL     1      16.381  31.839  31.195  1.00  0.00     0.162 A 
ATOM      5  C   UNL     1      14.893  30.122  30.341  1.00  0.00     0.162 A 
ATOM      6  C   UNL     1      15.645  30.659  31.393  1.00  0.00     0.200 A 
ENDROOT
BRANCH   1   7
ATOM      7  C   UNL     1      15.589  32.619  27.570  1.00  0.00     0.072 C 
ATOM      8  O   UNL     1      16.641  33.123  27.092  1.00  0.00    -0.545 OA
ATOM      9  O   UNL     1      14.409  32.708  26.839  1.00  0.00    -0.545 OA
ENDBRANCH   1   7
BRANCH   4  10
ATOM     10  O   UNL     1      17.132  32.376  32.240  1.00  0.00    -0.504 OA
ATOM     11  H   UNL     1      18.047  32.782  32.083  1.00  0.00     0.293 HD
ENDBRANCH   4  10
BRANCH   5  12
ATOM     12  O   UNL     1      14.165  28.951  30.543  1.00  0.00    -0.504 OA
ATOM     13  H   UNL     1      13.352  28.929  31.148  1.00  0.00     0.293 HD
ENDBRANCH   5  12
BRANCH   6  14
ATOM     14  O   UNL     1      15.651  30.009  32.628  1.00  0.00    -0.502 OA
ATOM     15  H   UNL     1      15.166  29.133  32.778  1.00  0.00     0.293 HD
ENDBRANCH   6  14
TORSDOF 4
ENDMDL
MODEL 3
REMARK VINA RESULT:    -4.076     15.243     17.456
REMARK INTER + INTRA:          -4.720
REMARK INTER:                  -4.669
REMARK INTRA:                  -0.050
REMARK UNBOUND:                -0.048
REMARK SMILES O=C([O-])c1cc(O)c(O)c(O)c1
REMARK SMILES IDX 4 1 5 2 12 3 6 4 10 5 8 6 2 7 1 8 3 9 7 10 11 12 9 14
REMARK H PARENT 7 11 11 13 9 15
REMARK Flexibility Score: inf
ROOT
ATOM      1  C   UNL     1      14.795  15.145  36.306  1.00  0.00     0.005 A 
ATOM      2  C   UNL     1      13.602  14.899  37.005  1.00  0.00     0.060 A 
ATOM      3  C   UNL     1      14.877  16.271  35.468  1.00  0.00     0.060 A 
ATOM      4  C   UNL     1      12.506  15.763  36.872  1.00  0.00     0.162 A 
ATOM      5  C   UNL     1      13.783  17.137  35.331  1.00  0.00     0.162 A 
ATOM      6  C   UNL     1      12.597  16.885  36.031  1.00  0.00     0.200 A 
ENDROOT
BRANCH   1   7
ATOM      7  C   UNL     1      15.948  14.229  36.453  1.00  0.00     0.072 C 
ATOM      8  O   UNL     1      17.128  14.663  36.358  1.00  0.00    -0.545 OA
ATOM      9  O   UNL     1      15.747  12.875  36.697  1.00  0.00    -0.545 OA
ENDBRANCH   1   7
BRANCH   4  10
ATOM     10  O   UNL     1      11.326  15.509  37.570  1.00  0.00    -0.504 OA
ATOM     11  H   UNL     1      10.421  15.543  37.114  1.00  0.00     0.293 HD
ENDBRANCH   4  10
BRANCH   5  12
ATOM     12  O   UNL     1      13.868  18.252  34.499  1.00  0.00    -0.504 OA
ATOM     13  H   UNL     1      14.752  18.716  34.323  1.00  0.00     0.293 HD
ENDBRANCH   5  12
BRANCH   6  14
ATOM     14  O   UNL     1      11.519  17.759  35.883  1.00  0.00    -0.502 OA
ATOM     15  H   UNL     1      10.585  17.521  36.194  1.00  0.00     0.293 HD
ENDBRANCH   6  14
TORSDOF 4
ENDMDL
MODEL 4
REMARK VINA RESULT:    -4.072     15.234     17.529
REMARK INTER + INTRA:          -4.715
REMARK INTER:                  -4.665
REMARK INTRA:                  -0.050
REMARK UNBOUND:                -0.048
REMARK SMILES O=C([O-])c1cc(O)c(O)c(O)c1
REMARK SMILES IDX 4 1 5 2 12 3 6 4 10 5 8 6 2 7 1 8 3 9 7 10 11 12 9 14
REMARK H PARENT 7 11 11 13 9 15
REMARK Flexibility Score: inf
ROOT
ATOM      1  C   UNL     1      14.795  15.151  36.326  1.00  0.00     0.005 A 
ATOM      2  C   UNL     1      14.891  16.266  35.477  1.00  0.00     0.060 A 
ATOM      3  C   UNL     1      13.597  14.928  37.028  1.00  0.00     0.060 A 
ATOM      4  C   UNL     1      13.810  17.146  35.329  1.00  0.00     0.162 A 
ATOM      5  C   UNL     1      12.514  15.806  36.884  1.00  0.00     0.162 A 
ATOM      6  C   UNL     1      12.618  16.915  36.035  1.00  0.00     0.200 A 
ENDROOT
BRANCH   1   7
ATOM      7  C   UNL     1      15.940  14.226  36.477  1.00  0.00     0.072 C 
ATOM      8  O   UNL     1      17.124  14.647  36.375  1.00  0.00    -0.545 OA
ATOM      9  O   UNL     1      15.726  12.875  36.733  1.00  0.00    -0.545 OA
ENDBRANCH   1   7
BRANCH   4  10
ATOM     10  O   UNL     1      13.917  18.249  34.484  1.00  0.00    -0.504 OA
ATOM     11  H   UNL     1      14.408  18.196  33.599  1.00  0.00     0.293 HD
ENDBRANCH   4  10
BRANCH   5  12
ATOM     12  O   UNL     1      11.329  15.581  37.582  1.00  0.00    -0.504 OA
ATOM     13  H   UNL     1      11.324  15.128  38.488  1.00  0.00     0.293 HD
ENDBRANCH   5  12
BRANCH   6  14
ATOM     14  O   UNL     1      11.529  17.777  35.904  1.00  0.00    -0.502 OA
ATOM     15  H   UNL     1      11.642  18.760  35.690  1.00  0.00     0.293 HD
ENDBRANCH   6  14
TORSDOF 4
ENDMDL
MODEL 5
REMARK VINA RESULT:    -3.846     15.832     17.626
REMARK INTER + INTRA:          -4.456
REMARK INTER:                  -4.409
REMARK INTRA:                  -0.047
REMARK UNBOUND:                -0.048
REMARK SMILES O=C([O-])c1cc(O)c(O)c(O)c1
REMARK SMILES IDX 4 1 5 2 12 3 6 4 10 5 8 6 2 7 1 8 3 9 7 10 11 12 9 14
REMARK H PARENT 7 11 11 13 9 15
REMARK Flexibility Score: inf
ROOT
ATOM      1  C   UNL     1       6.183  19.683  23.157  1.00  0.00     0.005 A 
ATOM      2  C   UNL     1       5.531  20.911  23.359  1.00  0.00     0.060 A 
ATOM      3  C   UNL     1       5.710  18.815  22.157  1.00  0.00     0.060 A 
ATOM      4  C   UNL     1       4.425  21.269  22.576  1.00  0.00     0.162 A 
ATOM      5  C   UNL     1       4.603  19.168  21.372  1.00  0.00     0.162 A 
ATOM      6  C   UNL     1       3.959  20.394  21.579  1.00  0.00     0.200 A 
ENDROOT
BRANCH   1   7
ATOM      7  C   UNL     1       7.350  19.312  23.986  1.00  0.00     0.072 C 
ATOM      8  O   UNL     1       8.429  18.944  23.448  1.00  0.00    -0.545 OA
ATOM      9  O   UNL     1       7.274  19.362  25.374  1.00  0.00    -0.545 OA
ENDBRANCH   1   7
BRANCH   4  10
ATOM     10  O   UNL     1       3.786  22.490  22.785  1.00  0.00    -0.504 OA
ATOM     11  H   UNL     1       3.896  23.265  22.142  1.00  0.00     0.293 HD
ENDBRANCH   4  10
BRANCH   5  12
ATOM     12  O   UNL     1       4.137  18.304  20.383  1.00  0.00    -0.504 OA
ATOM     13  H   UNL     1       3.262  18.473  19.900  1.00  0.00     0.293 HD
ENDBRANCH   5  12
BRANCH   6  14
ATOM     14  O   UNL     1       2.860  20.729  20.788  1.00  0.00    -0.502 OA
ATOM     15  H   UNL     1       1.974  21.013  21.188  1.00  0.00     0.293 HD
ENDBRANCH   6  14
TORSDOF 4
ENDMDL
MODEL 6
REMARK VINA RESULT:    -3.838     15.868     17.647
REMARK INTER + INTRA:          -4.446
REMARK INTER:                  -4.397
REMARK INTRA:                  -0.049
REMARK UNBOUND:                -0.048
REMARK SMILES O=C([O-])c1cc(O)c(O)c(O)c1
REMARK SMILES IDX 4 1 5 2 12 3 6 4 10 5 8 6 2 7 1 8 3 9 7 10 11 12 9 14
REMARK H PARENT 7 11 11 13 9 15
REMARK Flexibility Score: inf
ROOT
ATOM      1  C   UNL     1       6.003  19.669  23.115  1.00  0.00     0.005 A 
ATOM      2  C   UNL     1       5.588  18.821  22.075  1.00  0.00     0.060 A 
ATOM      3  C   UNL     1       5.281  20.851  23.362  1.00  0.00     0.060 A 
ATOM      4  C   UNL     1       4.471  19.145  21.292  1.00  0.00     0.162 A 
ATOM      5  C   UNL     1       4.165  21.180  22.582  1.00  0.00     0.162 A 
ATOM      6  C   UNL     1       3.757  20.329  21.547  1.00  0.00     0.200 A 
ENDROOT
BRANCH   1   7
ATOM      7  C   UNL     1       7.182  19.320  23.938  1.00  0.00     0.072 C 
ATOM      8  O   UNL     1       8.208  18.815  23.407  1.00  0.00    -0.545 OA
ATOM      9  O   UNL     1       7.176  19.544  25.311  1.00  0.00    -0.545 OA
ENDBRANCH   1   7
BRANCH   4  10
ATOM     10  O   UNL     1       4.068  18.297  20.262  1.00  0.00    -0.504 OA
ATOM     11  H   UNL     1       3.169  18.402  19.808  1.00  0.00     0.293 HD
ENDBRANCH   4  10
BRANCH   5  12
ATOM     12  O   UNL     1       3.454  22.352  22.830  1.00  0.00    -0.504 OA
ATOM     13  H   UNL     1       2.890  22.465  23.665  1.00  0.00     0.293 HD
ENDBRANCH   5  12
BRANCH   6  14
ATOM     14  O   UNL     1       2.643  20.673  20.781  1.00  0.00    -0.502 OA
ATOM     15  H   UNL     1       1.813  20.093  20.746  1.00  0.00     0.293 HD
ENDBRANCH   6  14
TORSDOF 4
ENDMDL
MODEL 7
REMARK VINA RESULT:    -3.805     13.693     14.937
REMARK INTER + INTRA:          -4.408
REMARK INTER:                  -4.357
REMARK INTRA:                  -0.052
REMARK UNBOUND:                -0.048
REMARK SMILES O=C([O-])c1cc(O)c(O)c(O)c1
REMARK SMILES IDX 4 1 5 2 12 3 6 4 10 5 8 6 2 7 1 8 3 9 7 10 11 12 9 14
REMARK H PARENT 7 11 11 13 9 15
REMARK Flexibility Score: inf
ROOT
ATOM      1  C   UNL     1       8.243  19.342  23.924  1.00  0.00     0.005 A 
ATOM      2  C   UNL     1       7.395  19.291  25.042  1.00  0.00     0.060 A 
ATOM      3  C   UNL     1       9.626  19.509  24.121  1.00  0.00     0.060 A 
ATOM      4  C   UNL     1       7.916  19.405  26.339  1.00  0.00     0.162 A 
ATOM      5  C   UNL     1      10.150  19.626  25.415  1.00  0.00     0.162 A 
ATOM      6  C   UNL     1       9.298  19.574  26.526  1.00  0.00     0.200 A 
ENDROOT
BRANCH   1   7
ATOM      7  C   UNL     1       7.687  19.219  22.558  1.00  0.00     0.072 C 
ATOM      8  O   UNL     1       8.420  18.865  21.596  1.00  0.00    -0.545 OA
ATOM      9  O   UNL     1       6.345  19.495  22.316  1.00  0.00    -0.545 OA
ENDBRANCH   1   7
BRANCH   4  10
ATOM     10  O   UNL     1       7.065  19.354  27.441  1.00  0.00    -0.504 OA
ATOM     11  H   UNL     1       7.183  18.663  28.173  1.00  0.00     0.293 HD
ENDBRANCH   4  10
BRANCH   5  12
ATOM     12  O   UNL     1      11.521  19.792  25.607  1.00  0.00    -0.504 OA
ATOM     13  H   UNL     1      12.190  19.563  24.881  1.00  0.00     0.293 HD
ENDBRANCH   5  12
BRANCH   6  14
ATOM     14  O   UNL     1       9.840  19.690  27.806  1.00  0.00    -0.502 OA
ATOM     15  H   UNL     1       9.281  19.564  28.641  1.00  0.00     0.293 HD
ENDBRANCH   6  14
TORSDOF 4
ENDMDL
MODEL 8
REMARK VINA RESULT:    -3.778      1.666      3.304
REMARK INTER + INTRA:          -4.377
REMARK INTER:                  -4.332
REMARK INTRA:                  -0.046
REMARK UNBOUND:                -0.048
REMARK SMILES O=C([O-])c1cc(O)c(O)c(O)c1
REMARK SMILES IDX 4 1 5 2 12 3 6 4 10 5 8 6 2 7 1 8 3 9 7 10 11 12 9 14
REMARK H PARENT 7 11 11 13 9 15
REMARK Flexibility Score: inf
ROOT
ATOM      1  C   UNL     1      14.680  29.865  29.515  1.00  0.00     0.005 A 
ATOM      2  C   UNL     1      15.217  31.111  29.153  1.00  0.00     0.060 A 
ATOM      3  C   UNL     1      14.853  29.403  30.832  1.00  0.00     0.060 A 
ATOM      4  C   UNL     1      15.916  31.887  30.089  1.00  0.00     0.162 A 
ATOM      5  C   UNL     1      15.552  30.175  31.771  1.00  0.00     0.162 A 
ATOM      6  C   UNL     1      16.084  31.416  31.402  1.00  0.00     0.200 A 
ENDROOT
BRANCH   1   7
ATOM      7  C   UNL     1      13.943  29.052  28.522  1.00  0.00     0.072 C 
ATOM      8  O   UNL     1      12.717  28.804  28.679  1.00  0.00    -0.545 OA
ATOM      9  O   UNL     1      14.593  28.549  27.400  1.00  0.00    -0.545 OA
ENDBRANCH   1   7
BRANCH   4  10
ATOM     10  O   UNL     1      16.445  33.122  29.718  1.00  0.00    -0.504 OA
ATOM     11  H   UNL     1      16.596  33.365  28.746  1.00  0.00     0.293 HD
ENDBRANCH   4  10
BRANCH   5  12
ATOM     12  O   UNL     1      15.721  29.713  33.075  1.00  0.00    -0.504 OA
ATOM     13  H   UNL     1      16.642  29.589  33.479  1.00  0.00     0.293 HD
ENDBRANCH   5  12
BRANCH   6  14
ATOM     14  O   UNL     1      16.775  32.170  32.351  1.00  0.00    -0.502 OA
ATOM     15  H   UNL     1      17.710  31.926  32.657  1.00  0.00     0.293 HD
ENDBRANCH   6  14
TORSDOF 4
ENDMDL
MODEL 9
REMARK VINA RESULT:    -3.774     13.714     15.085
REMARK INTER + INTRA:          -4.373
REMARK INTER:                  -4.321
REMARK INTRA:                  -0.053
REMARK UNBOUND:                -0.048
REMARK SMILES O=C([O-])c1cc(O)c(O)c(O)c1
REMARK SMILES IDX 4 1 5 2 12 3 6 4 10 5 8 6 2 7 1 8 3 9 7 10 11 12 9 14
REMARK H PARENT 7 11 11 13 9 15
REMARK Flexibility Score: inf
ROOT
ATOM      1  C   UNL     1       8.200  19.263  23.934  1.00  0.00     0.005 A 
ATOM      2  C   UNL     1       9.583  19.427  24.109  1.00  0.00     0.060 A 
ATOM      3  C   UNL     1       7.362  19.265  25.064  1.00  0.00     0.060 A 
ATOM      4  C   UNL     1      10.126  19.590  25.392  1.00  0.00     0.162 A 
ATOM      5  C   UNL     1       7.900  19.426  26.348  1.00  0.00     0.162 A 
ATOM      6  C   UNL     1       9.281  19.589  26.515  1.00  0.00     0.200 A 
ENDROOT
BRANCH   1   7
ATOM      7  C   UNL     1       7.634  19.093  22.577  1.00  0.00     0.072 C 
ATOM      8  O   UNL     1       8.389  18.903  21.586  1.00  0.00    -0.545 OA
ATOM      9  O   UNL     1       6.258  19.139  22.376  1.00  0.00    -0.545 OA
ENDBRANCH   1   7
BRANCH   4  10
ATOM     10  O   UNL     1      11.501  19.751  25.554  1.00  0.00    -0.504 OA
ATOM     11  H   UNL     1      12.166  19.144  25.090  1.00  0.00     0.293 HD
ENDBRANCH   4  10
BRANCH   5  12
ATOM     12  O   UNL     1       7.067  19.426  27.465  1.00  0.00    -0.504 OA
ATOM     13  H   UNL     1       6.060  19.351  27.376  1.00  0.00     0.293 HD
ENDBRANCH   5  12
BRANCH   6  14
ATOM     14  O   UNL     1       9.798  19.749  27.800  1.00  0.00    -0.502 OA
ATOM     15  H   UNL     1      10.790  19.857  27.974  1.00  0.00     0.293 HD
ENDBRANCH   6  14
TORSDOF 4
ENDMDL
