MODEL 1
REMARK VINA RESULT:    -3.746      0.000      0.000
REMARK INTER + INTRA:          -4.095
REMARK INTER:                  -4.075
REMARK INTRA:                  -0.020
REMARK UNBOUND:                -0.020
REMARK SMILES OCc1ccco1
REMARK SMILES IDX 2 1 3 2 5 3 6 4 4 5 7 6 1 7
REMARK H PARENT 1 8
REMARK Flexibility Score: inf
ROOT
ATOM      1  C   UNL     1      10.597  22.651   2.908  1.00  0.00     0.231 C 
ENDROOT
BRANCH   1   2
ATOM      2  C   UNL     1       9.871  23.573   3.834  1.00  0.00     0.129 A 
ATOM      3  C   UNL     1       8.876  24.422   5.598  1.00  0.00     0.042 A 
ATOM      4  C   UNL     1       8.797  25.281   4.520  1.00  0.00     0.195 A 
ATOM      5  C   UNL     1       9.568  23.315   5.156  1.00  0.00     0.048 A 
ATOM      6  O   UNL     1       9.397  24.746   3.483  1.00  0.00    -0.467 OA
ENDBRANCH   1   2
BRANCH   1   7
ATOM      7  O   UNL     1      10.126  22.815   1.599  1.00  0.00    -0.388 OA
ATOM      8  H   UNL     1      10.895  22.630   0.997  1.00  0.00     0.211 HD
ENDBRANCH   1   7
TORSDOF 2
ENDMDL
MODEL 2
REMARK VINA RESULT:    -3.501      1.761      3.056
REMARK INTER + INTRA:          -3.828
REMARK INTER:                  -3.815
REMARK INTRA:                  -0.014
REMARK UNBOUND:                -0.020
REMARK SMILES OCc1ccco1
REMARK SMILES IDX 2 1 3 2 5 3 6 4 4 5 7 6 1 7
REMARK H PARENT 1 8
REMARK Flexibility Score: inf
ROOT
ATOM      1  C   UNL     1       8.420  26.428   3.453  1.00  0.00     0.231 C 
ENDROOT
BRANCH   1   2
ATOM      2  C   UNL     1       8.830  25.310   4.356  1.00  0.00     0.129 A 
ATOM      3  C   UNL     1       8.864  23.815   5.964  1.00  0.00     0.042 A 
ATOM      4  C   UNL     1      10.034  23.784   5.231  1.00  0.00     0.195 A 
ATOM      5  C   UNL     1       8.085  24.803   5.402  1.00  0.00     0.048 A 
ATOM      6  O   UNL     1       9.985  24.690   4.281  1.00  0.00    -0.467 OA
ENDBRANCH   1   2
BRANCH   1   7
ATOM      7  O   UNL     1       8.720  27.662   4.046  1.00  0.00    -0.388 OA
ATOM      8  H   UNL     1       8.037  27.811   4.751  1.00  0.00     0.211 HD
ENDBRANCH   1   7
TORSDOF 2
ENDMDL
MODEL 3
REMARK VINA RESULT:    -3.479      1.250      3.116
REMARK INTER + INTRA:          -3.804
REMARK INTER:                  -3.790
REMARK INTRA:                  -0.014
REMARK UNBOUND:                -0.020
REMARK SMILES OCc1ccco1
REMARK SMILES IDX 2 1 3 2 5 3 6 4 4 5 7 6 1 7
REMARK H PARENT 1 8
REMARK Flexibility Score: inf
ROOT
ATOM      1  C   UNL     1       9.086  25.164   4.613  1.00  0.00     0.231 C 
ENDROOT
BRANCH   1   2
ATOM      2  C   UNL     1       9.774  24.031   3.920  1.00  0.00     0.129 A 
ATOM      3  C   UNL     1      11.123  22.361   3.459  1.00  0.00     0.042 A 
ATOM      4  C   UNL     1      10.317  22.663   2.379  1.00  0.00     0.195 A 
ATOM      5  C   UNL     1      10.775  23.246   4.456  1.00  0.00     0.048 A 
ATOM      6  O   UNL     1       9.526  23.665   2.684  1.00  0.00    -0.467 OA
ENDBRANCH   1   2
BRANCH   1   7
ATOM      7  O   UNL     1       8.933  24.873   5.975  1.00  0.00    -0.388 OA
ATOM      8  H   UNL     1       8.521  25.676   6.391  1.00  0.00     0.211 HD
ENDBRANCH   1   7
TORSDOF 2
ENDMDL
MODEL 4
REMARK VINA RESULT:    -3.196     14.643     16.103
REMARK INTER + INTRA:          -3.497
REMARK INTER:                  -3.480
REMARK INTRA:                  -0.017
REMARK UNBOUND:                -0.020
REMARK SMILES OCc1ccco1
REMARK SMILES IDX 2 1 3 2 5 3 6 4 4 5 7 6 1 7
REMARK H PARENT 1 8
REMARK Flexibility Score: inf
ROOT
ATOM      1  C   UNL     1       1.450  34.193  15.554  1.00  0.00     0.231 C 
ENDROOT
BRANCH   1   2
ATOM      2  C   UNL     1       2.275  33.199  14.800  1.00  0.00     0.129 A 
ATOM      3  C   UNL     1       2.993  31.349  13.861  1.00  0.00     0.042 A 
ATOM      4  C   UNL     1       3.919  32.365  13.731  1.00  0.00     0.195 A 
ATOM      5  C   UNL     1       1.930  31.885  14.554  1.00  0.00     0.048 A 
ATOM      6  O   UNL     1       3.464  33.454  14.304  1.00  0.00    -0.467 OA
ENDBRANCH   1   2
BRANCH   1   7
ATOM      7  O   UNL     1       1.316  35.371  14.808  1.00  0.00    -0.388 OA
ATOM      8  H   UNL     1       1.121  36.097  15.458  1.00  0.00     0.211 HD
ENDBRANCH   1   7
TORSDOF 2
ENDMDL
MODEL 5
REMARK VINA RESULT:    -3.124     14.706     15.756
REMARK INTER + INTRA:          -3.418
REMARK INTER:                  -3.398
REMARK INTRA:                  -0.020
REMARK UNBOUND:                -0.020
REMARK SMILES OCc1ccco1
REMARK SMILES IDX 2 1 3 2 5 3 6 4 4 5 7 6 1 7
REMARK H PARENT 1 8
REMARK Flexibility Score: inf
ROOT
ATOM      1  C   UNL     1      -0.464  23.342  16.888  1.00  0.00     0.231 C 
ENDROOT
BRANCH   1   2
ATOM      2  C   UNL     1      -0.084  24.687  16.357  1.00  0.00     0.129 A 
ATOM      3  C   UNL     1       0.343  26.835  16.191  1.00  0.00     0.042 A 
ATOM      4  C   UNL     1       0.460  26.208  14.967  1.00  0.00     0.195 A 
ATOM      5  C   UNL     1      -0.011  25.854  17.092  1.00  0.00     0.048 A 
ATOM      6  O   UNL     1       0.196  24.929  15.097  1.00  0.00    -0.467 OA
ENDBRANCH   1   2
BRANCH   1   7
ATOM      7  O   UNL     1      -1.144  22.611  15.905  1.00  0.00    -0.388 OA
ATOM      8  H   UNL     1      -1.738  21.975  16.386  1.00  0.00     0.211 HD
ENDBRANCH   1   7
TORSDOF 2
ENDMDL
MODEL 6
REMARK VINA RESULT:    -3.004     14.491     14.753
REMARK INTER + INTRA:          -3.287
REMARK INTER:                  -3.269
REMARK INTRA:                  -0.018
REMARK UNBOUND:                -0.020
REMARK SMILES OCc1ccco1
REMARK SMILES IDX 2 1 3 2 5 3 6 4 4 5 7 6 1 7
REMARK H PARENT 1 8
REMARK Flexibility Score: inf
ROOT
ATOM      1  C   UNL     1       5.352  32.075  15.278  1.00  0.00     0.231 C 
ENDROOT
BRANCH   1   2
ATOM      2  C   UNL     1       4.044  32.255  14.577  1.00  0.00     0.129 A 
ATOM      3  C   UNL     1       2.046  31.900  13.737  1.00  0.00     0.042 A 
ATOM      4  C   UNL     1       2.511  33.156  13.403  1.00  0.00     0.195 A 
ATOM      5  C   UNL     1       3.037  31.313  14.494  1.00  0.00     0.048 A 
ATOM      6  O   UNL     1       3.706  33.337  13.916  1.00  0.00    -0.467 OA
ENDBRANCH   1   2
BRANCH   1   7
ATOM      7  O   UNL     1       6.406  32.450  14.434  1.00  0.00    -0.388 OA
ATOM      8  H   UNL     1       6.012  33.027  13.728  1.00  0.00     0.211 HD
ENDBRANCH   1   7
TORSDOF 2
ENDMDL
MODEL 7
REMARK VINA RESULT:    -2.999     18.539     18.980
REMARK INTER + INTRA:          -3.282
REMARK INTER:                  -3.262
REMARK INTRA:                  -0.020
REMARK UNBOUND:                -0.020
REMARK SMILES OCc1ccco1
REMARK SMILES IDX 2 1 3 2 5 3 6 4 4 5 7 6 1 7
REMARK H PARENT 1 8
REMARK Flexibility Score: inf
ROOT
ATOM      1  C   UNL     1      -8.528  22.552  -0.007  1.00  0.00     0.231 C 
ENDROOT
BRANCH   1   2
ATOM      2  C   UNL     1      -8.698  23.913  -0.603  1.00  0.00     0.129 A 
ATOM      3  C   UNL     1      -8.693  25.611  -1.996  1.00  0.00     0.042 A 
ATOM      4  C   UNL     1      -9.125  25.996  -0.742  1.00  0.00     0.195 A 
ATOM      5  C   UNL     1      -8.414  24.264  -1.907  1.00  0.00     0.048 A 
ATOM      6  O   UNL     1      -9.114  24.963   0.067  1.00  0.00    -0.467 OA
ENDBRANCH   1   2
BRANCH   1   7
ATOM      7  O   UNL     1      -8.231  22.658   1.359  1.00  0.00    -0.388 OA
ATOM      8  H   UNL     1      -7.845  23.563   1.495  1.00  0.00     0.211 HD
ENDBRANCH   1   7
TORSDOF 2
ENDMDL
MODEL 8
REMARK VINA RESULT:    -2.921     18.314     18.938
REMARK INTER + INTRA:          -3.197
REMARK INTER:                  -3.177
REMARK INTRA:                  -0.020
REMARK UNBOUND:                -0.020
REMARK SMILES OCc1ccco1
REMARK SMILES IDX 2 1 3 2 5 3 6 4 4 5 7 6 1 7
REMARK H PARENT 1 8
REMARK Flexibility Score: inf
ROOT
ATOM      1  C   UNL     1      -1.681  32.964  15.819  1.00  0.00     0.231 C 
ENDROOT
BRANCH   1   2
ATOM      2  C   UNL     1      -2.755  32.175  15.142  1.00  0.00     0.129 A 
ATOM      3  C   UNL     1      -3.838  30.604  14.054  1.00  0.00     0.042 A 
ATOM      4  C   UNL     1      -4.657  31.684  14.317  1.00  0.00     0.195 A 
ATOM      5  C   UNL     1      -2.606  30.921  14.585  1.00  0.00     0.048 A 
ATOM      6  O   UNL     1      -3.982  32.605  14.964  1.00  0.00    -0.467 OA
ENDBRANCH   1   2
BRANCH   1   7
ATOM      7  O   UNL     1      -1.814  34.324  15.510  1.00  0.00    -0.388 OA
ATOM      8  H   UNL     1      -0.961  34.759  15.774  1.00  0.00     0.211 HD
ENDBRANCH   1   7
TORSDOF 2
ENDMDL
