MODEL 1
REMARK VINA RESULT:    -4.397      0.000      0.000
REMARK INTER + INTRA:         -10.247
REMARK INTER:                  -7.995
REMARK INTRA:                  -2.252
REMARK UNBOUND:                -2.252
REMARK SMILES CCCCCCCCCCCCCC[C@@H](C)C(=O)[O-]
REMARK SMILES IDX 9 1 10 2 11 3 12 4 13 5 14 6 15 7 16 8 17 9 18 10 19 11 8 12
REMARK SMILES IDX 7 13 6 14 5 15 4 16 3 17 2 18 1 19
REMARK H PARENT
REMARK Flexibility Score: inf
ROOT
ATOM      1  C   UNL     1      16.804  30.162  71.464  1.00  0.00     0.000 C 
ENDROOT
BRANCH   1   2
ATOM      2  C   UNL     1      15.521  30.511  70.678  1.00  0.00     0.000 C 
BRANCH   2   3
ATOM      3  C   UNL     1      15.403  29.777  69.332  1.00  0.00     0.000 C 
BRANCH   3   4
ATOM      4  C   UNL     1      15.345  30.737  68.132  1.00  0.00     0.000 C 
BRANCH   4   5
ATOM      5  C   UNL     1      15.381  32.214  68.557  1.00  0.00     0.001 C 
BRANCH   5   6
ATOM      6  C   UNL     1      15.716  33.155  67.385  1.00  0.00     0.009 C 
BRANCH   6   7
ATOM      7  C   UNL     1      14.505  34.006  66.941  1.00  0.00     0.032 C 
ATOM      8  C   UNL     1      13.176  33.456  67.475  1.00  0.00     0.014 C 
BRANCH   7   9
ATOM      9  C   UNL     1      14.684  35.429  67.396  1.00  0.00     0.044 C 
ATOM     10  O   UNL     1      13.698  36.099  67.805  1.00  0.00    -0.550 OA
ATOM     11  O   UNL     1      15.944  36.013  67.367  1.00  0.00    -0.550 OA
ENDBRANCH   7   9
ENDBRANCH   6   7
ENDBRANCH   5   6
ENDBRANCH   4   5
ENDBRANCH   3   4
ENDBRANCH   2   3
ENDBRANCH   1   2
BRANCH   1  12
ATOM     12  C   UNL     1      17.963  31.116  71.135  1.00  0.00     0.000 C 
BRANCH  12  13
ATOM     13  C   UNL     1      18.975  30.446  70.192  1.00  0.00    -0.000 C 
BRANCH  13  14
ATOM     14  C   UNL     1      19.037  31.114  68.806  1.00  0.00    -0.000 C 
BRANCH  14  15
ATOM     15  C   UNL     1      18.964  30.145  67.613  1.00  0.00    -0.000 C 
BRANCH  15  16
ATOM     16  C   UNL     1      18.804  30.865  66.265  1.00  0.00    -0.000 C 
BRANCH  16  17
ATOM     17  C   UNL     1      19.334  32.304  66.345  1.00  0.00    -0.000 C 
BRANCH  17  18
ATOM     18  C   UNL     1      18.797  33.195  65.214  1.00  0.00    -0.003 C 
ATOM     19  C   UNL     1      18.668  34.661  65.627  1.00  0.00     0.004 C 
ENDBRANCH  17  18
ENDBRANCH  16  17
ENDBRANCH  15  16
ENDBRANCH  14  15
ENDBRANCH  13  14
ENDBRANCH  12  13
ENDBRANCH   1  12
TORSDOF 14
ENDMDL
MODEL 2
REMARK VINA RESULT:    -4.374      1.127      1.632
REMARK INTER + INTRA:         -10.206
REMARK INTER:                  -8.147
REMARK INTRA:                  -2.059
REMARK UNBOUND:                -2.252
REMARK SMILES CCCCCCCCCCCCCC[C@@H](C)C(=O)[O-]
REMARK SMILES IDX 9 1 10 2 11 3 12 4 13 5 14 6 15 7 16 8 17 9 18 10 19 11 8 12
REMARK SMILES IDX 7 13 6 14 5 15 4 16 3 17 2 18 1 19
REMARK H PARENT
REMARK Flexibility Score: inf
ROOT
ATOM      1  C   UNL     1      16.036  30.795  71.001  1.00  0.00     0.000 C 
ENDROOT
BRANCH   1   2
ATOM      2  C   UNL     1      14.916  30.103  70.196  1.00  0.00     0.000 C 
BRANCH   2   3
ATOM      3  C   UNL     1      14.231  31.024  69.172  1.00  0.00     0.000 C 
BRANCH   3   4
ATOM      4  C   UNL     1      15.123  31.336  67.959  1.00  0.00     0.000 C 
BRANCH   4   5
ATOM      5  C   UNL     1      15.790  32.718  68.059  1.00  0.00     0.001 C 
BRANCH   5   6
ATOM      6  C   UNL     1      15.457  33.621  66.858  1.00  0.00     0.009 C 
BRANCH   6   7
ATOM      7  C   UNL     1      15.746  35.112  67.135  1.00  0.00     0.032 C 
ATOM      8  C   UNL     1      16.491  35.789  65.976  1.00  0.00     0.014 C 
BRANCH   7   9
ATOM      9  C   UNL     1      14.459  35.843  67.406  1.00  0.00     0.044 C 
ATOM     10  O   UNL     1      13.484  35.247  67.938  1.00  0.00    -0.550 OA
ATOM     11  O   UNL     1      14.340  37.185  67.069  1.00  0.00    -0.550 OA
ENDBRANCH   7   9
ENDBRANCH   6   7
ENDBRANCH   5   6
ENDBRANCH   4   5
ENDBRANCH   3   4
ENDBRANCH   2   3
ENDBRANCH   1   2
BRANCH   1  12
ATOM     12  C   UNL     1      17.379  30.058  70.878  1.00  0.00     0.000 C 
BRANCH  12  13
ATOM     13  C   UNL     1      18.546  31.053  70.792  1.00  0.00    -0.000 C 
BRANCH  13  14
ATOM     14  C   UNL     1      19.144  31.155  69.376  1.00  0.00    -0.000 C 
BRANCH  14  15
ATOM     15  C   UNL     1      18.595  30.135  68.363  1.00  0.00    -0.000 C 
BRANCH  15  16
ATOM     16  C   UNL     1      18.958  30.479  66.910  1.00  0.00    -0.000 C 
BRANCH  16  17
ATOM     17  C   UNL     1      19.168  31.990  66.740  1.00  0.00    -0.000 C 
BRANCH  17  18
ATOM     18  C   UNL     1      18.768  32.489  65.342  1.00  0.00    -0.003 C 
ATOM     19  C   UNL     1      18.535  31.348  64.352  1.00  0.00     0.004 C 
ENDBRANCH  17  18
ENDBRANCH  16  17
ENDBRANCH  15  16
ENDBRANCH  14  15
ENDBRANCH  13  14
ENDBRANCH  12  13
ENDBRANCH   1  12
TORSDOF 14
ENDMDL
MODEL 3
REMARK VINA RESULT:    -4.339      1.156      1.704
REMARK INTER + INTRA:         -10.141
REMARK INTER:                  -7.847
REMARK INTRA:                  -2.294
REMARK UNBOUND:                -2.252
REMARK SMILES CCCCCCCCCCCCCC[C@@H](C)C(=O)[O-]
REMARK SMILES IDX 9 1 10 2 11 3 12 4 13 5 14 6 15 7 16 8 17 9 18 10 19 11 8 12
REMARK SMILES IDX 7 13 6 14 5 15 4 16 3 17 2 18 1 19
REMARK H PARENT
REMARK Flexibility Score: inf
ROOT
ATOM      1  C   UNL     1      15.992  31.238  70.526  1.00  0.00     0.000 C 
ENDROOT
BRANCH   1   2
ATOM      2  C   UNL     1      14.882  30.260  70.085  1.00  0.00     0.000 C 
BRANCH   2   3
ATOM      3  C   UNL     1      15.098  29.674  68.679  1.00  0.00     0.000 C 
BRANCH   3   4
ATOM      4  C   UNL     1      16.054  30.518  67.821  1.00  0.00     0.000 C 
BRANCH   4   5
ATOM      5  C   UNL     1      15.309  31.484  66.885  1.00  0.00     0.001 C 
BRANCH   5   6
ATOM      6  C   UNL     1      15.613  32.960  67.199  1.00  0.00     0.009 C 
BRANCH   6   7
ATOM      7  C   UNL     1      14.343  33.838  67.221  1.00  0.00     0.032 C 
ATOM      8  C   UNL     1      13.350  33.403  68.308  1.00  0.00     0.014 C 
BRANCH   7   9
ATOM      9  C   UNL     1      14.720  35.280  67.428  1.00  0.00     0.044 C 
ATOM     10  O   UNL     1      15.917  35.653  67.307  1.00  0.00    -0.550 OA
ATOM     11  O   UNL     1      13.743  36.212  67.756  1.00  0.00    -0.550 OA
ENDBRANCH   7   9
ENDBRANCH   6   7
ENDBRANCH   5   6
ENDBRANCH   4   5
ENDBRANCH   3   4
ENDBRANCH   2   3
ENDBRANCH   1   2
BRANCH   1  12
ATOM     12  C   UNL     1      17.054  30.554  71.400  1.00  0.00     0.000 C 
BRANCH  12  13
ATOM     13  C   UNL     1      18.470  30.887  70.907  1.00  0.00    -0.000 C 
BRANCH  13  14
ATOM     14  C   UNL     1      19.134  29.718  70.155  1.00  0.00    -0.000 C 
BRANCH  14  15
ATOM     15  C   UNL     1      19.681  30.069  68.760  1.00  0.00    -0.000 C 
BRANCH  15  16
ATOM     16  C   UNL     1      19.681  31.579  68.477  1.00  0.00    -0.000 C 
BRANCH  16  17
ATOM     17  C   UNL     1      19.098  31.875  67.088  1.00  0.00    -0.000 C 
BRANCH  17  18
ATOM     18  C   UNL     1      19.391  30.758  66.074  1.00  0.00    -0.003 C 
ATOM     19  C   UNL     1      18.799  31.042  64.694  1.00  0.00     0.004 C 
ENDBRANCH  17  18
ENDBRANCH  16  17
ENDBRANCH  15  16
ENDBRANCH  14  15
ENDBRANCH  13  14
ENDBRANCH  12  13
ENDBRANCH   1  12
TORSDOF 14
ENDMDL
MODEL 4
REMARK VINA RESULT:    -4.272      1.986      2.929
REMARK INTER + INTRA:         -10.020
REMARK INTER:                  -7.704
REMARK INTRA:                  -2.316
REMARK UNBOUND:                -2.252
REMARK SMILES CCCCCCCCCCCCCC[C@@H](C)C(=O)[O-]
REMARK SMILES IDX 9 1 10 2 11 3 12 4 13 5 14 6 15 7 16 8 17 9 18 10 19 11 8 12
REMARK SMILES IDX 7 13 6 14 5 15 4 16 3 17 2 18 1 19
REMARK H PARENT
REMARK Flexibility Score: inf
ROOT
ATOM      1  C   UNL     1      15.386  31.074  70.158  1.00  0.00     0.000 C 
ENDROOT
BRANCH   1   2
ATOM      2  C   UNL     1      15.450  30.201  68.886  1.00  0.00     0.000 C 
BRANCH   2   3
ATOM      3  C   UNL     1      15.767  30.994  67.607  1.00  0.00     0.000 C 
BRANCH   3   4
ATOM      4  C   UNL     1      15.793  32.513  67.838  1.00  0.00     0.000 C 
BRANCH   4   5
ATOM      5  C   UNL     1      14.891  33.275  66.853  1.00  0.00     0.001 C 
BRANCH   5   6
ATOM      6  C   UNL     1      13.535  33.658  67.472  1.00  0.00     0.009 C 
BRANCH   6   7
ATOM      7  C   UNL     1      12.401  32.690  67.068  1.00  0.00     0.032 C 
ATOM      8  C   UNL     1      12.745  31.877  65.812  1.00  0.00     0.014 C 
BRANCH   7   9
ATOM      9  C   UNL     1      12.094  31.756  68.207  1.00  0.00     0.044 C 
ATOM     10  O   UNL     1      11.954  30.520  68.002  1.00  0.00    -0.550 OA
ATOM     11  O   UNL     1      11.962  32.255  69.497  1.00  0.00    -0.550 OA
ENDBRANCH   7   9
ENDBRANCH   6   7
ENDBRANCH   5   6
ENDBRANCH   4   5
ENDBRANCH   3   4
ENDBRANCH   2   3
ENDBRANCH   1   2
BRANCH   1  12
ATOM     12  C   UNL     1      16.398  30.623  71.222  1.00  0.00     0.000 C 
BRANCH  12  13
ATOM     13  C   UNL     1      17.643  30.003  70.569  1.00  0.00    -0.000 C 
BRANCH  13  14
ATOM     14  C   UNL     1      18.905  30.867  70.743  1.00  0.00    -0.000 C 
BRANCH  14  15
ATOM     15  C   UNL     1      19.893  30.823  69.564  1.00  0.00    -0.000 C 
BRANCH  15  16
ATOM     16  C   UNL     1      19.258  31.258  68.234  1.00  0.00    -0.000 C 
BRANCH  16  17
ATOM     17  C   UNL     1      19.374  30.145  67.182  1.00  0.00    -0.000 C 
BRANCH  17  18
ATOM     18  C   UNL     1      19.254  30.676  65.745  1.00  0.00    -0.003 C 
ATOM     19  C   UNL     1      19.254  32.203  65.677  1.00  0.00     0.004 C 
ENDBRANCH  17  18
ENDBRANCH  16  17
ENDBRANCH  15  16
ENDBRANCH  14  15
ENDBRANCH  13  14
ENDBRANCH  12  13
ENDBRANCH   1  12
TORSDOF 14
ENDMDL
MODEL 5
REMARK VINA RESULT:    -4.218      1.931      4.518
REMARK INTER + INTRA:          -9.922
REMARK INTER:                  -8.311
REMARK INTRA:                  -1.611
REMARK UNBOUND:                -2.252
REMARK SMILES CCCCCCCCCCCCCC[C@@H](C)C(=O)[O-]
REMARK SMILES IDX 9 1 10 2 11 3 12 4 13 5 14 6 15 7 16 8 17 9 18 10 19 11 8 12
REMARK SMILES IDX 7 13 6 14 5 15 4 16 3 17 2 18 1 19
REMARK H PARENT
REMARK Flexibility Score: inf
ROOT
ATOM      1  C   UNL     1      16.391  31.029  71.027  1.00  0.00     0.000 C 
ENDROOT
BRANCH   1   2
ATOM      2  C   UNL     1      17.624  30.124  70.812  1.00  0.00     0.000 C 
BRANCH   2   3
ATOM      3  C   UNL     1      18.950  30.897  70.726  1.00  0.00     0.000 C 
BRANCH   3   4
ATOM      4  C   UNL     1      19.825  30.452  69.543  1.00  0.00     0.000 C 
BRANCH   4   5
ATOM      5  C   UNL     1      19.083  30.533  68.198  1.00  0.00     0.001 C 
BRANCH   5   6
ATOM      6  C   UNL     1      18.981  31.974  67.668  1.00  0.00     0.009 C 
BRANCH   6   7
ATOM      7  C   UNL     1      19.265  32.073  66.153  1.00  0.00     0.032 C 
ATOM      8  C   UNL     1      18.117  31.510  65.304  1.00  0.00     0.014 C 
BRANCH   7   9
ATOM      9  C   UNL     1      19.522  33.505  65.771  1.00  0.00     0.044 C 
ATOM     10  O   UNL     1      18.725  34.119  65.012  1.00  0.00    -0.550 OA
ATOM     11  O   UNL     1      20.646  34.162  66.258  1.00  0.00    -0.550 OA
ENDBRANCH   7   9
ENDBRANCH   6   7
ENDBRANCH   5   6
ENDBRANCH   4   5
ENDBRANCH   3   4
ENDBRANCH   2   3
ENDBRANCH   1   2
BRANCH   1  12
ATOM     12  C   UNL     1      15.092  30.362  70.550  1.00  0.00     0.000 C 
BRANCH  12  13
ATOM     13  C   UNL     1      14.807  30.703  69.079  1.00  0.00    -0.000 C 
BRANCH  13  14
ATOM     14  C   UNL     1      15.590  31.934  68.587  1.00  0.00    -0.000 C 
BRANCH  14  15
ATOM     15  C   UNL     1      15.098  32.529  67.256  1.00  0.00    -0.000 C 
BRANCH  15  16
ATOM     16  C   UNL     1      14.695  34.008  67.372  1.00  0.00    -0.000 C 
BRANCH  16  17
ATOM     17  C   UNL     1      15.886  34.926  67.062  1.00  0.00    -0.000 C 
BRANCH  17  18
ATOM     18  C   UNL     1      15.584  36.404  67.355  1.00  0.00    -0.003 C 
ATOM     19  C   UNL     1      14.086  36.706  67.389  1.00  0.00     0.004 C 
ENDBRANCH  17  18
ENDBRANCH  16  17
ENDBRANCH  15  16
ENDBRANCH  14  15
ENDBRANCH  13  14
ENDBRANCH  12  13
ENDBRANCH   1  12
TORSDOF 14
ENDMDL
MODEL 6
REMARK VINA RESULT:    -4.203      2.497      4.788
REMARK INTER + INTRA:          -9.895
REMARK INTER:                  -7.698
REMARK INTRA:                  -2.197
REMARK UNBOUND:                -2.252
REMARK SMILES CCCCCCCCCCCCCC[C@@H](C)C(=O)[O-]
REMARK SMILES IDX 9 1 10 2 11 3 12 4 13 5 14 6 15 7 16 8 17 9 18 10 19 11 8 12
REMARK SMILES IDX 7 13 6 14 5 15 4 16 3 17 2 18 1 19
REMARK H PARENT
REMARK Flexibility Score: inf
ROOT
ATOM      1  C   UNL     1      15.257  29.445  71.121  1.00  0.00     0.000 C 
ENDROOT
BRANCH   1   2
ATOM      2  C   UNL     1      16.670  29.653  71.709  1.00  0.00     0.000 C 
BRANCH   2   3
ATOM      3  C   UNL     1      17.410  30.868  71.126  1.00  0.00     0.000 C 
BRANCH   3   4
ATOM      4  C   UNL     1      18.515  30.474  70.133  1.00  0.00     0.000 C 
BRANCH   4   5
ATOM      5  C   UNL     1      18.478  31.315  68.846  1.00  0.00     0.001 C 
BRANCH   5   6
ATOM      6  C   UNL     1      18.056  30.491  67.616  1.00  0.00     0.009 C 
BRANCH   6   7
ATOM      7  C   UNL     1      17.747  31.373  66.386  1.00  0.00     0.032 C 
ATOM      8  C   UNL     1      17.849  32.872  66.700  1.00  0.00     0.014 C 
BRANCH   7   9
ATOM      9  C   UNL     1      18.683  31.027  65.260  1.00  0.00     0.044 C 
ATOM     10  O   UNL     1      18.498  31.497  64.105  1.00  0.00    -0.550 OA
ATOM     11  O   UNL     1      19.762  30.182  65.489  1.00  0.00    -0.550 OA
ENDBRANCH   7   9
ENDBRANCH   6   7
ENDBRANCH   5   6
ENDBRANCH   4   5
ENDBRANCH   3   4
ENDBRANCH   2   3
ENDBRANCH   1   2
BRANCH   1  12
ATOM     12  C   UNL     1      15.292  28.703  69.777  1.00  0.00     0.000 C 
BRANCH  12  13
ATOM     13  C   UNL     1      14.745  29.587  68.646  1.00  0.00    -0.000 C 
BRANCH  13  14
ATOM     14  C   UNL     1      14.130  30.903  69.157  1.00  0.00    -0.000 C 
BRANCH  14  15
ATOM     15  C   UNL     1      14.842  32.182  68.683  1.00  0.00    -0.000 C 
BRANCH  15  16
ATOM     16  C   UNL     1      13.866  33.308  68.309  1.00  0.00    -0.000 C 
BRANCH  16  17
ATOM     17  C   UNL     1      14.324  34.028  67.032  1.00  0.00    -0.000 C 
BRANCH  17  18
ATOM     18  C   UNL     1      15.126  35.305  67.331  1.00  0.00    -0.003 C 
ATOM     19  C   UNL     1      14.282  36.574  67.213  1.00  0.00     0.004 C 
ENDBRANCH  17  18
ENDBRANCH  16  17
ENDBRANCH  15  16
ENDBRANCH  14  15
ENDBRANCH  13  14
ENDBRANCH  12  13
ENDBRANCH   1  12
TORSDOF 14
ENDMDL
MODEL 7
REMARK VINA RESULT:    -4.173      1.197      1.832
REMARK INTER + INTRA:          -9.839
REMARK INTER:                  -7.635
REMARK INTRA:                  -2.205
REMARK UNBOUND:                -2.252
REMARK SMILES CCCCCCCCCCCCCC[C@@H](C)C(=O)[O-]
REMARK SMILES IDX 9 1 10 2 11 3 12 4 13 5 14 6 15 7 16 8 17 9 18 10 19 11 8 12
REMARK SMILES IDX 7 13 6 14 5 15 4 16 3 17 2 18 1 19
REMARK H PARENT
REMARK Flexibility Score: inf
ROOT
ATOM      1  C   UNL     1      18.088  29.850  70.501  1.00  0.00     0.000 C 
ENDROOT
BRANCH   1   2
ATOM      2  C   UNL     1      16.927  30.144  71.476  1.00  0.00     0.000 C 
BRANCH   2   3
ATOM      3  C   UNL     1      15.552  29.693  70.953  1.00  0.00     0.000 C 
BRANCH   3   4
ATOM      4  C   UNL     1      14.777  30.824  70.258  1.00  0.00     0.000 C 
BRANCH   4   5
ATOM      5  C   UNL     1      15.088  30.914  68.755  1.00  0.00     0.001 C 
BRANCH   5   6
ATOM      6  C   UNL     1      15.576  32.313  68.337  1.00  0.00     0.009 C 
BRANCH   6   7
ATOM      7  C   UNL     1      14.701  32.942  67.231  1.00  0.00     0.032 C 
ATOM      8  C   UNL     1      14.169  31.897  66.240  1.00  0.00     0.014 C 
BRANCH   7   9
ATOM      9  C   UNL     1      13.548  33.685  67.849  1.00  0.00     0.044 C 
ATOM     10  O   UNL     1      13.629  34.923  68.071  1.00  0.00    -0.550 OA
ATOM     11  O   UNL     1      12.382  33.005  68.180  1.00  0.00    -0.550 OA
ENDBRANCH   7   9
ENDBRANCH   6   7
ENDBRANCH   5   6
ENDBRANCH   4   5
ENDBRANCH   3   4
ENDBRANCH   2   3
ENDBRANCH   1   2
BRANCH   1  12
ATOM     12  C   UNL     1      19.013  31.062  70.319  1.00  0.00     0.000 C 
BRANCH  12  13
ATOM     13  C   UNL     1      19.527  31.149  68.873  1.00  0.00    -0.000 C 
BRANCH  13  14
ATOM     14  C   UNL     1      18.685  30.321  67.886  1.00  0.00    -0.000 C 
BRANCH  14  15
ATOM     15  C   UNL     1      19.080  30.472  66.407  1.00  0.00    -0.000 C 
BRANCH  15  16
ATOM     16  C   UNL     1      18.093  31.338  65.608  1.00  0.00    -0.000 C 
BRANCH  16  17
ATOM     17  C   UNL     1      18.834  32.427  64.818  1.00  0.00    -0.000 C 
BRANCH  17  18
ATOM     18  C   UNL     1      19.198  33.641  65.687  1.00  0.00    -0.003 C 
ATOM     19  C   UNL     1      17.968  34.364  66.237  1.00  0.00     0.004 C 
ENDBRANCH  17  18
ENDBRANCH  16  17
ENDBRANCH  15  16
ENDBRANCH  14  15
ENDBRANCH  13  14
ENDBRANCH  12  13
ENDBRANCH   1  12
TORSDOF 14
ENDMDL
MODEL 8
REMARK VINA RESULT:    -4.156      2.197      4.384
REMARK INTER + INTRA:          -9.808
REMARK INTER:                  -7.282
REMARK INTRA:                  -2.526
REMARK UNBOUND:                -2.252
REMARK SMILES CCCCCCCCCCCCCC[C@@H](C)C(=O)[O-]
REMARK SMILES IDX 9 1 10 2 11 3 12 4 13 5 14 6 15 7 16 8 17 9 18 10 19 11 8 12
REMARK SMILES IDX 7 13 6 14 5 15 4 16 3 17 2 18 1 19
REMARK H PARENT
REMARK Flexibility Score: inf
ROOT
ATOM      1  C   UNL     1      17.665  30.872  71.176  1.00  0.00     0.000 C 
ENDROOT
BRANCH   1   2
ATOM      2  C   UNL     1      19.110  30.694  70.662  1.00  0.00     0.000 C 
BRANCH   2   3
ATOM      3  C   UNL     1      19.315  31.177  69.216  1.00  0.00     0.000 C 
BRANCH   3   4
ATOM      4  C   UNL     1      18.796  30.174  68.173  1.00  0.00     0.000 C 
BRANCH   4   5
ATOM      5  C   UNL     1      17.550  30.686  67.432  1.00  0.00     0.001 C 
BRANCH   5   6
ATOM      6  C   UNL     1      17.239  32.160  67.752  1.00  0.00     0.009 C 
BRANCH   6   7
ATOM      7  C   UNL     1      17.262  33.059  66.496  1.00  0.00     0.032 C 
ATOM      8  C   UNL     1      16.598  34.421  66.740  1.00  0.00     0.014 C 
BRANCH   7   9
ATOM      9  C   UNL     1      18.680  33.262  66.037  1.00  0.00     0.044 C 
ATOM     10  O   UNL     1      19.033  32.920  64.876  1.00  0.00    -0.550 OA
ATOM     11  O   UNL     1      19.613  33.831  66.895  1.00  0.00    -0.550 OA
ENDBRANCH   7   9
ENDBRANCH   6   7
ENDBRANCH   5   6
ENDBRANCH   4   5
ENDBRANCH   3   4
ENDBRANCH   2   3
ENDBRANCH   1   2
BRANCH   1  12
ATOM     12  C   UNL     1      16.934  29.529  71.327  1.00  0.00     0.000 C 
BRANCH  12  13
ATOM     13  C   UNL     1      15.429  29.690  71.058  1.00  0.00    -0.000 C 
BRANCH  13  14
ATOM     14  C   UNL     1      15.091  30.984  70.297  1.00  0.00    -0.000 C 
BRANCH  14  15
ATOM     15  C   UNL     1      14.132  30.807  69.106  1.00  0.00    -0.000 C 
BRANCH  15  16
ATOM     16  C   UNL     1      13.611  32.142  68.552  1.00  0.00    -0.000 C 
BRANCH  16  17
ATOM     17  C   UNL     1      12.801  31.923  67.266  1.00  0.00    -0.000 C 
BRANCH  17  18
ATOM     18  C   UNL     1      13.620  32.206  65.997  1.00  0.00    -0.003 C 
ATOM     19  C   UNL     1      14.341  30.965  65.470  1.00  0.00     0.004 C 
ENDBRANCH  17  18
ENDBRANCH  16  17
ENDBRANCH  15  16
ENDBRANCH  14  15
ENDBRANCH  13  14
ENDBRANCH  12  13
ENDBRANCH   1  12
TORSDOF 14
ENDMDL
MODEL 9
REMARK VINA RESULT:    -4.050     12.060     14.090
REMARK INTER + INTRA:          -9.616
REMARK INTER:                  -7.422
REMARK INTRA:                  -2.194
REMARK UNBOUND:                -2.252
REMARK SMILES CCCCCCCCCCCCCC[C@@H](C)C(=O)[O-]
REMARK SMILES IDX 9 1 10 2 11 3 12 4 13 5 14 6 15 7 16 8 17 9 18 10 19 11 8 12
REMARK SMILES IDX 7 13 6 14 5 15 4 16 3 17 2 18 1 19
REMARK H PARENT
REMARK Flexibility Score: inf
ROOT
ATOM      1  C   UNL     1      15.799  43.882  60.308  1.00  0.00     0.000 C 
ENDROOT
BRANCH   1   2
ATOM      2  C   UNL     1      17.198  43.285  60.571  1.00  0.00     0.000 C 
BRANCH   2   3
ATOM      3  C   UNL     1      17.291  42.479  61.877  1.00  0.00     0.000 C 
BRANCH   3   4
ATOM      4  C   UNL     1      18.740  42.175  62.290  1.00  0.00     0.000 C 
BRANCH   4   5
ATOM      5  C   UNL     1      19.761  42.633  61.236  1.00  0.00     0.001 C 
BRANCH   5   6
ATOM      6  C   UNL     1      20.756  41.521  60.859  1.00  0.00     0.009 C 
BRANCH   6   7
ATOM      7  C   UNL     1      22.218  41.890  61.196  1.00  0.00     0.032 C 
ATOM      8  C   UNL     1      22.591  43.300  60.718  1.00  0.00     0.014 C 
BRANCH   7   9
ATOM      9  C   UNL     1      22.444  41.782  62.680  1.00  0.00     0.044 C 
ATOM     10  O   UNL     1      22.102  40.743  63.306  1.00  0.00    -0.550 OA
ATOM     11  O   UNL     1      23.035  42.834  63.369  1.00  0.00    -0.550 OA
ENDBRANCH   7   9
ENDBRANCH   6   7
ENDBRANCH   5   6
ENDBRANCH   4   5
ENDBRANCH   3   4
ENDBRANCH   2   3
ENDBRANCH   1   2
BRANCH   1  12
ATOM     12  C   UNL     1      14.676  42.871  60.585  1.00  0.00     0.000 C 
BRANCH  12  13
ATOM     13  C   UNL     1      13.733  43.383  61.685  1.00  0.00    -0.000 C 
BRANCH  13  14
ATOM     14  C   UNL     1      14.274  44.632  62.405  1.00  0.00    -0.000 C 
BRANCH  14  15
ATOM     15  C   UNL     1      14.802  44.385  63.829  1.00  0.00    -0.000 C 
BRANCH  15  16
ATOM     16  C   UNL     1      15.799  45.457  64.294  1.00  0.00    -0.000 C 
BRANCH  16  17
ATOM     17  C   UNL     1      16.326  46.269  63.102  1.00  0.00    -0.000 C 
BRANCH  17  18
ATOM     18  C   UNL     1      17.821  46.029  62.839  1.00  0.00    -0.003 C 
ATOM     19  C   UNL     1      18.560  45.497  64.067  1.00  0.00     0.004 C 
ENDBRANCH  17  18
ENDBRANCH  16  17
ENDBRANCH  15  16
ENDBRANCH  14  15
ENDBRANCH  13  14
ENDBRANCH  12  13
ENDBRANCH   1  12
TORSDOF 14
ENDMDL
