MODEL 1
REMARK VINA RESULT:    -4.138      0.000      0.000
REMARK INTER + INTRA:          -8.125
REMARK INTER:                  -7.283
REMARK INTRA:                  -0.842
REMARK UNBOUND:                -0.842
REMARK SMILES CCCCCCCCCCCCCCC(=O)[O-]
REMARK SMILES IDX 9 1 10 2 11 3 12 4 13 5 14 6 15 7 16 8 17 9 8 10 7 11 6 12
REMARK SMILES IDX 5 13 4 14 3 15 2 16 1 17
REMARK H PARENT
REMARK Flexibility Score: inf
ROOT
ATOM      1  C   UNL     1       1.174   9.905   8.257  1.00  0.00     0.000 C 
ENDROOT
BRANCH   1   2
ATOM      2  C   UNL     1       2.464   9.093   8.047  1.00  0.00     0.000 C 
BRANCH   2   3
ATOM      3  C   UNL     1       3.126   8.688   9.374  1.00  0.00     0.000 C 
BRANCH   3   4
ATOM      4  C   UNL     1       4.661   8.641   9.282  1.00  0.00     0.000 C 
BRANCH   4   5
ATOM      5  C   UNL     1       5.220   9.584   8.200  1.00  0.00     0.006 C 
BRANCH   5   6
ATOM      6  C   UNL     1       6.395   8.999   7.400  1.00  0.00     0.053 C 
BRANCH   6   7
ATOM      7  C   UNL     1       6.005   8.671   5.991  1.00  0.00     0.041 C 
ATOM      8  O   UNL     1       6.664   9.139   5.026  1.00  0.00    -0.550 OA
ATOM      9  O   UNL     1       4.893   7.876   5.745  1.00  0.00    -0.550 OA
ENDBRANCH   6   7
ENDBRANCH   5   6
ENDBRANCH   4   5
ENDBRANCH   3   4
ENDBRANCH   2   3
ENDBRANCH   1   2
BRANCH   1  10
ATOM     10  C   UNL     1       0.320   9.364   9.417  1.00  0.00     0.000 C 
BRANCH  10  11
ATOM     11  C   UNL     1      -1.176   9.294   9.063  1.00  0.00    -0.000 C 
BRANCH  11  12
ATOM     12  C   UNL     1      -1.485   9.860   7.665  1.00  0.00    -0.000 C 
BRANCH  12  13
ATOM     13  C   UNL     1      -2.719   9.248   6.970  1.00  0.00    -0.000 C 
BRANCH  13  14
ATOM     14  C   UNL     1      -2.595   7.753   6.618  1.00  0.00    -0.000 C 
BRANCH  14  15
ATOM     15  C   UNL     1      -2.209   7.457   5.155  1.00  0.00    -0.000 C 
BRANCH  15  16
ATOM     16  C   UNL     1      -2.566   6.042   4.666  1.00  0.00    -0.003 C 
ATOM     17  C   UNL     1      -3.274   5.205   5.731  1.00  0.00     0.004 C 
ENDBRANCH  15  16
ENDBRANCH  14  15
ENDBRANCH  13  14
ENDBRANCH  12  13
ENDBRANCH  11  12
ENDBRANCH  10  11
ENDBRANCH   1  10
TORSDOF 13
ENDMDL
MODEL 2
REMARK VINA RESULT:    -3.970      1.408      2.074
REMARK INTER + INTRA:          -7.830
REMARK INTER:                  -7.045
REMARK INTRA:                  -0.784
REMARK UNBOUND:                -0.842
REMARK SMILES CCCCCCCCCCCCCCC(=O)[O-]
REMARK SMILES IDX 9 1 10 2 11 3 12 4 13 5 14 6 15 7 16 8 17 9 8 10 7 11 6 12
REMARK SMILES IDX 5 13 4 14 3 15 2 16 1 17
REMARK H PARENT
REMARK Flexibility Score: inf
ROOT
ATOM      1  C   UNL     1      -0.448   8.993   9.035  1.00  0.00     0.000 C 
ENDROOT
BRANCH   1   2
ATOM      2  C   UNL     1       0.653   9.457  10.005  1.00  0.00     0.000 C 
BRANCH   2   3
ATOM      3  C   UNL     1       1.954   9.833   9.278  1.00  0.00     0.000 C 
BRANCH   3   4
ATOM      4  C   UNL     1       2.145   9.058   7.963  1.00  0.00     0.000 C 
BRANCH   4   5
ATOM      5  C   UNL     1       3.435   8.217   7.950  1.00  0.00     0.006 C 
BRANCH   5   6
ATOM      6  C   UNL     1       4.529   8.726   8.902  1.00  0.00     0.053 C 
BRANCH   6   7
ATOM      7  C   UNL     1       5.903   8.426   8.386  1.00  0.00     0.041 C 
ATOM      8  O   UNL     1       6.089   8.226   7.157  1.00  0.00    -0.550 OA
ATOM      9  O   UNL     1       6.973   8.336   9.268  1.00  0.00    -0.550 OA
ENDBRANCH   6   7
ENDBRANCH   5   6
ENDBRANCH   4   5
ENDBRANCH   3   4
ENDBRANCH   2   3
ENDBRANCH   1   2
BRANCH   1  10
ATOM     10  C   UNL     1      -1.762   8.647   9.758  1.00  0.00     0.000 C 
BRANCH  10  11
ATOM     11  C   UNL     1      -2.991   8.783   8.842  1.00  0.00    -0.000 C 
BRANCH  11  12
ATOM     12  C   UNL     1      -2.776   9.796   7.703  1.00  0.00    -0.000 C 
BRANCH  12  13
ATOM     13  C   UNL     1      -2.604   9.177   6.301  1.00  0.00    -0.000 C 
BRANCH  13  14
ATOM     14  C   UNL     1      -2.592   7.637   6.264  1.00  0.00    -0.000 C 
BRANCH  14  15
ATOM     15  C   UNL     1      -2.196   7.019   4.908  1.00  0.00    -0.000 C 
BRANCH  15  16
ATOM     16  C   UNL     1      -2.595   5.544   4.729  1.00  0.00    -0.003 C 
ATOM     17  C   UNL     1      -3.349   4.980   5.933  1.00  0.00     0.004 C 
ENDBRANCH  15  16
ENDBRANCH  14  15
ENDBRANCH  13  14
ENDBRANCH  12  13
ENDBRANCH  11  12
ENDBRANCH  10  11
ENDBRANCH   1  10
TORSDOF 13
ENDMDL
MODEL 3
REMARK VINA RESULT:    -3.867     12.282     13.709
REMARK INTER + INTRA:          -7.648
REMARK INTER:                  -6.888
REMARK INTRA:                  -0.760
REMARK UNBOUND:                -0.842
REMARK SMILES CCCCCCCCCCCCCCC(=O)[O-]
REMARK SMILES IDX 9 1 10 2 11 3 12 4 13 5 14 6 15 7 16 8 17 9 8 10 7 11 6 12
REMARK SMILES IDX 5 13 4 14 3 15 2 16 1 17
REMARK H PARENT
REMARK Flexibility Score: inf
ROOT
ATOM      1  C   UNL     1       8.258  -4.882   7.142  1.00  0.00     0.000 C 
ENDROOT
BRANCH   1   2
ATOM      2  C   UNL     1       9.179  -4.448   8.295  1.00  0.00     0.000 C 
BRANCH   2   3
ATOM      3  C   UNL     1       8.392  -3.937   9.513  1.00  0.00     0.000 C 
BRANCH   3   4
ATOM      4  C   UNL     1       9.005  -2.665  10.125  1.00  0.00     0.000 C 
BRANCH   4   5
ATOM      5  C   UNL     1       8.425  -1.374   9.518  1.00  0.00     0.006 C 
BRANCH   5   6
ATOM      6  C   UNL     1       9.032  -0.082  10.087  1.00  0.00     0.053 C 
BRANCH   6   7
ATOM      7  C   UNL     1       8.178   1.113   9.793  1.00  0.00     0.041 C 
ATOM      8  O   UNL     1       8.711   2.216   9.498  1.00  0.00    -0.550 OA
ATOM      9  O   UNL     1       6.795   1.018   9.878  1.00  0.00    -0.550 OA
ENDBRANCH   6   7
ENDBRANCH   5   6
ENDBRANCH   4   5
ENDBRANCH   3   4
ENDBRANCH   2   3
ENDBRANCH   1   2
BRANCH   1  10
ATOM     10  C   UNL     1       6.864  -5.313   7.631  1.00  0.00     0.000 C 
BRANCH  10  11
ATOM     11  C   UNL     1       6.238  -6.401   6.742  1.00  0.00    -0.000 C 
BRANCH  11  12
ATOM     12  C   UNL     1       5.219  -7.274   7.496  1.00  0.00    -0.000 C 
BRANCH  12  13
ATOM     13  C   UNL     1       4.677  -6.664   8.805  1.00  0.00    -0.000 C 
BRANCH  13  14
ATOM     14  C   UNL     1       3.222  -6.161   8.737  1.00  0.00    -0.000 C 
BRANCH  14  15
ATOM     15  C   UNL     1       2.902  -5.249   7.535  1.00  0.00    -0.000 C 
BRANCH  15  16
ATOM     16  C   UNL     1       1.491  -4.638   7.545  1.00  0.00    -0.003 C 
ATOM     17  C   UNL     1       0.384  -5.691   7.497  1.00  0.00     0.004 C 
ENDBRANCH  15  16
ENDBRANCH  14  15
ENDBRANCH  13  14
ENDBRANCH  12  13
ENDBRANCH  11  12
ENDBRANCH  10  11
ENDBRANCH   1  10
TORSDOF 13
ENDMDL
MODEL 4
REMARK VINA RESULT:    -3.743     13.082     15.654
REMARK INTER + INTRA:          -7.429
REMARK INTER:                  -6.559
REMARK INTRA:                  -0.870
REMARK UNBOUND:                -0.842
REMARK SMILES CCCCCCCCCCCCCCC(=O)[O-]
REMARK SMILES IDX 9 1 10 2 11 3 12 4 13 5 14 6 15 7 16 8 17 9 8 10 7 11 6 12
REMARK SMILES IDX 5 13 4 14 3 15 2 16 1 17
REMARK H PARENT
REMARK Flexibility Score: inf
ROOT
ATOM      1  C   UNL     1       6.732  -5.447   7.583  1.00  0.00     0.000 C 
ENDROOT
BRANCH   1   2
ATOM      2  C   UNL     1       6.111  -6.570   6.734  1.00  0.00     0.000 C 
BRANCH   2   3
ATOM      3  C   UNL     1       5.210  -7.502   7.560  1.00  0.00     0.000 C 
BRANCH   3   4
ATOM      4  C   UNL     1       5.144  -7.102   9.044  1.00  0.00     0.000 C 
BRANCH   4   5
ATOM      5  C   UNL     1       3.731  -6.672   9.482  1.00  0.00     0.006 C 
BRANCH   5   6
ATOM      6  C   UNL     1       2.609  -7.149   8.547  1.00  0.00     0.053 C 
BRANCH   6   7
ATOM      7  C   UNL     1       1.946  -6.007   7.841  1.00  0.00     0.041 C 
ATOM      8  O   UNL     1       2.554  -4.914   7.693  1.00  0.00    -0.550 OA
ATOM      9  O   UNL     1       0.643  -6.138   7.376  1.00  0.00    -0.550 OA
ENDBRANCH   6   7
ENDBRANCH   5   6
ENDBRANCH   4   5
ENDBRANCH   3   4
ENDBRANCH   2   3
ENDBRANCH   1   2
BRANCH   1  10
ATOM     10  C   UNL     1       8.143  -5.061   7.109  1.00  0.00     0.000 C 
BRANCH  10  11
ATOM     11  C   UNL     1       9.087  -4.732   8.278  1.00  0.00    -0.000 C 
BRANCH  11  12
ATOM     12  C   UNL     1       8.338  -4.234   9.528  1.00  0.00    -0.000 C 
BRANCH  12  13
ATOM     13  C   UNL     1       8.859  -2.908  10.118  1.00  0.00    -0.000 C 
BRANCH  13  14
ATOM     14  C   UNL     1       8.472  -1.644   9.325  1.00  0.00    -0.000 C 
BRANCH  14  15
ATOM     15  C   UNL     1       8.636  -0.317  10.092  1.00  0.00    -0.000 C 
BRANCH  15  16
ATOM     16  C   UNL     1       7.607   0.768   9.734  1.00  0.00    -0.003 C 
ATOM     17  C   UNL     1       8.207   2.174   9.710  1.00  0.00     0.004 C 
ENDBRANCH  15  16
ENDBRANCH  14  15
ENDBRANCH  13  14
ENDBRANCH  12  13
ENDBRANCH  11  12
ENDBRANCH  10  11
ENDBRANCH   1  10
TORSDOF 13
ENDMDL
MODEL 5
REMARK VINA RESULT:    -3.659     14.735     17.008
REMARK INTER + INTRA:          -7.282
REMARK INTER:                  -5.853
REMARK INTRA:                  -1.428
REMARK UNBOUND:                -0.842
REMARK SMILES CCCCCCCCCCCCCCC(=O)[O-]
REMARK SMILES IDX 9 1 10 2 11 3 12 4 13 5 14 6 15 7 16 8 17 9 8 10 7 11 6 12
REMARK SMILES IDX 5 13 4 14 3 15 2 16 1 17
REMARK H PARENT
REMARK Flexibility Score: inf
ROOT
ATOM      1  C   UNL     1       5.308  -9.149   8.660  1.00  0.00     0.000 C 
ENDROOT
BRANCH   1   2
ATOM      2  C   UNL     1       4.194  -8.749   9.643  1.00  0.00     0.000 C 
BRANCH   2   3
ATOM      3  C   UNL     1       3.096  -7.906   8.974  1.00  0.00     0.000 C 
BRANCH   3   4
ATOM      4  C   UNL     1       3.358  -6.394   9.086  1.00  0.00     0.000 C 
BRANCH   4   5
ATOM      5  C   UNL     1       2.865  -5.612   7.854  1.00  0.00     0.006 C 
BRANCH   5   6
ATOM      6  C   UNL     1       1.559  -4.834   8.082  1.00  0.00     0.053 C 
BRANCH   6   7
ATOM      7  C   UNL     1       0.420  -5.412   7.299  1.00  0.00     0.041 C 
ATOM      8  O   UNL     1      -0.424  -4.653   6.754  1.00  0.00    -0.550 OA
ATOM      9  O   UNL     1       0.274  -6.789   7.198  1.00  0.00    -0.550 OA
ENDBRANCH   6   7
ENDBRANCH   5   6
ENDBRANCH   4   5
ENDBRANCH   3   4
ENDBRANCH   2   3
ENDBRANCH   1   2
BRANCH   1  10
ATOM     10  C   UNL     1       4.808  -9.239   7.208  1.00  0.00     0.000 C 
BRANCH  10  11
ATOM     11  C   UNL     1       5.960  -9.366   6.196  1.00  0.00    -0.000 C 
BRANCH  11  12
ATOM     12  C   UNL     1       6.517  -8.001   5.750  1.00  0.00    -0.000 C 
BRANCH  12  13
ATOM     13  C   UNL     1       5.852  -6.777   6.411  1.00  0.00    -0.000 C 
BRANCH  13  14
ATOM     14  C   UNL     1       6.829  -5.744   7.005  1.00  0.00    -0.000 C 
BRANCH  14  15
ATOM     15  C   UNL     1       6.809  -5.635   8.542  1.00  0.00    -0.000 C 
BRANCH  15  16
ATOM     16  C   UNL     1       8.103  -5.088   9.169  1.00  0.00    -0.003 C 
ATOM     17  C   UNL     1       9.123  -4.632   8.126  1.00  0.00     0.004 C 
ENDBRANCH  15  16
ENDBRANCH  14  15
ENDBRANCH  13  14
ENDBRANCH  12  13
ENDBRANCH  11  12
ENDBRANCH  10  11
ENDBRANCH   1  10
TORSDOF 13
ENDMDL
MODEL 6
REMARK VINA RESULT:    -3.525     13.335     15.844
REMARK INTER + INTRA:          -7.047
REMARK INTER:                  -6.593
REMARK INTRA:                  -0.454
REMARK UNBOUND:                -0.842
REMARK SMILES CCCCCCCCCCCCCCC(=O)[O-]
REMARK SMILES IDX 9 1 10 2 11 3 12 4 13 5 14 6 15 7 16 8 17 9 8 10 7 11 6 12
REMARK SMILES IDX 5 13 4 14 3 15 2 16 1 17
REMARK H PARENT
REMARK Flexibility Score: inf
ROOT
ATOM      1  C   UNL     1       5.452  -6.529   6.812  1.00  0.00     0.000 C 
ENDROOT
BRANCH   1   2
ATOM      2  C   UNL     1       5.331  -7.893   7.516  1.00  0.00     0.000 C 
BRANCH   2   3
ATOM      3  C   UNL     1       3.930  -8.129   8.102  1.00  0.00     0.000 C 
BRANCH   3   4
ATOM      4  C   UNL     1       3.722  -7.417   9.450  1.00  0.00     0.000 C 
BRANCH   4   5
ATOM      5  C   UNL     1       3.907  -5.891   9.351  1.00  0.00     0.006 C 
BRANCH   5   6
ATOM      6  C   UNL     1       2.590  -5.101   9.279  1.00  0.00     0.053 C 
BRANCH   6   7
ATOM      7  C   UNL     1       1.957  -5.193   7.924  1.00  0.00     0.041 C 
ATOM      8  O   UNL     1       2.249  -4.358   7.029  1.00  0.00    -0.550 OA
ATOM      9  O   UNL     1       1.018  -6.183   7.662  1.00  0.00    -0.550 OA
ENDBRANCH   6   7
ENDBRANCH   5   6
ENDBRANCH   4   5
ENDBRANCH   3   4
ENDBRANCH   2   3
ENDBRANCH   1   2
BRANCH   1  10
ATOM     10  C   UNL     1       6.898  -6.007   6.783  1.00  0.00     0.000 C 
BRANCH  10  11
ATOM     11  C   UNL     1       7.285  -5.274   8.079  1.00  0.00    -0.000 C 
BRANCH  11  12
ATOM     12  C   UNL     1       8.689  -4.644   8.012  1.00  0.00    -0.000 C 
BRANCH  12  13
ATOM     13  C   UNL     1       9.303  -4.268   9.376  1.00  0.00    -0.000 C 
BRANCH  13  14
ATOM     14  C   UNL     1       8.684  -3.028  10.050  1.00  0.00    -0.000 C 
BRANCH  14  15
ATOM     15  C   UNL     1       8.551  -1.790   9.142  1.00  0.00    -0.000 C 
BRANCH  15  16
ATOM     16  C   UNL     1       8.740  -0.440   9.857  1.00  0.00    -0.003 C 
ATOM     17  C   UNL     1       7.504   0.455   9.776  1.00  0.00     0.004 C 
ENDBRANCH  15  16
ENDBRANCH  14  15
ENDBRANCH  13  14
ENDBRANCH  12  13
ENDBRANCH  11  12
ENDBRANCH  10  11
ENDBRANCH   1  10
TORSDOF 13
ENDMDL
MODEL 7
REMARK VINA RESULT:    -3.492      3.265      7.652
REMARK INTER + INTRA:          -6.988
REMARK INTER:                  -6.402
REMARK INTRA:                  -0.587
REMARK UNBOUND:                -0.842
REMARK SMILES CCCCCCCCCCCCCCC(=O)[O-]
REMARK SMILES IDX 9 1 10 2 11 3 12 4 13 5 14 6 15 7 16 8 17 9 8 10 7 11 6 12
REMARK SMILES IDX 5 13 4 14 3 15 2 16 1 17
REMARK H PARENT
REMARK Flexibility Score: inf
ROOT
ATOM      1  C   UNL     1      -0.044   9.036   8.673  1.00  0.00     0.000 C 
ENDROOT
BRANCH   1   2
ATOM      2  C   UNL     1      -1.523   9.346   8.961  1.00  0.00     0.000 C 
BRANCH   2   3
ATOM      3  C   UNL     1      -2.223  10.025   7.773  1.00  0.00     0.000 C 
BRANCH   3   4
ATOM      4  C   UNL     1      -2.943   9.021   6.856  1.00  0.00     0.000 C 
BRANCH   4   5
ATOM      5  C   UNL     1      -1.967   8.096   6.105  1.00  0.00     0.006 C 
BRANCH   5   6
ATOM      6  C   UNL     1      -2.604   7.321   4.940  1.00  0.00     0.053 C 
BRANCH   6   7
ATOM      7  C   UNL     1      -2.839   5.883   5.288  1.00  0.00     0.041 C 
ATOM      8  O   UNL     1      -2.436   4.970   4.520  1.00  0.00    -0.550 OA
ATOM      9  O   UNL     1      -3.533   5.552   6.445  1.00  0.00    -0.550 OA
ENDBRANCH   6   7
ENDBRANCH   5   6
ENDBRANCH   4   5
ENDBRANCH   3   4
ENDBRANCH   2   3
ENDBRANCH   1   2
BRANCH   1  10
ATOM     10  C   UNL     1       0.902   9.643   9.723  1.00  0.00     0.000 C 
BRANCH  10  11
ATOM     11  C   UNL     1       2.374   9.275   9.473  1.00  0.00    -0.000 C 
BRANCH  11  12
ATOM     12  C   UNL     1       2.565   8.394   8.224  1.00  0.00    -0.000 C 
BRANCH  12  13
ATOM     13  C   UNL     1       3.735   8.805   7.307  1.00  0.00    -0.000 C 
BRANCH  13  14
ATOM     14  C   UNL     1       4.972   7.889   7.378  1.00  0.00    -0.000 C 
BRANCH  14  15
ATOM     15  C   UNL     1       5.913   8.153   8.570  1.00  0.00    -0.000 C 
BRANCH  15  16
ATOM     16  C   UNL     1       6.709   9.467   8.487  1.00  0.00    -0.003 C 
ATOM     17  C   UNL     1       6.917  10.125   9.851  1.00  0.00     0.004 C 
ENDBRANCH  15  16
ENDBRANCH  14  15
ENDBRANCH  13  14
ENDBRANCH  12  13
ENDBRANCH  11  12
ENDBRANCH  10  11
ENDBRANCH   1  10
TORSDOF 13
ENDMDL
MODEL 8
REMARK VINA RESULT:    -3.468     14.696     16.526
REMARK INTER + INTRA:          -6.946
REMARK INTER:                  -5.294
REMARK INTRA:                  -1.652
REMARK UNBOUND:                -0.842
REMARK SMILES CCCCCCCCCCCCCCC(=O)[O-]
REMARK SMILES IDX 9 1 10 2 11 3 12 4 13 5 14 6 15 7 16 8 17 9 8 10 7 11 6 12
REMARK SMILES IDX 5 13 4 14 3 15 2 16 1 17
REMARK H PARENT
REMARK Flexibility Score: inf
ROOT
ATOM      1  C   UNL     1       6.792  -6.449  10.118  1.00  0.00     0.000 C 
ENDROOT
BRANCH   1   2
ATOM      2  C   UNL     1       5.397  -7.098  10.125  1.00  0.00     0.000 C 
BRANCH   2   3
ATOM      3  C   UNL     1       4.285  -6.104   9.752  1.00  0.00     0.000 C 
BRANCH   3   4
ATOM      4  C   UNL     1       3.485  -6.546   8.515  1.00  0.00     0.000 C 
BRANCH   4   5
ATOM      5  C   UNL     1       2.918  -5.357   7.717  1.00  0.00     0.006 C 
BRANCH   5   6
ATOM      6  C   UNL     1       1.522  -4.901   8.172  1.00  0.00     0.053 C 
BRANCH   6   7
ATOM      7  C   UNL     1       0.437  -5.485   7.319  1.00  0.00     0.041 C 
ATOM      8  O   UNL     1      -0.391  -4.731   6.743  1.00  0.00    -0.550 OA
ATOM      9  O   UNL     1       0.322  -6.863   7.188  1.00  0.00    -0.550 OA
ENDBRANCH   6   7
ENDBRANCH   5   6
ENDBRANCH   4   5
ENDBRANCH   3   4
ENDBRANCH   2   3
ENDBRANCH   1   2
BRANCH   1  10
ATOM     10  C   UNL     1       6.849  -5.186   9.242  1.00  0.00     0.000 C 
BRANCH  10  11
ATOM     11  C   UNL     1       7.964  -5.253   8.183  1.00  0.00    -0.000 C 
BRANCH  11  12
ATOM     12  C   UNL     1       7.418  -5.385   6.750  1.00  0.00    -0.000 C 
BRANCH  12  13
ATOM     13  C   UNL     1       6.343  -6.475   6.557  1.00  0.00    -0.000 C 
BRANCH  13  14
ATOM     14  C   UNL     1       6.677  -7.542   5.497  1.00  0.00    -0.000 C 
BRANCH  14  15
ATOM     15  C   UNL     1       5.985  -8.904   5.701  1.00  0.00    -0.000 C 
BRANCH  15  16
ATOM     16  C   UNL     1       5.707  -9.275   7.168  1.00  0.00    -0.003 C 
ATOM     17  C   UNL     1       4.340  -9.929   7.368  1.00  0.00     0.004 C 
ENDBRANCH  15  16
ENDBRANCH  14  15
ENDBRANCH  13  14
ENDBRANCH  12  13
ENDBRANCH  11  12
ENDBRANCH  10  11
ENDBRANCH   1  10
TORSDOF 13
ENDMDL
MODEL 9
REMARK VINA RESULT:    -3.227     14.735     17.098
REMARK INTER + INTRA:          -6.522
REMARK INTER:                  -5.194
REMARK INTRA:                  -1.327
REMARK UNBOUND:                -0.842
REMARK SMILES CCCCCCCCCCCCCCC(=O)[O-]
REMARK SMILES IDX 9 1 10 2 11 3 12 4 13 5 14 6 15 7 16 8 17 9 8 10 7 11 6 12
REMARK SMILES IDX 5 13 4 14 3 15 2 16 1 17
REMARK H PARENT
REMARK Flexibility Score: inf
ROOT
ATOM      1  C   UNL     1       5.987  -8.794   5.688  1.00  0.00     0.000 C 
ENDROOT
BRANCH   1   2
ATOM      2  C   UNL     1       5.583  -9.229   7.108  1.00  0.00     0.000 C 
BRANCH   2   3
ATOM      3  C   UNL     1       4.210  -9.920   7.142  1.00  0.00     0.000 C 
BRANCH   3   4
ATOM      4  C   UNL     1       3.266  -9.313   8.194  1.00  0.00     0.000 C 
BRANCH   4   5
ATOM      5  C   UNL     1       3.429  -7.787   8.329  1.00  0.00     0.006 C 
BRANCH   5   6
ATOM      6  C   UNL     1       2.214  -6.978   7.845  1.00  0.00     0.053 C 
BRANCH   6   7
ATOM      7  C   UNL     1       2.398  -5.508   8.066  1.00  0.00     0.041 C 
ATOM      8  O   UNL     1       3.068  -5.093   9.049  1.00  0.00    -0.550 OA
ATOM      9  O   UNL     1       1.802  -4.596   7.205  1.00  0.00    -0.550 OA
ENDBRANCH   6   7
ENDBRANCH   5   6
ENDBRANCH   4   5
ENDBRANCH   3   4
ENDBRANCH   2   3
ENDBRANCH   1   2
BRANCH   1  10
ATOM     10  C   UNL     1       6.685  -7.423   5.669  1.00  0.00     0.000 C 
BRANCH  10  11
ATOM     11  C   UNL     1       5.942  -6.373   6.514  1.00  0.00    -0.000 C 
BRANCH  11  12
ATOM     12  C   UNL     1       6.837  -5.734   7.591  1.00  0.00    -0.000 C 
BRANCH  12  13
ATOM     13  C   UNL     1       6.421  -6.030   9.047  1.00  0.00    -0.000 C 
BRANCH  13  14
ATOM     14  C   UNL     1       7.241  -5.293  10.123  1.00  0.00    -0.000 C 
BRANCH  14  15
ATOM     15  C   UNL     1       8.766  -5.507  10.043  1.00  0.00    -0.000 C 
BRANCH  15  16
ATOM     16  C   UNL     1       9.579  -4.246   9.702  1.00  0.00    -0.003 C 
ATOM     17  C   UNL     1       8.753  -2.963   9.792  1.00  0.00     0.004 C 
ENDBRANCH  15  16
ENDBRANCH  14  15
ENDBRANCH  13  14
ENDBRANCH  12  13
ENDBRANCH  11  12
ENDBRANCH  10  11
ENDBRANCH   1  10
TORSDOF 13
ENDMDL
