MODEL 1
REMARK VINA RESULT:    -4.179      0.000      0.000
REMARK INTER + INTRA:         -10.366
REMARK INTER:                  -7.843
REMARK INTRA:                  -2.523
REMARK UNBOUND:                -2.523
REMARK SMILES O=C([O-])CCCCCCCCCCCCCCC(=O)[O-]
REMARK SMILES IDX 10 1 9 2 8 3 7 4 6 5 5 6 4 7 2 8 1 9 3 10 11 11 12 12 13 13
REMARK SMILES IDX 14 14 15 15 16 16 17 17 18 18 19 19 20 20
REMARK H PARENT
REMARK Flexibility Score: inf
ROOT
ATOM      1  C   UNL     1      -8.086   6.637  15.901  1.00  0.00     0.000 C 
ENDROOT
BRANCH   1   2
ATOM      2  C   UNL     1      -6.897   7.412  16.487  1.00  0.00     0.000 C 
BRANCH   2   3
ATOM      3  C   UNL     1      -6.155   6.570  17.532  1.00  0.00     0.000 C 
BRANCH   3   4
ATOM      4  C   UNL     1      -5.104   5.669  16.865  1.00  0.00     0.000 C 
BRANCH   4   5
ATOM      5  C   UNL     1      -5.478   4.180  16.923  1.00  0.00     0.000 C 
BRANCH   5   6
ATOM      6  C   UNL     1      -4.369   3.269  16.367  1.00  0.00     0.006 C 
BRANCH   6   7
ATOM      7  C   UNL     1      -3.288   4.062  15.619  1.00  0.00     0.053 C 
BRANCH   7   8
ATOM      8  C   UNL     1      -1.911   3.692  16.079  1.00  0.00     0.041 C 
ATOM      9  O   UNL     1      -1.745   2.719  16.860  1.00  0.00    -0.550 OA
ATOM     10  O   UNL     1      -0.810   4.401  15.617  1.00  0.00    -0.550 OA
ENDBRANCH   7   8
ENDBRANCH   6   7
ENDBRANCH   5   6
ENDBRANCH   4   5
ENDBRANCH   3   4
ENDBRANCH   2   3
ENDBRANCH   1   2
BRANCH   1  11
ATOM     11  C   UNL     1      -8.401   7.035  14.448  1.00  0.00     0.000 C 
BRANCH  11  12
ATOM     12  C   UNL     1      -8.219   5.911  13.407  1.00  0.00     0.000 C 
BRANCH  12  13
ATOM     13  C   UNL     1      -7.359   4.720  13.869  1.00  0.00     0.000 C 
BRANCH  13  14
ATOM     14  C   UNL     1      -6.074   4.555  13.039  1.00  0.00     0.000 C 
BRANCH  14  15
ATOM     15  C   UNL     1      -5.593   5.881  12.428  1.00  0.00     0.000 C 
BRANCH  15  16
ATOM     16  C   UNL     1      -4.666   6.668  13.371  1.00  0.00     0.006 C 
BRANCH  16  17
ATOM     17  C   UNL     1      -4.980   8.170  13.370  1.00  0.00     0.053 C 
BRANCH  17  18
ATOM     18  C   UNL     1      -3.850   8.973  13.937  1.00  0.00     0.041 C 
ATOM     19  O   UNL     1      -2.660   8.697  13.636  1.00  0.00    -0.550 OA
ATOM     20  O   UNL     1      -4.115  10.051  14.773  1.00  0.00    -0.550 OA
ENDBRANCH  17  18
ENDBRANCH  16  17
ENDBRANCH  15  16
ENDBRANCH  14  15
ENDBRANCH  13  14
ENDBRANCH  12  13
ENDBRANCH  11  12
ENDBRANCH   1  11
TORSDOF 15
ENDMDL
MODEL 2
REMARK VINA RESULT:    -4.091      1.103      4.975
REMARK INTER + INTRA:         -10.201
REMARK INTER:                  -7.925
REMARK INTRA:                  -2.277
REMARK UNBOUND:                -2.523
REMARK SMILES O=C([O-])CCCCCCCCCCCCCCC(=O)[O-]
REMARK SMILES IDX 10 1 9 2 8 3 7 4 6 5 5 6 4 7 2 8 1 9 3 10 11 11 12 12 13 13
REMARK SMILES IDX 14 14 15 15 16 16 17 17 18 18 19 19 20 20
REMARK H PARENT
REMARK Flexibility Score: inf
ROOT
ATOM      1  C   UNL     1      -8.596   6.900  14.659  1.00  0.00     0.000 C 
ENDROOT
BRANCH   1   2
ATOM      2  C   UNL     1      -8.612   5.931  13.468  1.00  0.00     0.000 C 
BRANCH   2   3
ATOM      3  C   UNL     1      -7.684   4.737  13.719  1.00  0.00     0.000 C 
BRANCH   3   4
ATOM      4  C   UNL     1      -6.535   4.709  12.699  1.00  0.00     0.000 C 
BRANCH   4   5
ATOM      5  C   UNL     1      -5.372   5.634  13.091  1.00  0.00     0.000 C 
BRANCH   5   6
ATOM      6  C   UNL     1      -5.164   6.781  12.086  1.00  0.00     0.006 C 
BRANCH   6   7
ATOM      7  C   UNL     1      -4.682   8.068  12.768  1.00  0.00     0.053 C 
BRANCH   7   8
ATOM      8  C   UNL     1      -3.187   8.160  12.787  1.00  0.00     0.041 C 
ATOM      9  O   UNL     1      -2.578   8.764  11.865  1.00  0.00    -0.550 OA
ATOM     10  O   UNL     1      -2.468   7.607  13.839  1.00  0.00    -0.550 OA
ENDBRANCH   7   8
ENDBRANCH   6   7
ENDBRANCH   5   6
ENDBRANCH   4   5
ENDBRANCH   3   4
ENDBRANCH   2   3
ENDBRANCH   1   2
BRANCH   1  11
ATOM     11  C   UNL     1      -7.845   6.336  15.878  1.00  0.00     0.000 C 
BRANCH  11  12
ATOM     12  C   UNL     1      -6.653   7.186  16.364  1.00  0.00     0.000 C 
BRANCH  12  13
ATOM     13  C   UNL     1      -5.402   6.389  16.776  1.00  0.00     0.000 C 
BRANCH  13  14
ATOM     14  C   UNL     1      -5.654   4.873  16.842  1.00  0.00     0.000 C 
BRANCH  14  15
ATOM     15  C   UNL     1      -4.467   4.054  16.311  1.00  0.00     0.000 C 
BRANCH  15  16
ATOM     16  C   UNL     1      -3.272   4.935  15.907  1.00  0.00     0.006 C 
BRANCH  16  17
ATOM     17  C   UNL     1      -2.048   4.100  15.506  1.00  0.00     0.053 C 
BRANCH  17  18
ATOM     18  C   UNL     1      -1.190   3.771  16.689  1.00  0.00     0.041 C 
ATOM     19  O   UNL     1      -0.440   4.648  17.193  1.00  0.00    -0.550 OA
ATOM     20  O   UNL     1      -1.245   2.505  17.256  1.00  0.00    -0.550 OA
ENDBRANCH  17  18
ENDBRANCH  16  17
ENDBRANCH  15  16
ENDBRANCH  14  15
ENDBRANCH  13  14
ENDBRANCH  12  13
ENDBRANCH  11  12
ENDBRANCH   1  11
TORSDOF 15
ENDMDL
MODEL 3
REMARK VINA RESULT:    -4.049      4.974      8.037
REMARK INTER + INTRA:         -10.122
REMARK INTER:                  -9.361
REMARK INTRA:                  -0.762
REMARK UNBOUND:                -2.523
REMARK SMILES O=C([O-])CCCCCCCCCCCCCCC(=O)[O-]
REMARK SMILES IDX 10 1 9 2 8 3 7 4 6 5 5 6 4 7 2 8 1 9 3 10 11 11 12 12 13 13
REMARK SMILES IDX 14 14 15 15 16 16 17 17 18 18 19 19 20 20
REMARK H PARENT
REMARK Flexibility Score: inf
ROOT
ATOM      1  C   UNL     1      -0.400   9.805  14.088  1.00  0.00     0.000 C 
ENDROOT
BRANCH   1   2
ATOM      2  C   UNL     1      -1.890   9.770  13.718  1.00  0.00     0.000 C 
BRANCH   2   3
ATOM      3  C   UNL     1      -2.361   8.331  13.475  1.00  0.00     0.000 C 
BRANCH   3   4
ATOM      4  C   UNL     1      -3.880   8.210  13.676  1.00  0.00     0.000 C 
BRANCH   4   5
ATOM      5  C   UNL     1      -4.449   9.320  14.573  1.00  0.00     0.000 C 
BRANCH   5   6
ATOM      6  C   UNL     1      -5.441   8.784  15.621  1.00  0.00     0.006 C 
BRANCH   6   7
ATOM      7  C   UNL     1      -5.309   7.269  15.822  1.00  0.00     0.053 C 
BRANCH   7   8
ATOM      8  C   UNL     1      -6.591   6.659  16.300  1.00  0.00     0.041 C 
ATOM      9  O   UNL     1      -6.938   5.518  15.897  1.00  0.00    -0.550 OA
ATOM     10  O   UNL     1      -7.386   7.337  17.216  1.00  0.00    -0.550 OA
ENDBRANCH   7   8
ENDBRANCH   6   7
ENDBRANCH   5   6
ENDBRANCH   4   5
ENDBRANCH   3   4
ENDBRANCH   2   3
ENDBRANCH   1   2
BRANCH   1  11
ATOM     11  C   UNL     1      -0.082  10.829  15.191  1.00  0.00     0.000 C 
BRANCH  11  12
ATOM     12  C   UNL     1       1.293  10.656  15.870  1.00  0.00     0.000 C 
BRANCH  12  13
ATOM     13  C   UNL     1       1.629   9.222  16.317  1.00  0.00     0.000 C 
BRANCH  13  14
ATOM     14  C   UNL     1       1.802   9.097  17.841  1.00  0.00     0.000 C 
BRANCH  14  15
ATOM     15  C   UNL     1       0.825   8.087  18.464  1.00  0.00     0.000 C 
BRANCH  15  16
ATOM     16  C   UNL     1       0.807   8.148  20.001  1.00  0.00     0.006 C 
BRANCH  16  17
ATOM     17  C   UNL     1       0.061   6.957  20.618  1.00  0.00     0.053 C 
BRANCH  17  18
ATOM     18  C   UNL     1       0.240   6.902  22.104  1.00  0.00     0.041 C 
ATOM     19  O   UNL     1       1.393   6.823  22.604  1.00  0.00    -0.550 OA
ATOM     20  O   UNL     1      -0.868   6.972  22.940  1.00  0.00    -0.550 OA
ENDBRANCH  17  18
ENDBRANCH  16  17
ENDBRANCH  15  16
ENDBRANCH  14  15
ENDBRANCH  13  14
ENDBRANCH  12  13
ENDBRANCH  11  12
ENDBRANCH   1  11
TORSDOF 15
ENDMDL
MODEL 4
REMARK VINA RESULT:    -3.937      1.232      5.432
REMARK INTER + INTRA:          -9.912
REMARK INTER:                  -7.312
REMARK INTRA:                  -2.601
REMARK UNBOUND:                -2.523
REMARK SMILES O=C([O-])CCCCCCCCCCCCCCC(=O)[O-]
REMARK SMILES IDX 10 1 9 2 8 3 7 4 6 5 5 6 4 7 2 8 1 9 3 10 11 11 12 12 13 13
REMARK SMILES IDX 14 14 15 15 16 16 17 17 18 18 19 19 20 20
REMARK H PARENT
REMARK Flexibility Score: inf
ROOT
ATOM      1  C   UNL     1      -8.452   5.165  13.889  1.00  0.00     0.000 C 
ENDROOT
BRANCH   1   2
ATOM      2  C   UNL     1      -7.193   4.738  13.120  1.00  0.00     0.000 C 
BRANCH   2   3
ATOM      3  C   UNL     1      -7.172   5.356  11.717  1.00  0.00     0.000 C 
BRANCH   3   4
ATOM      4  C   UNL     1      -5.859   6.116  11.471  1.00  0.00     0.000 C 
BRANCH   4   5
ATOM      5  C   UNL     1      -5.124   6.464  12.774  1.00  0.00     0.000 C 
BRANCH   5   6
ATOM      6  C   UNL     1      -5.043   7.982  13.020  1.00  0.00     0.006 C 
BRANCH   6   7
ATOM      7  C   UNL     1      -4.297   8.320  14.317  1.00  0.00     0.053 C 
BRANCH   7   8
ATOM      8  C   UNL     1      -4.465   9.759  14.695  1.00  0.00     0.041 C 
ATOM      9  O   UNL     1      -3.525  10.576  14.509  1.00  0.00    -0.550 OA
ATOM     10  O   UNL     1      -5.671  10.205  15.221  1.00  0.00    -0.550 OA
ENDBRANCH   7   8
ENDBRANCH   6   7
ENDBRANCH   5   6
ENDBRANCH   4   5
ENDBRANCH   3   4
ENDBRANCH   2   3
ENDBRANCH   1   2
BRANCH   1  11
ATOM     11  C   UNL     1      -8.729   6.676  13.792  1.00  0.00     0.000 C 
BRANCH  11  12
ATOM     12  C   UNL     1      -8.165   7.521  14.952  1.00  0.00     0.000 C 
BRANCH  12  13
ATOM     13  C   UNL     1      -7.835   6.738  16.236  1.00  0.00     0.000 C 
BRANCH  13  14
ATOM     14  C   UNL     1      -6.607   7.295  16.977  1.00  0.00     0.000 C 
BRANCH  14  15
ATOM     15  C   UNL     1      -5.449   6.286  17.040  1.00  0.00     0.000 C 
BRANCH  15  16
ATOM     16  C   UNL     1      -5.852   4.888  16.539  1.00  0.00     0.006 C 
BRANCH  16  17
ATOM     17  C   UNL     1      -4.713   4.195  15.780  1.00  0.00     0.053 C 
BRANCH  17  18
ATOM     18  C   UNL     1      -4.111   3.081  16.579  1.00  0.00     0.041 C 
ATOM     19  O   UNL     1      -2.865   2.903  16.584  1.00  0.00    -0.550 OA
ATOM     20  O   UNL     1      -4.926   2.259  17.348  1.00  0.00    -0.550 OA
ENDBRANCH  17  18
ENDBRANCH  16  17
ENDBRANCH  15  16
ENDBRANCH  14  15
ENDBRANCH  13  14
ENDBRANCH  12  13
ENDBRANCH  11  12
ENDBRANCH   1  11
TORSDOF 15
ENDMDL
MODEL 5
REMARK VINA RESULT:    -3.905      1.605      5.247
REMARK INTER + INTRA:          -9.852
REMARK INTER:                  -7.808
REMARK INTRA:                  -2.044
REMARK UNBOUND:                -2.523
REMARK SMILES O=C([O-])CCCCCCCCCCCCCCC(=O)[O-]
REMARK SMILES IDX 10 1 9 2 8 3 7 4 6 5 5 6 4 7 2 8 1 9 3 10 11 11 12 12 13 13
REMARK SMILES IDX 14 14 15 15 16 16 17 17 18 18 19 19 20 20
REMARK H PARENT
REMARK Flexibility Score: inf
ROOT
ATOM      1  C   UNL     1      -8.573   5.781  13.519  1.00  0.00     0.000 C 
ENDROOT
BRANCH   1   2
ATOM      2  C   UNL     1      -7.525   4.671  13.689  1.00  0.00     0.000 C 
BRANCH   2   3
ATOM      3  C   UNL     1      -6.449   4.762  12.600  1.00  0.00     0.000 C 
BRANCH   3   4
ATOM      4  C   UNL     1      -6.967   5.537  11.379  1.00  0.00     0.000 C 
BRANCH   4   5
ATOM      5  C   UNL     1      -5.987   6.622  10.908  1.00  0.00     0.000 C 
BRANCH   5   6
ATOM      6  C   UNL     1      -4.923   6.960  11.968  1.00  0.00     0.006 C 
BRANCH   6   7
ATOM      7  C   UNL     1      -3.765   7.781  11.386  1.00  0.00     0.053 C 
BRANCH   7   8
ATOM      8  C   UNL     1      -2.869   8.315  12.461  1.00  0.00     0.041 C 
ATOM      9  O   UNL     1      -2.813   7.743  13.581  1.00  0.00    -0.550 OA
ATOM     10  O   UNL     1      -2.070   9.424  12.215  1.00  0.00    -0.550 OA
ENDBRANCH   7   8
ENDBRANCH   6   7
ENDBRANCH   5   6
ENDBRANCH   4   5
ENDBRANCH   3   4
ENDBRANCH   2   3
ENDBRANCH   1   2
BRANCH   1  11
ATOM     11  C   UNL     1      -9.134   6.282  14.861  1.00  0.00     0.000 C 
BRANCH  11  12
ATOM     12  C   UNL     1      -8.153   7.112  15.713  1.00  0.00     0.000 C 
BRANCH  12  13
ATOM     13  C   UNL     1      -7.092   7.895  14.918  1.00  0.00     0.000 C 
BRANCH  13  14
ATOM     14  C   UNL     1      -5.689   7.803  15.544  1.00  0.00     0.000 C 
BRANCH  14  15
ATOM     15  C   UNL     1      -5.671   6.958  16.827  1.00  0.00     0.000 C 
BRANCH  15  16
ATOM     16  C   UNL     1      -4.807   5.692  16.692  1.00  0.00     0.006 C 
BRANCH  16  17
ATOM     17  C   UNL     1      -5.649   4.410  16.742  1.00  0.00     0.053 C 
BRANCH  17  18
ATOM     18  C   UNL     1      -4.791   3.182  16.729  1.00  0.00     0.041 C 
ATOM     19  O   UNL     1      -5.259   2.076  17.104  1.00  0.00    -0.550 OA
ATOM     20  O   UNL     1      -3.482   3.255  16.269  1.00  0.00    -0.550 OA
ENDBRANCH  17  18
ENDBRANCH  16  17
ENDBRANCH  15  16
ENDBRANCH  14  15
ENDBRANCH  13  14
ENDBRANCH  12  13
ENDBRANCH  11  12
ENDBRANCH   1  11
TORSDOF 15
ENDMDL
MODEL 6
REMARK VINA RESULT:    -3.887      2.410      5.718
REMARK INTER + INTRA:          -9.818
REMARK INTER:                  -7.411
REMARK INTRA:                  -2.408
REMARK UNBOUND:                -2.523
REMARK SMILES O=C([O-])CCCCCCCCCCCCCCC(=O)[O-]
REMARK SMILES IDX 10 1 9 2 8 3 7 4 6 5 5 6 4 7 2 8 1 9 3 10 11 11 12 12 13 13
REMARK SMILES IDX 14 14 15 15 16 16 17 17 18 18 19 19 20 20
REMARK H PARENT
REMARK Flexibility Score: inf
ROOT
ATOM      1  C   UNL     1      -5.714   8.280  14.866  1.00  0.00     0.000 C 
ENDROOT
BRANCH   1   2
ATOM      2  C   UNL     1      -4.312   8.385  14.248  1.00  0.00     0.000 C 
BRANCH   2   3
ATOM      3  C   UNL     1      -4.051   7.226  13.279  1.00  0.00     0.000 C 
BRANCH   3   4
ATOM      4  C   UNL     1      -5.319   6.878  12.484  1.00  0.00     0.000 C 
BRANCH   4   5
ATOM      5  C   UNL     1      -5.657   5.380  12.535  1.00  0.00     0.000 C 
BRANCH   5   6
ATOM      6  C   UNL     1      -7.121   5.090  12.159  1.00  0.00     0.006 C 
BRANCH   6   7
ATOM      7  C   UNL     1      -8.108   5.917  12.995  1.00  0.00     0.053 C 
BRANCH   7   8
ATOM      8  C   UNL     1      -9.001   6.754  12.132  1.00  0.00     0.041 C 
ATOM      9  O   UNL     1      -8.920   6.679  10.878  1.00  0.00    -0.550 OA
ATOM     10  O   UNL     1      -9.946   7.591  12.712  1.00  0.00    -0.550 OA
ENDBRANCH   7   8
ENDBRANCH   6   7
ENDBRANCH   5   6
ENDBRANCH   4   5
ENDBRANCH   3   4
ENDBRANCH   2   3
ENDBRANCH   1   2
BRANCH   1  11
ATOM     11  C   UNL     1      -5.683   7.889  16.354  1.00  0.00     0.000 C 
BRANCH  11  12
ATOM     12  C   UNL     1      -6.710   6.816  16.770  1.00  0.00     0.000 C 
BRANCH  12  13
ATOM     13  C   UNL     1      -6.473   5.415  16.179  1.00  0.00     0.000 C 
BRANCH  13  14
ATOM     14  C   UNL     1      -5.308   4.671  16.855  1.00  0.00     0.000 C 
BRANCH  14  15
ATOM     15  C   UNL     1      -4.656   3.632  15.929  1.00  0.00     0.000 C 
BRANCH  15  16
ATOM     16  C   UNL     1      -3.409   4.175  15.210  1.00  0.00     0.006 C 
BRANCH  16  17
ATOM     17  C   UNL     1      -2.570   5.086  16.117  1.00  0.00     0.053 C 
BRANCH  17  18
ATOM     18  C   UNL     1      -1.318   4.407  16.579  1.00  0.00     0.041 C 
ATOM     19  O   UNL     1      -0.354   5.084  17.022  1.00  0.00    -0.550 OA
ATOM     20  O   UNL     1      -1.230   3.020  16.553  1.00  0.00    -0.550 OA
ENDBRANCH  17  18
ENDBRANCH  16  17
ENDBRANCH  15  16
ENDBRANCH  14  15
ENDBRANCH  13  14
ENDBRANCH  12  13
ENDBRANCH  11  12
ENDBRANCH   1  11
TORSDOF 15
ENDMDL
MODEL 7
REMARK VINA RESULT:    -3.882      1.141      5.217
REMARK INTER + INTRA:          -9.809
REMARK INTER:                  -7.406
REMARK INTRA:                  -2.403
REMARK UNBOUND:                -2.523
REMARK SMILES O=C([O-])CCCCCCCCCCCCCCC(=O)[O-]
REMARK SMILES IDX 10 1 9 2 8 3 7 4 6 5 5 6 4 7 2 8 1 9 3 10 11 11 12 12 13 13
REMARK SMILES IDX 14 14 15 15 16 16 17 17 18 18 19 19 20 20
REMARK H PARENT
REMARK Flexibility Score: inf
ROOT
ATOM      1  C   UNL     1      -8.931   6.205  15.095  1.00  0.00     0.000 C 
ENDROOT
BRANCH   1   2
ATOM      2  C   UNL     1      -8.329   5.331  13.985  1.00  0.00     0.000 C 
BRANCH   2   3
ATOM      3  C   UNL     1      -7.429   6.161  13.061  1.00  0.00     0.000 C 
BRANCH   3   4
ATOM      4  C   UNL     1      -6.022   5.549  12.970  1.00  0.00     0.000 C 
BRANCH   4   5
ATOM      5  C   UNL     1      -4.968   6.561  12.494  1.00  0.00     0.000 C 
BRANCH   5   6
ATOM      6  C   UNL     1      -5.271   7.996  12.961  1.00  0.00     0.006 C 
BRANCH   6   7
ATOM      7  C   UNL     1      -4.398   8.415  14.151  1.00  0.00     0.053 C 
BRANCH   7   8
ATOM      8  C   UNL     1      -4.864   9.704  14.754  1.00  0.00     0.041 C 
ATOM      9  O   UNL     1      -5.300   9.728  15.935  1.00  0.00    -0.550 OA
ATOM     10  O   UNL     1      -4.786  10.883  14.025  1.00  0.00    -0.550 OA
ENDBRANCH   7   8
ENDBRANCH   6   7
ENDBRANCH   5   6
ENDBRANCH   4   5
ENDBRANCH   3   4
ENDBRANCH   2   3
ENDBRANCH   1   2
BRANCH   1  11
ATOM     11  C   UNL     1      -7.938   7.247  15.641  1.00  0.00     0.000 C 
BRANCH  11  12
ATOM     12  C   UNL     1      -7.168   6.818  16.906  1.00  0.00     0.000 C 
BRANCH  12  13
ATOM     13  C   UNL     1      -5.739   6.299  16.661  1.00  0.00     0.000 C 
BRANCH  13  14
ATOM     14  C   UNL     1      -5.570   4.815  17.035  1.00  0.00     0.000 C 
BRANCH  14  15
ATOM     15  C   UNL     1      -4.652   4.063  16.059  1.00  0.00     0.000 C 
BRANCH  15  16
ATOM     16  C   UNL     1      -3.420   4.888  15.646  1.00  0.00     0.006 C 
BRANCH  16  17
ATOM     17  C   UNL     1      -2.206   4.002  15.339  1.00  0.00     0.053 C 
BRANCH  17  18
ATOM     18  C   UNL     1      -1.423   3.687  16.577  1.00  0.00     0.041 C 
ATOM     19  O   UNL     1      -1.420   2.519  17.047  1.00  0.00    -0.550 OA
ATOM     20  O   UNL     1      -0.667   4.678  17.190  1.00  0.00    -0.550 OA
ENDBRANCH  17  18
ENDBRANCH  16  17
ENDBRANCH  15  16
ENDBRANCH  14  15
ENDBRANCH  13  14
ENDBRANCH  12  13
ENDBRANCH  11  12
ENDBRANCH   1  11
TORSDOF 15
ENDMDL
MODEL 8
REMARK VINA RESULT:    -3.870      2.149      5.719
REMARK INTER + INTRA:          -9.786
REMARK INTER:                  -7.195
REMARK INTRA:                  -2.591
REMARK UNBOUND:                -2.523
REMARK SMILES O=C([O-])CCCCCCCCCCCCCCC(=O)[O-]
REMARK SMILES IDX 10 1 9 2 8 3 7 4 6 5 5 6 4 7 2 8 1 9 3 10 11 11 12 12 13 13
REMARK SMILES IDX 14 14 15 15 16 16 17 17 18 18 19 19 20 20
REMARK H PARENT
REMARK Flexibility Score: inf
ROOT
ATOM      1  C   UNL     1      -4.418   8.210  13.982  1.00  0.00     0.000 C 
ENDROOT
BRANCH   1   2
ATOM      2  C   UNL     1      -4.407   6.904  13.174  1.00  0.00     0.000 C 
BRANCH   2   3
ATOM      3  C   UNL     1      -5.417   6.964  12.022  1.00  0.00     0.000 C 
BRANCH   3   4
ATOM      4  C   UNL     1      -6.361   5.751  12.056  1.00  0.00     0.000 C 
BRANCH   4   5
ATOM      5  C   UNL     1      -6.274   4.971  13.377  1.00  0.00     0.000 C 
BRANCH   5   6
ATOM      6  C   UNL     1      -7.618   4.923  14.125  1.00  0.00     0.006 C 
BRANCH   6   7
ATOM      7  C   UNL     1      -8.700   5.758  13.428  1.00  0.00     0.053 C 
BRANCH   7   8
ATOM      8  C   UNL     1      -9.293   6.779  14.349  1.00  0.00     0.041 C 
ATOM      9  O   UNL     1      -9.479   7.959  13.951  1.00  0.00    -0.550 OA
ATOM     10  O   UNL     1      -9.671   6.420  15.637  1.00  0.00    -0.550 OA
ENDBRANCH   7   8
ENDBRANCH   6   7
ENDBRANCH   5   6
ENDBRANCH   4   5
ENDBRANCH   3   4
ENDBRANCH   2   3
ENDBRANCH   1   2
BRANCH   1  11
ATOM     11  C   UNL     1      -5.839   8.736  14.250  1.00  0.00     0.000 C 
BRANCH  11  12
ATOM     12  C   UNL     1      -6.415   8.387  15.637  1.00  0.00     0.000 C 
BRANCH  12  13
ATOM     13  C   UNL     1      -5.502   7.529  16.532  1.00  0.00     0.000 C 
BRANCH  13  14
ATOM     14  C   UNL     1      -6.233   6.323  17.147  1.00  0.00     0.000 C 
BRANCH  14  15
ATOM     15  C   UNL     1      -5.410   5.028  17.059  1.00  0.00     0.000 C 
BRANCH  15  16
ATOM     16  C   UNL     1      -4.045   5.237  16.382  1.00  0.00     0.006 C 
BRANCH  16  17
ATOM     17  C   UNL     1      -3.406   3.911  15.946  1.00  0.00     0.053 C 
BRANCH  17  18
ATOM     18  C   UNL     1      -1.943   3.869  16.264  1.00  0.00     0.041 C 
ATOM     19  O   UNL     1      -1.248   4.916  16.195  1.00  0.00    -0.550 OA
ATOM     20  O   UNL     1      -1.355   2.679  16.672  1.00  0.00    -0.550 OA
ENDBRANCH  17  18
ENDBRANCH  16  17
ENDBRANCH  15  16
ENDBRANCH  14  15
ENDBRANCH  13  14
ENDBRANCH  12  13
ENDBRANCH  11  12
ENDBRANCH   1  11
TORSDOF 15
ENDMDL
MODEL 9
REMARK VINA RESULT:    -3.849      2.103      4.173
REMARK INTER + INTRA:          -9.747
REMARK INTER:                  -7.133
REMARK INTRA:                  -2.615
REMARK UNBOUND:                -2.523
REMARK SMILES O=C([O-])CCCCCCCCCCCCCCC(=O)[O-]
REMARK SMILES IDX 10 1 9 2 8 3 7 4 6 5 5 6 4 7 2 8 1 9 3 10 11 11 12 12 13 13
REMARK SMILES IDX 14 14 15 15 16 16 17 17 18 18 19 19 20 20
REMARK H PARENT
REMARK Flexibility Score: inf
ROOT
ATOM      1  C   UNL     1      -6.673   6.603  10.301  1.00  0.00     0.000 C 
ENDROOT
BRANCH   1   2
ATOM      2  C   UNL     1      -5.426   7.047  11.081  1.00  0.00     0.000 C 
BRANCH   2   3
ATOM      3  C   UNL     1      -5.734   8.266  11.959  1.00  0.00     0.000 C 
BRANCH   3   4
ATOM      4  C   UNL     1      -5.217   8.056  13.391  1.00  0.00     0.000 C 
BRANCH   4   5
ATOM      5  C   UNL     1      -4.144   6.960  13.478  1.00  0.00     0.000 C 
BRANCH   5   6
ATOM      6  C   UNL     1      -4.093   6.291  14.863  1.00  0.00     0.006 C 
BRANCH   6   7
ATOM      7  C   UNL     1      -4.049   4.760  14.766  1.00  0.00     0.053 C 
BRANCH   7   8
ATOM      8  C   UNL     1      -2.905   4.188  15.545  1.00  0.00     0.041 C 
ATOM      9  O   UNL     1      -1.745   4.655  15.401  1.00  0.00    -0.550 OA
ATOM     10  O   UNL     1      -3.126   3.161  16.454  1.00  0.00    -0.550 OA
ENDBRANCH   7   8
ENDBRANCH   6   7
ENDBRANCH   5   6
ENDBRANCH   4   5
ENDBRANCH   3   4
ENDBRANCH   2   3
ENDBRANCH   1   2
BRANCH   1  11
ATOM     11  C   UNL     1      -7.259   5.277  10.817  1.00  0.00     0.000 C 
BRANCH  11  12
ATOM     12  C   UNL     1      -6.622   4.739  12.114  1.00  0.00     0.000 C 
BRANCH  12  13
ATOM     13  C   UNL     1      -7.516   4.813  13.366  1.00  0.00     0.000 C 
BRANCH  13  14
ATOM     14  C   UNL     1      -8.604   5.895  13.258  1.00  0.00     0.000 C 
BRANCH  14  15
ATOM     15  C   UNL     1      -8.673   6.789  14.507  1.00  0.00     0.000 C 
BRANCH  15  16
ATOM     16  C   UNL     1      -7.816   6.253  15.667  1.00  0.00     0.006 C 
BRANCH  16  17
ATOM     17  C   UNL     1      -7.159   7.384  16.470  1.00  0.00     0.053 C 
BRANCH  17  18
ATOM     18  C   UNL     1      -6.655   6.902  17.796  1.00  0.00     0.041 C 
ATOM     19  O   UNL     1      -7.147   7.350  18.864  1.00  0.00    -0.550 OA
ATOM     20  O   UNL     1      -5.663   5.931  17.850  1.00  0.00    -0.550 OA
ENDBRANCH  17  18
ENDBRANCH  16  17
ENDBRANCH  15  16
ENDBRANCH  14  15
ENDBRANCH  13  14
ENDBRANCH  12  13
ENDBRANCH  11  12
ENDBRANCH   1  11
TORSDOF 15
ENDMDL
