MODEL 1
REMARK VINA RESULT:    -5.143      0.000      0.000
REMARK INTER + INTRA:         -13.568
REMARK INTER:                 -11.157
REMARK INTRA:                  -2.411
REMARK UNBOUND:                -2.411
REMARK SMILES CCCCCCCCCCCCCCCCCCCCCC(=O)[O-]
REMARK SMILES IDX 12 1 11 2 10 3 9 4 8 5 7 6 6 7 5 8 4 9 3 10 2 11 1 12 13 13
REMARK SMILES IDX 14 14 15 15 16 16 17 17 18 18 19 19 20 20 21 21 22 22 23 23
REMARK SMILES IDX 24 24
REMARK H PARENT
REMARK Flexibility Score: inf
ROOT
ATOM      1  C   UNL     1      82.813  59.952  11.330  1.00  0.00     0.000 C 
ENDROOT
BRANCH   1   2
ATOM      2  C   UNL     1      83.146  61.139  10.413  1.00  0.00     0.000 C 
BRANCH   2   3
ATOM      3  C   UNL     1      84.540  61.731  10.686  1.00  0.00     0.000 C 
BRANCH   3   4
ATOM      4  C   UNL     1      84.831  63.024   9.893  1.00  0.00    -0.000 C 
BRANCH   4   5
ATOM      5  C   UNL     1      85.359  62.731   8.478  1.00  0.00    -0.000 C 
BRANCH   5   6
ATOM      6  C   UNL     1      86.173  61.429   8.403  1.00  0.00    -0.000 C 
BRANCH   6   7
ATOM      7  C   UNL     1      85.657  60.469   7.315  1.00  0.00    -0.000 C 
BRANCH   7   8
ATOM      8  C   UNL     1      86.441  59.147   7.273  1.00  0.00    -0.000 C 
BRANCH   8   9
ATOM      9  C   UNL     1      85.570  57.931   7.635  1.00  0.00    -0.000 C 
BRANCH   9  10
ATOM     10  C   UNL     1      84.934  58.046   9.033  1.00  0.00    -0.000 C 
BRANCH  10  11
ATOM     11  C   UNL     1      85.810  57.531  10.191  1.00  0.00    -0.003 C 
ATOM     12  C   UNL     1      86.377  58.656  11.059  1.00  0.00     0.004 C 
ENDBRANCH  10  11
ENDBRANCH   9  10
ENDBRANCH   8   9
ENDBRANCH   7   8
ENDBRANCH   6   7
ENDBRANCH   5   6
ENDBRANCH   4   5
ENDBRANCH   3   4
ENDBRANCH   2   3
ENDBRANCH   1   2
BRANCH   1  13
ATOM     13  C   UNL     1      81.761  59.008  10.723  1.00  0.00     0.000 C 
BRANCH  13  14
ATOM     14  C   UNL     1      80.436  59.720  10.403  1.00  0.00     0.000 C 
BRANCH  14  15
ATOM     15  C   UNL     1      79.349  58.709  10.002  1.00  0.00     0.000 C 
BRANCH  15  16
ATOM     16  C   UNL     1      79.516  57.348  10.697  1.00  0.00     0.000 C 
BRANCH  16  17
ATOM     17  C   UNL     1      78.379  56.368  10.366  1.00  0.00     0.000 C 
BRANCH  17  18
ATOM     18  C   UNL     1      77.565  56.798   9.131  1.00  0.00     0.000 C 
BRANCH  18  19
ATOM     19  C   UNL     1      77.888  56.030   7.833  1.00  0.00     0.000 C 
BRANCH  19  20
ATOM     20  C   UNL     1      78.125  54.514   8.007  1.00  0.00     0.006 C 
BRANCH  20  21
ATOM     21  C   UNL     1      79.572  54.063   7.751  1.00  0.00     0.053 C 
BRANCH  21  22
ATOM     22  C   UNL     1      80.105  53.228   8.874  1.00  0.00     0.041 C 
ATOM     23  O   UNL     1      80.725  53.768   9.827  1.00  0.00    -0.550 OA
ATOM     24  O   UNL     1      79.944  51.848   8.852  1.00  0.00    -0.550 OA
ENDBRANCH  21  22
ENDBRANCH  20  21
ENDBRANCH  19  20
ENDBRANCH  18  19
ENDBRANCH  17  18
ENDBRANCH  16  17
ENDBRANCH  15  16
ENDBRANCH  14  15
ENDBRANCH  13  14
ENDBRANCH   1  13
TORSDOF 20
ENDMDL
MODEL 2
REMARK VINA RESULT:    -5.046      5.192      9.816
REMARK INTER + INTRA:         -13.357
REMARK INTER:                 -12.427
REMARK INTRA:                  -0.930
REMARK UNBOUND:                -2.411
REMARK SMILES CCCCCCCCCCCCCCCCCCCCCC(=O)[O-]
REMARK SMILES IDX 12 1 11 2 10 3 9 4 8 5 7 6 6 7 5 8 4 9 3 10 2 11 1 12 13 13
REMARK SMILES IDX 14 14 15 15 16 16 17 17 18 18 19 19 20 20 21 21 22 22 23 23
REMARK SMILES IDX 24 24
REMARK H PARENT
REMARK Flexibility Score: inf
ROOT
ATOM      1  C   UNL     1      82.588  60.079  11.718  1.00  0.00     0.000 C 
ENDROOT
BRANCH   1   2
ATOM      2  C   UNL     1      81.833  59.176  10.729  1.00  0.00     0.000 C 
BRANCH   2   3
ATOM      3  C   UNL     1      80.446  59.728  10.357  1.00  0.00     0.000 C 
BRANCH   3   4
ATOM      4  C   UNL     1      79.422  58.634   9.986  1.00  0.00    -0.000 C 
BRANCH   4   5
ATOM      5  C   UNL     1      79.624  57.347  10.807  1.00  0.00    -0.000 C 
BRANCH   5   6
ATOM      6  C   UNL     1      78.958  56.119  10.162  1.00  0.00    -0.000 C 
BRANCH   6   7
ATOM      7  C   UNL     1      77.850  56.502   9.165  1.00  0.00    -0.000 C 
BRANCH   7   8
ATOM      8  C   UNL     1      77.925  55.692   7.860  1.00  0.00    -0.000 C 
BRANCH   8   9
ATOM      9  C   UNL     1      79.188  54.816   7.780  1.00  0.00    -0.000 C 
BRANCH   9  10
ATOM     10  C   UNL     1      78.936  53.361   8.219  1.00  0.00    -0.000 C 
BRANCH  10  11
ATOM     11  C   UNL     1      78.808  52.346   7.069  1.00  0.00    -0.003 C 
ATOM     12  C   UNL     1      79.238  50.932   7.466  1.00  0.00     0.004 C 
ENDBRANCH  10  11
ENDBRANCH   9  10
ENDBRANCH   8   9
ENDBRANCH   7   8
ENDBRANCH   6   7
ENDBRANCH   5   6
ENDBRANCH   4   5
ENDBRANCH   3   4
ENDBRANCH   2   3
ENDBRANCH   1   2
BRANCH   1  13
ATOM     13  C   UNL     1      83.845  60.717  11.102  1.00  0.00     0.000 C 
BRANCH  13  14
ATOM     14  C   UNL     1      85.099  59.845  11.272  1.00  0.00     0.000 C 
BRANCH  14  15
ATOM     15  C   UNL     1      85.244  59.364  12.725  1.00  0.00     0.000 C 
BRANCH  15  16
ATOM     16  C   UNL     1      85.453  60.519  13.717  1.00  0.00     0.000 C 
BRANCH  16  17
ATOM     17  C   UNL     1      84.338  60.607  14.772  1.00  0.00     0.000 C 
BRANCH  17  18
ATOM     18  C   UNL     1      84.885  60.798  16.199  1.00  0.00     0.000 C 
BRANCH  18  19
ATOM     19  C   UNL     1      85.507  62.181  16.483  1.00  0.00     0.000 C 
BRANCH  19  20
ATOM     20  C   UNL     1      84.901  63.352  15.678  1.00  0.00     0.006 C 
BRANCH  20  21
ATOM     21  C   UNL     1      85.308  64.746  16.181  1.00  0.00     0.053 C 
BRANCH  21  22
ATOM     22  C   UNL     1      84.182  65.437  16.888  1.00  0.00     0.041 C 
ATOM     23  O   UNL     1      84.116  65.417  18.145  1.00  0.00    -0.550 OA
ATOM     24  O   UNL     1      83.188  66.074  16.157  1.00  0.00    -0.550 OA
ENDBRANCH  21  22
ENDBRANCH  20  21
ENDBRANCH  19  20
ENDBRANCH  18  19
ENDBRANCH  17  18
ENDBRANCH  16  17
ENDBRANCH  15  16
ENDBRANCH  14  15
ENDBRANCH  13  14
ENDBRANCH   1  13
TORSDOF 20
ENDMDL
MODEL 3
REMARK VINA RESULT:    -5.027      5.881     10.567
REMARK INTER + INTRA:         -13.316
REMARK INTER:                  -9.837
REMARK INTRA:                  -3.479
REMARK UNBOUND:                -2.411
REMARK SMILES CCCCCCCCCCCCCCCCCCCCCC(=O)[O-]
REMARK SMILES IDX 12 1 11 2 10 3 9 4 8 5 7 6 6 7 5 8 4 9 3 10 2 11 1 12 13 13
REMARK SMILES IDX 14 14 15 15 16 16 17 17 18 18 19 19 20 20 21 21 22 22 23 23
REMARK SMILES IDX 24 24
REMARK H PARENT
REMARK Flexibility Score: inf
ROOT
ATOM      1  C   UNL     1      89.930  61.509   7.471  1.00  0.00     0.000 C 
ENDROOT
BRANCH   1   2
ATOM      2  C   UNL     1      89.299  60.113   7.347  1.00  0.00     0.000 C 
BRANCH   2   3
ATOM      3  C   UNL     1      87.977  59.985   8.124  1.00  0.00     0.000 C 
BRANCH   3   4
ATOM      4  C   UNL     1      86.785  59.538   7.250  1.00  0.00    -0.000 C 
BRANCH   4   5
ATOM      5  C   UNL     1      85.635  60.561   7.268  1.00  0.00    -0.000 C 
BRANCH   5   6
ATOM      6  C   UNL     1      86.097  61.982   6.902  1.00  0.00    -0.000 C 
BRANCH   6   7
ATOM      7  C   UNL     1      85.351  63.070   7.697  1.00  0.00    -0.000 C 
BRANCH   7   8
ATOM      8  C   UNL     1      85.877  63.215   9.134  1.00  0.00    -0.000 C 
BRANCH   8   9
ATOM      9  C   UNL     1      84.778  62.999  10.190  1.00  0.00    -0.000 C 
BRANCH   9  10
ATOM     10  C   UNL     1      83.455  62.494   9.582  1.00  0.00    -0.000 C 
BRANCH  10  11
ATOM     11  C   UNL     1      82.827  61.286  10.302  1.00  0.00    -0.003 C 
ATOM     12  C   UNL     1      83.784  60.100  10.429  1.00  0.00     0.004 C 
ENDBRANCH  10  11
ENDBRANCH   9  10
ENDBRANCH   8   9
ENDBRANCH   7   8
ENDBRANCH   6   7
ENDBRANCH   5   6
ENDBRANCH   4   5
ENDBRANCH   3   4
ENDBRANCH   2   3
ENDBRANCH   1   2
BRANCH   1  13
ATOM     13  C   UNL     1      91.369  61.561   6.928  1.00  0.00     0.000 C 
BRANCH  13  14
ATOM     14  C   UNL     1      92.127  62.823   7.371  1.00  0.00     0.000 C 
BRANCH  14  15
ATOM     15  C   UNL     1      91.865  63.132   8.854  1.00  0.00     0.000 C 
BRANCH  15  16
ATOM     16  C   UNL     1      91.747  64.638   9.137  1.00  0.00     0.000 C 
BRANCH  16  17
ATOM     17  C   UNL     1      90.486  64.995   9.941  1.00  0.00     0.000 C 
BRANCH  17  18
ATOM     18  C   UNL     1      89.187  64.722   9.161  1.00  0.00     0.000 C 
BRANCH  18  19
ATOM     19  C   UNL     1      89.012  65.548   7.870  1.00  0.00     0.000 C 
BRANCH  19  20
ATOM     20  C   UNL     1      88.644  64.732   6.611  1.00  0.00     0.006 C 
BRANCH  20  21
ATOM     21  C   UNL     1      89.677  64.813   5.476  1.00  0.00     0.053 C 
BRANCH  21  22
ATOM     22  C   UNL     1      89.257  64.016   4.280  1.00  0.00     0.041 C 
ATOM     23  O   UNL     1      89.350  64.508   3.125  1.00  0.00    -0.550 OA
ATOM     24  O   UNL     1      88.733  62.740   4.444  1.00  0.00    -0.550 OA
ENDBRANCH  21  22
ENDBRANCH  20  21
ENDBRANCH  19  20
ENDBRANCH  18  19
ENDBRANCH  17  18
ENDBRANCH  16  17
ENDBRANCH  15  16
ENDBRANCH  14  15
ENDBRANCH  13  14
ENDBRANCH   1  13
TORSDOF 20
ENDMDL
MODEL 4
REMARK VINA RESULT:    -5.023      5.117      7.439
REMARK INTER + INTRA:         -13.306
REMARK INTER:                 -10.750
REMARK INTRA:                  -2.556
REMARK UNBOUND:                -2.411
REMARK SMILES CCCCCCCCCCCCCCCCCCCCCC(=O)[O-]
REMARK SMILES IDX 12 1 11 2 10 3 9 4 8 5 7 6 6 7 5 8 4 9 3 10 2 11 1 12 13 13
REMARK SMILES IDX 14 14 15 15 16 16 17 17 18 18 19 19 20 20 21 21 22 22 23 23
REMARK SMILES IDX 24 24
REMARK H PARENT
REMARK Flexibility Score: inf
ROOT
ATOM      1  C   UNL     1      84.413  62.593  10.294  1.00  0.00     0.000 C 
ENDROOT
BRANCH   1   2
ATOM      2  C   UNL     1      85.379  63.138   9.230  1.00  0.00     0.000 C 
BRANCH   2   3
ATOM      3  C   UNL     1      85.053  62.632   7.814  1.00  0.00     0.000 C 
BRANCH   3   4
ATOM      4  C   UNL     1      86.145  61.721   7.214  1.00  0.00    -0.000 C 
BRANCH   4   5
ATOM      5  C   UNL     1      86.909  60.938   8.297  1.00  0.00    -0.000 C 
BRANCH   5   6
ATOM      6  C   UNL     1      88.006  60.032   7.715  1.00  0.00    -0.000 C 
BRANCH   6   7
ATOM      7  C   UNL     1      89.382  60.721   7.670  1.00  0.00    -0.000 C 
BRANCH   7   8
ATOM      8  C   UNL     1      90.089  60.543   6.316  1.00  0.00    -0.000 C 
BRANCH   8   9
ATOM      9  C   UNL     1      91.527  61.089   6.324  1.00  0.00    -0.000 C 
BRANCH   9  10
ATOM     10  C   UNL     1      91.613  62.542   6.830  1.00  0.00    -0.000 C 
BRANCH  10  11
ATOM     11  C   UNL     1      92.383  62.727   8.150  1.00  0.00    -0.003 C 
ATOM     12  C   UNL     1      91.725  63.737   9.091  1.00  0.00     0.004 C 
ENDBRANCH  10  11
ENDBRANCH   9  10
ENDBRANCH   8   9
ENDBRANCH   7   8
ENDBRANCH   6   7
ENDBRANCH   5   6
ENDBRANCH   4   5
ENDBRANCH   3   4
ENDBRANCH   2   3
ENDBRANCH   1   2
BRANCH   1  13
ATOM     13  C   UNL     1      83.278  61.747   9.690  1.00  0.00     0.000 C 
BRANCH  13  14
ATOM     14  C   UNL     1      82.601  60.834  10.724  1.00  0.00     0.000 C 
BRANCH  14  15
ATOM     15  C   UNL     1      82.811  59.352  10.372  1.00  0.00     0.000 C 
BRANCH  15  16
ATOM     16  C   UNL     1      84.137  59.097   9.637  1.00  0.00     0.000 C 
BRANCH  16  17
ATOM     17  C   UNL     1      85.178  58.385  10.517  1.00  0.00     0.000 C 
BRANCH  17  18
ATOM     18  C   UNL     1      86.003  59.367  11.370  1.00  0.00     0.000 C 
BRANCH  18  19
ATOM     19  C   UNL     1      85.658  59.380  12.874  1.00  0.00     0.000 C 
BRANCH  19  20
ATOM     20  C   UNL     1      85.172  60.737  13.425  1.00  0.00     0.006 C 
BRANCH  20  21
ATOM     21  C   UNL     1      84.671  60.690  14.878  1.00  0.00     0.053 C 
BRANCH  21  22
ATOM     22  C   UNL     1      85.454  61.606  15.769  1.00  0.00     0.041 C 
ATOM     23  O   UNL     1      85.989  62.644  15.300  1.00  0.00    -0.550 OA
ATOM     24  O   UNL     1      85.618  61.294  17.113  1.00  0.00    -0.550 OA
ENDBRANCH  21  22
ENDBRANCH  20  21
ENDBRANCH  19  20
ENDBRANCH  18  19
ENDBRANCH  17  18
ENDBRANCH  16  17
ENDBRANCH  15  16
ENDBRANCH  14  15
ENDBRANCH  13  14
ENDBRANCH   1  13
TORSDOF 20
ENDMDL
MODEL 5
REMARK VINA RESULT:    -4.938      3.239      8.297
REMARK INTER + INTRA:         -13.123
REMARK INTER:                 -10.305
REMARK INTRA:                  -2.818
REMARK UNBOUND:                -2.411
REMARK SMILES CCCCCCCCCCCCCCCCCCCCCC(=O)[O-]
REMARK SMILES IDX 12 1 11 2 10 3 9 4 8 5 7 6 6 7 5 8 4 9 3 10 2 11 1 12 13 13
REMARK SMILES IDX 14 14 15 15 16 16 17 17 18 18 19 19 20 20 21 21 22 22 23 23
REMARK SMILES IDX 24 24
REMARK H PARENT
REMARK Flexibility Score: inf
ROOT
ATOM      1  C   UNL     1      83.917  54.734   7.468  1.00  0.00     0.000 C 
ENDROOT
BRANCH   1   2
ATOM      2  C   UNL     1      82.608  54.604   8.264  1.00  0.00     0.000 C 
BRANCH   2   3
ATOM      3  C   UNL     1      82.845  54.404   9.771  1.00  0.00     0.000 C 
BRANCH   3   4
ATOM      4  C   UNL     1      81.617  54.742  10.643  1.00  0.00    -0.000 C 
BRANCH   4   5
ATOM      5  C   UNL     1      81.167  56.204  10.471  1.00  0.00    -0.000 C 
BRANCH   5   6
ATOM      6  C   UNL     1      79.744  56.456  10.998  1.00  0.00    -0.000 C 
BRANCH   6   7
ATOM      7  C   UNL     1      78.955  57.447  10.123  1.00  0.00    -0.000 C 
BRANCH   7   8
ATOM      8  C   UNL     1      77.718  56.805   9.473  1.00  0.00    -0.000 C 
BRANCH   8   9
ATOM      9  C   UNL     1      77.895  56.581   7.961  1.00  0.00    -0.000 C 
BRANCH   9  10
ATOM     10  C   UNL     1      77.830  55.093   7.565  1.00  0.00    -0.000 C 
BRANCH  10  11
ATOM     11  C   UNL     1      78.922  54.205   8.189  1.00  0.00    -0.003 C 
ATOM     12  C   UNL     1      79.014  52.823   7.539  1.00  0.00     0.004 C 
ENDBRANCH  10  11
ENDBRANCH   9  10
ENDBRANCH   8   9
ENDBRANCH   7   8
ENDBRANCH   6   7
ENDBRANCH   5   6
ENDBRANCH   4   5
ENDBRANCH   3   4
ENDBRANCH   2   3
ENDBRANCH   1   2
BRANCH   1  13
ATOM     13  C   UNL     1      84.973  55.584   8.193  1.00  0.00     0.000 C 
BRANCH  13  14
ATOM     14  C   UNL     1      84.838  57.085   7.894  1.00  0.00     0.000 C 
BRANCH  14  15
ATOM     15  C   UNL     1      84.564  57.882   9.180  1.00  0.00     0.000 C 
BRANCH  15  16
ATOM     16  C   UNL     1      85.183  59.289   9.151  1.00  0.00     0.000 C 
BRANCH  16  17
ATOM     17  C   UNL     1      86.099  59.560  10.356  1.00  0.00     0.000 C 
BRANCH  17  18
ATOM     18  C   UNL     1      86.430  58.282  11.149  1.00  0.00     0.000 C 
BRANCH  18  19
ATOM     19  C   UNL     1      87.883  57.781  11.008  1.00  0.00     0.000 C 
BRANCH  19  20
ATOM     20  C   UNL     1      88.134  56.814   9.831  1.00  0.00     0.006 C 
BRANCH  20  21
ATOM     21  C   UNL     1      88.662  57.490   8.555  1.00  0.00     0.053 C 
BRANCH  21  22
ATOM     22  C   UNL     1      88.525  56.603   7.355  1.00  0.00     0.041 C 
ATOM     23  O   UNL     1      88.396  57.104   6.208  1.00  0.00    -0.550 OA
ATOM     24  O   UNL     1      88.509  55.223   7.509  1.00  0.00    -0.550 OA
ENDBRANCH  21  22
ENDBRANCH  20  21
ENDBRANCH  19  20
ENDBRANCH  18  19
ENDBRANCH  17  18
ENDBRANCH  16  17
ENDBRANCH  15  16
ENDBRANCH  14  15
ENDBRANCH  13  14
ENDBRANCH   1  13
TORSDOF 20
ENDMDL
MODEL 6
REMARK VINA RESULT:    -4.896      4.194      8.502
REMARK INTER + INTRA:         -13.032
REMARK INTER:                 -11.132
REMARK INTRA:                  -1.900
REMARK UNBOUND:                -2.411
REMARK SMILES CCCCCCCCCCCCCCCCCCCCCC(=O)[O-]
REMARK SMILES IDX 12 1 11 2 10 3 9 4 8 5 7 6 6 7 5 8 4 9 3 10 2 11 1 12 13 13
REMARK SMILES IDX 14 14 15 15 16 16 17 17 18 18 19 19 20 20 21 21 22 22 23 23
REMARK SMILES IDX 24 24
REMARK H PARENT
REMARK Flexibility Score: inf
ROOT
ATOM      1  C   UNL     1      79.545  57.123  10.516  1.00  0.00     0.000 C 
ENDROOT
BRANCH   1   2
ATOM      2  C   UNL     1      78.504  56.094  10.045  1.00  0.00     0.000 C 
BRANCH   2   3
ATOM      3  C   UNL     1      77.734  56.555   8.796  1.00  0.00     0.000 C 
BRANCH   3   4
ATOM      4  C   UNL     1      78.039  55.717   7.535  1.00  0.00    -0.000 C 
BRANCH   4   5
ATOM      5  C   UNL     1      79.246  54.784   7.736  1.00  0.00    -0.000 C 
BRANCH   5   6
ATOM      6  C   UNL     1      78.854  53.296   7.744  1.00  0.00    -0.000 C 
BRANCH   6   7
ATOM      7  C   UNL     1      79.941  52.394   7.132  1.00  0.00    -0.000 C 
BRANCH   7   8
ATOM      8  C   UNL     1      81.160  52.230   8.055  1.00  0.00    -0.000 C 
BRANCH   8   9
ATOM      9  C   UNL     1      80.788  52.309   9.546  1.00  0.00    -0.000 C 
BRANCH   9  10
ATOM     10  C   UNL     1      81.822  53.088  10.381  1.00  0.00    -0.000 C 
BRANCH  10  11
ATOM     11  C   UNL     1      82.810  53.940   9.564  1.00  0.00    -0.003 C 
ATOM     12  C   UNL     1      82.689  55.438   9.850  1.00  0.00     0.004 C 
ENDBRANCH  10  11
ENDBRANCH   9  10
ENDBRANCH   8   9
ENDBRANCH   7   8
ENDBRANCH   6   7
ENDBRANCH   5   6
ENDBRANCH   4   5
ENDBRANCH   3   4
ENDBRANCH   2   3
ENDBRANCH   1   2
BRANCH   1  13
ATOM     13  C   UNL     1      79.183  58.562  10.112  1.00  0.00     0.000 C 
BRANCH  13  14
ATOM     14  C   UNL     1      80.331  59.555  10.354  1.00  0.00     0.000 C 
BRANCH  14  15
ATOM     15  C   UNL     1      81.628  58.819  10.728  1.00  0.00     0.000 C 
BRANCH  15  16
ATOM     16  C   UNL     1      82.729  59.769  11.228  1.00  0.00     0.000 C 
BRANCH  16  17
ATOM     17  C   UNL     1      84.028  59.656  10.413  1.00  0.00     0.000 C 
BRANCH  17  18
ATOM     18  C   UNL     1      85.281  59.989  11.244  1.00  0.00     0.000 C 
BRANCH  18  19
ATOM     19  C   UNL     1      85.021  60.820  12.518  1.00  0.00     0.000 C 
BRANCH  19  20
ATOM     20  C   UNL     1      85.276  60.081  13.849  1.00  0.00     0.006 C 
BRANCH  20  21
ATOM     21  C   UNL     1      84.454  60.607  15.036  1.00  0.00     0.053 C 
BRANCH  21  22
ATOM     22  C   UNL     1      85.258  61.516  15.915  1.00  0.00     0.041 C 
ATOM     23  O   UNL     1      85.661  61.118  17.039  1.00  0.00    -0.550 OA
ATOM     24  O   UNL     1      85.534  62.814  15.505  1.00  0.00    -0.550 OA
ENDBRANCH  21  22
ENDBRANCH  20  21
ENDBRANCH  19  20
ENDBRANCH  18  19
ENDBRANCH  17  18
ENDBRANCH  16  17
ENDBRANCH  15  16
ENDBRANCH  14  15
ENDBRANCH  13  14
ENDBRANCH   1  13
TORSDOF 20
ENDMDL
MODEL 7
REMARK VINA RESULT:    -4.868      6.065      9.467
REMARK INTER + INTRA:         -12.972
REMARK INTER:                  -9.187
REMARK INTRA:                  -3.784
REMARK UNBOUND:                -2.411
REMARK SMILES CCCCCCCCCCCCCCCCCCCCCC(=O)[O-]
REMARK SMILES IDX 12 1 11 2 10 3 9 4 8 5 7 6 6 7 5 8 4 9 3 10 2 11 1 12 13 13
REMARK SMILES IDX 14 14 15 15 16 16 17 17 18 18 19 19 20 20 21 21 22 22 23 23
REMARK SMILES IDX 24 24
REMARK H PARENT
REMARK Flexibility Score: inf
ROOT
ATOM      1  C   UNL     1      86.187  60.122   4.826  1.00  0.00     0.000 C 
ENDROOT
BRANCH   1   2
ATOM      2  C   UNL     1      86.527  61.458   5.506  1.00  0.00     0.000 C 
BRANCH   2   3
ATOM      3  C   UNL     1      85.963  61.561   6.934  1.00  0.00     0.000 C 
BRANCH   3   4
ATOM      4  C   UNL     1      86.710  62.577   7.824  1.00  0.00    -0.000 C 
BRANCH   4   5
ATOM      5  C   UNL     1      85.747  63.532   8.550  1.00  0.00    -0.000 C 
BRANCH   5   6
ATOM      6  C   UNL     1      84.268  63.167   8.332  1.00  0.00    -0.000 C 
BRANCH   6   7
ATOM      7  C   UNL     1      83.485  63.059   9.653  1.00  0.00    -0.000 C 
BRANCH   7   8
ATOM      8  C   UNL     1      83.374  61.611  10.157  1.00  0.00    -0.000 C 
BRANCH   8   9
ATOM      9  C   UNL     1      84.612  61.167  10.957  1.00  0.00    -0.000 C 
BRANCH   9  10
ATOM     10  C   UNL     1      85.342  59.971  10.316  1.00  0.00    -0.000 C 
BRANCH  10  11
ATOM     11  C   UNL     1      84.498  59.148   9.325  1.00  0.00    -0.003 C 
ATOM     12  C   UNL     1      83.857  57.915   9.963  1.00  0.00     0.004 C 
ENDBRANCH  10  11
ENDBRANCH   9  10
ENDBRANCH   8   9
ENDBRANCH   7   8
ENDBRANCH   6   7
ENDBRANCH   5   6
ENDBRANCH   4   5
ENDBRANCH   3   4
ENDBRANCH   2   3
ENDBRANCH   1   2
BRANCH   1  13
ATOM     13  C   UNL     1      85.590  59.093   5.802  1.00  0.00     0.000 C 
BRANCH  13  14
ATOM     14  C   UNL     1      86.324  57.743   5.767  1.00  0.00     0.000 C 
BRANCH  14  15
ATOM     15  C   UNL     1      87.734  57.865   6.368  1.00  0.00     0.000 C 
BRANCH  15  16
ATOM     16  C   UNL     1      87.718  58.359   7.824  1.00  0.00     0.000 C 
BRANCH  16  17
ATOM     17  C   UNL     1      88.801  59.414   8.106  1.00  0.00     0.000 C 
BRANCH  17  18
ATOM     18  C   UNL     1      89.493  59.911   6.823  1.00  0.00     0.000 C 
BRANCH  18  19
ATOM     19  C   UNL     1      90.668  60.885   7.047  1.00  0.00     0.000 C 
BRANCH  19  20
ATOM     20  C   UNL     1      90.307  62.384   6.960  1.00  0.00     0.006 C 
BRANCH  20  21
ATOM     21  C   UNL     1      90.398  63.139   8.295  1.00  0.00     0.053 C 
BRANCH  21  22
ATOM     22  C   UNL     1      91.427  64.227   8.254  1.00  0.00     0.041 C 
ATOM     23  O   UNL     1      91.682  64.818   7.172  1.00  0.00    -0.550 OA
ATOM     24  O   UNL     1      92.128  64.566   9.404  1.00  0.00    -0.550 OA
ENDBRANCH  21  22
ENDBRANCH  20  21
ENDBRANCH  19  20
ENDBRANCH  18  19
ENDBRANCH  17  18
ENDBRANCH  16  17
ENDBRANCH  15  16
ENDBRANCH  14  15
ENDBRANCH  13  14
ENDBRANCH   1  13
TORSDOF 20
ENDMDL
MODEL 8
REMARK VINA RESULT:    -4.843      4.173      7.230
REMARK INTER + INTRA:         -12.916
REMARK INTER:                 -10.011
REMARK INTRA:                  -2.905
REMARK UNBOUND:                -2.411
REMARK SMILES CCCCCCCCCCCCCCCCCCCCCC(=O)[O-]
REMARK SMILES IDX 12 1 11 2 10 3 9 4 8 5 7 6 6 7 5 8 4 9 3 10 2 11 1 12 13 13
REMARK SMILES IDX 14 14 15 15 16 16 17 17 18 18 19 19 20 20 21 21 22 22 23 23
REMARK SMILES IDX 24 24
REMARK H PARENT
REMARK Flexibility Score: inf
ROOT
ATOM      1  C   UNL     1      85.608  58.955   7.598  1.00  0.00     0.000 C 
ENDROOT
BRANCH   1   2
ATOM      2  C   UNL     1      84.832  57.936   8.448  1.00  0.00     0.000 C 
BRANCH   2   3
ATOM      3  C   UNL     1      84.712  58.359   9.923  1.00  0.00     0.000 C 
BRANCH   3   4
ATOM      4  C   UNL     1      83.265  58.661  10.366  1.00  0.00    -0.000 C 
BRANCH   4   5
ATOM      5  C   UNL     1      83.201  59.782  11.419  1.00  0.00    -0.000 C 
BRANCH   5   6
ATOM      6  C   UNL     1      83.981  61.040  10.998  1.00  0.00    -0.000 C 
BRANCH   6   7
ATOM      7  C   UNL     1      83.322  61.776   9.817  1.00  0.00    -0.000 C 
BRANCH   7   8
ATOM      8  C   UNL     1      84.123  63.011   9.370  1.00  0.00    -0.000 C 
BRANCH   8   9
ATOM      9  C   UNL     1      84.312  63.072   7.844  1.00  0.00    -0.000 C 
BRANCH   9  10
ATOM     10  C   UNL     1      85.599  63.811   7.430  1.00  0.00    -0.000 C 
BRANCH  10  11
ATOM     11  C   UNL     1      86.624  64.020   8.560  1.00  0.00    -0.003 C 
ATOM     12  C   UNL     1      87.963  63.333   8.289  1.00  0.00     0.004 C 
ENDBRANCH  10  11
ENDBRANCH   9  10
ENDBRANCH   8   9
ENDBRANCH   7   8
ENDBRANCH   6   7
ENDBRANCH   5   6
ENDBRANCH   4   5
ENDBRANCH   3   4
ENDBRANCH   2   3
ENDBRANCH   1   2
BRANCH   1  13
ATOM     13  C   UNL     1      86.445  59.925   8.449  1.00  0.00     0.000 C 
BRANCH  13  14
ATOM     14  C   UNL     1      87.933  59.544   8.497  1.00  0.00     0.000 C 
BRANCH  14  15
ATOM     15  C   UNL     1      88.250  58.427   7.490  1.00  0.00     0.000 C 
BRANCH  15  16
ATOM     16  C   UNL     1      88.798  57.158   8.161  1.00  0.00     0.000 C 
BRANCH  16  17
ATOM     17  C   UNL     1      88.703  57.207   9.695  1.00  0.00     0.000 C 
BRANCH  17  18
ATOM     18  C   UNL     1      87.645  56.239  10.255  1.00  0.00     0.000 C 
BRANCH  18  19
ATOM     19  C   UNL     1      87.519  54.898   9.502  1.00  0.00     0.000 C 
BRANCH  19  20
ATOM     20  C   UNL     1      87.934  53.649  10.308  1.00  0.00     0.006 C 
BRANCH  20  21
ATOM     21  C   UNL     1      88.742  52.615   9.508  1.00  0.00     0.053 C 
BRANCH  21  22
ATOM     22  C   UNL     1      88.226  51.223   9.711  1.00  0.00     0.041 C 
ATOM     23  O   UNL     1      87.527  50.946  10.721  1.00  0.00    -0.550 OA
ATOM     24  O   UNL     1      88.545  50.223   8.800  1.00  0.00    -0.550 OA
ENDBRANCH  21  22
ENDBRANCH  20  21
ENDBRANCH  19  20
ENDBRANCH  18  19
ENDBRANCH  17  18
ENDBRANCH  16  17
ENDBRANCH  15  16
ENDBRANCH  14  15
ENDBRANCH  13  14
ENDBRANCH   1  13
TORSDOF 20
ENDMDL
MODEL 9
REMARK VINA RESULT:    -4.830      6.691      9.485
REMARK INTER + INTRA:         -12.888
REMARK INTER:                  -9.111
REMARK INTRA:                  -3.777
REMARK UNBOUND:                -2.411
REMARK SMILES CCCCCCCCCCCCCCCCCCCCCC(=O)[O-]
REMARK SMILES IDX 12 1 11 2 10 3 9 4 8 5 7 6 6 7 5 8 4 9 3 10 2 11 1 12 13 13
REMARK SMILES IDX 14 14 15 15 16 16 17 17 18 18 19 19 20 20 21 21 22 22 23 23
REMARK SMILES IDX 24 24
REMARK H PARENT
REMARK Flexibility Score: inf
ROOT
ATOM      1  C   UNL     1      90.490  64.256   9.354  1.00  0.00     0.000 C 
ENDROOT
BRANCH   1   2
ATOM      2  C   UNL     1      90.210  65.616  10.013  1.00  0.00     0.000 C 
BRANCH   2   3
ATOM      3  C   UNL     1      90.066  66.756   8.990  1.00  0.00     0.000 C 
BRANCH   3   4
ATOM      4  C   UNL     1      91.352  67.589   8.804  1.00  0.00    -0.000 C 
BRANCH   4   5
ATOM      5  C   UNL     1      92.092  67.234   7.502  1.00  0.00    -0.000 C 
BRANCH   5   6
ATOM      6  C   UNL     1      91.141  66.781   6.381  1.00  0.00    -0.000 C 
BRANCH   6   7
ATOM      7  C   UNL     1      91.618  65.494   5.684  1.00  0.00    -0.000 C 
BRANCH   7   8
ATOM      8  C   UNL     1      90.455  64.566   5.296  1.00  0.00    -0.000 C 
BRANCH   8   9
ATOM      9  C   UNL     1      89.141  64.937   6.007  1.00  0.00    -0.000 C 
BRANCH   9  10
ATOM     10  C   UNL     1      88.232  63.718   6.258  1.00  0.00    -0.000 C 
BRANCH  10  11
ATOM     11  C   UNL     1      87.005  63.993   7.146  1.00  0.00    -0.003 C 
ATOM     12  C   UNL     1      87.077  63.289   8.502  1.00  0.00     0.004 C 
ENDBRANCH  10  11
ENDBRANCH   9  10
ENDBRANCH   8   9
ENDBRANCH   7   8
ENDBRANCH   6   7
ENDBRANCH   5   6
ENDBRANCH   4   5
ENDBRANCH   3   4
ENDBRANCH   2   3
ENDBRANCH   1   2
BRANCH   1  13
ATOM     13  C   UNL     1      91.992  63.989   9.156  1.00  0.00     0.000 C 
BRANCH  13  14
ATOM     14  C   UNL     1      92.269  62.868   8.141  1.00  0.00     0.000 C 
BRANCH  14  15
ATOM     15  C   UNL     1      91.020  61.999   7.924  1.00  0.00     0.000 C 
BRANCH  15  16
ATOM     16  C   UNL     1      91.095  61.160   6.638  1.00  0.00     0.000 C 
BRANCH  16  17
ATOM     17  C   UNL     1      89.975  60.110   6.547  1.00  0.00     0.000 C 
BRANCH  17  18
ATOM     18  C   UNL     1      88.972  60.209   7.712  1.00  0.00     0.000 C 
BRANCH  18  19
ATOM     19  C   UNL     1      87.804  59.203   7.658  1.00  0.00     0.000 C 
BRANCH  19  20
ATOM     20  C   UNL     1      88.168  57.751   8.034  1.00  0.00     0.006 C 
BRANCH  20  21
ATOM     21  C   UNL     1      88.847  57.600   9.405  1.00  0.00     0.053 C 
BRANCH  21  22
ATOM     22  C   UNL     1      87.873  57.197  10.470  1.00  0.00     0.041 C 
ATOM     23  O   UNL     1      87.426  58.053  11.277  1.00  0.00    -0.550 OA
ATOM     24  O   UNL     1      87.485  55.869  10.591  1.00  0.00    -0.550 OA
ENDBRANCH  21  22
ENDBRANCH  20  21
ENDBRANCH  19  20
ENDBRANCH  18  19
ENDBRANCH  17  18
ENDBRANCH  16  17
ENDBRANCH  15  16
ENDBRANCH  14  15
ENDBRANCH  13  14
ENDBRANCH   1  13
TORSDOF 20
ENDMDL
