MODEL 1
REMARK VINA RESULT:    -5.794      0.000      0.000
REMARK INTER + INTRA:          -8.691
REMARK INTER:                  -7.827
REMARK INTRA:                  -0.865
REMARK UNBOUND:                -0.865
REMARK SMILES CC(=O)CCC=C(C)CCC=C(C)C
REMARK SMILES IDX 7 1 6 2 8 3 9 4 10 5 11 6 13 7 12 8 14 9 5 10 4 11 2 12 3 13
REMARK SMILES IDX 1 14
REMARK H PARENT
REMARK Flexibility Score: inf
ROOT
ATOM      1  C   UNL     1     -16.978 -37.419  -4.246  1.00  0.00    -0.077 C 
ATOM      2  C   UNL     1     -18.237 -37.882  -4.064  1.00  0.00    -0.028 C 
ATOM      3  C   UNL     1     -16.574 -36.023  -3.834  1.00  0.00     0.039 C 
ENDROOT
BRANCH   1   4
ATOM      4  C   UNL     1     -15.942 -38.332  -4.864  1.00  0.00     0.034 C 
BRANCH   4   5
ATOM      5  C   UNL     1     -16.574 -39.662  -5.290  1.00  0.00     0.032 C 
BRANCH   5   6
ATOM      6  C   UNL     1     -16.277 -39.954  -6.739  1.00  0.00    -0.028 C 
ATOM      7  C   UNL     1     -16.705 -40.071  -9.157  1.00  0.00     0.039 C 
ATOM      8  C   UNL     1     -17.156 -39.772  -7.750  1.00  0.00    -0.080 C 
ATOM      9  C   UNL     1     -18.569 -39.296  -7.507  1.00  0.00     0.039 C 
ENDBRANCH   5   6
ENDBRANCH   4   5
ENDBRANCH   1   4
BRANCH   2  10
ATOM     10  C   UNL     1     -19.373 -37.062  -3.507  1.00  0.00     0.035 C 
BRANCH  10  11
ATOM     11  C   UNL     1     -20.096 -36.308  -4.627  1.00  0.00     0.079 C 
BRANCH  11  12
ATOM     12  C   UNL     1     -21.524 -36.771  -4.743  1.00  0.00     0.130 C 
ATOM     13  O   UNL     1     -22.285 -36.617  -3.800  1.00  0.00    -0.300 OA
ATOM     14  C   UNL     1     -22.033 -37.430  -5.991  1.00  0.00     0.087 C 
ENDBRANCH  11  12
ENDBRANCH  10  11
ENDBRANCH   2  10
TORSDOF 6
ENDMDL
MODEL 2
REMARK VINA RESULT:    -5.749      3.306      5.855
REMARK INTER + INTRA:          -8.630
REMARK INTER:                  -8.168
REMARK INTRA:                  -0.461
REMARK UNBOUND:                -0.865
REMARK SMILES CC(=O)CCC=C(C)CCC=C(C)C
REMARK SMILES IDX 7 1 6 2 8 3 9 4 10 5 11 6 13 7 12 8 14 9 5 10 4 11 2 12 3 13
REMARK SMILES IDX 1 14
REMARK H PARENT
REMARK Flexibility Score: inf
ROOT
ATOM      1  C   UNL     1     -17.330 -37.385  -4.039  1.00  0.00    -0.077 C 
ATOM      2  C   UNL     1     -16.658 -38.380  -4.664  1.00  0.00    -0.028 C 
ATOM      3  C   UNL     1     -16.739 -36.005  -3.872  1.00  0.00     0.039 C 
ENDROOT
BRANCH   1   4
ATOM      4  C   UNL     1     -18.719 -37.659  -3.506  1.00  0.00     0.034 C 
BRANCH   4   5
ATOM      5  C   UNL     1     -19.593 -38.320  -4.578  1.00  0.00     0.032 C 
BRANCH   5   6
ATOM      6  C   UNL     1     -20.414 -37.287  -5.309  1.00  0.00    -0.028 C 
ATOM      7  C   UNL     1     -22.295 -36.411  -6.625  1.00  0.00     0.039 C 
ATOM      8  C   UNL     1     -21.561 -37.554  -5.972  1.00  0.00    -0.080 C 
ATOM      9  C   UNL     1     -22.111 -38.956  -6.090  1.00  0.00     0.039 C 
ENDBRANCH   5   6
ENDBRANCH   4   5
ENDBRANCH   1   4
BRANCH   2  10
ATOM     10  C   UNL     1     -15.252 -38.255  -5.195  1.00  0.00     0.035 C 
BRANCH  10  11
ATOM     11  C   UNL     1     -14.852 -39.515  -5.968  1.00  0.00     0.079 C 
BRANCH  11  12
ATOM     12  C   UNL     1     -13.370 -39.527  -6.233  1.00  0.00     0.130 C 
ATOM     13  O   UNL     1     -12.649 -40.269  -5.583  1.00  0.00    -0.300 OA
ATOM     14  C   UNL     1     -12.754 -38.639  -7.273  1.00  0.00     0.087 C 
ENDBRANCH  11  12
ENDBRANCH  10  11
ENDBRANCH   2  10
TORSDOF 6
ENDMDL
MODEL 3
REMARK VINA RESULT:    -5.571      2.144      3.711
REMARK INTER + INTRA:          -8.389
REMARK INTER:                  -7.524
REMARK INTRA:                  -0.866
REMARK UNBOUND:                -0.865
REMARK SMILES CC(=O)CCC=C(C)CCC=C(C)C
REMARK SMILES IDX 7 1 6 2 8 3 9 4 10 5 11 6 13 7 12 8 14 9 5 10 4 11 2 12 3 13
REMARK SMILES IDX 1 14
REMARK H PARENT
REMARK Flexibility Score: inf
ROOT
ATOM      1  C   UNL     1     -17.346 -39.147  -5.990  1.00  0.00    -0.077 C 
ATOM      2  C   UNL     1     -18.414 -38.699  -5.290  1.00  0.00    -0.028 C 
ATOM      3  C   UNL     1     -15.965 -39.211  -5.384  1.00  0.00     0.039 C 
ENDROOT
BRANCH   1   4
ATOM      4  C   UNL     1     -17.546 -39.609  -7.416  1.00  0.00     0.034 C 
BRANCH   4   5
ATOM      5  C   UNL     1     -18.975 -39.320  -7.888  1.00  0.00     0.032 C 
BRANCH   5   6
ATOM      6  C   UNL     1     -19.727 -40.603  -8.136  1.00  0.00    -0.028 C 
ATOM      7  C   UNL     1     -21.570 -42.218  -7.947  1.00  0.00     0.039 C 
ATOM      8  C   UNL     1     -20.917 -40.911  -7.574  1.00  0.00    -0.080 C 
ATOM      9  C   UNL     1     -21.595 -39.997  -6.581  1.00  0.00     0.039 C 
ENDBRANCH   5   6
ENDBRANCH   4   5
ENDBRANCH   1   4
BRANCH   2  10
ATOM     10  C   UNL     1     -18.345 -38.164  -3.881  1.00  0.00     0.035 C 
BRANCH  10  11
ATOM     11  C   UNL     1     -18.965 -36.766  -3.803  1.00  0.00     0.079 C 
BRANCH  11  12
ATOM     12  C   UNL     1     -17.906 -35.706  -3.955  1.00  0.00     0.130 C 
ATOM     13  O   UNL     1     -18.236 -34.559  -4.212  1.00  0.00    -0.300 OA
ATOM     14  C   UNL     1     -16.448 -36.031  -3.807  1.00  0.00     0.087 C 
ENDBRANCH  11  12
ENDBRANCH  10  11
ENDBRANCH   2  10
TORSDOF 6
ENDMDL
MODEL 4
REMARK VINA RESULT:    -5.543      3.370      5.471
REMARK INTER + INTRA:          -8.352
REMARK INTER:                  -7.637
REMARK INTRA:                  -0.715
REMARK UNBOUND:                -0.865
REMARK SMILES CC(=O)CCC=C(C)CCC=C(C)C
REMARK SMILES IDX 7 1 6 2 8 3 9 4 10 5 11 6 13 7 12 8 14 9 5 10 4 11 2 12 3 13
REMARK SMILES IDX 1 14
REMARK H PARENT
REMARK Flexibility Score: inf
ROOT
ATOM      1  C   UNL     1     -17.637 -37.895  -4.399  1.00  0.00    -0.077 C 
ATOM      2  C   UNL     1     -16.807 -38.785  -4.991  1.00  0.00    -0.028 C 
ATOM      3  C   UNL     1     -17.154 -36.540  -3.938  1.00  0.00     0.039 C 
ENDROOT
BRANCH   1   4
ATOM      4  C   UNL     1     -19.091 -38.262  -4.207  1.00  0.00     0.034 C 
BRANCH   4   5
ATOM      5  C   UNL     1     -19.918 -37.876  -5.438  1.00  0.00     0.032 C 
BRANCH   5   6
ATOM      6  C   UNL     1     -20.571 -39.091  -6.046  1.00  0.00    -0.028 C 
ATOM      7  C   UNL     1     -20.827 -40.990  -7.585  1.00  0.00     0.039 C 
ATOM      8  C   UNL     1     -20.085 -39.767  -7.111  1.00  0.00    -0.080 C 
ATOM      9  C   UNL     1     -18.839 -39.323  -7.840  1.00  0.00     0.039 C 
ENDBRANCH   5   6
ENDBRANCH   4   5
ENDBRANCH   1   4
BRANCH   2  10
ATOM     10  C   UNL     1     -15.329 -38.565  -5.198  1.00  0.00     0.035 C 
BRANCH  10  11
ATOM     11  C   UNL     1     -14.796 -39.480  -6.304  1.00  0.00     0.079 C 
BRANCH  11  12
ATOM     12  C   UNL     1     -13.295 -39.390  -6.390  1.00  0.00     0.130 C 
ATOM     13  O   UNL     1     -12.608 -40.051  -5.627  1.00  0.00    -0.300 OA
ATOM     14  C   UNL     1     -12.622 -38.495  -7.390  1.00  0.00     0.087 C 
ENDBRANCH  11  12
ENDBRANCH  10  11
ENDBRANCH   2  10
TORSDOF 6
ENDMDL
MODEL 5
REMARK VINA RESULT:    -5.522      1.834      3.888
REMARK INTER + INTRA:          -8.323
REMARK INTER:                  -7.072
REMARK INTRA:                  -1.252
REMARK UNBOUND:                -0.865
REMARK SMILES CC(=O)CCC=C(C)CCC=C(C)C
REMARK SMILES IDX 7 1 6 2 8 3 9 4 10 5 11 6 13 7 12 8 14 9 5 10 4 11 2 12 3 13
REMARK SMILES IDX 1 14
REMARK H PARENT
REMARK Flexibility Score: inf
ROOT
ATOM      1  C   UNL     1     -19.230 -39.655  -7.178  1.00  0.00    -0.077 C 
ATOM      2  C   UNL     1     -18.988 -38.604  -6.360  1.00  0.00    -0.028 C 
ATOM      3  C   UNL     1     -20.222 -40.735  -6.815  1.00  0.00     0.039 C 
ENDROOT
BRANCH   1   4
ATOM      4  C   UNL     1     -18.497 -39.743  -8.497  1.00  0.00     0.034 C 
BRANCH   4   5
ATOM      5  C   UNL     1     -17.253 -40.631  -8.372  1.00  0.00     0.032 C 
BRANCH   5   6
ATOM      6  C   UNL     1     -16.020 -39.794  -8.144  1.00  0.00    -0.028 C 
ATOM      7  C   UNL     1     -14.125 -38.851  -6.896  1.00  0.00     0.039 C 
ATOM      8  C   UNL     1     -15.370 -39.697  -6.963  1.00  0.00    -0.080 C 
ATOM      9  C   UNL     1     -15.865 -40.394  -5.718  1.00  0.00     0.039 C 
ENDBRANCH   5   6
ENDBRANCH   4   5
ENDBRANCH   1   4
BRANCH   2  10
ATOM     10  C   UNL     1     -19.612 -38.423  -4.999  1.00  0.00     0.035 C 
BRANCH  10  11
ATOM     11  C   UNL     1     -18.535 -38.379  -3.912  1.00  0.00     0.079 C 
BRANCH  11  12
ATOM     12  C   UNL     1     -17.780 -37.077  -3.964  1.00  0.00     0.130 C 
ATOM     13  O   UNL     1     -18.398 -36.023  -3.972  1.00  0.00    -0.300 OA
ATOM     14  C   UNL     1     -16.281 -37.045  -4.018  1.00  0.00     0.087 C 
ENDBRANCH  11  12
ENDBRANCH  10  11
ENDBRANCH   2  10
TORSDOF 6
ENDMDL
MODEL 6
REMARK VINA RESULT:    -5.520      1.471      3.790
REMARK INTER + INTRA:          -8.321
REMARK INTER:                  -7.217
REMARK INTRA:                  -1.105
REMARK UNBOUND:                -0.865
REMARK SMILES CC(=O)CCC=C(C)CCC=C(C)C
REMARK SMILES IDX 7 1 6 2 8 3 9 4 10 5 11 6 13 7 12 8 14 9 5 10 4 11 2 12 3 13
REMARK SMILES IDX 1 14
REMARK H PARENT
REMARK Flexibility Score: inf
ROOT
ATOM      1  C   UNL     1     -18.773 -39.969  -6.320  1.00  0.00    -0.077 C 
ATOM      2  C   UNL     1     -19.525 -38.878  -6.592  1.00  0.00    -0.028 C 
ATOM      3  C   UNL     1     -19.396 -41.313  -6.024  1.00  0.00     0.039 C 
ENDROOT
BRANCH   1   4
ATOM      4  C   UNL     1     -17.266 -39.843  -6.327  1.00  0.00     0.034 C 
BRANCH   4   5
ATOM      5  C   UNL     1     -16.730 -39.631  -4.907  1.00  0.00     0.032 C 
BRANCH   5   6
ATOM      6  C   UNL     1     -16.329 -38.193  -4.695  1.00  0.00    -0.028 C 
ATOM      7  C   UNL     1     -16.522 -35.892  -3.853  1.00  0.00     0.039 C 
ATOM      8  C   UNL     1     -17.069 -37.287  -4.019  1.00  0.00    -0.080 C 
ATOM      9  C   UNL     1     -18.424 -37.627  -3.444  1.00  0.00     0.039 C 
ENDBRANCH   5   6
ENDBRANCH   4   5
ENDBRANCH   1   4
BRANCH   2  10
ATOM     10  C   UNL     1     -21.033 -38.855  -6.568  1.00  0.00     0.035 C 
BRANCH  10  11
ATOM     11  C   UNL     1     -21.542 -37.941  -5.450  1.00  0.00     0.079 C 
BRANCH  11  12
ATOM     12  C   UNL     1     -21.580 -36.508  -5.911  1.00  0.00     0.130 C 
ATOM     13  O   UNL     1     -22.085 -36.236  -6.989  1.00  0.00    -0.300 OA
ATOM     14  C   UNL     1     -20.999 -35.404  -5.077  1.00  0.00     0.087 C 
ENDBRANCH  11  12
ENDBRANCH  10  11
ENDBRANCH   2  10
TORSDOF 6
ENDMDL
MODEL 7
REMARK VINA RESULT:    -5.473      2.858      5.843
REMARK INTER + INTRA:          -8.257
REMARK INTER:                  -7.318
REMARK INTRA:                  -0.939
REMARK UNBOUND:                -0.865
REMARK SMILES CC(=O)CCC=C(C)CCC=C(C)C
REMARK SMILES IDX 7 1 6 2 8 3 9 4 10 5 11 6 13 7 12 8 14 9 5 10 4 11 2 12 3 13
REMARK SMILES IDX 1 14
REMARK H PARENT
REMARK Flexibility Score: inf
ROOT
ATOM      1  C   UNL     1     -19.708 -39.672  -6.934  1.00  0.00    -0.077 C 
ATOM      2  C   UNL     1     -18.640 -39.264  -7.660  1.00  0.00    -0.028 C 
ATOM      3  C   UNL     1     -20.704 -40.670  -7.474  1.00  0.00     0.039 C 
ENDROOT
BRANCH   1   4
ATOM      4  C   UNL     1     -19.899 -39.123  -5.538  1.00  0.00     0.034 C 
BRANCH   4   5
ATOM      5  C   UNL     1     -18.634 -39.325  -4.695  1.00  0.00     0.032 C 
BRANCH   5   6
ATOM      6  C   UNL     1     -18.116 -38.004  -4.185  1.00  0.00    -0.028 C 
ATOM      7  C   UNL     1     -16.475 -36.216  -3.796  1.00  0.00     0.039 C 
ATOM      8  C   UNL     1     -16.840 -37.579  -4.324  1.00  0.00    -0.080 C 
ATOM      9  C   UNL     1     -15.778 -38.435  -4.974  1.00  0.00     0.039 C 
ENDBRANCH   5   6
ENDBRANCH   4   5
ENDBRANCH   1   4
BRANCH   2  10
ATOM     10  C   UNL     1     -18.361 -39.694  -9.078  1.00  0.00     0.035 C 
BRANCH  10  11
ATOM     11  C   UNL     1     -17.077 -40.526  -9.148  1.00  0.00     0.079 C 
BRANCH  11  12
ATOM     12  C   UNL     1     -17.338 -41.943  -8.713  1.00  0.00     0.130 C 
ATOM     13  O   UNL     1     -16.870 -42.345  -7.658  1.00  0.00    -0.300 OA
ATOM     14  C   UNL     1     -18.154 -42.881  -9.553  1.00  0.00     0.087 C 
ENDBRANCH  11  12
ENDBRANCH  10  11
ENDBRANCH   2  10
TORSDOF 6
ENDMDL
MODEL 8
REMARK VINA RESULT:    -5.377      1.933      3.452
REMARK INTER + INTRA:          -8.127
REMARK INTER:                  -7.093
REMARK INTRA:                  -1.034
REMARK UNBOUND:                -0.865
REMARK SMILES CC(=O)CCC=C(C)CCC=C(C)C
REMARK SMILES IDX 7 1 6 2 8 3 9 4 10 5 11 6 13 7 12 8 14 9 5 10 4 11 2 12 3 13
REMARK SMILES IDX 1 14
REMARK H PARENT
REMARK Flexibility Score: inf
ROOT
ATOM      1  C   UNL     1     -15.876 -39.813  -5.660  1.00  0.00    -0.077 C 
ATOM      2  C   UNL     1     -16.215 -38.946  -4.678  1.00  0.00    -0.028 C 
ATOM      3  C   UNL     1     -15.102 -39.372  -6.880  1.00  0.00     0.039 C 
ENDROOT
BRANCH   1   4
ATOM      4  C   UNL     1     -16.270 -41.266  -5.524  1.00  0.00     0.034 C 
BRANCH   4   5
ATOM      5  C   UNL     1     -17.355 -41.634  -6.542  1.00  0.00     0.032 C 
BRANCH   5   6
ATOM      6  C   UNL     1     -18.680 -41.027  -6.155  1.00  0.00    -0.028 C 
ATOM      7  C   UNL     1     -20.647 -39.569  -6.363  1.00  0.00     0.039 C 
ATOM      8  C   UNL     1     -19.305 -40.052  -6.851  1.00  0.00    -0.080 C 
ATOM      9  C   UNL     1     -18.693 -39.428  -8.082  1.00  0.00     0.039 C 
ENDBRANCH   5   6
ENDBRANCH   4   5
ENDBRANCH   1   4
BRANCH   2  10
ATOM     10  C   UNL     1     -15.929 -37.465  -4.713  1.00  0.00     0.035 C 
BRANCH  10  11
ATOM     11  C   UNL     1     -16.553 -36.765  -3.502  1.00  0.00     0.079 C 
BRANCH  11  12
ATOM     12  C   UNL     1     -17.842 -36.087  -3.887  1.00  0.00     0.130 C 
ATOM     13  O   UNL     1     -17.851 -34.882  -4.086  1.00  0.00    -0.300 OA
ATOM     14  C   UNL     1     -19.121 -36.859  -4.023  1.00  0.00     0.087 C 
ENDBRANCH  11  12
ENDBRANCH  10  11
ENDBRANCH   2  10
TORSDOF 6
ENDMDL
MODEL 9
REMARK VINA RESULT:    -5.302      1.583      3.018
REMARK INTER + INTRA:          -8.027
REMARK INTER:                  -7.215
REMARK INTRA:                  -0.812
REMARK UNBOUND:                -0.865
REMARK SMILES CC(=O)CCC=C(C)CCC=C(C)C
REMARK SMILES IDX 7 1 6 2 8 3 9 4 10 5 11 6 13 7 12 8 14 9 5 10 4 11 2 12 3 13
REMARK SMILES IDX 1 14
REMARK H PARENT
REMARK Flexibility Score: inf
ROOT
ATOM      1  C   UNL     1     -19.243 -38.993  -6.481  1.00  0.00    -0.077 C 
ATOM      2  C   UNL     1     -20.478 -38.605  -6.875  1.00  0.00    -0.028 C 
ATOM      3  C   UNL     1     -18.849 -39.042  -5.024  1.00  0.00     0.039 C 
ENDROOT
BRANCH   1   4
ATOM      4  C   UNL     1     -18.233 -39.402  -7.530  1.00  0.00     0.034 C 
BRANCH   4   5
ATOM      5  C   UNL     1     -17.133 -40.276  -6.916  1.00  0.00     0.032 C 
BRANCH   5   6
ATOM      6  C   UNL     1     -15.770 -39.815  -7.366  1.00  0.00    -0.028 C 
ATOM      7  C   UNL     1     -13.592 -38.690  -7.195  1.00  0.00     0.039 C 
ATOM      8  C   UNL     1     -14.944 -39.040  -6.629  1.00  0.00    -0.080 C 
ATOM      9  C   UNL     1     -15.343 -38.508  -5.273  1.00  0.00     0.039 C 
ENDBRANCH   5   6
ENDBRANCH   4   5
ENDBRANCH   1   4
BRANCH   2  10
ATOM     10  C   UNL     1     -21.559 -38.126  -5.938  1.00  0.00     0.035 C 
BRANCH  10  11
ATOM     11  C   UNL     1     -21.913 -36.664  -6.224  1.00  0.00     0.079 C 
BRANCH  11  12
ATOM     12  C   UNL     1     -21.558 -35.792  -5.049  1.00  0.00     0.130 C 
ATOM     13  O   UNL     1     -22.443 -35.202  -4.448  1.00  0.00    -0.300 OA
ATOM     14  C   UNL     1     -20.135 -35.621  -4.604  1.00  0.00     0.087 C 
ENDBRANCH  11  12
ENDBRANCH  10  11
ENDBRANCH   2  10
TORSDOF 6
ENDMDL
