MODEL 1
REMARK VINA RESULT:    -7.208      0.000      0.000
REMARK INTER + INTRA:         -10.953
REMARK INTER:                 -10.157
REMARK INTRA:                  -0.796
REMARK UNBOUND:                -0.796
REMARK SMILES OC[C@H]1O[C@H](O[C@H]2OC=C[C@@H]3[C@H](O)[C@@H]4O[C@]4(CO)[C@H]23)[C@H](O)[C@H](O)[C@@H]1O
REMARK SMILES IDX 6 1 7 2 10 3 9 4 11 5 8 6 19 7 12 8 16 9 14 10 15 11 13 12
REMARK SMILES IDX 17 14 18 15 5 17 20 18 4 19 22 20 3 21 24 22 21 23 23 25
REMARK SMILES IDX 2 27 1 28 25 30
REMARK H PARENT 13 13 18 16 21 24 23 26 1 29 25 31
REMARK Flexibility Score: inf
ROOT
ATOM      1  O   UNL     1     -23.018 -15.659 -13.352  1.00  0.00    -0.310 OA
ENDROOT
BRANCH   1   2
ATOM      2  C   UNL     1     -21.906 -14.799 -13.149  1.00  0.00     0.315 C 
ATOM      3  C   UNL     1     -23.109 -13.383 -10.993  1.00  0.00     0.018 C 
ATOM      4  C   UNL     1     -23.125 -12.875 -12.227  1.00  0.00     0.186 C 
ATOM      5  C   UNL     1     -22.202 -14.539 -10.600  1.00  0.00     0.059 C 
ATOM      6  O   UNL     1     -22.371 -13.457 -13.248  1.00  0.00    -0.472 OA
ATOM      7  C   UNL     1     -21.284 -15.018 -11.750  1.00  0.00     0.105 C 
ATOM      8  C   UNL     1     -21.214 -14.137  -9.484  1.00  0.00     0.154 C 
ATOM      9  C   UNL     1     -19.958 -14.272 -11.562  1.00  0.00     0.130 C 
ATOM     10  C   UNL     1     -19.899 -13.786 -10.174  1.00  0.00     0.183 C 
ATOM     11  O   UNL     1     -20.047 -12.897 -11.264  1.00  0.00    -0.360 OA
BRANCH   8  12
ATOM     12  O   UNL     1     -21.676 -13.057  -8.712  1.00  0.00    -0.390 OA
ATOM     13  H   UNL     1     -21.180 -12.255  -9.023  1.00  0.00     0.211 HD
ENDBRANCH   8  12
BRANCH   9  14
ATOM     14  C   UNL     1     -18.629 -14.745 -12.165  1.00  0.00     0.195 C 
BRANCH  14  15
ATOM     15  O   UNL     1     -18.306 -13.986 -13.296  1.00  0.00    -0.393 OA
ATOM     16  H   UNL     1     -17.684 -14.538 -13.838  1.00  0.00     0.210 HD
ENDBRANCH  14  15
ENDBRANCH   9  14
ENDBRANCH   1   2
BRANCH   1  17
ATOM     17  C   UNL     1     -22.961 -16.348 -14.596  1.00  0.00     0.286 C 
ATOM     18  C   UNL     1     -23.720 -15.563 -15.688  1.00  0.00     0.202 C 
ATOM     19  O   UNL     1     -23.500 -17.656 -14.469  1.00  0.00    -0.341 OA
ATOM     20  C   UNL     1     -25.235 -15.525 -15.404  1.00  0.00     0.179 C 
ATOM     21  C   UNL     1     -24.859 -17.632 -14.055  1.00  0.00     0.178 C 
ATOM     22  C   UNL     1     -25.740 -16.952 -15.135  1.00  0.00     0.177 C 
BRANCH  18  23
ATOM     23  O   UNL     1     -23.191 -14.272 -15.870  1.00  0.00    -0.385 OA
ATOM     24  H   UNL     1     -23.486 -13.705 -15.113  1.00  0.00     0.211 HD
ENDBRANCH  18  23
BRANCH  20  25
ATOM     25  O   UNL     1     -25.516 -14.706 -14.294  1.00  0.00    -0.387 OA
ATOM     26  H   UNL     1     -24.867 -14.946 -13.583  1.00  0.00     0.211 HD
ENDBRANCH  20  25
BRANCH  21  27
ATOM     27  C   UNL     1     -25.296 -19.084 -13.801  1.00  0.00     0.191 C 
BRANCH  27  28
ATOM     28  O   UNL     1     -24.624 -19.975 -14.651  1.00  0.00    -0.394 OA
ATOM     29  H   UNL     1     -23.884 -20.371 -14.121  1.00  0.00     0.210 HD
ENDBRANCH  27  28
ENDBRANCH  21  27
BRANCH  22  30
ATOM     30  O   UNL     1     -27.082 -16.889 -14.716  1.00  0.00    -0.387 OA
ATOM     31  H   UNL     1     -27.409 -17.823 -14.638  1.00  0.00     0.211 HD
ENDBRANCH  22  30
ENDBRANCH   1  17
TORSDOF 10
ENDMDL
MODEL 2
REMARK VINA RESULT:    -6.204      2.875      7.187
REMARK INTER + INTRA:          -9.539
REMARK INTER:                  -8.533
REMARK INTRA:                  -1.006
REMARK UNBOUND:                -0.796
REMARK SMILES OC[C@H]1O[C@H](O[C@H]2OC=C[C@@H]3[C@H](O)[C@@H]4O[C@]4(CO)[C@H]23)[C@H](O)[C@H](O)[C@@H]1O
REMARK SMILES IDX 6 1 7 2 10 3 9 4 11 5 8 6 19 7 12 8 16 9 14 10 15 11 13 12
REMARK SMILES IDX 17 14 18 15 5 17 20 18 4 19 22 20 3 21 24 22 21 23 23 25
REMARK SMILES IDX 2 27 1 28 25 30
REMARK H PARENT 13 13 18 16 21 24 23 26 1 29 25 31
REMARK Flexibility Score: inf
ROOT
ATOM      1  O   UNL     1     -24.495 -18.232 -12.671  1.00  0.00    -0.310 OA
ENDROOT
BRANCH   1   2
ATOM      2  C   UNL     1     -25.514 -19.211 -12.531  1.00  0.00     0.315 C 
ATOM      3  C   UNL     1     -23.839 -21.386 -13.283  1.00  0.00     0.018 C 
ATOM      4  C   UNL     1     -24.663 -20.829 -14.173  1.00  0.00     0.186 C 
ATOM      5  C   UNL     1     -23.965 -21.136 -11.787  1.00  0.00     0.059 C 
ATOM      6  O   UNL     1     -25.627 -19.903 -13.770  1.00  0.00    -0.472 OA
ATOM      7  C   UNL     1     -25.159 -20.224 -11.417  1.00  0.00     0.105 C 
ATOM      8  C   UNL     1     -24.243 -22.441 -11.011  1.00  0.00     0.154 C 
ATOM      9  C   UNL     1     -26.316 -21.170 -11.078  1.00  0.00     0.130 C 
ATOM     10  C   UNL     1     -25.751 -22.497 -10.784  1.00  0.00     0.183 C 
ATOM     11  O   UNL     1     -26.512 -22.260 -11.952  1.00  0.00    -0.360 OA
BRANCH   8  12
ATOM     12  O   UNL     1     -23.798 -23.585 -11.694  1.00  0.00    -0.390 OA
ATOM     13  H   UNL     1     -23.658 -24.288 -11.007  1.00  0.00     0.211 HD
ENDBRANCH   8  12
BRANCH   9  14
ATOM     14  C   UNL     1     -27.529 -20.756 -10.237  1.00  0.00     0.195 C 
BRANCH  14  15
ATOM     15  O   UNL     1     -27.207 -19.670  -9.414  1.00  0.00    -0.393 OA
ATOM     16  H   UNL     1     -27.634 -18.871  -9.822  1.00  0.00     0.210 HD
ENDBRANCH  14  15
ENDBRANCH   9  14
ENDBRANCH   1   2
BRANCH   1  17
ATOM     17  C   UNL     1     -25.014 -16.917 -12.832  1.00  0.00     0.286 C 
ATOM     18  C   UNL     1     -25.111 -16.549 -14.329  1.00  0.00     0.202 C 
ATOM     19  O   UNL     1     -24.206 -15.972 -12.146  1.00  0.00    -0.341 OA
ATOM     20  C   UNL     1     -23.714 -16.429 -14.970  1.00  0.00     0.179 C 
ATOM     21  C   UNL     1     -22.870 -15.966 -12.631  1.00  0.00     0.178 C 
ATOM     22  C   UNL     1     -22.835 -15.506 -14.112  1.00  0.00     0.177 C 
BRANCH  18  23
ATOM     23  O   UNL     1     -25.936 -17.443 -15.037  1.00  0.00    -0.385 OA
ATOM     24  H   UNL     1     -26.784 -17.547 -14.535  1.00  0.00     0.211 HD
ENDBRANCH  18  23
BRANCH  20  25
ATOM     25  O   UNL     1     -23.105 -17.693 -15.082  1.00  0.00    -0.387 OA
ATOM     26  H   UNL     1     -22.555 -17.680 -15.908  1.00  0.00     0.211 HD
ENDBRANCH  20  25
BRANCH  21  27
ATOM     27  C   UNL     1     -22.050 -15.030 -11.728  1.00  0.00     0.191 C 
BRANCH  27  28
ATOM     28  O   UNL     1     -20.673 -15.177 -11.957  1.00  0.00    -0.394 OA
ATOM     29  H   UNL     1     -20.210 -14.733 -11.200  1.00  0.00     0.210 HD
ENDBRANCH  27  28
ENDBRANCH  21  27
BRANCH  22  30
ATOM     30  O   UNL     1     -21.520 -15.535 -14.611  1.00  0.00    -0.387 OA
ATOM     31  H   UNL     1     -21.343 -16.461 -14.920  1.00  0.00     0.211 HD
ENDBRANCH  22  30
ENDBRANCH   1  17
TORSDOF 10
ENDMDL
MODEL 3
REMARK VINA RESULT:    -6.115      7.187      9.694
REMARK INTER + INTRA:          -9.413
REMARK INTER:                  -8.872
REMARK INTRA:                  -0.541
REMARK UNBOUND:                -0.796
REMARK SMILES OC[C@H]1O[C@H](O[C@H]2OC=C[C@@H]3[C@H](O)[C@@H]4O[C@]4(CO)[C@H]23)[C@H](O)[C@H](O)[C@@H]1O
REMARK SMILES IDX 6 1 7 2 10 3 9 4 11 5 8 6 19 7 12 8 16 9 14 10 15 11 13 12
REMARK SMILES IDX 17 14 18 15 5 17 20 18 4 19 22 20 3 21 24 22 21 23 23 25
REMARK SMILES IDX 2 27 1 28 25 30
REMARK H PARENT 13 13 18 16 21 24 23 26 1 29 25 31
REMARK Flexibility Score: inf
ROOT
ATOM      1  O   UNL     1     -25.512 -23.259 -11.567  1.00  0.00    -0.310 OA
ENDROOT
BRANCH   1   2
ATOM      2  C   UNL     1     -25.927 -23.558 -10.243  1.00  0.00     0.315 C 
ATOM      3  C   UNL     1     -26.634 -20.874  -9.619  1.00  0.00     0.018 C 
ATOM      4  C   UNL     1     -25.456 -21.369  -9.234  1.00  0.00     0.186 C 
ATOM      5  C   UNL     1     -27.770 -21.760 -10.104  1.00  0.00     0.059 C 
ATOM      6  O   UNL     1     -25.181 -22.732  -9.356  1.00  0.00    -0.472 OA
ATOM      7  C   UNL     1     -27.435 -23.269 -10.057  1.00  0.00     0.105 C 
ATOM      8  C   UNL     1     -29.019 -21.631  -9.206  1.00  0.00     0.154 C 
ATOM      9  C   UNL     1     -27.979 -23.775  -8.716  1.00  0.00     0.130 C 
ATOM     10  C   UNL     1     -28.975 -22.805  -8.231  1.00  0.00     0.183 C 
ATOM     11  O   UNL     1     -27.725 -22.965  -7.589  1.00  0.00    -0.360 OA
BRANCH   8  12
ATOM     12  O   UNL     1     -29.068 -20.409  -8.514  1.00  0.00    -0.390 OA
ATOM     13  H   UNL     1     -28.448 -20.496  -7.744  1.00  0.00     0.211 HD
ENDBRANCH   8  12
BRANCH   9  14
ATOM     14  C   UNL     1     -28.284 -25.250  -8.429  1.00  0.00     0.195 C 
BRANCH  14  15
ATOM     15  O   UNL     1     -27.303 -25.800  -7.595  1.00  0.00    -0.393 OA
ATOM     16  H   UNL     1     -26.548 -25.156  -7.585  1.00  0.00     0.210 HD
ENDBRANCH  14  15
ENDBRANCH   9  14
ENDBRANCH   1   2
BRANCH   1  17
ATOM     17  C   UNL     1     -24.127 -23.509 -11.780  1.00  0.00     0.286 C 
ATOM     18  C   UNL     1     -23.401 -22.216 -12.215  1.00  0.00     0.202 C 
ATOM     19  O   UNL     1     -23.945 -24.525 -12.756  1.00  0.00    -0.341 OA
ATOM     20  C   UNL     1     -23.867 -21.752 -13.609  1.00  0.00     0.179 C 
ATOM     21  C   UNL     1     -24.511 -24.165 -14.009  1.00  0.00     0.178 C 
ATOM     22  C   UNL     1     -23.783 -22.928 -14.595  1.00  0.00     0.177 C 
BRANCH  18  23
ATOM     23  O   UNL     1     -23.527 -21.196 -11.254  1.00  0.00    -0.385 OA
ATOM     24  H   UNL     1     -23.552 -20.325 -11.727  1.00  0.00     0.211 HD
ENDBRANCH  18  23
BRANCH  20  25
ATOM     25  O   UNL     1     -25.188 -21.269 -13.560  1.00  0.00    -0.387 OA
ATOM     26  H   UNL     1     -25.686 -21.846 -12.924  1.00  0.00     0.211 HD
ENDBRANCH  20  25
BRANCH  21  27
ATOM     27  C   UNL     1     -24.397 -25.383 -14.940  1.00  0.00     0.191 C 
BRANCH  27  28
ATOM     28  O   UNL     1     -25.571 -25.566 -15.686  1.00  0.00    -0.394 OA
ATOM     29  H   UNL     1     -25.306 -25.554 -16.642  1.00  0.00     0.210 HD
ENDBRANCH  27  28
ENDBRANCH  21  27
BRANCH  22  30
ATOM     30  O   UNL     1     -24.363 -22.541 -15.817  1.00  0.00    -0.387 OA
ATOM     31  H   UNL     1     -25.297 -22.876 -15.817  1.00  0.00     0.211 HD
ENDBRANCH  22  30
ENDBRANCH   1  17
TORSDOF 10
ENDMDL
MODEL 4
REMARK VINA RESULT:    -6.063      2.212      4.462
REMARK INTER + INTRA:          -9.339
REMARK INTER:                  -8.891
REMARK INTRA:                  -0.448
REMARK UNBOUND:                -0.796
REMARK SMILES OC[C@H]1O[C@H](O[C@H]2OC=C[C@@H]3[C@H](O)[C@@H]4O[C@]4(CO)[C@H]23)[C@H](O)[C@H](O)[C@@H]1O
REMARK SMILES IDX 6 1 7 2 10 3 9 4 11 5 8 6 19 7 12 8 16 9 14 10 15 11 13 12
REMARK SMILES IDX 17 14 18 15 5 17 20 18 4 19 22 20 3 21 24 22 21 23 23 25
REMARK SMILES IDX 2 27 1 28 25 30
REMARK H PARENT 13 13 18 16 21 24 23 26 1 29 25 31
REMARK Flexibility Score: inf
ROOT
ATOM      1  O   UNL     1     -23.888 -17.924 -13.682  1.00  0.00    -0.310 OA
ENDROOT
BRANCH   1   2
ATOM      2  C   UNL     1     -24.258 -16.593 -14.009  1.00  0.00     0.315 C 
ATOM      3  C   UNL     1     -22.322 -15.396 -12.302  1.00  0.00     0.018 C 
ATOM      4  C   UNL     1     -23.589 -15.524 -11.901  1.00  0.00     0.186 C 
ATOM      5  C   UNL     1     -21.905 -15.567 -13.755  1.00  0.00     0.059 C 
ATOM      6  O   UNL     1     -24.583 -15.922 -12.796  1.00  0.00    -0.472 OA
ATOM      7  C   UNL     1     -23.094 -15.849 -14.704  1.00  0.00     0.105 C 
ATOM      8  C   UNL     1     -21.277 -14.277 -14.324  1.00  0.00     0.154 C 
ATOM      9  C   UNL     1     -23.509 -14.485 -15.269  1.00  0.00     0.130 C 
ATOM     10  C   UNL     1     -22.385 -13.552 -15.082  1.00  0.00     0.183 C 
ATOM     11  O   UNL     1     -23.586 -13.421 -14.346  1.00  0.00    -0.360 OA
BRANCH   8  12
ATOM     12  O   UNL     1     -20.732 -13.452 -13.326  1.00  0.00    -0.390 OA
ATOM     13  H   UNL     1     -20.253 -12.720 -13.796  1.00  0.00     0.211 HD
ENDBRANCH   8  12
BRANCH   9  14
ATOM     14  C   UNL     1     -24.315 -14.315 -16.562  1.00  0.00     0.195 C 
BRANCH  14  15
ATOM     15  O   UNL     1     -23.782 -15.114 -17.581  1.00  0.00    -0.393 OA
ATOM     16  H   UNL     1     -24.528 -15.675 -17.919  1.00  0.00     0.210 HD
ENDBRANCH  14  15
ENDBRANCH   9  14
ENDBRANCH   1   2
BRANCH   1  17
ATOM     17  C   UNL     1     -24.654 -18.897 -14.383  1.00  0.00     0.286 C 
ATOM     18  C   UNL     1     -26.100 -18.944 -13.842  1.00  0.00     0.202 C 
ATOM     19  O   UNL     1     -24.051 -20.179 -14.282  1.00  0.00    -0.341 OA
ATOM     20  C   UNL     1     -26.142 -19.476 -12.395  1.00  0.00     0.179 C 
ATOM     21  C   UNL     1     -23.945 -20.610 -12.932  1.00  0.00     0.178 C 
ATOM     22  C   UNL     1     -25.355 -20.794 -12.312  1.00  0.00     0.177 C 
BRANCH  18  23
ATOM     23  O   UNL     1     -26.746 -17.700 -13.960  1.00  0.00    -0.385 OA
ATOM     24  H   UNL     1     -26.912 -17.526 -14.921  1.00  0.00     0.211 HD
ENDBRANCH  18  23
BRANCH  20  25
ATOM     25  O   UNL     1     -25.592 -18.538 -11.501  1.00  0.00    -0.387 OA
ATOM     26  H   UNL     1     -24.609 -18.548 -11.636  1.00  0.00     0.211 HD
ENDBRANCH  20  25
BRANCH  21  27
ATOM     27  C   UNL     1     -23.147 -21.924 -12.923  1.00  0.00     0.191 C 
BRANCH  27  28
ATOM     28  O   UNL     1     -21.950 -21.799 -13.644  1.00  0.00    -0.394 OA
ATOM     29  H   UNL     1     -21.637 -20.866 -13.516  1.00  0.00     0.210 HD
ENDBRANCH  27  28
ENDBRANCH  21  27
BRANCH  22  30
ATOM     30  O   UNL     1     -25.259 -21.183 -10.964  1.00  0.00    -0.387 OA
ATOM     31  H   UNL     1     -26.181 -21.370 -10.645  1.00  0.00     0.211 HD
ENDBRANCH  22  30
ENDBRANCH   1  17
TORSDOF 10
ENDMDL
MODEL 5
REMARK VINA RESULT:    -5.849      6.252      9.691
REMARK INTER + INTRA:          -9.039
REMARK INTER:                  -8.127
REMARK INTRA:                  -0.912
REMARK UNBOUND:                -0.796
REMARK SMILES OC[C@H]1O[C@H](O[C@H]2OC=C[C@@H]3[C@H](O)[C@@H]4O[C@]4(CO)[C@H]23)[C@H](O)[C@H](O)[C@@H]1O
REMARK SMILES IDX 6 1 7 2 10 3 9 4 11 5 8 6 19 7 12 8 16 9 14 10 15 11 13 12
REMARK SMILES IDX 17 14 18 15 5 17 20 18 4 19 22 20 3 21 24 22 21 23 23 25
REMARK SMILES IDX 2 27 1 28 25 30
REMARK H PARENT 13 13 18 16 21 24 23 26 1 29 25 31
REMARK Flexibility Score: inf
ROOT
ATOM      1  O   UNL     1     -25.846 -22.354 -10.654  1.00  0.00    -0.310 OA
ENDROOT
BRANCH   1   2
ATOM      2  C   UNL     1     -24.940 -21.923 -11.659  1.00  0.00     0.315 C 
ATOM      3  C   UNL     1     -24.428 -24.546 -12.636  1.00  0.00     0.018 C 
ATOM      4  C   UNL     1     -23.577 -23.963 -11.789  1.00  0.00     0.186 C 
ATOM      5  C   UNL     1     -25.509 -23.767 -13.370  1.00  0.00     0.059 C 
ATOM      6  O   UNL     1     -23.711 -22.613 -11.461  1.00  0.00    -0.472 OA
ATOM      7  C   UNL     1     -25.482 -22.250 -13.070  1.00  0.00     0.105 C 
ATOM      8  C   UNL     1     -25.328 -23.844 -14.901  1.00  0.00     0.154 C 
ATOM      9  C   UNL     1     -24.650 -21.618 -14.192  1.00  0.00     0.130 C 
ATOM     10  C   UNL     1     -24.604 -22.566 -15.317  1.00  0.00     0.183 C 
ATOM     11  O   UNL     1     -23.456 -22.284 -14.540  1.00  0.00    -0.360 OA
BRANCH   8  12
ATOM     12  O   UNL     1     -24.609 -24.980 -15.309  1.00  0.00    -0.390 OA
ATOM     13  H   UNL     1     -23.658 -24.703 -15.376  1.00  0.00     0.211 HD
ENDBRANCH   8  12
BRANCH   9  14
ATOM     14  C   UNL     1     -24.726 -20.133 -14.568  1.00  0.00     0.195 C 
BRANCH  14  15
ATOM     15  O   UNL     1     -23.475 -19.524 -14.416  1.00  0.00    -0.393 OA
ATOM     16  H   UNL     1     -23.302 -19.475 -13.440  1.00  0.00     0.210 HD
ENDBRANCH  14  15
ENDBRANCH   9  14
ENDBRANCH   1   2
BRANCH   1  17
ATOM     17  C   UNL     1     -25.651 -21.683  -9.414  1.00  0.00     0.286 C 
ATOM     18  C   UNL     1     -25.460 -22.703  -8.269  1.00  0.00     0.202 C 
ATOM     19  O   UNL     1     -26.748 -20.827  -9.129  1.00  0.00    -0.341 OA
ATOM     20  C   UNL     1     -26.751 -23.504  -8.008  1.00  0.00     0.179 C 
ATOM     21  C   UNL     1     -27.972 -21.543  -9.040  1.00  0.00     0.178 C 
ATOM     22  C   UNL     1     -27.932 -22.533  -7.847  1.00  0.00     0.177 C 
BRANCH  18  23
ATOM     23  O   UNL     1     -24.358 -23.547  -8.496  1.00  0.00    -0.385 OA
ATOM     24  H   UNL     1     -23.543 -23.091  -8.165  1.00  0.00     0.211 HD
ENDBRANCH  18  23
BRANCH  20  25
ATOM     25  O   UNL     1     -27.010 -24.394  -9.067  1.00  0.00    -0.387 OA
ATOM     26  H   UNL     1     -26.811 -23.910  -9.910  1.00  0.00     0.211 HD
ENDBRANCH  20  25
BRANCH  21  27
ATOM     27  C   UNL     1     -29.104 -20.515  -8.885  1.00  0.00     0.191 C 
BRANCH  27  28
ATOM     28  O   UNL     1     -28.737 -19.269  -9.414  1.00  0.00    -0.394 OA
ATOM     29  H   UNL     1     -29.537 -18.911  -9.881  1.00  0.00     0.210 HD
ENDBRANCH  27  28
ENDBRANCH  21  27
BRANCH  22  30
ATOM     30  O   UNL     1     -29.125 -23.274  -7.775  1.00  0.00    -0.387 OA
ATOM     31  H   UNL     1     -29.786 -22.826  -8.365  1.00  0.00     0.211 HD
ENDBRANCH  22  30
ENDBRANCH   1  17
TORSDOF 10
ENDMDL
MODEL 6
REMARK VINA RESULT:    -5.351      4.037      7.880
REMARK INTER + INTRA:          -8.337
REMARK INTER:                  -7.156
REMARK INTRA:                  -1.181
REMARK UNBOUND:                -0.796
REMARK SMILES OC[C@H]1O[C@H](O[C@H]2OC=C[C@@H]3[C@H](O)[C@@H]4O[C@]4(CO)[C@H]23)[C@H](O)[C@H](O)[C@@H]1O
REMARK SMILES IDX 6 1 7 2 10 3 9 4 11 5 8 6 19 7 12 8 16 9 14 10 15 11 13 12
REMARK SMILES IDX 17 14 18 15 5 17 20 18 4 19 22 20 3 21 24 22 21 23 23 25
REMARK SMILES IDX 2 27 1 28 25 30
REMARK H PARENT 13 13 18 16 21 24 23 26 1 29 25 31
REMARK Flexibility Score: inf
ROOT
ATOM      1  O   UNL     1     -25.026 -20.105 -12.484  1.00  0.00    -0.310 OA
ENDROOT
BRANCH   1   2
ATOM      2  C   UNL     1     -25.885 -21.015 -11.813  1.00  0.00     0.315 C 
ATOM      3  C   UNL     1     -23.825 -22.896 -11.253  1.00  0.00     0.018 C 
ATOM      4  C   UNL     1     -24.641 -23.078 -12.293  1.00  0.00     0.186 C 
ATOM      5  C   UNL     1     -24.126 -21.897 -10.145  1.00  0.00     0.059 C 
ATOM      6  O   UNL     1     -25.772 -22.278 -12.460  1.00  0.00    -0.472 OA
ATOM      7  C   UNL     1     -25.479 -21.168 -10.329  1.00  0.00     0.105 C 
ATOM      8  C   UNL     1     -24.264 -22.590  -8.773  1.00  0.00     0.154 C 
ATOM      9  C   UNL     1     -26.498 -21.969  -9.510  1.00  0.00     0.130 C 
ATOM     10  C   UNL     1     -25.758 -22.789  -8.535  1.00  0.00     0.183 C 
ATOM     11  O   UNL     1     -26.437 -23.373  -9.630  1.00  0.00    -0.360 OA
BRANCH   8  12
ATOM     12  O   UNL     1     -23.582 -23.817  -8.712  1.00  0.00    -0.390 OA
ATOM     13  H   UNL     1     -22.820 -23.686  -8.091  1.00  0.00     0.211 HD
ENDBRANCH   8  12
BRANCH   9  14
ATOM     14  C   UNL     1     -27.834 -21.392  -9.025  1.00  0.00     0.195 C 
BRANCH  14  15
ATOM     15  O   UNL     1     -27.859 -20.003  -9.197  1.00  0.00    -0.393 OA
ATOM     16  H   UNL     1     -28.611 -19.809  -9.816  1.00  0.00     0.210 HD
ENDBRANCH  14  15
ENDBRANCH   9  14
ENDBRANCH   1   2
BRANCH   1  17
ATOM     17  C   UNL     1     -25.667 -19.440 -13.567  1.00  0.00     0.286 C 
ATOM     18  C   UNL     1     -24.929 -19.726 -14.894  1.00  0.00     0.202 C 
ATOM     19  O   UNL     1     -25.726 -18.040 -13.331  1.00  0.00    -0.341 OA
ATOM     20  C   UNL     1     -23.525 -19.091 -14.906  1.00  0.00     0.179 C 
ATOM     21  C   UNL     1     -24.431 -17.472 -13.186  1.00  0.00     0.178 C 
ATOM     22  C   UNL     1     -23.630 -17.611 -14.507  1.00  0.00     0.177 C 
BRANCH  18  23
ATOM     23  O   UNL     1     -24.883 -21.103 -15.182  1.00  0.00    -0.385 OA
ATOM     24  H   UNL     1     -25.398 -21.264 -16.013  1.00  0.00     0.211 HD
ENDBRANCH  18  23
BRANCH  20  25
ATOM     25  O   UNL     1     -22.665 -19.762 -14.015  1.00  0.00    -0.387 OA
ATOM     26  H   UNL     1     -23.198 -19.987 -13.209  1.00  0.00     0.211 HD
ENDBRANCH  20  25
BRANCH  21  27
ATOM     27  C   UNL     1     -24.611 -15.999 -12.785  1.00  0.00     0.191 C 
BRANCH  27  28
ATOM     28  O   UNL     1     -24.429 -15.145 -13.884  1.00  0.00    -0.394 OA
ATOM     29  H   UNL     1     -25.169 -14.485 -13.857  1.00  0.00     0.210 HD
ENDBRANCH  27  28
ENDBRANCH  21  27
BRANCH  22  30
ATOM     30  O   UNL     1     -22.333 -17.085 -14.360  1.00  0.00    -0.387 OA
ATOM     31  H   UNL     1     -21.755 -17.819 -14.024  1.00  0.00     0.211 HD
ENDBRANCH  22  30
ENDBRANCH   1  17
TORSDOF 10
ENDMDL
MODEL 7
REMARK VINA RESULT:    -5.061      2.654      4.790
REMARK INTER + INTRA:          -7.929
REMARK INTER:                  -7.254
REMARK INTRA:                  -0.675
REMARK UNBOUND:                -0.796
REMARK SMILES OC[C@H]1O[C@H](O[C@H]2OC=C[C@@H]3[C@H](O)[C@@H]4O[C@]4(CO)[C@H]23)[C@H](O)[C@H](O)[C@@H]1O
REMARK SMILES IDX 6 1 7 2 10 3 9 4 11 5 8 6 19 7 12 8 16 9 14 10 15 11 13 12
REMARK SMILES IDX 17 14 18 15 5 17 20 18 4 19 22 20 3 21 24 22 21 23 23 25
REMARK SMILES IDX 2 27 1 28 25 30
REMARK H PARENT 13 13 18 16 21 24 23 26 1 29 25 31
REMARK Flexibility Score: inf
ROOT
ATOM      1  O   UNL     1     -24.999 -18.009 -12.856  1.00  0.00    -0.310 OA
ENDROOT
BRANCH   1   2
ATOM      2  C   UNL     1     -23.974 -17.386 -13.614  1.00  0.00     0.315 C 
ATOM      3  C   UNL     1     -25.715 -15.494 -14.833  1.00  0.00     0.018 C 
ATOM      4  C   UNL     1     -25.359 -16.602 -15.486  1.00  0.00     0.186 C 
ATOM      5  C   UNL     1     -24.991 -15.016 -13.584  1.00  0.00     0.059 C 
ATOM      6  O   UNL     1     -24.355 -17.433 -14.984  1.00  0.00    -0.472 OA
ATOM      7  C   UNL     1     -23.791 -15.910 -13.190  1.00  0.00     0.105 C 
ATOM      8  C   UNL     1     -24.361 -13.621 -13.787  1.00  0.00     0.154 C 
ATOM      9  C   UNL     1     -22.559 -15.254 -13.823  1.00  0.00     0.130 C 
ATOM     10  C   UNL     1     -22.894 -13.855 -14.134  1.00  0.00     0.183 C 
ATOM     11  O   UNL     1     -22.696 -14.813 -15.155  1.00  0.00    -0.360 OA
BRANCH   8  12
ATOM     12  O   UNL     1     -25.000 -12.877 -14.793  1.00  0.00    -0.390 OA
ATOM     13  H   UNL     1     -24.739 -13.289 -15.658  1.00  0.00     0.211 HD
ENDBRANCH   8  12
BRANCH   9  14
ATOM     14  C   UNL     1     -21.124 -15.510 -13.343  1.00  0.00     0.195 C 
BRANCH  14  15
ATOM     15  O   UNL     1     -20.369 -16.114 -14.356  1.00  0.00    -0.393 OA
ATOM     16  H   UNL     1     -19.650 -15.472 -14.593  1.00  0.00     0.210 HD
ENDBRANCH  14  15
ENDBRANCH   9  14
ENDBRANCH   1   2
BRANCH   1  17
ATOM     17  C   UNL     1     -25.591 -19.113 -13.532  1.00  0.00     0.286 C 
ATOM     18  C   UNL     1     -27.003 -19.400 -12.975  1.00  0.00     0.202 C 
ATOM     19  O   UNL     1     -24.773 -20.269 -13.416  1.00  0.00    -0.341 OA
ATOM     20  C   UNL     1     -26.941 -19.905 -11.519  1.00  0.00     0.179 C 
ATOM     21  C   UNL     1     -24.585 -20.650 -12.060  1.00  0.00     0.178 C 
ATOM     22  C   UNL     1     -25.937 -21.064 -11.422  1.00  0.00     0.177 C 
BRANCH  18  23
ATOM     23  O   UNL     1     -27.855 -18.288 -13.107  1.00  0.00    -0.385 OA
ATOM     24  H   UNL     1     -28.766 -18.618 -13.317  1.00  0.00     0.211 HD
ENDBRANCH  18  23
BRANCH  20  25
ATOM     25  O   UNL     1     -26.555 -18.869 -10.647  1.00  0.00    -0.387 OA
ATOM     26  H   UNL     1     -27.230 -18.147 -10.735  1.00  0.00     0.211 HD
ENDBRANCH  20  25
BRANCH  21  27
ATOM     27  C   UNL     1     -23.571 -21.806 -12.037  1.00  0.00     0.191 C 
BRANCH  27  28
ATOM     28  O   UNL     1     -24.217 -23.051 -11.994  1.00  0.00    -0.394 OA
ATOM     29  H   UNL     1     -24.205 -23.409 -12.920  1.00  0.00     0.210 HD
ENDBRANCH  27  28
ENDBRANCH  21  27
BRANCH  22  30
ATOM     30  O   UNL     1     -25.764 -21.406 -10.069  1.00  0.00    -0.387 OA
ATOM     31  H   UNL     1     -26.250 -22.259  -9.917  1.00  0.00     0.211 HD
ENDBRANCH  22  30
ENDBRANCH   1  17
TORSDOF 10
ENDMDL
MODEL 8
REMARK VINA RESULT:    -4.988      6.233      9.118
REMARK INTER + INTRA:          -7.826
REMARK INTER:                  -7.665
REMARK INTRA:                  -0.161
REMARK UNBOUND:                -0.796
REMARK SMILES OC[C@H]1O[C@H](O[C@H]2OC=C[C@@H]3[C@H](O)[C@@H]4O[C@]4(CO)[C@H]23)[C@H](O)[C@H](O)[C@@H]1O
REMARK SMILES IDX 6 1 7 2 10 3 9 4 11 5 8 6 19 7 12 8 16 9 14 10 15 11 13 12
REMARK SMILES IDX 17 14 18 15 5 17 20 18 4 19 22 20 3 21 24 22 21 23 23 25
REMARK SMILES IDX 2 27 1 28 25 30
REMARK H PARENT 13 13 18 16 21 24 23 26 1 29 25 31
REMARK Flexibility Score: inf
ROOT
ATOM      1  O   UNL     1     -26.070 -21.295 -10.496  1.00  0.00    -0.310 OA
ENDROOT
BRANCH   1   2
ATOM      2  C   UNL     1     -25.078 -21.087 -11.490  1.00  0.00     0.315 C 
ATOM      3  C   UNL     1     -24.279 -23.817 -11.583  1.00  0.00     0.018 C 
ATOM      4  C   UNL     1     -23.579 -22.932 -10.870  1.00  0.00     0.186 C 
ATOM      5  C   UNL     1     -25.310 -23.395 -12.618  1.00  0.00     0.059 C 
ATOM      6  O   UNL     1     -23.839 -21.565 -10.976  1.00  0.00    -0.472 OA
ATOM      7  C   UNL     1     -25.421 -21.861 -12.784  1.00  0.00     0.105 C 
ATOM      8  C   UNL     1     -24.939 -23.894 -14.031  1.00  0.00     0.154 C 
ATOM      9  C   UNL     1     -24.501 -21.502 -13.957  1.00  0.00     0.130 C 
ATOM     10  C   UNL     1     -24.255 -22.727 -14.736  1.00  0.00     0.183 C 
ATOM     11  O   UNL     1     -23.232 -22.119 -13.971  1.00  0.00    -0.360 OA
BRANCH   8  12
ATOM     12  O   UNL     1     -24.103 -25.022 -14.007  1.00  0.00    -0.390 OA
ATOM     13  H   UNL     1     -23.580 -24.969 -13.165  1.00  0.00     0.211 HD
ENDBRANCH   8  12
BRANCH   9  14
ATOM     14  C   UNL     1     -24.628 -20.205 -14.766  1.00  0.00     0.195 C 
BRANCH  14  15
ATOM     15  O   UNL     1     -23.499 -19.398 -14.578  1.00  0.00    -0.393 OA
ATOM     16  H   UNL     1     -23.734 -18.745 -13.869  1.00  0.00     0.210 HD
ENDBRANCH  14  15
ENDBRANCH   9  14
ENDBRANCH   1   2
BRANCH   1  17
ATOM     17  C   UNL     1     -27.224 -21.959 -10.999  1.00  0.00     0.286 C 
ATOM     18  C   UNL     1     -28.467 -21.048 -10.887  1.00  0.00     0.202 C 
ATOM     19  O   UNL     1     -27.445 -23.177 -10.303  1.00  0.00    -0.341 OA
ATOM     20  C   UNL     1     -28.850 -20.798  -9.415  1.00  0.00     0.179 C 
ATOM     21  C   UNL     1     -27.647 -22.965  -8.913  1.00  0.00     0.178 C 
ATOM     22  C   UNL     1     -28.939 -22.141  -8.674  1.00  0.00     0.177 C 
BRANCH  18  23
ATOM     23  O   UNL     1     -28.301 -19.844 -11.596  1.00  0.00    -0.385 OA
ATOM     24  H   UNL     1     -28.370 -19.093 -10.954  1.00  0.00     0.211 HD
ENDBRANCH  18  23
BRANCH  20  25
ATOM     25  O   UNL     1     -27.902 -19.971  -8.785  1.00  0.00    -0.387 OA
ATOM     26  H   UNL     1     -27.065 -20.030  -9.315  1.00  0.00     0.211 HD
ENDBRANCH  20  25
BRANCH  21  27
ATOM     27  C   UNL     1     -27.721 -24.344  -8.237  1.00  0.00     0.191 C 
BRANCH  27  28
ATOM     28  O   UNL     1     -29.048 -24.699  -7.947  1.00  0.00    -0.394 OA
ATOM     29  H   UNL     1     -29.607 -24.332  -8.680  1.00  0.00     0.210 HD
ENDBRANCH  27  28
ENDBRANCH  21  27
BRANCH  22  30
ATOM     30  O   UNL     1     -29.125 -21.894  -7.302  1.00  0.00    -0.387 OA
ATOM     31  H   UNL     1     -29.392 -20.942  -7.208  1.00  0.00     0.211 HD
ENDBRANCH  22  30
ENDBRANCH   1  17
TORSDOF 10
ENDMDL
