MODEL 1
REMARK VINA RESULT:    -3.982      0.000      0.000
REMARK INTER + INTRA:         -10.533
REMARK INTER:                  -8.639
REMARK INTRA:                  -1.894
REMARK UNBOUND:                -1.894
REMARK SMILES CCCCCCCCCCCCCCCCCCCCCC(=O)[O-]
REMARK SMILES IDX 12 1 11 2 10 3 9 4 8 5 7 6 6 7 5 8 4 9 3 10 2 11 1 12 13 13
REMARK SMILES IDX 14 14 15 15 16 16 17 17 18 18 19 19 20 20 21 21 22 22 23 23
REMARK SMILES IDX 24 24
REMARK H PARENT
REMARK Flexibility Score: inf
ROOT
ATOM      1  C   UNL     1      -7.445  25.490  22.236  1.00  0.00     0.000 C 
ENDROOT
BRANCH   1   2
ATOM      2  C   UNL     1      -8.555  24.434  22.147  1.00  0.00     0.000 C 
BRANCH   2   3
ATOM      3  C   UNL     1      -9.959  25.058  22.085  1.00  0.00     0.000 C 
BRANCH   3   4
ATOM      4  C   UNL     1     -11.078  24.022  22.284  1.00  0.00    -0.000 C 
BRANCH   4   5
ATOM      5  C   UNL     1     -10.542  22.606  22.562  1.00  0.00    -0.000 C 
BRANCH   5   6
ATOM      6  C   UNL     1      -9.726  21.983  21.414  1.00  0.00    -0.000 C 
BRANCH   6   7
ATOM      7  C   UNL     1     -10.534  20.963  20.590  1.00  0.00    -0.000 C 
BRANCH   7   8
ATOM      8  C   UNL     1     -11.123  21.576  19.309  1.00  0.00    -0.000 C 
BRANCH   8   9
ATOM      9  C   UNL     1     -10.277  22.739  18.760  1.00  0.00    -0.000 C 
BRANCH   9  10
ATOM     10  C   UNL     1     -11.079  24.054  18.671  1.00  0.00    -0.000 C 
BRANCH  10  11
ATOM     11  C   UNL     1     -10.335  25.184  17.937  1.00  0.00    -0.003 C 
ATOM     12  C   UNL     1      -9.925  26.334  18.858  1.00  0.00     0.004 C 
ENDBRANCH  10  11
ENDBRANCH   9  10
ENDBRANCH   8   9
ENDBRANCH   7   8
ENDBRANCH   6   7
ENDBRANCH   5   6
ENDBRANCH   4   5
ENDBRANCH   3   4
ENDBRANCH   2   3
ENDBRANCH   1   2
BRANCH   1  13
ATOM     13  C   UNL     1      -7.057  25.763  23.695  1.00  0.00     0.000 C 
BRANCH  13  14
ATOM     14  C   UNL     1      -8.184  26.509  24.428  1.00  0.00     0.000 C 
BRANCH  14  15
ATOM     15  C   UNL     1      -8.518  25.885  25.792  1.00  0.00     0.000 C 
BRANCH  15  16
ATOM     16  C   UNL     1      -9.990  26.093  26.191  1.00  0.00     0.000 C 
BRANCH  16  17
ATOM     17  C   UNL     1     -10.216  27.430  26.919  1.00  0.00     0.000 C 
BRANCH  17  18
ATOM     18  C   UNL     1     -11.125  28.384  26.124  1.00  0.00     0.000 C 
BRANCH  18  19
ATOM     19  C   UNL     1     -10.339  29.328  25.196  1.00  0.00     0.000 C 
BRANCH  19  20
ATOM     20  C   UNL     1     -11.052  29.695  23.883  1.00  0.00     0.006 C 
BRANCH  20  21
ATOM     21  C   UNL     1     -11.125  28.525  22.894  1.00  0.00     0.053 C 
BRANCH  21  22
ATOM     22  C   UNL     1     -10.291  28.811  21.685  1.00  0.00     0.041 C 
ATOM     23  O   UNL     1     -10.752  29.518  20.751  1.00  0.00    -0.550 OA
ATOM     24  O   UNL     1      -9.022  28.255  21.569  1.00  0.00    -0.550 OA
ENDBRANCH  21  22
ENDBRANCH  20  21
ENDBRANCH  19  20
ENDBRANCH  18  19
ENDBRANCH  17  18
ENDBRANCH  16  17
ENDBRANCH  15  16
ENDBRANCH  14  15
ENDBRANCH  13  14
ENDBRANCH   1  13
TORSDOF 20
ENDMDL
MODEL 2
REMARK VINA RESULT:    -3.356     15.048     17.949
REMARK INTER + INTRA:          -9.174
REMARK INTER:                  -7.359
REMARK INTRA:                  -1.816
REMARK UNBOUND:                -1.894
REMARK SMILES CCCCCCCCCCCCCCCCCCCCCC(=O)[O-]
REMARK SMILES IDX 12 1 11 2 10 3 9 4 8 5 7 6 6 7 5 8 4 9 3 10 2 11 1 12 13 13
REMARK SMILES IDX 14 14 15 15 16 16 17 17 18 18 19 19 20 20 21 21 22 22 23 23
REMARK SMILES IDX 24 24
REMARK H PARENT
REMARK Flexibility Score: inf
ROOT
ATOM      1  C   UNL     1       8.783  27.589  27.714  1.00  0.00     0.000 C 
ENDROOT
BRANCH   1   2
ATOM      2  C   UNL     1       8.072  26.972  26.501  1.00  0.00     0.000 C 
BRANCH   2   3
ATOM      3  C   UNL     1       8.863  27.162  25.197  1.00  0.00     0.000 C 
BRANCH   3   4
ATOM      4  C   UNL     1       8.615  26.030  24.184  1.00  0.00    -0.000 C 
BRANCH   4   5
ATOM      5  C   UNL     1       7.534  25.037  24.647  1.00  0.00    -0.000 C 
BRANCH   5   6
ATOM      6  C   UNL     1       7.060  24.044  23.569  1.00  0.00    -0.000 C 
BRANCH   6   7
ATOM      7  C   UNL     1       5.757  24.487  22.879  1.00  0.00    -0.000 C 
BRANCH   7   8
ATOM      8  C   UNL     1       5.047  25.624  23.633  1.00  0.00    -0.000 C 
BRANCH   8   9
ATOM      9  C   UNL     1       3.911  25.119  24.541  1.00  0.00    -0.000 C 
BRANCH   9  10
ATOM     10  C   UNL     1       3.537  26.143  25.632  1.00  0.00    -0.000 C 
BRANCH  10  11
ATOM     11  C   UNL     1       4.269  25.918  26.967  1.00  0.00    -0.003 C 
ATOM     12  C   UNL     1       4.826  27.206  27.575  1.00  0.00     0.004 C 
ENDBRANCH  10  11
ENDBRANCH   9  10
ENDBRANCH   8   9
ENDBRANCH   7   8
ENDBRANCH   6   7
ENDBRANCH   5   6
ENDBRANCH   4   5
ENDBRANCH   3   4
ENDBRANCH   2   3
ENDBRANCH   1   2
BRANCH   1  13
ATOM     13  C   UNL     1       9.124  26.518  28.759  1.00  0.00     0.000 C 
BRANCH  13  14
ATOM     14  C   UNL     1       7.896  25.644  29.063  1.00  0.00     0.000 C 
BRANCH  14  15
ATOM     15  C   UNL     1       8.156  24.625  30.184  1.00  0.00     0.000 C 
BRANCH  15  16
ATOM     16  C   UNL     1       8.395  25.297  31.548  1.00  0.00     0.000 C 
BRANCH  16  17
ATOM     17  C   UNL     1       7.302  24.945  32.572  1.00  0.00     0.000 C 
BRANCH  17  18
ATOM     18  C   UNL     1       6.971  23.441  32.584  1.00  0.00     0.000 C 
BRANCH  18  19
ATOM     19  C   UNL     1       6.248  22.997  33.868  1.00  0.00     0.000 C 
BRANCH  19  20
ATOM     20  C   UNL     1       4.825  22.448  33.658  1.00  0.00     0.006 C 
BRANCH  20  21
ATOM     21  C   UNL     1       4.022  23.248  32.626  1.00  0.00     0.053 C 
BRANCH  21  22
ATOM     22  C   UNL     1       2.692  22.606  32.388  1.00  0.00     0.041 C 
ATOM     23  O   UNL     1       2.427  21.488  32.905  1.00  0.00    -0.550 OA
ATOM     24  O   UNL     1       1.763  23.218  31.555  1.00  0.00    -0.550 OA
ENDBRANCH  21  22
ENDBRANCH  20  21
ENDBRANCH  19  20
ENDBRANCH  18  19
ENDBRANCH  17  18
ENDBRANCH  16  17
ENDBRANCH  15  16
ENDBRANCH  14  15
ENDBRANCH  13  14
ENDBRANCH   1  13
TORSDOF 20
ENDMDL
MODEL 3
REMARK VINA RESULT:    -3.271      1.967      3.946
REMARK INTER + INTRA:          -8.990
REMARK INTER:                  -7.180
REMARK INTRA:                  -1.810
REMARK UNBOUND:                -1.894
REMARK SMILES CCCCCCCCCCCCCCCCCCCCCC(=O)[O-]
REMARK SMILES IDX 12 1 11 2 10 3 9 4 8 5 7 6 6 7 5 8 4 9 3 10 2 11 1 12 13 13
REMARK SMILES IDX 14 14 15 15 16 16 17 17 18 18 19 19 20 20 21 21 22 22 23 23
REMARK SMILES IDX 24 24
REMARK H PARENT
REMARK Flexibility Score: inf
ROOT
ATOM      1  C   UNL     1     -10.034  27.824  20.728  1.00  0.00     0.000 C 
ENDROOT
BRANCH   1   2
ATOM      2  C   UNL     1     -10.132  26.295  20.637  1.00  0.00     0.000 C 
BRANCH   2   3
ATOM      3  C   UNL     1     -10.353  25.804  19.197  1.00  0.00     0.000 C 
BRANCH   3   4
ATOM      4  C   UNL     1      -9.210  24.903  18.696  1.00  0.00    -0.000 C 
BRANCH   4   5
ATOM      5  C   UNL     1      -9.666  23.461  18.409  1.00  0.00    -0.000 C 
BRANCH   5   6
ATOM      6  C   UNL     1     -11.062  23.101  18.951  1.00  0.00    -0.000 C 
BRANCH   6   7
ATOM      7  C   UNL     1     -11.112  21.704  19.597  1.00  0.00    -0.000 C 
BRANCH   7   8
ATOM      8  C   UNL     1     -10.128  21.563  20.771  1.00  0.00    -0.000 C 
BRANCH   8   9
ATOM      9  C   UNL     1     -10.068  22.823  21.654  1.00  0.00    -0.000 C 
BRANCH   9  10
ATOM     10  C   UNL     1      -8.631  23.145  22.114  1.00  0.00    -0.000 C 
BRANCH  10  11
ATOM     11  C   UNL     1      -8.450  24.593  22.605  1.00  0.00    -0.003 C 
ATOM     12  C   UNL     1      -7.143  25.231  22.132  1.00  0.00     0.004 C 
ENDBRANCH  10  11
ENDBRANCH   9  10
ENDBRANCH   8   9
ENDBRANCH   7   8
ENDBRANCH   6   7
ENDBRANCH   5   6
ENDBRANCH   4   5
ENDBRANCH   3   4
ENDBRANCH   2   3
ENDBRANCH   1   2
BRANCH   1  13
ATOM     13  C   UNL     1     -10.214  28.305  22.174  1.00  0.00     0.000 C 
BRANCH  13  14
ATOM     14  C   UNL     1      -8.858  28.670  22.799  1.00  0.00     0.000 C 
BRANCH  14  15
ATOM     15  C   UNL     1      -8.965  29.810  23.825  1.00  0.00     0.000 C 
BRANCH  15  16
ATOM     16  C   UNL     1     -10.423  30.139  24.191  1.00  0.00     0.000 C 
BRANCH  16  17
ATOM     17  C   UNL     1     -10.524  31.073  25.409  1.00  0.00     0.000 C 
BRANCH  17  18
ATOM     18  C   UNL     1     -11.095  30.361  26.649  1.00  0.00     0.000 C 
BRANCH  18  19
ATOM     19  C   UNL     1     -11.125  28.829  26.501  1.00  0.00     0.000 C 
BRANCH  19  20
ATOM     20  C   UNL     1      -9.877  28.099  27.029  1.00  0.00     0.006 C 
BRANCH  20  21
ATOM     21  C   UNL     1      -9.216  27.204  25.974  1.00  0.00     0.053 C 
BRANCH  21  22
ATOM     22  C   UNL     1      -9.897  25.873  25.918  1.00  0.00     0.041 C 
ATOM     23  O   UNL     1     -10.208  25.366  24.808  1.00  0.00    -0.550 OA
ATOM     24  O   UNL     1     -10.234  25.215  27.096  1.00  0.00    -0.550 OA
ENDBRANCH  21  22
ENDBRANCH  20  21
ENDBRANCH  19  20
ENDBRANCH  18  19
ENDBRANCH  17  18
ENDBRANCH  16  17
ENDBRANCH  15  16
ENDBRANCH  14  15
ENDBRANCH  13  14
ENDBRANCH   1  13
TORSDOF 20
ENDMDL
MODEL 4
REMARK VINA RESULT:    -3.112     15.096     17.946
REMARK INTER + INTRA:          -8.644
REMARK INTER:                  -7.228
REMARK INTRA:                  -1.416
REMARK UNBOUND:                -1.894
REMARK SMILES CCCCCCCCCCCCCCCCCCCCCC(=O)[O-]
REMARK SMILES IDX 12 1 11 2 10 3 9 4 8 5 7 6 6 7 5 8 4 9 3 10 2 11 1 12 13 13
REMARK SMILES IDX 14 14 15 15 16 16 17 17 18 18 19 19 20 20 21 21 22 22 23 23
REMARK SMILES IDX 24 24
REMARK H PARENT
REMARK Flexibility Score: inf
ROOT
ATOM      1  C   UNL     1       9.075  25.889  29.409  1.00  0.00     0.000 C 
ENDROOT
BRANCH   1   2
ATOM      2  C   UNL     1       8.892  24.826  28.317  1.00  0.00     0.000 C 
BRANCH   2   3
ATOM      3  C   UNL     1       8.991  25.415  26.900  1.00  0.00     0.000 C 
BRANCH   3   4
ATOM      4  C   UNL     1       8.289  24.542  25.845  1.00  0.00    -0.000 C 
BRANCH   4   5
ATOM      5  C   UNL     1       8.819  24.781  24.420  1.00  0.00    -0.000 C 
BRANCH   5   6
ATOM      6  C   UNL     1       7.732  25.009  23.352  1.00  0.00    -0.000 C 
BRANCH   6   7
ATOM      7  C   UNL     1       6.462  24.176  23.604  1.00  0.00    -0.000 C 
BRANCH   7   8
ATOM      8  C   UNL     1       5.173  24.989  23.395  1.00  0.00    -0.000 C 
BRANCH   8   9
ATOM      9  C   UNL     1       4.959  26.057  24.483  1.00  0.00    -0.000 C 
BRANCH   9  10
ATOM     10  C   UNL     1       3.943  25.606  25.553  1.00  0.00    -0.000 C 
BRANCH  10  11
ATOM     11  C   UNL     1       4.333  26.012  26.985  1.00  0.00    -0.003 C 
ATOM     12  C   UNL     1       5.640  26.802  27.053  1.00  0.00     0.004 C 
ENDBRANCH  10  11
ENDBRANCH   9  10
ENDBRANCH   8   9
ENDBRANCH   7   8
ENDBRANCH   6   7
ENDBRANCH   5   6
ENDBRANCH   4   5
ENDBRANCH   3   4
ENDBRANCH   2   3
ENDBRANCH   1   2
BRANCH   1  13
ATOM     13  C   UNL     1       9.006  25.263  30.808  1.00  0.00     0.000 C 
BRANCH  13  14
ATOM     14  C   UNL     1       7.555  25.221  31.314  1.00  0.00     0.000 C 
BRANCH  14  15
ATOM     15  C   UNL     1       7.154  23.837  31.851  1.00  0.00     0.000 C 
BRANCH  15  16
ATOM     16  C   UNL     1       7.184  23.769  33.388  1.00  0.00     0.000 C 
BRANCH  16  17
ATOM     17  C   UNL     1       6.491  22.508  33.931  1.00  0.00     0.000 C 
BRANCH  17  18
ATOM     18  C   UNL     1       4.977  22.708  34.125  1.00  0.00     0.000 C 
BRANCH  18  19
ATOM     19  C   UNL     1       4.176  21.401  33.977  1.00  0.00     0.000 C 
BRANCH  19  20
ATOM     20  C   UNL     1       2.681  21.586  33.662  1.00  0.00     0.006 C 
BRANCH  20  21
ATOM     21  C   UNL     1       2.366  21.479  32.165  1.00  0.00     0.053 C 
BRANCH  21  22
ATOM     22  C   UNL     1       2.358  22.836  31.535  1.00  0.00     0.041 C 
ATOM     23  O   UNL     1       2.685  23.849  32.208  1.00  0.00    -0.550 OA
ATOM     24  O   UNL     1       1.942  22.988  30.217  1.00  0.00    -0.550 OA
ENDBRANCH  21  22
ENDBRANCH  20  21
ENDBRANCH  19  20
ENDBRANCH  18  19
ENDBRANCH  17  18
ENDBRANCH  16  17
ENDBRANCH  15  16
ENDBRANCH  14  15
ENDBRANCH  13  14
ENDBRANCH   1  13
TORSDOF 20
ENDMDL
MODEL 5
REMARK VINA RESULT:    -2.808      2.402      3.909
REMARK INTER + INTRA:          -7.985
REMARK INTER:                  -6.951
REMARK INTRA:                  -1.034
REMARK UNBOUND:                -1.894
REMARK SMILES CCCCCCCCCCCCCCCCCCCCCC(=O)[O-]
REMARK SMILES IDX 12 1 11 2 10 3 9 4 8 5 7 6 6 7 5 8 4 9 3 10 2 11 1 12 13 13
REMARK SMILES IDX 14 14 15 15 16 16 17 17 18 18 19 19 20 20 21 21 22 22 23 23
REMARK SMILES IDX 24 24
REMARK H PARENT
REMARK Flexibility Score: inf
ROOT
ATOM      1  C   UNL     1      -8.782  24.151  22.279  1.00  0.00     0.000 C 
ENDROOT
BRANCH   1   2
ATOM      2  C   UNL     1      -8.307  22.701  22.103  1.00  0.00     0.000 C 
BRANCH   2   3
ATOM      3  C   UNL     1      -9.475  21.713  21.963  1.00  0.00     0.000 C 
BRANCH   3   4
ATOM      4  C   UNL     1     -10.622  22.270  21.102  1.00  0.00    -0.000 C 
BRANCH   4   5
ATOM      5  C   UNL     1     -10.578  21.768  19.647  1.00  0.00    -0.000 C 
BRANCH   5   6
ATOM      6  C   UNL     1     -11.117  22.762  18.601  1.00  0.00    -0.000 C 
BRANCH   6   7
ATOM      7  C   UNL     1     -11.123  24.217  19.104  1.00  0.00    -0.000 C 
BRANCH   7   8
ATOM      8  C   UNL     1     -11.113  25.238  17.955  1.00  0.00    -0.000 C 
BRANCH   8   9
ATOM      9  C   UNL     1     -10.636  24.632  16.623  1.00  0.00    -0.000 C 
BRANCH   9  10
ATOM     10  C   UNL     1      -9.323  25.273  16.126  1.00  0.00    -0.000 C 
BRANCH  10  11
ATOM     11  C   UNL     1      -9.295  25.526  14.609  1.00  0.00    -0.003 C 
ATOM     12  C   UNL     1     -10.631  25.239  13.924  1.00  0.00     0.004 C 
ENDBRANCH  10  11
ENDBRANCH   9  10
ENDBRANCH   8   9
ENDBRANCH   7   8
ENDBRANCH   6   7
ENDBRANCH   5   6
ENDBRANCH   4   5
ENDBRANCH   3   4
ENDBRANCH   2   3
ENDBRANCH   1   2
BRANCH   1  13
ATOM     13  C   UNL     1     -10.164  24.203  22.943  1.00  0.00     0.000 C 
BRANCH  13  14
ATOM     14  C   UNL     1     -10.687  25.648  22.999  1.00  0.00     0.000 C 
BRANCH  14  15
ATOM     15  C   UNL     1     -10.437  26.420  21.694  1.00  0.00     0.000 C 
BRANCH  15  16
ATOM     16  C   UNL     1      -9.565  27.670  21.906  1.00  0.00     0.000 C 
BRANCH  16  17
ATOM     17  C   UNL     1     -10.403  28.957  22.008  1.00  0.00     0.000 C 
BRANCH  17  18
ATOM     18  C   UNL     1     -10.184  29.695  23.341  1.00  0.00     0.000 C 
BRANCH  18  19
ATOM     19  C   UNL     1      -8.910  29.242  24.076  1.00  0.00     0.000 C 
BRANCH  19  20
ATOM     20  C   UNL     1      -9.125  28.157  25.146  1.00  0.00     0.006 C 
BRANCH  20  21
ATOM     21  C   UNL     1     -10.600  27.975  25.526  1.00  0.00     0.053 C 
BRANCH  21  22
ATOM     22  C   UNL     1     -10.717  27.404  26.904  1.00  0.00     0.041 C 
ATOM     23  O   UNL     1     -11.125  28.123  27.855  1.00  0.00    -0.550 OA
ATOM     24  O   UNL     1     -10.328  26.092  27.148  1.00  0.00    -0.550 OA
ENDBRANCH  21  22
ENDBRANCH  20  21
ENDBRANCH  19  20
ENDBRANCH  18  19
ENDBRANCH  17  18
ENDBRANCH  16  17
ENDBRANCH  15  16
ENDBRANCH  14  15
ENDBRANCH  13  14
ENDBRANCH   1  13
TORSDOF 20
ENDMDL
MODEL 6
REMARK VINA RESULT:    -2.532     15.273     18.748
REMARK INTER + INTRA:          -7.387
REMARK INTER:                  -6.064
REMARK INTRA:                  -1.323
REMARK UNBOUND:                -1.894
REMARK SMILES CCCCCCCCCCCCCCCCCCCCCC(=O)[O-]
REMARK SMILES IDX 12 1 11 2 10 3 9 4 8 5 7 6 6 7 5 8 4 9 3 10 2 11 1 12 13 13
REMARK SMILES IDX 14 14 15 15 16 16 17 17 18 18 19 19 20 20 21 21 22 22 23 23
REMARK SMILES IDX 24 24
REMARK H PARENT
REMARK Flexibility Score: inf
ROOT
ATOM      1  C   UNL     1       7.821  25.007  28.776  1.00  0.00     0.000 C 
ENDROOT
BRANCH   1   2
ATOM      2  C   UNL     1       8.981  24.738  29.745  1.00  0.00     0.000 C 
BRANCH   2   3
ATOM      3  C   UNL     1       9.043  25.764  30.888  1.00  0.00     0.000 C 
BRANCH   3   4
ATOM      4  C   UNL     1       8.531  25.195  32.223  1.00  0.00    -0.000 C 
BRANCH   4   5
ATOM      5  C   UNL     1       8.320  23.671  32.183  1.00  0.00    -0.000 C 
BRANCH   5   6
ATOM      6  C   UNL     1       7.763  23.058  33.482  1.00  0.00    -0.000 C 
BRANCH   6   7
ATOM      7  C   UNL     1       6.320  22.543  33.330  1.00  0.00    -0.000 C 
BRANCH   7   8
ATOM      8  C   UNL     1       5.284  23.679  33.339  1.00  0.00    -0.000 C 
BRANCH   8   9
ATOM      9  C   UNL     1       3.938  23.254  33.955  1.00  0.00    -0.000 C 
BRANCH   9  10
ATOM     10  C   UNL     1       2.753  23.511  33.001  1.00  0.00    -0.000 C 
BRANCH  10  11
ATOM     11  C   UNL     1       2.524  22.380  31.982  1.00  0.00    -0.003 C 
ATOM     12  C   UNL     1       2.546  20.987  32.612  1.00  0.00     0.004 C 
ENDBRANCH  10  11
ENDBRANCH   9  10
ENDBRANCH   8   9
ENDBRANCH   7   8
ENDBRANCH   6   7
ENDBRANCH   5   6
ENDBRANCH   4   5
ENDBRANCH   3   4
ENDBRANCH   2   3
ENDBRANCH   1   2
BRANCH   1  13
ATOM     13  C   UNL     1       7.890  26.432  28.213  1.00  0.00     0.000 C 
BRANCH  13  14
ATOM     14  C   UNL     1       9.110  26.596  27.292  1.00  0.00     0.000 C 
BRANCH  14  15
ATOM     15  C   UNL     1       8.772  27.327  25.983  1.00  0.00     0.000 C 
BRANCH  15  16
ATOM     16  C   UNL     1       9.094  26.484  24.736  1.00  0.00     0.000 C 
BRANCH  16  17
ATOM     17  C   UNL     1       8.144  25.283  24.581  1.00  0.00     0.000 C 
BRANCH  17  18
ATOM     18  C   UNL     1       7.458  25.253  23.202  1.00  0.00     0.000 C 
BRANCH  18  19
ATOM     19  C   UNL     1       6.091  24.547  23.229  1.00  0.00     0.000 C 
BRANCH  19  20
ATOM     20  C   UNL     1       4.982  25.301  23.984  1.00  0.00     0.006 C 
BRANCH  20  21
ATOM     21  C   UNL     1       5.159  25.257  25.507  1.00  0.00     0.053 C 
BRANCH  21  22
ATOM     22  C   UNL     1       4.286  26.279  26.164  1.00  0.00     0.041 C 
ATOM     23  O   UNL     1       3.286  26.743  25.555  1.00  0.00    -0.550 OA
ATOM     24  O   UNL     1       4.607  26.757  27.429  1.00  0.00    -0.550 OA
ENDBRANCH  21  22
ENDBRANCH  20  21
ENDBRANCH  19  20
ENDBRANCH  18  19
ENDBRANCH  17  18
ENDBRANCH  16  17
ENDBRANCH  15  16
ENDBRANCH  14  15
ENDBRANCH  13  14
ENDBRANCH   1  13
TORSDOF 20
ENDMDL
MODEL 7
REMARK VINA RESULT:    -2.464     15.709     19.209
REMARK INTER + INTRA:          -7.238
REMARK INTER:                  -6.261
REMARK INTRA:                  -0.977
REMARK UNBOUND:                -1.894
REMARK SMILES CCCCCCCCCCCCCCCCCCCCCC(=O)[O-]
REMARK SMILES IDX 12 1 11 2 10 3 9 4 8 5 7 6 6 7 5 8 4 9 3 10 2 11 1 12 13 13
REMARK SMILES IDX 14 14 15 15 16 16 17 17 18 18 19 19 20 20 21 21 22 22 23 23
REMARK SMILES IDX 24 24
REMARK H PARENT
REMARK Flexibility Score: inf
ROOT
ATOM      1  C   UNL     1       8.145  24.568  23.617  1.00  0.00     0.000 C 
ENDROOT
BRANCH   1   2
ATOM      2  C   UNL     1       8.863  24.312  24.949  1.00  0.00     0.000 C 
BRANCH   2   3
ATOM      3  C   UNL     1       8.120  24.927  26.146  1.00  0.00     0.000 C 
BRANCH   3   4
ATOM      4  C   UNL     1       8.309  26.451  26.241  1.00  0.00    -0.000 C 
BRANCH   4   5
ATOM      5  C   UNL     1       8.272  26.971  27.689  1.00  0.00    -0.000 C 
BRANCH   5   6
ATOM      6  C   UNL     1       8.997  26.082  28.717  1.00  0.00    -0.000 C 
BRANCH   6   7
ATOM      7  C   UNL     1       8.055  25.532  29.804  1.00  0.00    -0.000 C 
BRANCH   7   8
ATOM      8  C   UNL     1       8.566  24.218  30.418  1.00  0.00    -0.000 C 
BRANCH   8   9
ATOM      9  C   UNL     1       8.483  24.207  31.955  1.00  0.00    -0.000 C 
BRANCH   9  10
ATOM     10  C   UNL     1       7.473  23.164  32.477  1.00  0.00    -0.000 C 
BRANCH  10  11
ATOM     11  C   UNL     1       6.048  23.718  32.653  1.00  0.00    -0.003 C 
ATOM     12  C   UNL     1       5.254  23.004  33.748  1.00  0.00     0.004 C 
ENDBRANCH  10  11
ENDBRANCH   9  10
ENDBRANCH   8   9
ENDBRANCH   7   8
ENDBRANCH   6   7
ENDBRANCH   5   6
ENDBRANCH   4   5
ENDBRANCH   3   4
ENDBRANCH   2   3
ENDBRANCH   1   2
BRANCH   1  13
ATOM     13  C   UNL     1       9.045  25.338  22.642  1.00  0.00     0.000 C 
BRANCH  13  14
ATOM     14  C   UNL     1       8.225  25.895  21.467  1.00  0.00     0.000 C 
BRANCH  14  15
ATOM     15  C   UNL     1       9.103  26.314  20.276  1.00  0.00     0.000 C 
BRANCH  15  16
ATOM     16  C   UNL     1       8.483  27.463  19.462  1.00  0.00     0.000 C 
BRANCH  16  17
ATOM     17  C   UNL     1       8.623  27.248  17.946  1.00  0.00     0.000 C 
BRANCH  17  18
ATOM     18  C   UNL     1       8.021  28.407  17.130  1.00  0.00     0.000 C 
BRANCH  18  19
ATOM     19  C   UNL     1       6.911  27.949  16.166  1.00  0.00     0.000 C 
BRANCH  19  20
ATOM     20  C   UNL     1       5.543  28.620  16.381  1.00  0.00     0.006 C 
BRANCH  20  21
ATOM     21  C   UNL     1       4.714  27.952  17.484  1.00  0.00     0.053 C 
BRANCH  21  22
ATOM     22  C   UNL     1       4.092  28.985  18.369  1.00  0.00     0.041 C 
ATOM     23  O   UNL     1       4.443  30.191  18.277  1.00  0.00    -0.550 OA
ATOM     24  O   UNL     1       3.161  28.608  19.330  1.00  0.00    -0.550 OA
ENDBRANCH  21  22
ENDBRANCH  20  21
ENDBRANCH  19  20
ENDBRANCH  18  19
ENDBRANCH  17  18
ENDBRANCH  16  17
ENDBRANCH  15  16
ENDBRANCH  14  15
ENDBRANCH  13  14
ENDBRANCH   1  13
TORSDOF 20
ENDMDL
MODEL 8
REMARK VINA RESULT:    -2.458     15.247     17.876
REMARK INTER + INTRA:          -7.227
REMARK INTER:                  -5.480
REMARK INTRA:                  -1.747
REMARK UNBOUND:                -1.894
REMARK SMILES CCCCCCCCCCCCCCCCCCCCCC(=O)[O-]
REMARK SMILES IDX 12 1 11 2 10 3 9 4 8 5 7 6 6 7 5 8 4 9 3 10 2 11 1 12 13 13
REMARK SMILES IDX 14 14 15 15 16 16 17 17 18 18 19 19 20 20 21 21 22 22 23 23
REMARK SMILES IDX 24 24
REMARK H PARENT
REMARK Flexibility Score: inf
ROOT
ATOM      1  C   UNL     1       8.849  25.075  21.715  1.00  0.00     0.000 C 
ENDROOT
BRANCH   1   2
ATOM      2  C   UNL     1       9.125  26.537  21.334  1.00  0.00     0.000 C 
BRANCH   2   3
ATOM      3  C   UNL     1       8.204  27.034  20.208  1.00  0.00     0.000 C 
BRANCH   3   4
ATOM      4  C   UNL     1       8.874  26.971  18.824  1.00  0.00    -0.000 C 
BRANCH   4   5
ATOM      5  C   UNL     1       9.019  28.354  18.164  1.00  0.00    -0.000 C 
BRANCH   5   6
ATOM      6  C   UNL     1       8.417  28.466  16.751  1.00  0.00    -0.000 C 
BRANCH   6   7
ATOM      7  C   UNL     1       7.718  29.815  16.502  1.00  0.00    -0.000 C 
BRANCH   7   8
ATOM      8  C   UNL     1       6.192  29.729  16.672  1.00  0.00    -0.000 C 
BRANCH   8   9
ATOM      9  C   UNL     1       5.671  28.281  16.656  1.00  0.00    -0.000 C 
BRANCH   9  10
ATOM     10  C   UNL     1       4.336  28.132  17.414  1.00  0.00    -0.000 C 
BRANCH  10  11
ATOM     11  C   UNL     1       4.268  28.955  18.713  1.00  0.00    -0.003 C 
ATOM     12  C   UNL     1       3.539  28.234  19.847  1.00  0.00     0.004 C 
ENDBRANCH  10  11
ENDBRANCH   9  10
ENDBRANCH   8   9
ENDBRANCH   7   8
ENDBRANCH   6   7
ENDBRANCH   5   6
ENDBRANCH   4   5
ENDBRANCH   3   4
ENDBRANCH   2   3
ENDBRANCH   1   2
BRANCH   1  13
ATOM     13  C   UNL     1       8.797  24.902  23.239  1.00  0.00     0.000 C 
BRANCH  13  14
ATOM     14  C   UNL     1       7.468  24.259  23.668  1.00  0.00     0.000 C 
BRANCH  14  15
ATOM     15  C   UNL     1       6.249  24.914  23.000  1.00  0.00     0.000 C 
BRANCH  15  16
ATOM     16  C   UNL     1       5.122  25.221  24.002  1.00  0.00     0.000 C 
BRANCH  16  17
ATOM     17  C   UNL     1       5.615  25.210  25.459  1.00  0.00     0.000 C 
BRANCH  17  18
ATOM     18  C   UNL     1       4.875  26.236  26.336  1.00  0.00     0.000 C 
BRANCH  18  19
ATOM     19  C   UNL     1       5.783  26.880  27.400  1.00  0.00     0.000 C 
BRANCH  19  20
ATOM     20  C   UNL     1       7.288  26.846  27.080  1.00  0.00     0.006 C 
BRANCH  20  21
ATOM     21  C   UNL     1       8.143  26.395  28.270  1.00  0.00     0.053 C 
BRANCH  21  22
ATOM     22  C   UNL     1       8.371  24.917  28.219  1.00  0.00     0.041 C 
ATOM     23  O   UNL     1       8.496  24.257  29.284  1.00  0.00    -0.550 OA
ATOM     24  O   UNL     1       8.495  24.275  26.992  1.00  0.00    -0.550 OA
ENDBRANCH  21  22
ENDBRANCH  20  21
ENDBRANCH  19  20
ENDBRANCH  18  19
ENDBRANCH  17  18
ENDBRANCH  16  17
ENDBRANCH  15  16
ENDBRANCH  14  15
ENDBRANCH  13  14
ENDBRANCH   1  13
TORSDOF 20
ENDMDL
