MODEL 1
REMARK VINA RESULT:    -4.228      0.000      0.000
REMARK INTER + INTRA:          -7.635
REMARK INTER:                  -6.453
REMARK INTRA:                  -1.183
REMARK UNBOUND:                -1.183
REMARK SMILES O=C([O-])CCCCCCCCC(=O)[O-]
REMARK SMILES IDX 7 1 6 2 5 3 4 4 2 5 1 6 3 7 8 8 9 9 10 10 11 11 12 12 13 13
REMARK SMILES IDX 14 14
REMARK H PARENT
REMARK Flexibility Score: inf
ROOT
ATOM      1  C   UNL     1       9.608  -3.743  47.930  1.00  0.00     0.000 C 
ENDROOT
BRANCH   1   2
ATOM      2  C   UNL     1       9.498  -2.379  48.627  1.00  0.00     0.000 C 
BRANCH   2   3
ATOM      3  C   UNL     1       8.221  -1.644  48.193  1.00  0.00     0.006 C 
BRANCH   3   4
ATOM      4  C   UNL     1       7.854  -1.928  46.730  1.00  0.00     0.053 C 
BRANCH   4   5
ATOM      5  C   UNL     1       6.408  -1.649  46.454  1.00  0.00     0.041 C 
ATOM      6  O   UNL     1       5.886  -0.571  46.841  1.00  0.00    -0.550 OA
ATOM      7  O   UNL     1       5.629  -2.595  45.800  1.00  0.00    -0.550 OA
ENDBRANCH   4   5
ENDBRANCH   3   4
ENDBRANCH   2   3
ENDBRANCH   1   2
BRANCH   1   8
ATOM      8  C   UNL     1       8.827  -4.848  48.659  1.00  0.00     0.000 C 
BRANCH   8   9
ATOM      9  C   UNL     1       7.771  -5.517  47.761  1.00  0.00     0.000 C 
BRANCH   9  10
ATOM     10  C   UNL     1       6.334  -5.214  48.213  1.00  0.00     0.006 C 
BRANCH  10  11
ATOM     11  C   UNL     1       6.280  -4.437  49.535  1.00  0.00     0.053 C 
BRANCH  11  12
ATOM     12  C   UNL     1       5.211  -3.393  49.484  1.00  0.00     0.041 C 
ATOM     13  O   UNL     1       5.310  -2.349  50.181  1.00  0.00    -0.550 OA
ATOM     14  O   UNL     1       4.127  -3.549  48.628  1.00  0.00    -0.550 OA
ENDBRANCH  11  12
ENDBRANCH  10  11
ENDBRANCH   9  10
ENDBRANCH   8   9
ENDBRANCH   1   8
TORSDOF 9
ENDMDL
MODEL 2
REMARK VINA RESULT:    -4.208      0.661      3.694
REMARK INTER + INTRA:          -7.605
REMARK INTER:                  -6.679
REMARK INTRA:                  -0.926
REMARK UNBOUND:                -1.183
REMARK SMILES O=C([O-])CCCCCCCCC(=O)[O-]
REMARK SMILES IDX 7 1 6 2 5 3 4 4 2 5 1 6 3 7 8 8 9 9 10 10 11 11 12 12 13 13
REMARK SMILES IDX 14 14
REMARK H PARENT
REMARK Flexibility Score: inf
ROOT
ATOM      1  C   UNL     1       8.618  -5.158  48.171  1.00  0.00     0.000 C 
ENDROOT
BRANCH   1   2
ATOM      2  C   UNL     1       8.020  -5.236  49.583  1.00  0.00     0.000 C 
BRANCH   2   3
ATOM      3  C   UNL     1       6.485  -5.204  49.531  1.00  0.00     0.006 C 
BRANCH   3   4
ATOM      4  C   UNL     1       5.891  -4.184  50.512  1.00  0.00     0.053 C 
BRANCH   4   5
ATOM      5  C   UNL     1       5.320  -2.995  49.801  1.00  0.00     0.041 C 
ATOM      6  O   UNL     1       5.570  -1.832  50.213  1.00  0.00    -0.550 OA
ATOM      7  O   UNL     1       4.486  -3.173  48.705  1.00  0.00    -0.550 OA
ENDBRANCH   4   5
ENDBRANCH   3   4
ENDBRANCH   2   3
ENDBRANCH   1   2
BRANCH   1   8
ATOM      8  C   UNL     1       9.492  -3.911  47.964  1.00  0.00     0.000 C 
BRANCH   8   9
ATOM      9  C   UNL     1       9.111  -2.758  48.910  1.00  0.00     0.000 C 
BRANCH   9  10
ATOM     10  C   UNL     1       8.369  -1.623  48.187  1.00  0.00     0.006 C 
BRANCH  10  11
ATOM     11  C   UNL     1       7.861  -2.036  46.799  1.00  0.00     0.053 C 
BRANCH  11  12
ATOM     12  C   UNL     1       6.560  -1.363  46.498  1.00  0.00     0.041 C 
ATOM     13  O   UNL     1       5.692  -1.948  45.798  1.00  0.00    -0.550 OA
ATOM     14  O   UNL     1       6.285  -0.111  47.031  1.00  0.00    -0.550 OA
ENDBRANCH  11  12
ENDBRANCH  10  11
ENDBRANCH   9  10
ENDBRANCH   8   9
ENDBRANCH   1   8
TORSDOF 9
ENDMDL
MODEL 3
REMARK VINA RESULT:    -4.188      1.188      3.910
REMARK INTER + INTRA:          -7.575
REMARK INTER:                  -6.663
REMARK INTRA:                  -0.912
REMARK UNBOUND:                -1.183
REMARK SMILES O=C([O-])CCCCCCCCC(=O)[O-]
REMARK SMILES IDX 7 1 6 2 5 3 4 4 2 5 1 6 3 7 8 8 9 9 10 10 11 11 12 12 13 13
REMARK SMILES IDX 14 14
REMARK H PARENT
REMARK Flexibility Score: inf
ROOT
ATOM      1  C   UNL     1       8.841  -3.732  47.892  1.00  0.00     0.000 C 
ENDROOT
BRANCH   1   2
ATOM      2  C   UNL     1       8.517  -4.657  49.075  1.00  0.00     0.000 C 
BRANCH   2   3
ATOM      3  C   UNL     1       7.060  -5.142  49.007  1.00  0.00     0.006 C 
BRANCH   3   4
ATOM      4  C   UNL     1       6.262  -4.761  50.261  1.00  0.00     0.053 C 
BRANCH   4   5
ATOM      5  C   UNL     1       5.814  -3.331  50.223  1.00  0.00     0.041 C 
ATOM      6  O   UNL     1       6.316  -2.490  51.013  1.00  0.00    -0.550 OA
ATOM      7  O   UNL     1       4.818  -2.937  49.339  1.00  0.00    -0.550 OA
ENDBRANCH   4   5
ENDBRANCH   3   4
ENDBRANCH   2   3
ENDBRANCH   1   2
BRANCH   1   8
ATOM      8  C   UNL     1       9.093  -2.279  48.326  1.00  0.00     0.000 C 
BRANCH   8   9
ATOM      9  C   UNL     1       7.921  -1.346  47.976  1.00  0.00     0.000 C 
BRANCH   9  10
ATOM     10  C   UNL     1       7.378  -1.586  46.559  1.00  0.00     0.006 C 
BRANCH  10  11
ATOM     11  C   UNL     1       5.897  -1.212  46.420  1.00  0.00     0.053 C 
BRANCH  11  12
ATOM     12  C   UNL     1       5.168  -2.250  45.627  1.00  0.00     0.041 C 
ATOM     13  O   UNL     1       4.567  -1.933  44.568  1.00  0.00    -0.550 OA
ATOM     14  O   UNL     1       5.196  -3.580  46.031  1.00  0.00    -0.550 OA
ENDBRANCH  11  12
ENDBRANCH  10  11
ENDBRANCH   9  10
ENDBRANCH   8   9
ENDBRANCH   1   8
TORSDOF 9
ENDMDL
MODEL 4
REMARK VINA RESULT:    -4.176      1.358      2.306
REMARK INTER + INTRA:          -7.556
REMARK INTER:                  -6.599
REMARK INTRA:                  -0.957
REMARK UNBOUND:                -1.183
REMARK SMILES O=C([O-])CCCCCCCCC(=O)[O-]
REMARK SMILES IDX 7 1 6 2 5 3 4 4 2 5 1 6 3 7 8 8 9 9 10 10 11 11 12 12 13 13
REMARK SMILES IDX 14 14
REMARK H PARENT
REMARK Flexibility Score: inf
ROOT
ATOM      1  C   UNL     1       8.390  -2.147  47.249  1.00  0.00     0.000 C 
ENDROOT
BRANCH   1   2
ATOM      2  C   UNL     1       7.585  -0.892  47.616  1.00  0.00     0.000 C 
BRANCH   2   3
ATOM      3  C   UNL     1       6.301  -0.800  46.779  1.00  0.00     0.006 C 
BRANCH   3   4
ATOM      4  C   UNL     1       5.275  -1.874  47.166  1.00  0.00     0.053 C 
BRANCH   4   5
ATOM      5  C   UNL     1       5.158  -2.937  46.116  1.00  0.00     0.041 C 
ATOM      6  O   UNL     1       4.951  -2.620  44.916  1.00  0.00    -0.550 OA
ATOM      7  O   UNL     1       5.242  -4.277  46.471  1.00  0.00    -0.550 OA
ENDBRANCH   4   5
ENDBRANCH   3   4
ENDBRANCH   2   3
ENDBRANCH   1   2
BRANCH   1   8
ATOM      8  C   UNL     1       9.525  -2.437  48.245  1.00  0.00     0.000 C 
BRANCH   8   9
ATOM      9  C   UNL     1       9.443  -3.855  48.838  1.00  0.00     0.000 C 
BRANCH   9  10
ATOM     10  C   UNL     1       8.139  -4.576  48.465  1.00  0.00     0.006 C 
BRANCH  10  11
ATOM     11  C   UNL     1       7.322  -4.997  49.694  1.00  0.00     0.053 C 
BRANCH  11  12
ATOM     12  C   UNL     1       6.261  -3.984  49.988  1.00  0.00     0.041 C 
ATOM     13  O   UNL     1       5.047  -4.272  49.822  1.00  0.00    -0.550 OA
ATOM     14  O   UNL     1       6.611  -2.739  50.494  1.00  0.00    -0.550 OA
ENDBRANCH  11  12
ENDBRANCH  10  11
ENDBRANCH   9  10
ENDBRANCH   8   9
ENDBRANCH   1   8
TORSDOF 9
ENDMDL
MODEL 5
REMARK VINA RESULT:    -4.139      2.365      3.507
REMARK INTER + INTRA:          -7.499
REMARK INTER:                  -6.666
REMARK INTRA:                  -0.834
REMARK UNBOUND:                -1.183
REMARK SMILES O=C([O-])CCCCCCCCC(=O)[O-]
REMARK SMILES IDX 7 1 6 2 5 3 4 4 2 5 1 6 3 7 8 8 9 9 10 10 11 11 12 12 13 13
REMARK SMILES IDX 14 14
REMARK H PARENT
REMARK Flexibility Score: inf
ROOT
ATOM      1  C   UNL     1       5.856  -0.864  47.086  1.00  0.00     0.000 C 
ENDROOT
BRANCH   1   2
ATOM      2  C   UNL     1       7.360  -0.551  47.064  1.00  0.00     0.000 C 
BRANCH   2   3
ATOM      3  C   UNL     1       8.133  -1.510  47.982  1.00  0.00     0.006 C 
BRANCH   3   4
ATOM      4  C   UNL     1       8.793  -2.655  47.203  1.00  0.00     0.053 C 
BRANCH   4   5
ATOM      5  C   UNL     1       9.357  -3.699  48.118  1.00  0.00     0.041 C 
ATOM      6  O   UNL     1       9.055  -4.911  47.958  1.00  0.00    -0.550 OA
ATOM      7  O   UNL     1      10.188  -3.329  49.168  1.00  0.00    -0.550 OA
ENDBRANCH   4   5
ENDBRANCH   3   4
ENDBRANCH   2   3
ENDBRANCH   1   2
BRANCH   1   8
ATOM      8  C   UNL     1       5.446  -1.884  46.012  1.00  0.00     0.000 C 
BRANCH   8   9
ATOM      9  C   UNL     1       5.188  -3.285  46.593  1.00  0.00     0.000 C 
BRANCH   9  10
ATOM     10  C   UNL     1       4.835  -3.247  48.088  1.00  0.00     0.006 C 
BRANCH  10  11
ATOM     11  C   UNL     1       5.621  -4.277  48.910  1.00  0.00     0.053 C 
BRANCH  11  12
ATOM     12  C   UNL     1       4.993  -4.462  50.254  1.00  0.00     0.041 C 
ATOM     13  O   UNL     1       5.551  -3.998  51.284  1.00  0.00    -0.550 OA
ATOM     14  O   UNL     1       3.766  -5.103  50.367  1.00  0.00    -0.550 OA
ENDBRANCH  11  12
ENDBRANCH  10  11
ENDBRANCH   9  10
ENDBRANCH   8   9
ENDBRANCH   1   8
TORSDOF 9
ENDMDL
MODEL 6
REMARK VINA RESULT:    -4.137      1.834      4.021
REMARK INTER + INTRA:          -7.496
REMARK INTER:                  -6.378
REMARK INTRA:                  -1.117
REMARK UNBOUND:                -1.183
REMARK SMILES O=C([O-])CCCCCCCCC(=O)[O-]
REMARK SMILES IDX 7 1 6 2 5 3 4 4 2 5 1 6 3 7 8 8 9 9 10 10 11 11 12 12 13 13
REMARK SMILES IDX 14 14
REMARK H PARENT
REMARK Flexibility Score: inf
ROOT
ATOM      1  C   UNL     1       6.258  -3.116  50.432  1.00  0.00     0.000 C 
ENDROOT
BRANCH   1   2
ATOM      2  C   UNL     1       5.106  -2.687  49.511  1.00  0.00     0.000 C 
BRANCH   2   3
ATOM      3  C   UNL     1       4.452  -3.908  48.847  1.00  0.00     0.006 C 
BRANCH   3   4
ATOM      4  C   UNL     1       5.420  -5.093  48.727  1.00  0.00     0.053 C 
BRANCH   4   5
ATOM      5  C   UNL     1       5.952  -5.239  47.334  1.00  0.00     0.041 C 
ATOM      6  O   UNL     1       7.146  -5.593  47.146  1.00  0.00    -0.550 OA
ATOM      7  O   UNL     1       5.139  -4.952  46.245  1.00  0.00    -0.550 OA
ENDBRANCH   4   5
ENDBRANCH   3   4
ENDBRANCH   2   3
ENDBRANCH   1   2
BRANCH   1   8
ATOM      8  C   UNL     1       7.502  -2.225  50.283  1.00  0.00     0.000 C 
BRANCH   8   9
ATOM      9  C   UNL     1       8.401  -2.656  49.110  1.00  0.00     0.000 C 
BRANCH   9  10
ATOM     10  C   UNL     1       8.438  -1.614  47.982  1.00  0.00     0.006 C 
BRANCH  10  11
ATOM     11  C   UNL     1       7.668  -2.064  46.733  1.00  0.00     0.053 C 
BRANCH  11  12
ATOM     12  C   UNL     1       6.505  -1.157  46.482  1.00  0.00     0.041 C 
ATOM     13  O   UNL     1       6.561   0.055  46.820  1.00  0.00    -0.550 OA
ATOM     14  O   UNL     1       5.377  -1.638  45.829  1.00  0.00    -0.550 OA
ENDBRANCH  11  12
ENDBRANCH  10  11
ENDBRANCH   9  10
ENDBRANCH   8   9
ENDBRANCH   1   8
TORSDOF 9
ENDMDL
MODEL 7
REMARK VINA RESULT:    -4.049      2.168      4.327
REMARK INTER + INTRA:          -7.362
REMARK INTER:                  -6.409
REMARK INTRA:                  -0.953
REMARK UNBOUND:                -1.183
REMARK SMILES O=C([O-])CCCCCCCCC(=O)[O-]
REMARK SMILES IDX 7 1 6 2 5 3 4 4 2 5 1 6 3 7 8 8 9 9 10 10 11 11 12 12 13 13
REMARK SMILES IDX 14 14
REMARK H PARENT
REMARK Flexibility Score: inf
ROOT
ATOM      1  C   UNL     1       6.508  -1.764  46.386  1.00  0.00     0.000 C 
ENDROOT
BRANCH   1   2
ATOM      2  C   UNL     1       5.123  -2.020  46.998  1.00  0.00     0.000 C 
BRANCH   2   3
ATOM      3  C   UNL     1       5.114  -3.326  47.808  1.00  0.00     0.006 C 
BRANCH   3   4
ATOM      4  C   UNL     1       4.998  -3.074  49.317  1.00  0.00     0.053 C 
BRANCH   4   5
ATOM      5  C   UNL     1       5.238  -4.323  50.110  1.00  0.00     0.041 C 
ATOM      6  O   UNL     1       5.802  -4.260  51.234  1.00  0.00    -0.550 OA
ATOM      7  O   UNL     1       4.870  -5.557  49.592  1.00  0.00    -0.550 OA
ENDBRANCH   4   5
ENDBRANCH   3   4
ENDBRANCH   2   3
ENDBRANCH   1   2
BRANCH   1   8
ATOM      8  C   UNL     1       7.372  -0.825  47.242  1.00  0.00     0.000 C 
BRANCH   8   9
ATOM      9  C   UNL     1       8.280  -1.586  48.224  1.00  0.00     0.000 C 
BRANCH   9  10
ATOM     10  C   UNL     1       9.042  -2.737  47.551  1.00  0.00     0.006 C 
BRANCH  10  11
ATOM     11  C   UNL     1       9.579  -3.763  48.558  1.00  0.00     0.053 C 
BRANCH  11  12
ATOM     12  C   UNL     1       8.660  -4.940  48.645  1.00  0.00     0.041 C 
ATOM     13  O   UNL     1       8.522  -5.557  49.734  1.00  0.00    -0.550 OA
ATOM     14  O   UNL     1       7.917  -5.325  47.536  1.00  0.00    -0.550 OA
ENDBRANCH  11  12
ENDBRANCH  10  11
ENDBRANCH   9  10
ENDBRANCH   8   9
ENDBRANCH   1   8
TORSDOF 9
ENDMDL
MODEL 8
REMARK VINA RESULT:    -4.031      2.037      3.355
REMARK INTER + INTRA:          -7.335
REMARK INTER:                  -6.320
REMARK INTRA:                  -1.015
REMARK UNBOUND:                -1.183
REMARK SMILES O=C([O-])CCCCCCCCC(=O)[O-]
REMARK SMILES IDX 7 1 6 2 5 3 4 4 2 5 1 6 3 7 8 8 9 9 10 10 11 11 12 12 13 13
REMARK SMILES IDX 14 14
REMARK H PARENT
REMARK Flexibility Score: inf
ROOT
ATOM      1  C   UNL     1       5.580  -4.265  50.295  1.00  0.00     0.000 C 
ENDROOT
BRANCH   1   2
ATOM      2  C   UNL     1       6.354  -2.985  50.644  1.00  0.00     0.000 C 
BRANCH   2   3
ATOM      3  C   UNL     1       5.737  -1.764  49.944  1.00  0.00     0.006 C 
BRANCH   3   4
ATOM      4  C   UNL     1       6.535  -1.338  48.705  1.00  0.00     0.053 C 
BRANCH   4   5
ATOM      5  C   UNL     1       5.700  -1.382  47.462  1.00  0.00     0.041 C 
ATOM      6  O   UNL     1       4.718  -2.166  47.386  1.00  0.00    -0.550 OA
ATOM      7  O   UNL     1       6.028  -0.581  46.375  1.00  0.00    -0.550 OA
ENDBRANCH   4   5
ENDBRANCH   3   4
ENDBRANCH   2   3
ENDBRANCH   1   2
BRANCH   1   8
ATOM      8  C   UNL     1       6.468  -5.336  49.642  1.00  0.00     0.000 C 
BRANCH   8   9
ATOM      9  C   UNL     1       6.762  -5.038  48.160  1.00  0.00     0.000 C 
BRANCH   9  10
ATOM     10  C   UNL     1       8.246  -5.221  47.805  1.00  0.00     0.006 C 
BRANCH  10  11
ATOM     11  C   UNL     1       9.186  -4.606  48.850  1.00  0.00     0.053 C 
BRANCH  11  12
ATOM     12  C   UNL     1       9.582  -3.221  48.445  1.00  0.00     0.041 C 
ATOM     13  O   UNL     1      10.219  -2.485  49.244  1.00  0.00    -0.550 OA
ATOM     14  O   UNL     1       9.293  -2.761  47.166  1.00  0.00    -0.550 OA
ENDBRANCH  11  12
ENDBRANCH  10  11
ENDBRANCH   9  10
ENDBRANCH   8   9
ENDBRANCH   1   8
TORSDOF 9
ENDMDL
MODEL 9
REMARK VINA RESULT:    -3.949      2.628      4.836
REMARK INTER + INTRA:          -7.209
REMARK INTER:                  -6.339
REMARK INTRA:                  -0.870
REMARK UNBOUND:                -1.183
REMARK SMILES O=C([O-])CCCCCCCCC(=O)[O-]
REMARK SMILES IDX 7 1 6 2 5 3 4 4 2 5 1 6 3 7 8 8 9 9 10 10 11 11 12 12 13 13
REMARK SMILES IDX 14 14
REMARK H PARENT
REMARK Flexibility Score: inf
ROOT
ATOM      1  C   UNL     1       5.985  -1.669  50.191  1.00  0.00     0.000 C 
ENDROOT
BRANCH   1   2
ATOM      2  C   UNL     1       5.880  -2.884  51.125  1.00  0.00     0.000 C 
BRANCH   2   3
ATOM      3  C   UNL     1       5.214  -4.069  50.409  1.00  0.00     0.006 C 
BRANCH   3   4
ATOM      4  C   UNL     1       5.872  -5.409  50.767  1.00  0.00     0.053 C 
BRANCH   4   5
ATOM      5  C   UNL     1       6.933  -5.789  49.781  1.00  0.00     0.041 C 
ATOM      6  O   UNL     1       8.099  -6.053  50.176  1.00  0.00    -0.550 OA
ATOM      7  O   UNL     1       6.643  -5.818  48.423  1.00  0.00    -0.550 OA
ENDBRANCH   4   5
ENDBRANCH   3   4
ENDBRANCH   2   3
ENDBRANCH   1   2
BRANCH   1   8
ATOM      8  C   UNL     1       5.699  -2.022  48.723  1.00  0.00     0.000 C 
BRANCH   8   9
ATOM      9  C   UNL     1       6.167  -0.926  47.749  1.00  0.00     0.000 C 
BRANCH   9  10
ATOM     10  C   UNL     1       7.474  -1.295  47.030  1.00  0.00     0.006 C 
BRANCH  10  11
ATOM     11  C   UNL     1       7.819  -2.784  47.156  1.00  0.00     0.053 C 
BRANCH  11  12
ATOM     12  C   UNL     1       9.076  -2.964  47.946  1.00  0.00     0.041 C 
ATOM     13  O   UNL     1       9.523  -2.021  48.650  1.00  0.00    -0.550 OA
ATOM     14  O   UNL     1       9.729  -4.191  47.945  1.00  0.00    -0.550 OA
ENDBRANCH  11  12
ENDBRANCH  10  11
ENDBRANCH   9  10
ENDBRANCH   8   9
ENDBRANCH   1   8
TORSDOF 9
ENDMDL
