MODEL 1
REMARK VINA RESULT:    -4.248      0.000      0.000
REMARK INTER + INTRA:          -4.781
REMARK INTER:                  -4.621
REMARK INTRA:                  -0.160
REMARK UNBOUND:                -0.160
REMARK SMILES C=C(C)[C@H]1CC[C@@H](C)C[C@H]1O
REMARK SMILES IDX 8 1 7 2 6 3 5 4 4 5 10 6 9 7 11 8 2 10 1 11 3 12
REMARK H PARENT 11 9
REMARK Flexibility Score: inf
ROOT
ATOM      1  C   UNL     1     140.470 143.907 145.858  1.00  0.00     0.008 C 
ATOM      2  C   UNL     1     141.553 142.836 146.056  1.00  0.00    -0.012 C 
ATOM      3  C   UNL     1     142.970 143.436 146.117  1.00  0.00     0.004 C 
ATOM      4  C   UNL     1     143.498 143.850 144.739  1.00  0.00     0.011 C 
ATOM      5  C   UNL     1     143.482 142.658 143.755  1.00  0.00     0.043 C 
ATOM      6  C   UNL     1     142.066 142.022 143.640  1.00  0.00     0.121 C 
ATOM      7  C   UNL     1     141.466 141.690 145.021  1.00  0.00     0.035 C 
ENDROOT
BRANCH   6   8
ATOM      8  O   UNL     1     141.162 142.777 142.866  1.00  0.00    -0.392 OA
ATOM      9  H   UNL     1     140.800 143.515 143.414  1.00  0.00     0.210 HD
ENDBRANCH   6   8
BRANCH   5  10
ATOM     10  C   UNL     1     144.048 142.996 142.376  1.00  0.00    -0.075 C 
ATOM     11  C   UNL     1     144.611 142.020 141.643  1.00  0.00     0.008 C 
ATOM     12  C   UNL     1     144.028 144.408 141.835  1.00  0.00     0.039 C 
ENDBRANCH   5  10
TORSDOF 2
ENDMDL
MODEL 2
REMARK VINA RESULT:    -4.163      1.567      2.356
REMARK INTER + INTRA:          -4.689
REMARK INTER:                  -4.499
REMARK INTRA:                  -0.189
REMARK UNBOUND:                -0.160
REMARK SMILES C=C(C)[C@H]1CC[C@@H](C)C[C@H]1O
REMARK SMILES IDX 8 1 7 2 6 3 5 4 4 5 10 6 9 7 11 8 2 10 1 11 3 12
REMARK H PARENT 11 9
REMARK Flexibility Score: inf
ROOT
ATOM      1  C   UNL     1     141.634 145.373 144.994  1.00  0.00     0.008 C 
ATOM      2  C   UNL     1     141.897 144.314 146.076  1.00  0.00    -0.012 C 
ATOM      3  C   UNL     1     143.367 143.856 146.105  1.00  0.00     0.004 C 
ATOM      4  C   UNL     1     143.712 142.903 144.956  1.00  0.00     0.011 C 
ATOM      5  C   UNL     1     142.783 141.667 144.957  1.00  0.00     0.043 C 
ATOM      6  C   UNL     1     141.282 142.073 144.910  1.00  0.00     0.121 C 
ATOM      7  C   UNL     1     140.928 143.113 145.993  1.00  0.00     0.035 C 
ENDROOT
BRANCH   6   8
ATOM      8  O   UNL     1     140.845 142.500 143.640  1.00  0.00    -0.392 OA
ATOM      9  H   UNL     1     141.284 143.357 143.415  1.00  0.00     0.210 HD
ENDBRANCH   6   8
BRANCH   5  10
ATOM     10  C   UNL     1     143.114 140.653 143.864  1.00  0.00    -0.075 C 
ATOM     11  C   UNL     1     144.029 140.971 142.932  1.00  0.00     0.008 C 
ATOM     12  C   UNL     1     142.409 139.318 143.779  1.00  0.00     0.039 C 
ENDBRANCH   5  10
TORSDOF 2
ENDMDL
MODEL 3
REMARK VINA RESULT:    -4.152     12.537     14.427
REMARK INTER + INTRA:          -4.676
REMARK INTER:                  -4.542
REMARK INTRA:                  -0.134
REMARK UNBOUND:                -0.160
REMARK SMILES C=C(C)[C@H]1CC[C@@H](C)C[C@H]1O
REMARK SMILES IDX 8 1 7 2 6 3 5 4 4 5 10 6 9 7 11 8 2 10 1 11 3 12
REMARK H PARENT 11 9
REMARK Flexibility Score: inf
ROOT
ATOM      1  C   UNL     1     139.348 133.374 151.740  1.00  0.00     0.008 C 
ATOM      2  C   UNL     1     139.036 133.336 150.236  1.00  0.00    -0.012 C 
ATOM      3  C   UNL     1     137.536 133.524 149.942  1.00  0.00     0.004 C 
ATOM      4  C   UNL     1     136.712 132.266 150.241  1.00  0.00     0.011 C 
ATOM      5  C   UNL     1     137.247 131.049 149.453  1.00  0.00     0.043 C 
ATOM      6  C   UNL     1     138.758 130.801 149.728  1.00  0.00     0.121 C 
ATOM      7  C   UNL     1     139.600 132.079 149.535  1.00  0.00     0.035 C 
ENDROOT
BRANCH   6   8
ATOM      8  O   UNL     1     139.022 130.209 150.979  1.00  0.00    -0.392 OA
ATOM      9  H   UNL     1     138.225 130.296 151.556  1.00  0.00     0.210 HD
ENDBRANCH   6   8
BRANCH   5  10
ATOM     10  C   UNL     1     136.432 129.775 149.669  1.00  0.00    -0.075 C 
ATOM     11  C   UNL     1     136.324 128.890 148.665  1.00  0.00     0.008 C 
ATOM     12  C   UNL     1     135.709 129.507 150.970  1.00  0.00     0.039 C 
ENDBRANCH   5  10
TORSDOF 2
ENDMDL
MODEL 4
REMARK VINA RESULT:    -4.029     11.012     12.783
REMARK INTER + INTRA:          -4.542
REMARK INTER:                  -4.375
REMARK INTRA:                  -0.168
REMARK UNBOUND:                -0.160
REMARK SMILES C=C(C)[C@H]1CC[C@@H](C)C[C@H]1O
REMARK SMILES IDX 8 1 7 2 6 3 5 4 4 5 10 6 9 7 11 8 2 10 1 11 3 12
REMARK H PARENT 11 9
REMARK Flexibility Score: inf
ROOT
ATOM      1  C   UNL     1     136.913 130.337 150.341  1.00  0.00     0.008 C 
ATOM      2  C   UNL     1     136.727 131.580 149.457  1.00  0.00    -0.012 C 
ATOM      3  C   UNL     1     137.669 131.580 148.239  1.00  0.00     0.004 C 
ATOM      4  C   UNL     1     139.112 131.942 148.607  1.00  0.00     0.011 C 
ATOM      5  C   UNL     1     139.180 133.313 149.316  1.00  0.00     0.043 C 
ATOM      6  C   UNL     1     138.259 133.363 150.568  1.00  0.00     0.121 C 
ATOM      7  C   UNL     1     136.821 132.904 150.249  1.00  0.00     0.035 C 
ENDROOT
BRANCH   6   8
ATOM      8  O   UNL     1     138.772 132.671 151.683  1.00  0.00    -0.392 OA
ATOM      9  H   UNL     1     139.588 132.180 151.416  1.00  0.00     0.210 HD
ENDBRANCH   6   8
BRANCH   5  10
ATOM     10  C   UNL     1     140.602 133.753 149.660  1.00  0.00    -0.075 C 
ATOM     11  C   UNL     1     140.872 135.065 149.773  1.00  0.00     0.008 C 
ATOM     12  C   UNL     1     141.722 132.753 149.835  1.00  0.00     0.039 C 
ENDBRANCH   5  10
TORSDOF 2
ENDMDL
MODEL 5
REMARK VINA RESULT:    -3.935      1.708      2.621
REMARK INTER + INTRA:          -4.440
REMARK INTER:                  -4.274
REMARK INTRA:                  -0.165
REMARK UNBOUND:                -0.160
REMARK SMILES C=C(C)[C@H]1CC[C@@H](C)C[C@H]1O
REMARK SMILES IDX 8 1 7 2 6 3 5 4 4 5 10 6 9 7 11 8 2 10 1 11 3 12
REMARK H PARENT 11 9
REMARK Flexibility Score: inf
ROOT
ATOM      1  C   UNL     1     140.989 143.833 146.084  1.00  0.00     0.008 C 
ATOM      2  C   UNL     1     141.553 144.595 144.876  1.00  0.00    -0.012 C 
ATOM      3  C   UNL     1     140.984 144.083 143.540  1.00  0.00     0.004 C 
ATOM      4  C   UNL     1     141.602 142.749 143.106  1.00  0.00     0.011 C 
ATOM      5  C   UNL     1     143.141 142.852 143.008  1.00  0.00     0.043 C 
ATOM      6  C   UNL     1     143.772 143.349 144.341  1.00  0.00     0.121 C 
ATOM      7  C   UNL     1     143.099 144.638 144.857  1.00  0.00     0.035 C 
ENDROOT
BRANCH   6   8
ATOM      8  O   UNL     1     143.822 142.368 145.351  1.00  0.00    -0.392 OA
ATOM      9  H   UNL     1     144.412 141.630 145.061  1.00  0.00     0.210 HD
ENDBRANCH   6   8
BRANCH   5  10
ATOM     10  C   UNL     1     143.811 141.566 142.528  1.00  0.00    -0.075 C 
ATOM     11  C   UNL     1     144.995 141.641 141.898  1.00  0.00     0.008 C 
ATOM     12  C   UNL     1     143.154 140.215 142.706  1.00  0.00     0.039 C 
ENDBRANCH   5  10
TORSDOF 2
ENDMDL
MODEL 6
REMARK VINA RESULT:    -3.900      1.916      2.862
REMARK INTER + INTRA:          -4.402
REMARK INTER:                  -4.219
REMARK INTRA:                  -0.183
REMARK UNBOUND:                -0.160
REMARK SMILES C=C(C)[C@H]1CC[C@@H](C)C[C@H]1O
REMARK SMILES IDX 8 1 7 2 6 3 5 4 4 5 10 6 9 7 11 8 2 10 1 11 3 12
REMARK H PARENT 11 9
REMARK Flexibility Score: inf
ROOT
ATOM      1  C   UNL     1     143.473 143.536 146.473  1.00  0.00     0.008 C 
ATOM      2  C   UNL     1     142.049 143.997 146.128  1.00  0.00    -0.012 C 
ATOM      3  C   UNL     1     141.116 142.818 145.793  1.00  0.00     0.004 C 
ATOM      4  C   UNL     1     141.369 142.242 144.395  1.00  0.00     0.011 C 
ATOM      5  C   UNL     1     141.237 143.334 143.309  1.00  0.00     0.043 C 
ATOM      6  C   UNL     1     142.174 144.544 143.590  1.00  0.00     0.121 C 
ATOM      7  C   UNL     1     142.014 145.081 145.027  1.00  0.00     0.035 C 
ENDROOT
BRANCH   6   8
ATOM      8  O   UNL     1     143.529 144.299 143.291  1.00  0.00    -0.392 OA
ATOM      9  H   UNL     1     144.099 144.834 143.897  1.00  0.00     0.210 HD
ENDBRANCH   6   8
BRANCH   5  10
ATOM     10  C   UNL     1     141.427 142.808 141.887  1.00  0.00    -0.075 C 
ATOM     11  C   UNL     1     140.970 143.536 140.855  1.00  0.00     0.008 C 
ATOM     12  C   UNL     1     142.077 141.470 141.616  1.00  0.00     0.039 C 
ENDBRANCH   5  10
TORSDOF 2
ENDMDL
MODEL 7
REMARK VINA RESULT:    -3.848      1.876      4.048
REMARK INTER + INTRA:          -4.345
REMARK INTER:                  -4.218
REMARK INTRA:                  -0.128
REMARK UNBOUND:                -0.160
REMARK SMILES C=C(C)[C@H]1CC[C@@H](C)C[C@H]1O
REMARK SMILES IDX 8 1 7 2 6 3 5 4 4 5 10 6 9 7 11 8 2 10 1 11 3 12
REMARK H PARENT 11 9
REMARK Flexibility Score: inf
ROOT
ATOM      1  C   UNL     1     144.643 141.676 142.160  1.00  0.00     0.008 C 
ATOM      2  C   UNL     1     143.308 141.006 142.520  1.00  0.00    -0.012 C 
ATOM      3  C   UNL     1     142.094 141.801 142.004  1.00  0.00     0.004 C 
ATOM      4  C   UNL     1     141.802 143.049 142.845  1.00  0.00     0.011 C 
ATOM      5  C   UNL     1     141.589 142.683 144.332  1.00  0.00     0.043 C 
ATOM      6  C   UNL     1     142.798 141.892 144.911  1.00  0.00     0.121 C 
ATOM      7  C   UNL     1     143.180 140.687 144.027  1.00  0.00     0.035 C 
ENDROOT
BRANCH   6   8
ATOM      8  O   UNL     1     143.925 142.692 145.186  1.00  0.00    -0.392 OA
ATOM      9  H   UNL     1     144.375 142.353 145.999  1.00  0.00     0.210 HD
ENDBRANCH   6   8
BRANCH   5  10
ATOM     10  C   UNL     1     141.242 143.882 145.212  1.00  0.00    -0.075 C 
ATOM     11  C   UNL     1     140.425 143.706 146.264  1.00  0.00     0.008 C 
ATOM     12  C   UNL     1     141.761 145.269 144.906  1.00  0.00     0.039 C 
ENDBRANCH   5  10
TORSDOF 2
ENDMDL
MODEL 8
REMARK VINA RESULT:    -3.815     11.914     13.728
REMARK INTER + INTRA:          -4.309
REMARK INTER:                  -4.167
REMARK INTRA:                  -0.142
REMARK UNBOUND:                -0.160
REMARK SMILES C=C(C)[C@H]1CC[C@@H](C)C[C@H]1O
REMARK SMILES IDX 8 1 7 2 6 3 5 4 4 5 10 6 9 7 11 8 2 10 1 11 3 12
REMARK H PARENT 11 9
REMARK Flexibility Score: inf
ROOT
ATOM      1  C   UNL     1     136.745 130.477 148.243  1.00  0.00     0.008 C 
ATOM      2  C   UNL     1     136.538 130.741 149.742  1.00  0.00    -0.012 C 
ATOM      3  C   UNL     1     136.365 132.239 150.056  1.00  0.00     0.004 C 
ATOM      4  C   UNL     1     137.688 133.011 150.006  1.00  0.00     0.011 C 
ATOM      5  C   UNL     1     138.729 132.396 150.969  1.00  0.00     0.043 C 
ATOM      6  C   UNL     1     138.957 130.884 150.684  1.00  0.00     0.121 C 
ATOM      7  C   UNL     1     137.631 130.098 150.625  1.00  0.00     0.035 C 
ENDROOT
BRANCH   6   8
ATOM      8  O   UNL     1     139.744 130.629 149.543  1.00  0.00    -0.392 OA
ATOM      9  H   UNL     1     140.021 131.488 149.139  1.00  0.00     0.210 HD
ENDBRANCH   6   8
BRANCH   5  10
ATOM     10  C   UNL     1     140.054 133.156 151.003  1.00  0.00    -0.075 C 
ATOM     11  C   UNL     1     140.182 134.280 150.277  1.00  0.00     0.008 C 
ATOM     12  C   UNL     1     141.238 132.653 151.798  1.00  0.00     0.039 C 
ENDBRANCH   5  10
TORSDOF 2
ENDMDL
MODEL 9
REMARK VINA RESULT:    -3.770      1.263      3.966
REMARK INTER + INTRA:          -4.261
REMARK INTER:                  -4.094
REMARK INTRA:                  -0.167
REMARK UNBOUND:                -0.160
REMARK SMILES C=C(C)[C@H]1CC[C@@H](C)C[C@H]1O
REMARK SMILES IDX 8 1 7 2 6 3 5 4 4 5 10 6 9 7 11 8 2 10 1 11 3 12
REMARK H PARENT 11 9
REMARK Flexibility Score: inf
ROOT
ATOM      1  C   UNL     1     143.605 141.776 141.203  1.00  0.00     0.008 C 
ATOM      2  C   UNL     1     143.057 143.209 141.290  1.00  0.00    -0.012 C 
ATOM      3  C   UNL     1     143.913 144.111 142.199  1.00  0.00     0.004 C 
ATOM      4  C   UNL     1     143.689 143.832 143.690  1.00  0.00     0.011 C 
ATOM      5  C   UNL     1     142.197 143.982 144.067  1.00  0.00     0.043 C 
ATOM      6  C   UNL     1     141.286 143.076 143.189  1.00  0.00     0.121 C 
ATOM      7  C   UNL     1     141.563 143.260 141.683  1.00  0.00     0.035 C 
ENDROOT
BRANCH   6   8
ATOM      8  O   UNL     1     141.322 141.713 143.545  1.00  0.00    -0.392 OA
ATOM      9  H   UNL     1     141.003 141.169 142.784  1.00  0.00     0.210 HD
ENDBRANCH   6   8
BRANCH   5  10
ATOM     10  C   UNL     1     141.919 143.768 145.554  1.00  0.00    -0.075 C 
ATOM     11  C   UNL     1     142.938 143.457 146.372  1.00  0.00     0.008 C 
ATOM     12  C   UNL     1     140.519 143.856 146.120  1.00  0.00     0.039 C 
ENDBRANCH   5  10
TORSDOF 2
ENDMDL
