MODEL 1
REMARK VINA RESULT:    -3.163      0.000      0.000
REMARK INTER + INTRA:          -3.550
REMARK INTER:                  -3.533
REMARK INTRA:                  -0.017
REMARK UNBOUND:                -0.017
REMARK SMILES CCCC(=O)[O-]
REMARK SMILES IDX 3 1 4 2 5 3 6 4 2 5 1 6
REMARK H PARENT
REMARK Flexibility Score: inf
ROOT
ATOM      1  C   UNL     1      31.385   5.102  49.454  1.00  0.00     0.052 C 
ENDROOT
BRANCH   1   2
ATOM      2  C   UNL     1      32.198   3.950  49.959  1.00  0.00     0.041 C 
ATOM      3  O   UNL     1      32.613   3.940  51.148  1.00  0.00    -0.550 OA
ATOM      4  O   UNL     1      32.528   2.904  49.106  1.00  0.00    -0.550 OA
ENDBRANCH   1   2
BRANCH   1   5
ATOM      5  C   UNL     1      31.402   5.183  47.922  1.00  0.00     0.003 C 
ATOM      6  C   UNL     1      31.798   6.570  47.417  1.00  0.00     0.004 C 
ENDBRANCH   1   5
TORSDOF 2
ENDMDL
MODEL 2
REMARK VINA RESULT:    -3.160      2.393      3.181
REMARK INTER + INTRA:          -3.546
REMARK INTER:                  -3.474
REMARK INTRA:                  -0.072
REMARK UNBOUND:                -0.017
REMARK SMILES CCCC(=O)[O-]
REMARK SMILES IDX 3 1 4 2 5 3 6 4 2 5 1 6
REMARK H PARENT
REMARK Flexibility Score: inf
ROOT
ATOM      1  C   UNL     1      30.827   5.209  49.420  1.00  0.00     0.052 C 
ENDROOT
BRANCH   1   2
ATOM      2  C   UNL     1      31.209   5.748  48.076  1.00  0.00     0.041 C 
ATOM      3  O   UNL     1      32.167   6.558  47.967  1.00  0.00    -0.550 OA
ATOM      4  O   UNL     1      30.486   5.383  46.948  1.00  0.00    -0.550 OA
ENDBRANCH   1   2
BRANCH   1   5
ATOM      5  C   UNL     1      31.947   4.361  50.033  1.00  0.00     0.003 C 
ATOM      6  C   UNL     1      32.295   3.146  49.171  1.00  0.00     0.004 C 
ENDBRANCH   1   5
TORSDOF 2
ENDMDL
MODEL 3
REMARK VINA RESULT:    -3.051     11.711     12.619
REMARK INTER + INTRA:          -3.425
REMARK INTER:                  -3.416
REMARK INTRA:                  -0.009
REMARK UNBOUND:                -0.017
REMARK SMILES CCCC(=O)[O-]
REMARK SMILES IDX 3 1 4 2 5 3 6 4 2 5 1 6
REMARK H PARENT
REMARK Flexibility Score: inf
ROOT
ATOM      1  C   UNL     1      23.893   1.551  39.401  1.00  0.00     0.052 C 
ENDROOT
BRANCH   1   2
ATOM      2  C   UNL     1      24.757   2.578  40.065  1.00  0.00     0.041 C 
ATOM      3  O   UNL     1      25.747   3.063  39.456  1.00  0.00    -0.550 OA
ATOM      4  O   UNL     1      24.490   2.975  41.369  1.00  0.00    -0.550 OA
ENDBRANCH   1   2
BRANCH   1   5
ATOM      5  C   UNL     1      23.611   0.360  40.326  1.00  0.00     0.003 C 
ATOM      6  C   UNL     1      23.899  -0.981  39.651  1.00  0.00     0.004 C 
ENDBRANCH   1   5
TORSDOF 2
ENDMDL
MODEL 4
REMARK VINA RESULT:    -2.984     12.690     13.477
REMARK INTER + INTRA:          -3.350
REMARK INTER:                  -3.326
REMARK INTRA:                  -0.024
REMARK UNBOUND:                -0.017
REMARK SMILES CCCC(=O)[O-]
REMARK SMILES IDX 3 1 4 2 5 3 6 4 2 5 1 6
REMARK H PARENT
REMARK Flexibility Score: inf
ROOT
ATOM      1  C   UNL     1      23.563   1.199  40.678  1.00  0.00     0.052 C 
ENDROOT
BRANCH   1   2
ATOM      2  C   UNL     1      22.625   2.308  40.316  1.00  0.00     0.041 C 
ATOM      3  O   UNL     1      22.349   3.205  41.156  1.00  0.00    -0.550 OA
ATOM      4  O   UNL     1      22.027   2.333  39.062  1.00  0.00    -0.550 OA
ENDBRANCH   1   2
BRANCH   1   5
ATOM      5  C   UNL     1      23.974   0.377  39.450  1.00  0.00     0.003 C 
ATOM      6  C   UNL     1      23.870  -1.129  39.697  1.00  0.00     0.004 C 
ENDBRANCH   1   5
TORSDOF 2
ENDMDL
MODEL 5
REMARK VINA RESULT:    -2.847     12.137     12.959
REMARK INTER + INTRA:          -3.197
REMARK INTER:                  -3.189
REMARK INTRA:                  -0.008
REMARK UNBOUND:                -0.017
REMARK SMILES CCCC(=O)[O-]
REMARK SMILES IDX 3 1 4 2 5 3 6 4 2 5 1 6
REMARK H PARENT
REMARK Flexibility Score: inf
ROOT
ATOM      1  C   UNL     1      24.004   2.099  40.221  1.00  0.00     0.052 C 
ENDROOT
BRANCH   1   2
ATOM      2  C   UNL     1      23.473   0.975  39.385  1.00  0.00     0.041 C 
ATOM      3  O   UNL     1      23.895  -0.199  39.560  1.00  0.00    -0.550 OA
ATOM      4  O   UNL     1      22.538   1.229  38.390  1.00  0.00    -0.550 OA
ENDBRANCH   1   2
BRANCH   1   5
ATOM      5  C   UNL     1      24.781   3.117  39.377  1.00  0.00     0.003 C 
ATOM      6  C   UNL     1      26.088   3.548  40.043  1.00  0.00     0.004 C 
ENDBRANCH   1   5
TORSDOF 2
ENDMDL
MODEL 6
REMARK VINA RESULT:    -2.800     11.546     12.393
REMARK INTER + INTRA:          -3.144
REMARK INTER:                  -3.104
REMARK INTRA:                  -0.039
REMARK UNBOUND:                -0.017
REMARK SMILES CCCC(=O)[O-]
REMARK SMILES IDX 3 1 4 2 5 3 6 4 2 5 1 6
REMARK H PARENT
REMARK Flexibility Score: inf
ROOT
ATOM      1  C   UNL     1      24.011   2.380  40.614  1.00  0.00     0.052 C 
ENDROOT
BRANCH   1   2
ATOM      2  C   UNL     1      25.044   3.412  40.280  1.00  0.00     0.041 C 
ATOM      3  O   UNL     1      25.991   3.131  39.499  1.00  0.00    -0.550 OA
ATOM      4  O   UNL     1      24.980   4.674  40.858  1.00  0.00    -0.550 OA
ENDBRANCH   1   2
BRANCH   1   5
ATOM      5  C   UNL     1      23.842   1.357  39.484  1.00  0.00     0.003 C 
ATOM      6  C   UNL     1      22.704   1.726  38.531  1.00  0.00     0.004 C 
ENDBRANCH   1   5
TORSDOF 2
ENDMDL
MODEL 7
REMARK VINA RESULT:    -2.764     12.232     13.112
REMARK INTER + INTRA:          -3.104
REMARK INTER:                  -3.069
REMARK INTRA:                  -0.035
REMARK UNBOUND:                -0.017
REMARK SMILES CCCC(=O)[O-]
REMARK SMILES IDX 3 1 4 2 5 3 6 4 2 5 1 6
REMARK H PARENT
REMARK Flexibility Score: inf
ROOT
ATOM      1  C   UNL     1      23.599  -3.316  55.391  1.00  0.00     0.052 C 
ENDROOT
BRANCH   1   2
ATOM      2  C   UNL     1      23.195  -2.117  54.590  1.00  0.00     0.041 C 
ATOM      3  O   UNL     1      22.494  -1.212  55.114  1.00  0.00    -0.550 OA
ATOM      4  O   UNL     1      23.564  -2.015  53.254  1.00  0.00    -0.550 OA
ENDBRANCH   1   2
BRANCH   1   5
ATOM      5  C   UNL     1      24.497  -2.934  56.574  1.00  0.00     0.003 C 
ATOM      6  C   UNL     1      23.874  -3.305  57.920  1.00  0.00     0.004 C 
ENDBRANCH   1   5
TORSDOF 2
ENDMDL
MODEL 8
REMARK VINA RESULT:    -2.762     12.357     13.225
REMARK INTER + INTRA:          -3.101
REMARK INTER:                  -3.066
REMARK INTRA:                  -0.035
REMARK UNBOUND:                -0.017
REMARK SMILES CCCC(=O)[O-]
REMARK SMILES IDX 3 1 4 2 5 3 6 4 2 5 1 6
REMARK H PARENT
REMARK Flexibility Score: inf
ROOT
ATOM      1  C   UNL     1      23.707  -2.116  55.810  1.00  0.00     0.052 C 
ENDROOT
BRANCH   1   2
ATOM      2  C   UNL     1      23.474  -2.769  54.483  1.00  0.00     0.041 C 
ATOM      3  O   UNL     1      23.266  -4.009  54.414  1.00  0.00    -0.550 OA
ATOM      4  O   UNL     1      23.522  -2.014  53.318  1.00  0.00    -0.550 OA
ENDBRANCH   1   2
BRANCH   1   5
ATOM      5  C   UNL     1      24.428  -3.053  56.787  1.00  0.00     0.003 C 
ATOM      6  C   UNL     1      23.639  -3.265  58.080  1.00  0.00     0.004 C 
ENDBRANCH   1   5
TORSDOF 2
ENDMDL
MODEL 9
REMARK VINA RESULT:    -2.749     11.654     12.500
REMARK INTER + INTRA:          -3.087
REMARK INTER:                  -3.047
REMARK INTRA:                  -0.040
REMARK UNBOUND:                -0.017
REMARK SMILES CCCC(=O)[O-]
REMARK SMILES IDX 3 1 4 2 5 3 6 4 2 5 1 6
REMARK H PARENT
REMARK Flexibility Score: inf
ROOT
ATOM      1  C   UNL     1      23.740   2.076  39.336  1.00  0.00     0.052 C 
ENDROOT
BRANCH   1   2
ATOM      2  C   UNL     1      23.652   0.847  40.187  1.00  0.00     0.041 C 
ATOM      3  O   UNL     1      23.897  -0.285  39.692  1.00  0.00    -0.550 OA
ATOM      4  O   UNL     1      23.265   0.947  41.517  1.00  0.00    -0.550 OA
ENDBRANCH   1   2
BRANCH   1   5
ATOM      5  C   UNL     1      25.097   2.775  39.483  1.00  0.00     0.003 C 
ATOM      6  C   UNL     1      25.057   3.912  40.504  1.00  0.00     0.004 C 
ENDBRANCH   1   5
TORSDOF 2
ENDMDL
