MODEL 1
REMARK VINA RESULT:    -3.014      0.000      0.000
REMARK INTER + INTRA:          -3.390
REMARK INTER:                  -3.367
REMARK INTRA:                  -0.023
REMARK UNBOUND:                -0.023
REMARK SMILES CCCC(=O)[O-]
REMARK SMILES IDX 3 1 4 2 5 3 6 4 2 5 1 6
REMARK H PARENT
REMARK Flexibility Score: inf
ROOT
ATOM      1  C   UNL     1      32.687  -6.305  28.214  1.00  0.00     0.052 C 
ENDROOT
BRANCH   1   2
ATOM      2  C   UNL     1      32.280  -5.770  26.877  1.00  0.00     0.041 C 
ATOM      3  O   UNL     1      33.040  -5.907  25.883  1.00  0.00    -0.550 OA
ATOM      4  O   UNL     1      31.041  -5.165  26.719  1.00  0.00    -0.550 OA
ENDBRANCH   1   2
BRANCH   1   5
ATOM      5  C   UNL     1      34.160  -5.992  28.490  1.00  0.00     0.003 C 
ATOM      6  C   UNL     1      34.303  -4.944  29.590  1.00  0.00     0.004 C 
ENDBRANCH   1   5
TORSDOF 2
ENDMDL
MODEL 2
REMARK VINA RESULT:    -2.567     20.223     20.992
REMARK INTER + INTRA:          -2.891
REMARK INTER:                  -2.877
REMARK INTRA:                  -0.014
REMARK UNBOUND:                -0.023
REMARK SMILES CCCC(=O)[O-]
REMARK SMILES IDX 3 1 4 2 5 3 6 4 2 5 1 6
REMARK H PARENT
REMARK Flexibility Score: inf
ROOT
ATOM      1  C   UNL     1      17.722 -19.464  27.053  1.00  0.00     0.052 C 
ENDROOT
BRANCH   1   2
ATOM      2  C   UNL     1      16.621 -19.167  28.021  1.00  0.00     0.041 C 
ATOM      3  O   UNL     1      15.875 -20.094  28.434  1.00  0.00    -0.550 OA
ATOM      4  O   UNL     1      16.450 -17.877  28.505  1.00  0.00    -0.550 OA
ENDBRANCH   1   2
BRANCH   1   5
ATOM      5  C   UNL     1      17.730 -18.435  25.919  1.00  0.00     0.003 C 
ATOM      6  C   UNL     1      17.500 -19.103  24.567  1.00  0.00     0.004 C 
ENDBRANCH   1   5
TORSDOF 2
ENDMDL
MODEL 3
REMARK VINA RESULT:    -2.258     15.555     16.486
REMARK INTER + INTRA:          -2.545
REMARK INTER:                  -2.485
REMARK INTRA:                  -0.060
REMARK UNBOUND:                -0.023
REMARK SMILES CCCC(=O)[O-]
REMARK SMILES IDX 3 1 4 2 5 3 6 4 2 5 1 6
REMARK H PARENT
REMARK Flexibility Score: inf
ROOT
ATOM      1  C   UNL     1      16.253  -8.288  29.044  1.00  0.00     0.052 C 
ENDROOT
BRANCH   1   2
ATOM      2  C   UNL     1      17.565  -8.709  29.628  1.00  0.00     0.041 C 
ATOM      3  O   UNL     1      18.500  -7.875  29.750  1.00  0.00    -0.550 OA
ATOM      4  O   UNL     1      17.737 -10.010  30.082  1.00  0.00    -0.550 OA
ENDBRANCH   1   2
BRANCH   1   5
ATOM      5  C   UNL     1      15.875  -9.191  27.868  1.00  0.00     0.003 C 
ATOM      6  C   UNL     1      16.624  -8.789  26.601  1.00  0.00     0.004 C 
ENDBRANCH   1   5
TORSDOF 2
ENDMDL
MODEL 4
REMARK VINA RESULT:    -1.932     20.112     20.828
REMARK INTER + INTRA:          -2.181
REMARK INTER:                  -2.114
REMARK INTRA:                  -0.067
REMARK UNBOUND:                -0.023
REMARK SMILES CCCC(=O)[O-]
REMARK SMILES IDX 3 1 4 2 5 3 6 4 2 5 1 6
REMARK H PARENT
REMARK Flexibility Score: inf
ROOT
ATOM      1  C   UNL     1      16.936 -18.312  27.478  1.00  0.00     0.052 C 
ENDROOT
BRANCH   1   2
ATOM      2  C   UNL     1      17.765 -18.929  26.396  1.00  0.00     0.041 C 
ATOM      3  O   UNL     1      17.397 -18.850  25.195  1.00  0.00    -0.550 OA
ATOM      4  O   UNL     1      18.966 -19.550  26.710  1.00  0.00    -0.550 OA
ENDBRANCH   1   2
BRANCH   1   5
ATOM      5  C   UNL     1      16.781 -19.280  28.653  1.00  0.00     0.003 C 
ATOM      6  C   UNL     1      15.875 -20.452  28.285  1.00  0.00     0.004 C 
ENDBRANCH   1   5
TORSDOF 2
ENDMDL
MODEL 5
REMARK VINA RESULT:    -1.856     20.414     21.182
REMARK INTER + INTRA:          -2.096
REMARK INTER:                  -2.074
REMARK INTRA:                  -0.022
REMARK UNBOUND:                -0.023
REMARK SMILES CCCC(=O)[O-]
REMARK SMILES IDX 3 1 4 2 5 3 6 4 2 5 1 6
REMARK H PARENT
REMARK Flexibility Score: inf
ROOT
ATOM      1  C   UNL     1      16.964 -19.120  28.003  1.00  0.00     0.052 C 
ENDROOT
BRANCH   1   2
ATOM      2  C   UNL     1      17.864 -19.159  26.809  1.00  0.00     0.041 C 
ATOM      3  O   UNL     1      19.056 -19.549  26.929  1.00  0.00    -0.550 OA
ATOM      4  O   UNL     1      17.375 -18.812  25.558  1.00  0.00    -0.550 OA
ENDBRANCH   1   2
BRANCH   1   5
ATOM      5  C   UNL     1      15.875 -20.190  27.888  1.00  0.00     0.003 C 
ATOM      6  C   UNL     1      16.030 -21.252  28.972  1.00  0.00     0.004 C 
ENDBRANCH   1   5
TORSDOF 2
ENDMDL
MODEL 6
REMARK VINA RESULT:    -1.817     16.402     17.019
REMARK INTER + INTRA:          -2.052
REMARK INTER:                  -2.046
REMARK INTRA:                  -0.006
REMARK UNBOUND:                -0.023
REMARK SMILES CCCC(=O)[O-]
REMARK SMILES IDX 3 1 4 2 5 3 6 4 2 5 1 6
REMARK H PARENT
REMARK Flexibility Score: inf
ROOT
ATOM      1  C   UNL     1      17.166  -8.660  28.238  1.00  0.00     0.052 C 
ENDROOT
BRANCH   1   2
ATOM      2  C   UNL     1      16.448  -8.430  29.529  1.00  0.00     0.041 C 
ATOM      3  O   UNL     1      15.891  -9.390  30.124  1.00  0.00    -0.550 OA
ATOM      4  O   UNL     1      16.435  -7.165  30.102  1.00  0.00    -0.550 OA
ENDBRANCH   1   2
BRANCH   1   5
ATOM      5  C   UNL     1      16.180  -9.067  27.141  1.00  0.00     0.003 C 
ATOM      6  C   UNL     1      16.664  -8.613  25.767  1.00  0.00     0.004 C 
ENDBRANCH   1   5
TORSDOF 2
ENDMDL
MODEL 7
REMARK VINA RESULT:    -1.747     16.051     16.688
REMARK INTER + INTRA:          -1.974
REMARK INTER:                  -2.009
REMARK INTRA:                   0.034
REMARK UNBOUND:                -0.023
REMARK SMILES CCCC(=O)[O-]
REMARK SMILES IDX 3 1 4 2 5 3 6 4 2 5 1 6
REMARK H PARENT
REMARK Flexibility Score: inf
ROOT
ATOM      1  C   UNL     1      17.805  -9.016  28.654  1.00  0.00     0.052 C 
ENDROOT
BRANCH   1   2
ATOM      2  C   UNL     1      16.584  -8.561  27.919  1.00  0.00     0.041 C 
ATOM      3  O   UNL     1      15.876  -7.629  28.385  1.00  0.00    -0.550 OA
ATOM      4  O   UNL     1      16.255  -9.131  26.697  1.00  0.00    -0.550 OA
ENDBRANCH   1   2
BRANCH   1   5
ATOM      5  C   UNL     1      17.451  -9.409  30.091  1.00  0.00     0.003 C 
ATOM      6  C   UNL     1      16.263 -10.365  30.124  1.00  0.00     0.004 C 
ENDBRANCH   1   5
TORSDOF 2
ENDMDL
MODEL 8
REMARK VINA RESULT:    -1.519     15.870     16.558
REMARK INTER + INTRA:          -1.720
REMARK INTER:                  -1.711
REMARK INTRA:                  -0.009
REMARK UNBOUND:                -0.023
REMARK SMILES CCCC(=O)[O-]
REMARK SMILES IDX 3 1 4 2 5 3 6 4 2 5 1 6
REMARK H PARENT
REMARK Flexibility Score: inf
ROOT
ATOM      1  C   UNL     1      17.162  -8.946  26.785  1.00  0.00     0.052 C 
ENDROOT
BRANCH   1   2
ATOM      2  C   UNL     1      17.064  -8.518  25.355  1.00  0.00     0.041 C 
ATOM      3  O   UNL     1      15.942  -8.472  24.784  1.00  0.00    -0.550 OA
ATOM      4  O   UNL     1      18.203  -8.123  24.667  1.00  0.00    -0.550 OA
ENDBRANCH   1   2
BRANCH   1   5
ATOM      5  C   UNL     1      15.949  -8.453  27.577  1.00  0.00     0.003 C 
ATOM      6  C   UNL     1      16.267  -8.350  29.065  1.00  0.00     0.004 C 
ENDBRANCH   1   5
TORSDOF 2
ENDMDL
MODEL 9
REMARK VINA RESULT:    -1.160      2.082      2.837
REMARK INTER + INTRA:          -1.318
REMARK INTER:                  -1.311
REMARK INTRA:                  -0.007
REMARK UNBOUND:                -0.023
REMARK SMILES CCCC(=O)[O-]
REMARK SMILES IDX 3 1 4 2 5 3 6 4 2 5 1 6
REMARK H PARENT
REMARK Flexibility Score: inf
ROOT
ATOM      1  C   UNL     1      33.128  -6.462  27.052  1.00  0.00     0.052 C 
ENDROOT
BRANCH   1   2
ATOM      2  C   UNL     1      32.837  -5.356  28.016  1.00  0.00     0.041 C 
ATOM      3  O   UNL     1      31.671  -4.888  28.109  1.00  0.00    -0.550 OA
ATOM      4  O   UNL     1      33.841  -4.875  28.845  1.00  0.00    -0.550 OA
ENDBRANCH   1   2
BRANCH   1   5
ATOM      5  C   UNL     1      33.417  -5.897  25.659  1.00  0.00     0.003 C 
ATOM      6  C   UNL     1      34.772  -5.196  25.619  1.00  0.00     0.004 C 
ENDBRANCH   1   5
TORSDOF 2
ENDMDL
