MODEL 1
REMARK VINA RESULT:    -3.918      0.000      0.000
REMARK INTER + INTRA:          -4.274
REMARK INTER:                  -4.147
REMARK INTRA:                  -0.126
REMARK UNBOUND:                -0.126
REMARK SMILES C=C(C)[C@@H]1CC=C(C)CC1
REMARK SMILES IDX 8 1 7 2 6 3 5 4 4 5 10 6 9 7 2 8 1 9 3 10
REMARK H PARENT
REMARK Flexibility Score: inf
ROOT
ATOM      1  C   UNL     1     139.386 137.115 164.744  1.00  0.00     0.039 C 
ATOM      2  C   UNL     1     138.368 136.832 163.674  1.00  0.00    -0.077 C 
ATOM      3  C   UNL     1     138.731 136.100 162.600  1.00  0.00    -0.027 C 
ATOM      4  C   UNL     1     137.769 135.718 161.502  1.00  0.00     0.035 C 
ATOM      5  C   UNL     1     136.559 136.666 161.434  1.00  0.00     0.018 C 
ATOM      6  C   UNL     1     135.964 136.856 162.838  1.00  0.00     0.013 C 
ATOM      7  C   UNL     1     137.004 137.490 163.771  1.00  0.00     0.031 C 
ENDROOT
BRANCH   5   8
ATOM      8  C   UNL     1     135.514 136.172 160.441  1.00  0.00    -0.077 C 
ATOM      9  C   UNL     1     135.138 134.882 160.406  1.00  0.00     0.008 C 
ATOM     10  C   UNL     1     134.875 137.135 159.474  1.00  0.00     0.039 C 
ENDBRANCH   5   8
TORSDOF 1
ENDMDL
MODEL 2
REMARK VINA RESULT:    -3.710     13.909     16.297
REMARK INTER + INTRA:          -4.053
REMARK INTER:                  -3.926
REMARK INTRA:                  -0.127
REMARK UNBOUND:                -0.126
REMARK SMILES C=C(C)[C@@H]1CC=C(C)CC1
REMARK SMILES IDX 8 1 7 2 6 3 5 4 4 5 10 6 9 7 2 8 1 9 3 10
REMARK H PARENT
REMARK Flexibility Score: inf
ROOT
ATOM      1  C   UNL     1     150.260 136.755 158.881  1.00  0.00     0.039 C 
ATOM      2  C   UNL     1     151.198 136.861 160.052  1.00  0.00    -0.077 C 
ATOM      3  C   UNL     1     151.785 138.048 160.316  1.00  0.00    -0.027 C 
ATOM      4  C   UNL     1     152.698 138.269 161.497  1.00  0.00     0.035 C 
ATOM      5  C   UNL     1     153.317 136.956 162.007  1.00  0.00     0.018 C 
ATOM      6  C   UNL     1     152.221 135.891 162.171  1.00  0.00     0.013 C 
ATOM      7  C   UNL     1     151.559 135.602 160.818  1.00  0.00     0.031 C 
ENDROOT
BRANCH   5   8
ATOM      8  C   UNL     1     154.095 137.168 163.300  1.00  0.00    -0.077 C 
ATOM      9  C   UNL     1     154.900 136.212 163.796  1.00  0.00     0.008 C 
ATOM     10  C   UNL     1     153.975 138.469 164.050  1.00  0.00     0.039 C 
ENDBRANCH   5   8
TORSDOF 1
ENDMDL
MODEL 3
REMARK VINA RESULT:    -3.689      1.726      3.030
REMARK INTER + INTRA:          -4.031
REMARK INTER:                  -3.908
REMARK INTRA:                  -0.123
REMARK UNBOUND:                -0.126
REMARK SMILES C=C(C)[C@@H]1CC=C(C)CC1
REMARK SMILES IDX 8 1 7 2 6 3 5 4 4 5 10 6 9 7 2 8 1 9 3 10
REMARK H PARENT
REMARK Flexibility Score: inf
ROOT
ATOM      1  C   UNL     1     140.702 134.947 160.913  1.00  0.00     0.039 C 
ATOM      2  C   UNL     1     139.383 135.368 161.499  1.00  0.00    -0.077 C 
ATOM      3  C   UNL     1     138.243 134.875 160.969  1.00  0.00    -0.027 C 
ATOM      4  C   UNL     1     136.875 135.194 161.519  1.00  0.00     0.035 C 
ATOM      5  C   UNL     1     136.864 136.506 162.325  1.00  0.00     0.018 C 
ATOM      6  C   UNL     1     138.031 136.514 163.325  1.00  0.00     0.013 C 
ATOM      7  C   UNL     1     139.368 136.434 162.578  1.00  0.00     0.031 C 
ENDROOT
BRANCH   5   8
ATOM      8  C   UNL     1     135.526 136.728 163.017  1.00  0.00    -0.077 C 
ATOM      9  C   UNL     1     134.898 137.915 162.962  1.00  0.00     0.008 C 
ATOM     10  C   UNL     1     134.876 135.604 163.783  1.00  0.00     0.039 C 
ENDBRANCH   5   8
TORSDOF 1
ENDMDL
MODEL 4
REMARK VINA RESULT:    -3.594     16.524     17.572
REMARK INTER + INTRA:          -3.930
REMARK INTER:                  -3.803
REMARK INTRA:                  -0.127
REMARK UNBOUND:                -0.126
REMARK SMILES C=C(C)[C@@H]1CC=C(C)CC1
REMARK SMILES IDX 8 1 7 2 6 3 5 4 4 5 10 6 9 7 2 8 1 9 3 10
REMARK H PARENT
REMARK Flexibility Score: inf
ROOT
ATOM      1  C   UNL     1     140.492 154.002 158.997  1.00  0.00     0.039 C 
ATOM      2  C   UNL     1     139.541 153.877 160.155  1.00  0.00    -0.077 C 
ATOM      3  C   UNL     1     138.958 152.684 160.399  1.00  0.00    -0.027 C 
ATOM      4  C   UNL     1     138.033 152.443 161.566  1.00  0.00     0.035 C 
ATOM      5  C   UNL     1     137.400 153.747 162.084  1.00  0.00     0.018 C 
ATOM      6  C   UNL     1     138.487 154.817 162.272  1.00  0.00     0.013 C 
ATOM      7  C   UNL     1     139.164 155.125 160.931  1.00  0.00     0.031 C 
ENDROOT
BRANCH   5   8
ATOM      8  C   UNL     1     136.608 153.517 163.365  1.00  0.00    -0.077 C 
ATOM      9  C   UNL     1     135.717 154.420 163.809  1.00  0.00     0.008 C 
ATOM     10  C   UNL     1     136.811 152.254 164.162  1.00  0.00     0.039 C 
ENDBRANCH   5   8
TORSDOF 1
ENDMDL
MODEL 5
REMARK VINA RESULT:    -3.330     14.005     16.279
REMARK INTER + INTRA:          -3.651
REMARK INTER:                  -3.521
REMARK INTRA:                  -0.130
REMARK UNBOUND:                -0.126
REMARK SMILES C=C(C)[C@@H]1CC=C(C)CC1
REMARK SMILES IDX 8 1 7 2 6 3 5 4 4 5 10 6 9 7 2 8 1 9 3 10
REMARK H PARENT
REMARK Flexibility Score: inf
ROOT
ATOM      1  C   UNL     1     150.364 136.641 158.888  1.00  0.00     0.039 C 
ATOM      2  C   UNL     1     151.309 136.827 160.042  1.00  0.00    -0.077 C 
ATOM      3  C   UNL     1     151.725 135.743 160.730  1.00  0.00    -0.027 C 
ATOM      4  C   UNL     1     152.713 135.819 161.868  1.00  0.00     0.035 C 
ATOM      5  C   UNL     1     152.756 137.219 162.507  1.00  0.00     0.018 C 
ATOM      6  C   UNL     1     152.879 138.289 161.411  1.00  0.00     0.013 C 
ATOM      7  C   UNL     1     151.661 138.236 160.481  1.00  0.00     0.031 C 
ENDROOT
BRANCH   5   8
ATOM      8  C   UNL     1     153.875 137.332 163.534  1.00  0.00    -0.077 C 
ATOM      9  C   UNL     1     154.761 136.338 163.715  1.00  0.00     0.008 C 
ATOM     10  C   UNL     1     154.009 138.578 164.372  1.00  0.00     0.039 C 
ENDBRANCH   5   8
TORSDOF 1
ENDMDL
MODEL 6
REMARK VINA RESULT:    -3.159     14.374     15.721
REMARK INTER + INTRA:          -3.470
REMARK INTER:                  -3.342
REMARK INTRA:                  -0.128
REMARK UNBOUND:                -0.126
REMARK SMILES C=C(C)[C@@H]1CC=C(C)CC1
REMARK SMILES IDX 8 1 7 2 6 3 5 4 4 5 10 6 9 7 2 8 1 9 3 10
REMARK H PARENT
REMARK Flexibility Score: inf
ROOT
ATOM      1  C   UNL     1     154.406 139.053 164.562  1.00  0.00     0.039 C 
ATOM      2  C   UNL     1     153.680 138.300 163.482  1.00  0.00    -0.077 C 
ATOM      3  C   UNL     1     153.325 138.951 162.354  1.00  0.00    -0.027 C 
ATOM      4  C   UNL     1     152.642 138.272 161.193  1.00  0.00     0.035 C 
ATOM      5  C   UNL     1     151.915 136.984 161.618  1.00  0.00     0.018 C 
ATOM      6  C   UNL     1     152.850 136.116 162.474  1.00  0.00     0.013 C 
ATOM      7  C   UNL     1     153.252 136.869 163.748  1.00  0.00     0.031 C 
ENDROOT
BRANCH   5   8
ATOM      8  C   UNL     1     151.380 136.219 160.415  1.00  0.00    -0.077 C 
ATOM      9  C   UNL     1     151.394 134.875 160.377  1.00  0.00     0.008 C 
ATOM     10  C   UNL     1     150.816 136.966 159.234  1.00  0.00     0.039 C 
ENDBRANCH   5   8
TORSDOF 1
ENDMDL
MODEL 7
REMARK VINA RESULT:    -3.001     13.584     15.486
REMARK INTER + INTRA:          -3.302
REMARK INTER:                  -3.178
REMARK INTRA:                  -0.124
REMARK UNBOUND:                -0.126
REMARK SMILES C=C(C)[C@@H]1CC=C(C)CC1
REMARK SMILES IDX 8 1 7 2 6 3 5 4 4 5 10 6 9 7 2 8 1 9 3 10
REMARK H PARENT
REMARK Flexibility Score: inf
ROOT
ATOM      1  C   UNL     1     154.765 136.017 163.855  1.00  0.00     0.039 C 
ATOM      2  C   UNL     1     153.740 136.305 162.792  1.00  0.00    -0.077 C 
ATOM      3  C   UNL     1     152.976 135.294 162.327  1.00  0.00    -0.027 C 
ATOM      4  C   UNL     1     151.886 135.490 161.302  1.00  0.00     0.035 C 
ATOM      5  C   UNL     1     152.100 136.763 160.464  1.00  0.00     0.018 C 
ATOM      6  C   UNL     1     152.401 137.952 161.388  1.00  0.00     0.013 C 
ATOM      7  C   UNL     1     153.688 137.693 162.181  1.00  0.00     0.031 C 
ENDROOT
BRANCH   5   8
ATOM      8  C   UNL     1     150.909 137.042 159.556  1.00  0.00    -0.077 C 
ATOM      9  C   UNL     1     149.886 137.815 159.961  1.00  0.00     0.008 C 
ATOM     10  C   UNL     1     150.860 136.453 158.170  1.00  0.00     0.039 C 
ENDBRANCH   5   8
TORSDOF 1
ENDMDL
MODEL 8
REMARK VINA RESULT:    -2.749     16.734     17.681
REMARK INTER + INTRA:          -3.036
REMARK INTER:                  -2.911
REMARK INTRA:                  -0.124
REMARK UNBOUND:                -0.126
REMARK SMILES C=C(C)[C@@H]1CC=C(C)CC1
REMARK SMILES IDX 8 1 7 2 6 3 5 4 4 5 10 6 9 7 2 8 1 9 3 10
REMARK H PARENT
REMARK Flexibility Score: inf
ROOT
ATOM      1  C   UNL     1     135.904 154.238 164.030  1.00  0.00     0.039 C 
ATOM      2  C   UNL     1     136.935 154.053 162.951  1.00  0.00    -0.077 C 
ATOM      3  C   UNL     1     137.660 155.118 162.548  1.00  0.00    -0.027 C 
ATOM      4  C   UNL     1     138.753 155.024 161.512  1.00  0.00     0.035 C 
ATOM      5  C   UNL     1     138.583 153.797 160.598  1.00  0.00     0.018 C 
ATOM      6  C   UNL     1     138.328 152.544 161.449  1.00  0.00     0.013 C 
ATOM      7  C   UNL     1     137.035 152.708 162.257  1.00  0.00     0.031 C 
ENDROOT
BRANCH   5   8
ATOM      8  C   UNL     1     139.780 153.617 159.673  1.00  0.00    -0.077 C 
ATOM      9  C   UNL     1     140.835 152.866 160.034  1.00  0.00     0.008 C 
ATOM     10  C   UNL     1     139.799 154.283 158.322  1.00  0.00     0.039 C 
ENDBRANCH   5   8
TORSDOF 1
ENDMDL
