MODEL 1
REMARK VINA RESULT:    -5.425      0.000      0.000
REMARK INTER + INTRA:          -6.948
REMARK INTER:                  -6.693
REMARK INTRA:                  -0.255
REMARK UNBOUND:                -0.255
REMARK SMILES CCCCC=CC(C)=O
REMARK SMILES IDX 4 1 3 2 2 3 1 4 5 5 6 6 7 7 9 8 8 9
REMARK H PARENT
REMARK Flexibility Score: inf
ROOT
ATOM      1  C   UNL     1      -1.409  27.623  28.957  1.00  0.00     0.027 C 
ENDROOT
BRANCH   1   2
ATOM      2  C   UNL     1      -0.169  26.710  28.966  1.00  0.00     0.004 C 
BRANCH   2   3
ATOM      3  C   UNL     1      -0.180  25.628  27.870  1.00  0.00    -0.003 C 
ATOM      4  C   UNL     1      -1.524  25.524  27.149  1.00  0.00     0.004 C 
ENDBRANCH   2   3
ENDBRANCH   1   2
BRANCH   1   5
ATOM      5  C   UNL     1      -1.878  27.978  30.344  1.00  0.00    -0.023 C 
ATOM      6  C   UNL     1      -3.151  27.961  30.775  1.00  0.00     0.042 C 
BRANCH   6   7
ATOM      7  C   UNL     1      -4.351  27.653  29.964  1.00  0.00     0.152 C 
ATOM      8  O   UNL     1      -4.650  26.471  29.648  1.00  0.00    -0.295 OA
ATOM      9  C   UNL     1      -5.183  28.777  29.436  1.00  0.00     0.093 C 
ENDBRANCH   6   7
ENDBRANCH   1   5
TORSDOF 4
ENDMDL
MODEL 2
REMARK VINA RESULT:    -5.375      1.552      1.947
REMARK INTER + INTRA:          -6.886
REMARK INTER:                  -6.625
REMARK INTRA:                  -0.261
REMARK UNBOUND:                -0.255
REMARK SMILES CCCCC=CC(C)=O
REMARK SMILES IDX 4 1 3 2 2 3 1 4 5 5 6 6 7 7 9 8 8 9
REMARK H PARENT
REMARK Flexibility Score: inf
ROOT
ATOM      1  C   UNL     1      -3.131  26.841  29.012  1.00  0.00     0.027 C 
ENDROOT
BRANCH   1   2
ATOM      2  C   UNL     1      -1.984  27.076  28.012  1.00  0.00     0.004 C 
BRANCH   2   3
ATOM      3  C   UNL     1      -1.369  25.783  27.448  1.00  0.00    -0.003 C 
ATOM      4  C   UNL     1       0.082  25.575  27.882  1.00  0.00     0.004 C 
ENDBRANCH   2   3
ENDBRANCH   1   2
BRANCH   1   5
ATOM      5  C   UNL     1      -3.137  27.844  30.136  1.00  0.00    -0.023 C 
ATOM      6  C   UNL     1      -3.922  28.931  30.220  1.00  0.00     0.042 C 
BRANCH   6   7
ATOM      7  C   UNL     1      -4.889  29.399  29.201  1.00  0.00     0.152 C 
ATOM      8  O   UNL     1      -6.123  29.167  29.306  1.00  0.00    -0.295 OA
ATOM      9  C   UNL     1      -4.383  30.092  27.978  1.00  0.00     0.093 C 
ENDBRANCH   6   7
ENDBRANCH   1   5
TORSDOF 4
ENDMDL
MODEL 3
REMARK VINA RESULT:    -5.321      1.489      1.932
REMARK INTER + INTRA:          -6.819
REMARK INTER:                  -6.496
REMARK INTRA:                  -0.323
REMARK UNBOUND:                -0.255
REMARK SMILES CCCCC=CC(C)=O
REMARK SMILES IDX 4 1 3 2 2 3 1 4 5 5 6 6 7 7 9 8 8 9
REMARK H PARENT
REMARK Flexibility Score: inf
ROOT
ATOM      1  C   UNL     1      -2.129  27.969  30.282  1.00  0.00     0.027 C 
ENDROOT
BRANCH   1   2
ATOM      2  C   UNL     1      -0.934  27.236  29.645  1.00  0.00     0.004 C 
BRANCH   2   3
ATOM      3  C   UNL     1      -1.193  26.746  28.209  1.00  0.00    -0.003 C 
ATOM      4  C   UNL     1      -0.210  25.665  27.761  1.00  0.00     0.004 C 
ENDBRANCH   2   3
ENDBRANCH   1   2
BRANCH   1   5
ATOM      5  C   UNL     1      -3.415  27.192  30.168  1.00  0.00    -0.023 C 
ATOM      6  C   UNL     1      -4.556  27.633  29.612  1.00  0.00     0.042 C 
BRANCH   6   7
ATOM      7  C   UNL     1      -4.801  28.984  29.059  1.00  0.00     0.152 C 
ATOM      8  O   UNL     1      -5.562  29.806  29.635  1.00  0.00    -0.295 OA
ATOM      9  C   UNL     1      -4.197  29.355  27.743  1.00  0.00     0.093 C 
ENDBRANCH   6   7
ENDBRANCH   1   5
TORSDOF 4
ENDMDL
MODEL 4
REMARK VINA RESULT:    -5.075      1.484      4.403
REMARK INTER + INTRA:          -6.516
REMARK INTER:                  -6.226
REMARK INTRA:                  -0.290
REMARK UNBOUND:                -0.255
REMARK SMILES CCCCC=CC(C)=O
REMARK SMILES IDX 4 1 3 2 2 3 1 4 5 5 6 6 7 7 9 8 8 9
REMARK H PARENT
REMARK Flexibility Score: inf
ROOT
ATOM      1  C   UNL     1      -2.340  27.651  29.905  1.00  0.00     0.027 C 
ENDROOT
BRANCH   1   2
ATOM      2  C   UNL     1      -3.595  28.191  30.615  1.00  0.00     0.004 C 
BRANCH   2   3
ATOM      3  C   UNL     1      -4.907  27.935  29.851  1.00  0.00    -0.003 C 
ATOM      4  C   UNL     1      -5.637  29.223  29.471  1.00  0.00     0.004 C 
ENDBRANCH   2   3
ENDBRANCH   1   2
BRANCH   1   5
ATOM      5  C   UNL     1      -2.286  28.034  28.449  1.00  0.00    -0.023 C 
ATOM      6  C   UNL     1      -1.890  27.242  27.439  1.00  0.00     0.042 C 
BRANCH   6   7
ATOM      7  C   UNL     1      -1.368  25.861  27.555  1.00  0.00     0.152 C 
ATOM      8  O   UNL     1      -2.118  24.857  27.424  1.00  0.00    -0.295 OA
ATOM      9  C   UNL     1       0.066  25.652  27.919  1.00  0.00     0.093 C 
ENDBRANCH   6   7
ENDBRANCH   1   5
TORSDOF 4
ENDMDL
MODEL 5
REMARK VINA RESULT:    -5.050      1.715      4.440
REMARK INTER + INTRA:          -6.485
REMARK INTER:                  -6.152
REMARK INTRA:                  -0.333
REMARK UNBOUND:                -0.255
REMARK SMILES CCCCC=CC(C)=O
REMARK SMILES IDX 4 1 3 2 2 3 1 4 5 5 6 6 7 7 9 8 8 9
REMARK H PARENT
REMARK Flexibility Score: inf
ROOT
ATOM      1  C   UNL     1      -4.574  27.768  29.793  1.00  0.00     0.027 C 
ENDROOT
BRANCH   1   2
ATOM      2  C   UNL     1      -5.071  29.225  29.765  1.00  0.00     0.004 C 
BRANCH   2   3
ATOM      3  C   UNL     1      -5.435  29.735  28.359  1.00  0.00    -0.003 C 
ATOM      4  C   UNL     1      -4.588  30.928  27.920  1.00  0.00     0.004 C 
ENDBRANCH   2   3
ENDBRANCH   1   2
BRANCH   1   5
ATOM      5  C   UNL     1      -3.173  27.642  30.335  1.00  0.00    -0.023 C 
ATOM      6  C   UNL     1      -2.054  27.500  29.604  1.00  0.00     0.042 C 
BRANCH   6   7
ATOM      7  C   UNL     1      -1.975  27.374  28.131  1.00  0.00     0.152 C 
ATOM      8  O   UNL     1      -2.325  28.313  27.368  1.00  0.00    -0.295 OA
ATOM      9  C   UNL     1      -1.548  26.074  27.532  1.00  0.00     0.093 C 
ENDBRANCH   6   7
ENDBRANCH   1   5
TORSDOF 4
ENDMDL
MODEL 6
REMARK VINA RESULT:    -5.001      1.585      2.066
REMARK INTER + INTRA:          -6.425
REMARK INTER:                  -6.269
REMARK INTRA:                  -0.156
REMARK UNBOUND:                -0.255
REMARK SMILES CCCCC=CC(C)=O
REMARK SMILES IDX 4 1 3 2 2 3 1 4 5 5 6 6 7 7 9 8 8 9
REMARK H PARENT
REMARK Flexibility Score: inf
ROOT
ATOM      1  C   UNL     1      -2.434  27.347  28.287  1.00  0.00     0.027 C 
ENDROOT
BRANCH   1   2
ATOM      2  C   UNL     1      -1.128  27.581  29.068  1.00  0.00     0.004 C 
BRANCH   2   3
ATOM      3  C   UNL     1      -0.083  26.464  28.892  1.00  0.00    -0.003 C 
ATOM      4  C   UNL     1      -0.333  25.605  27.652  1.00  0.00     0.004 C 
ENDBRANCH   2   3
ENDBRANCH   1   2
BRANCH   1   5
ATOM      5  C   UNL     1      -2.932  28.594  27.602  1.00  0.00    -0.023 C 
ATOM      6  C   UNL     1      -3.833  29.459  28.096  1.00  0.00     0.042 C 
BRANCH   6   7
ATOM      7  C   UNL     1      -4.563  29.333  29.377  1.00  0.00     0.152 C 
ATOM      8  O   UNL     1      -3.957  29.197  30.474  1.00  0.00    -0.295 OA
ATOM      9  C   UNL     1      -6.057  29.284  29.365  1.00  0.00     0.093 C 
ENDBRANCH   6   7
ENDBRANCH   1   5
TORSDOF 4
ENDMDL
MODEL 7
REMARK VINA RESULT:    -4.946      1.945      4.847
REMARK INTER + INTRA:          -6.357
REMARK INTER:                  -6.100
REMARK INTRA:                  -0.257
REMARK UNBOUND:                -0.255
REMARK SMILES CCCCC=CC(C)=O
REMARK SMILES IDX 4 1 3 2 2 3 1 4 5 5 6 6 7 7 9 8 8 9
REMARK H PARENT
REMARK Flexibility Score: inf
ROOT
ATOM      1  C   UNL     1      -4.753  29.301  29.774  1.00  0.00     0.027 C 
ENDROOT
BRANCH   1   2
ATOM      2  C   UNL     1      -6.068  29.764  29.119  1.00  0.00     0.004 C 
BRANCH   2   3
ATOM      3  C   UNL     1      -5.941  31.071  28.316  1.00  0.00    -0.003 C 
ATOM      4  C   UNL     1      -4.577  31.228  27.644  1.00  0.00     0.004 C 
ENDBRANCH   2   3
ENDBRANCH   1   2
BRANCH   1   5
ATOM      5  C   UNL     1      -4.618  27.801  29.807  1.00  0.00    -0.023 C 
ATOM      6  C   UNL     1      -3.568  27.092  29.359  1.00  0.00     0.042 C 
BRANCH   6   7
ATOM      7  C   UNL     1      -2.365  27.633  28.686  1.00  0.00     0.152 C 
ATOM      8  O   UNL     1      -2.428  28.163  27.545  1.00  0.00    -0.295 OA
ATOM      9  C   UNL     1      -1.030  27.473  29.339  1.00  0.00     0.093 C 
ENDBRANCH   6   7
ENDBRANCH   1   5
TORSDOF 4
ENDMDL
MODEL 8
REMARK VINA RESULT:    -4.659      3.612      4.857
REMARK INTER + INTRA:          -6.003
REMARK INTER:                  -5.716
REMARK INTRA:                  -0.287
REMARK UNBOUND:                -0.255
REMARK SMILES CCCCC=CC(C)=O
REMARK SMILES IDX 4 1 3 2 2 3 1 4 5 5 6 6 7 7 9 8 8 9
REMARK H PARENT
REMARK Flexibility Score: inf
ROOT
ATOM      1  C   UNL     1      -3.889  29.351  27.483  1.00  0.00     0.027 C 
ENDROOT
BRANCH   1   2
ATOM      2  C   UNL     1      -3.181  28.319  28.381  1.00  0.00     0.004 C 
BRANCH   2   3
ATOM      3  C   UNL     1      -3.871  28.093  29.739  1.00  0.00    -0.003 C 
ATOM      4  C   UNL     1      -4.462  26.691  29.881  1.00  0.00     0.004 C 
ENDBRANCH   2   3
ENDBRANCH   1   2
BRANCH   1   5
ATOM      5  C   UNL     1      -4.985  30.093  28.203  1.00  0.00    -0.023 C 
ATOM      6  C   UNL     1      -5.301  31.388  28.039  1.00  0.00     0.042 C 
BRANCH   6   7
ATOM      7  C   UNL     1      -4.601  32.361  27.170  1.00  0.00     0.152 C 
ATOM      8  O   UNL     1      -3.520  32.904  27.523  1.00  0.00    -0.295 OA
ATOM      9  C   UNL     1      -5.231  32.773  25.880  1.00  0.00     0.093 C 
ENDBRANCH   6   7
ENDBRANCH   1   5
TORSDOF 4
ENDMDL
MODEL 9
REMARK VINA RESULT:    -4.553      3.167      5.334
REMARK INTER + INTRA:          -5.872
REMARK INTER:                  -5.686
REMARK INTRA:                  -0.186
REMARK UNBOUND:                -0.255
REMARK SMILES CCCCC=CC(C)=O
REMARK SMILES IDX 4 1 3 2 2 3 1 4 5 5 6 6 7 7 9 8 8 9
REMARK H PARENT
REMARK Flexibility Score: inf
ROOT
ATOM      1  C   UNL     1      -4.714  30.509  27.871  1.00  0.00     0.027 C 
ENDROOT
BRANCH   1   2
ATOM      2  C   UNL     1      -4.967  32.028  27.867  1.00  0.00     0.004 C 
BRANCH   2   3
ATOM      3  C   UNL     1      -4.036  32.816  26.928  1.00  0.00    -0.003 C 
ATOM      4  C   UNL     1      -4.704  33.196  25.607  1.00  0.00     0.004 C 
ENDBRANCH   2   3
ENDBRANCH   1   2
BRANCH   1   5
ATOM      5  C   UNL     1      -5.766  29.747  28.634  1.00  0.00    -0.023 C 
ATOM      6  C   UNL     1      -5.540  28.851  29.610  1.00  0.00     0.042 C 
BRANCH   6   7
ATOM      7  C   UNL     1      -4.218  28.386  30.088  1.00  0.00     0.152 C 
ATOM      8  O   UNL     1      -3.514  29.084  30.866  1.00  0.00    -0.295 OA
ATOM      9  C   UNL     1      -3.668  27.096  29.573  1.00  0.00     0.093 C 
ENDBRANCH   6   7
ENDBRANCH   1   5
TORSDOF 4
ENDMDL
