MODEL 1
REMARK VINA RESULT:    -3.843      0.000      0.000
REMARK INTER + INTRA:          -4.548
REMARK INTER:                  -4.517
REMARK INTRA:                  -0.031
REMARK UNBOUND:                -0.031
REMARK SMILES O=C([O-])CCC(=O)[O-]
REMARK SMILES IDX 4 1 2 2 1 3 3 4 5 5 6 6 7 7 8 8
REMARK H PARENT
REMARK Flexibility Score: inf
ROOT
ATOM      1  C   UNL     1      38.206 106.421 260.946  1.00  0.00     0.059 C 
ENDROOT
BRANCH   1   2
ATOM      2  C   UNL     1      38.260 106.894 262.367  1.00  0.00     0.042 C 
ATOM      3  O   UNL     1      39.331 107.352 262.843  1.00  0.00    -0.550 OA
ATOM      4  O   UNL     1      37.135 106.789 263.176  1.00  0.00    -0.550 OA
ENDBRANCH   1   2
BRANCH   1   5
ATOM      5  C   UNL     1      36.783 106.486 260.383  1.00  0.00     0.059 C 
BRANCH   5   6
ATOM      6  C   UNL     1      36.786 106.640 258.892  1.00  0.00     0.042 C 
ATOM      7  O   UNL     1      37.510 105.897 258.179  1.00  0.00    -0.550 OA
ATOM      8  O   UNL     1      36.018 107.632 258.295  1.00  0.00    -0.550 OA
ENDBRANCH   5   6
ENDBRANCH   1   5
TORSDOF 3
ENDMDL
MODEL 2
REMARK VINA RESULT:    -3.831      0.068      4.180
REMARK INTER + INTRA:          -4.534
REMARK INTER:                  -4.503
REMARK INTRA:                  -0.031
REMARK UNBOUND:                -0.031
REMARK SMILES O=C([O-])CCC(=O)[O-]
REMARK SMILES IDX 4 1 2 2 1 3 3 4 5 5 6 6 7 7 8 8
REMARK H PARENT
REMARK Flexibility Score: inf
ROOT
ATOM      1  C   UNL     1      36.758 106.522 260.420  1.00  0.00     0.059 C 
ENDROOT
BRANCH   1   2
ATOM      2  C   UNL     1      36.773 106.649 258.927  1.00  0.00     0.042 C 
ATOM      3  O   UNL     1      37.507 105.897 258.234  1.00  0.00    -0.550 OA
ATOM      4  O   UNL     1      36.006 107.626 258.305  1.00  0.00    -0.550 OA
ENDBRANCH   1   2
BRANCH   1   5
ATOM      5  C   UNL     1      38.176 106.459 260.996  1.00  0.00     0.059 C 
BRANCH   5   6
ATOM      6  C   UNL     1      38.209 106.897 262.429  1.00  0.00     0.042 C 
ATOM      7  O   UNL     1      39.268 107.364 262.926  1.00  0.00    -0.550 OA
ATOM      8  O   UNL     1      37.081 106.750 263.226  1.00  0.00    -0.550 OA
ENDBRANCH   5   6
ENDBRANCH   1   5
TORSDOF 3
ENDMDL
MODEL 3
REMARK VINA RESULT:    -3.785      1.902      4.380
REMARK INTER + INTRA:          -4.479
REMARK INTER:                  -4.452
REMARK INTRA:                  -0.027
REMARK UNBOUND:                -0.031
REMARK SMILES O=C([O-])CCC(=O)[O-]
REMARK SMILES IDX 4 1 2 2 1 3 3 4 5 5 6 6 7 7 8 8
REMARK H PARENT
REMARK Flexibility Score: inf
ROOT
ATOM      1  C   UNL     1      36.612 105.797 261.190  1.00  0.00     0.059 C 
ENDROOT
BRANCH   1   2
ATOM      2  C   UNL     1      37.235 106.379 259.957  1.00  0.00     0.042 C 
ATOM      3  O   UNL     1      36.611 107.232 259.273  1.00  0.00    -0.550 OA
ATOM      4  O   UNL     1      38.488 105.946 259.542  1.00  0.00    -0.550 OA
ENDBRANCH   1   2
BRANCH   1   5
ATOM      5  C   UNL     1      36.794 106.716 262.401  1.00  0.00     0.059 C 
BRANCH   5   6
ATOM      6  C   UNL     1      35.844 106.366 263.507  1.00  0.00     0.042 C 
ATOM      7  O   UNL     1      35.003 107.211 263.912  1.00  0.00    -0.550 OA
ATOM      8  O   UNL     1      35.916 105.119 264.114  1.00  0.00    -0.550 OA
ENDBRANCH   5   6
ENDBRANCH   1   5
TORSDOF 3
ENDMDL
MODEL 4
REMARK VINA RESULT:    -3.757      1.914      2.687
REMARK INTER + INTRA:          -4.446
REMARK INTER:                  -4.420
REMARK INTRA:                  -0.027
REMARK UNBOUND:                -0.031
REMARK SMILES O=C([O-])CCC(=O)[O-]
REMARK SMILES IDX 4 1 2 2 1 3 3 4 5 5 6 6 7 7 8 8
REMARK H PARENT
REMARK Flexibility Score: inf
ROOT
ATOM      1  C   UNL     1      36.833 106.544 262.586  1.00  0.00     0.059 C 
ENDROOT
BRANCH   1   2
ATOM      2  C   UNL     1      35.786 106.264 263.622  1.00  0.00     0.042 C 
ATOM      3  O   UNL     1      34.957 107.155 263.944  1.00  0.00    -0.550 OA
ATOM      4  O   UNL     1      35.753 105.030 264.259  1.00  0.00    -0.550 OA
ENDBRANCH   1   2
BRANCH   1   5
ATOM      5  C   UNL     1      36.554 105.788 261.284  1.00  0.00     0.059 C 
BRANCH   5   6
ATOM      6  C   UNL     1      37.268 106.411 260.122  1.00  0.00     0.042 C 
ATOM      7  O   UNL     1      36.671 107.229 259.374  1.00  0.00    -0.550 OA
ATOM      8  O   UNL     1      38.582 106.054 259.843  1.00  0.00    -0.550 OA
ENDBRANCH   5   6
ENDBRANCH   1   5
TORSDOF 3
ENDMDL
MODEL 5
REMARK VINA RESULT:    -3.621      2.924      5.228
REMARK INTER + INTRA:          -4.287
REMARK INTER:                  -4.246
REMARK INTRA:                  -0.041
REMARK UNBOUND:                -0.031
REMARK SMILES O=C([O-])CCC(=O)[O-]
REMARK SMILES IDX 4 1 2 2 1 3 3 4 5 5 6 6 7 7 8 8
REMARK H PARENT
REMARK Flexibility Score: inf
ROOT
ATOM      1  C   UNL     1      36.261 106.008 263.339  1.00  0.00     0.059 C 
ENDROOT
BRANCH   1   2
ATOM      2  C   UNL     1      37.140 106.687 262.332  1.00  0.00     0.042 C 
ATOM      3  O   UNL     1      36.787 106.756 261.126  1.00  0.00    -0.550 OA
ATOM      4  O   UNL     1      38.367 107.208 262.721  1.00  0.00    -0.550 OA
ENDBRANCH   1   2
BRANCH   1   5
ATOM      5  C   UNL     1      35.216 106.969 263.915  1.00  0.00     0.059 C 
BRANCH   5   6
ATOM      6  C   UNL     1      35.272 107.011 265.412  1.00  0.00     0.042 C 
ATOM      7  O   UNL     1      35.485 108.099 266.009  1.00  0.00    -0.550 OA
ATOM      8  O   UNL     1      35.129 105.840 266.145  1.00  0.00    -0.550 OA
ENDBRANCH   5   6
ENDBRANCH   1   5
TORSDOF 3
ENDMDL
MODEL 6
REMARK VINA RESULT:    -3.608      2.240      3.957
REMARK INTER + INTRA:          -4.272
REMARK INTER:                  -4.210
REMARK INTRA:                  -0.062
REMARK UNBOUND:                -0.031
REMARK SMILES O=C([O-])CCC(=O)[O-]
REMARK SMILES IDX 4 1 2 2 1 3 3 4 5 5 6 6 7 7 8 8
REMARK H PARENT
REMARK Flexibility Score: inf
ROOT
ATOM      1  C   UNL     1      36.766 106.511 261.619  1.00  0.00     0.059 C 
ENDROOT
BRANCH   1   2
ATOM      2  C   UNL     1      38.237 106.554 261.337  1.00  0.00     0.042 C 
ATOM      3  O   UNL     1      38.685 106.137 260.237  1.00  0.00    -0.550 OA
ATOM      4  O   UNL     1      39.116 107.018 262.307  1.00  0.00    -0.550 OA
ENDBRANCH   1   2
BRANCH   1   5
ATOM      5  C   UNL     1      36.477 106.568 263.122  1.00  0.00     0.059 C 
BRANCH   5   6
ATOM      6  C   UNL     1      35.562 105.461 263.550  1.00  0.00     0.042 C 
ATOM      7  O   UNL     1      35.287 104.522 262.757  1.00  0.00    -0.550 OA
ATOM      8  O   UNL     1      34.982 105.489 264.812  1.00  0.00    -0.550 OA
ENDBRANCH   5   6
ENDBRANCH   1   5
TORSDOF 3
ENDMDL
MODEL 7
REMARK VINA RESULT:    -3.566      3.303      4.411
REMARK INTER + INTRA:          -4.222
REMARK INTER:                  -4.161
REMARK INTRA:                  -0.061
REMARK UNBOUND:                -0.031
REMARK SMILES O=C([O-])CCC(=O)[O-]
REMARK SMILES IDX 4 1 2 2 1 3 3 4 5 5 6 6 7 7 8 8
REMARK H PARENT
REMARK Flexibility Score: inf
ROOT
ATOM      1  C   UNL     1      35.578 105.374 264.481  1.00  0.00     0.059 C 
ENDROOT
BRANCH   1   2
ATOM      2  C   UNL     1      35.237 105.784 265.881  1.00  0.00     0.042 C 
ATOM      3  O   UNL     1      35.235 107.000 266.204  1.00  0.00    -0.550 OA
ATOM      4  O   UNL     1      34.961 104.816 266.840  1.00  0.00    -0.550 OA
ENDBRANCH   1   2
BRANCH   1   5
ATOM      5  C   UNL     1      35.592 106.575 263.530  1.00  0.00     0.059 C 
BRANCH   5   6
ATOM      6  C   UNL     1      36.787 106.547 262.625  1.00  0.00     0.042 C 
ATOM      7  O   UNL     1      37.893 107.000 263.020  1.00  0.00    -0.550 OA
ATOM      8  O   UNL     1      36.666 106.056 261.331  1.00  0.00    -0.550 OA
ENDBRANCH   5   6
ENDBRANCH   1   5
TORSDOF 3
ENDMDL
MODEL 8
REMARK VINA RESULT:    -3.482      4.809      6.263
REMARK INTER + INTRA:          -4.124
REMARK INTER:                  -4.086
REMARK INTRA:                  -0.038
REMARK UNBOUND:                -0.031
REMARK SMILES O=C([O-])CCC(=O)[O-]
REMARK SMILES IDX 4 1 2 2 1 3 3 4 5 5 6 6 7 7 8 8
REMARK H PARENT
REMARK Flexibility Score: inf
ROOT
ATOM      1  C   UNL     1      35.213 106.351 266.869  1.00  0.00     0.059 C 
ENDROOT
BRANCH   1   2
ATOM      2  C   UNL     1      35.091 107.220 268.083  1.00  0.00     0.042 C 
ATOM      3  O   UNL     1      34.875 108.454 267.961  1.00  0.00    -0.550 OA
ATOM      4  O   UNL     1      35.256 106.672 269.349  1.00  0.00    -0.550 OA
ENDBRANCH   1   2
BRANCH   1   5
ATOM      5  C   UNL     1      35.212 107.179 265.580  1.00  0.00     0.059 C 
BRANCH   5   6
ATOM      6  C   UNL     1      35.613 106.353 264.395  1.00  0.00     0.042 C 
ATOM      7  O   UNL     1      35.604 106.855 263.240  1.00  0.00    -0.550 OA
ATOM      8  O   UNL     1      35.956 105.018 264.563  1.00  0.00    -0.550 OA
ENDBRANCH   5   6
ENDBRANCH   1   5
TORSDOF 3
ENDMDL
MODEL 9
REMARK VINA RESULT:    -3.413      4.297      6.662
REMARK INTER + INTRA:          -4.042
REMARK INTER:                  -4.007
REMARK INTRA:                  -0.035
REMARK UNBOUND:                -0.031
REMARK SMILES O=C([O-])CCC(=O)[O-]
REMARK SMILES IDX 4 1 2 2 1 3 3 4 5 5 6 6 7 7 8 8
REMARK H PARENT
REMARK Flexibility Score: inf
ROOT
ATOM      1  C   UNL     1      35.021 106.459 264.720  1.00  0.00     0.059 C 
ENDROOT
BRANCH   1   2
ATOM      2  C   UNL     1      35.646 105.842 263.506  1.00  0.00     0.042 C 
ATOM      3  O   UNL     1      35.271 104.709 263.105  1.00  0.00    -0.550 OA
ATOM      4  O   UNL     1      36.672 106.503 262.842  1.00  0.00    -0.550 OA
ENDBRANCH   1   2
BRANCH   1   5
ATOM      5  C   UNL     1      34.986 105.478 265.897  1.00  0.00     0.059 C 
BRANCH   5   6
ATOM      6  C   UNL     1      34.990 106.196 267.213  1.00  0.00     0.042 C 
ATOM      7  O   UNL     1      34.909 105.548 268.289  1.00  0.00    -0.550 OA
ATOM      8  O   UNL     1      35.043 107.584 267.246  1.00  0.00    -0.550 OA
ENDBRANCH   5   6
ENDBRANCH   1   5
TORSDOF 3
ENDMDL
