MODEL 1
REMARK VINA RESULT:     7.909      0.000      0.000
REMARK INTER + INTRA:          13.874
REMARK INTER:                  14.383
REMARK INTRA:                  -0.509
REMARK UNBOUND:                -0.509
REMARK SMILES CCCCCCCCCCCCCCCC(=O)[O-]
REMARK SMILES IDX 9 1 10 2 11 3 12 4 13 5 14 6 15 7 16 8 17 9 18 10 8 11 7 12
REMARK SMILES IDX 6 13 5 14 4 15 3 16 2 17 1 18
REMARK H PARENT
REMARK Flexibility Score: inf
ROOT
ATOM      1  C   UNL     1     -11.622  19.928 -15.129  1.00  0.00     0.000 C 
ENDROOT
BRANCH   1   2
ATOM      2  C   UNL     1     -10.689  19.355 -16.210  1.00  0.00     0.000 C 
BRANCH   2   3
ATOM      3  C   UNL     1     -10.913  20.003 -17.586  1.00  0.00     0.000 C 
BRANCH   3   4
ATOM      4  C   UNL     1     -11.750  19.119 -18.528  1.00  0.00     0.000 C 
BRANCH   4   5
ATOM      5  C   UNL     1     -12.114  19.836 -19.838  1.00  0.00     0.000 C 
BRANCH   5   6
ATOM      6  C   UNL     1     -13.634  19.943 -20.050  1.00  0.00     0.006 C 
BRANCH   6   7
ATOM      7  C   UNL     1     -13.989  20.784 -21.283  1.00  0.00     0.053 C 
BRANCH   7   8
ATOM      8  C   UNL     1     -13.472  20.168 -22.545  1.00  0.00     0.041 C 
ATOM      9  O   UNL     1     -14.118  19.247 -23.112  1.00  0.00    -0.550 OA
ATOM     10  O   UNL     1     -12.294  20.634 -23.117  1.00  0.00    -0.550 OA
ENDBRANCH   7   8
ENDBRANCH   6   7
ENDBRANCH   5   6
ENDBRANCH   4   5
ENDBRANCH   3   4
ENDBRANCH   2   3
ENDBRANCH   1   2
BRANCH   1  11
ATOM     11  C   UNL     1     -11.719  19.018 -13.890  1.00  0.00     0.000 C 
BRANCH  11  12
ATOM     12  C   UNL     1     -13.007  19.206 -13.065  1.00  0.00    -0.000 C 
BRANCH  12  13
ATOM     13  C   UNL     1     -12.723  19.413 -11.567  1.00  0.00    -0.000 C 
BRANCH  13  14
ATOM     14  C   UNL     1     -13.071  18.174 -10.725  1.00  0.00    -0.000 C 
BRANCH  14  15
ATOM     15  C   UNL     1     -12.754  18.365  -9.230  1.00  0.00    -0.000 C 
BRANCH  15  16
ATOM     16  C   UNL     1     -13.643  19.429  -8.564  1.00  0.00    -0.000 C 
BRANCH  16  17
ATOM     17  C   UNL     1     -12.938  20.279  -7.492  1.00  0.00    -0.003 C 
ATOM     18  C   UNL     1     -12.030  21.356  -8.085  1.00  0.00     0.004 C 
ENDBRANCH  16  17
ENDBRANCH  15  16
ENDBRANCH  14  15
ENDBRANCH  13  14
ENDBRANCH  12  13
ENDBRANCH  11  12
ENDBRANCH   1  11
TORSDOF 14
ENDMDL
MODEL 2
REMARK VINA RESULT:     8.663      1.496      1.919
REMARK INTER + INTRA:          15.245
REMARK INTER:                  15.828
REMARK INTRA:                  -0.583
REMARK UNBOUND:                -0.509
REMARK SMILES CCCCCCCCCCCCCCCC(=O)[O-]
REMARK SMILES IDX 9 1 10 2 11 3 12 4 13 5 14 6 15 7 16 8 17 9 18 10 8 11 7 12
REMARK SMILES IDX 6 13 5 14 4 15 3 16 2 17 1 18
REMARK H PARENT
REMARK Flexibility Score: inf
ROOT
ATOM      1  C   UNL     1     -13.918  19.006 -14.514  1.00  0.00     0.000 C 
ENDROOT
BRANCH   1   2
ATOM      2  C   UNL     1     -13.499  18.267 -15.796  1.00  0.00     0.000 C 
BRANCH   2   3
ATOM      3  C   UNL     1     -14.703  17.832 -16.647  1.00  0.00     0.000 C 
BRANCH   3   4
ATOM      4  C   UNL     1     -14.373  17.761 -18.148  1.00  0.00     0.000 C 
BRANCH   4   5
ATOM      5  C   UNL     1     -14.543  19.116 -18.853  1.00  0.00     0.000 C 
BRANCH   5   6
ATOM      6  C   UNL     1     -13.761  19.195 -20.176  1.00  0.00     0.006 C 
BRANCH   6   7
ATOM      7  C   UNL     1     -14.075  20.478 -20.958  1.00  0.00     0.053 C 
BRANCH   7   8
ATOM      8  C   UNL     1     -13.616  20.389 -22.381  1.00  0.00     0.041 C 
ATOM      9  O   UNL     1     -12.969  21.337 -22.898  1.00  0.00    -0.550 OA
ATOM     10  O   UNL     1     -13.873  19.243 -23.125  1.00  0.00    -0.550 OA
ENDBRANCH   7   8
ENDBRANCH   6   7
ENDBRANCH   5   6
ENDBRANCH   4   5
ENDBRANCH   3   4
ENDBRANCH   2   3
ENDBRANCH   1   2
BRANCH   1  11
ATOM     11  C   UNL     1     -12.735  19.714 -13.826  1.00  0.00     0.000 C 
BRANCH  11  12
ATOM     12  C   UNL     1     -12.151  18.948 -12.623  1.00  0.00    -0.000 C 
BRANCH  12  13
ATOM     13  C   UNL     1     -13.081  18.979 -11.397  1.00  0.00    -0.000 C 
BRANCH  13  14
ATOM     14  C   UNL     1     -12.822  17.811 -10.431  1.00  0.00    -0.000 C 
BRANCH  14  15
ATOM     15  C   UNL     1     -12.588  18.279  -8.984  1.00  0.00    -0.000 C 
BRANCH  15  16
ATOM     16  C   UNL     1     -13.561  19.391  -8.553  1.00  0.00    -0.000 C 
BRANCH  16  17
ATOM     17  C   UNL     1     -12.999  20.365  -7.502  1.00  0.00    -0.003 C 
ATOM     18  C   UNL     1     -11.934  21.305  -8.066  1.00  0.00     0.004 C 
ENDBRANCH  16  17
ENDBRANCH  15  16
ENDBRANCH  14  15
ENDBRANCH  13  14
ENDBRANCH  12  13
ENDBRANCH  11  12
ENDBRANCH   1  11
TORSDOF 14
ENDMDL
MODEL 3
REMARK VINA RESULT:     8.843      5.302     10.726
REMARK INTER + INTRA:          15.572
REMARK INTER:                  16.059
REMARK INTRA:                  -0.487
REMARK UNBOUND:                -0.509
REMARK SMILES CCCCCCCCCCCCCCCC(=O)[O-]
REMARK SMILES IDX 9 1 10 2 11 3 12 4 13 5 14 6 15 7 16 8 17 9 18 10 8 11 7 12
REMARK SMILES IDX 6 13 5 14 4 15 3 16 2 17 1 18
REMARK H PARENT
REMARK Flexibility Score: inf
ROOT
ATOM      1  C   UNL     1     -10.971  19.016 -14.915  1.00  0.00     0.000 C 
ENDROOT
BRANCH   1   2
ATOM      2  C   UNL     1     -12.033  19.846 -14.172  1.00  0.00     0.000 C 
BRANCH   2   3
ATOM      3  C   UNL     1     -12.932  18.983 -13.273  1.00  0.00     0.000 C 
BRANCH   3   4
ATOM      4  C   UNL     1     -12.766  19.311 -11.779  1.00  0.00     0.000 C 
BRANCH   4   5
ATOM      5  C   UNL     1     -12.993  18.086 -10.879  1.00  0.00     0.000 C 
BRANCH   5   6
ATOM      6  C   UNL     1     -12.766  18.397  -9.389  1.00  0.00     0.006 C 
BRANCH   6   7
ATOM      7  C   UNL     1     -13.499  19.671  -8.947  1.00  0.00     0.053 C 
BRANCH   7   8
ATOM      8  C   UNL     1     -12.770  20.378  -7.846  1.00  0.00     0.041 C 
ATOM      9  O   UNL     1     -13.033  20.118  -6.643  1.00  0.00    -0.550 OA
ATOM     10  O   UNL     1     -11.775  21.300  -8.150  1.00  0.00    -0.550 OA
ENDBRANCH   7   8
ENDBRANCH   6   7
ENDBRANCH   5   6
ENDBRANCH   4   5
ENDBRANCH   3   4
ENDBRANCH   2   3
ENDBRANCH   1   2
BRANCH   1  11
ATOM     11  C   UNL     1     -10.750  19.499 -16.362  1.00  0.00     0.000 C 
BRANCH  11  12
ATOM     12  C   UNL     1     -11.761  18.935 -17.379  1.00  0.00    -0.000 C 
BRANCH  12  13
ATOM     13  C   UNL     1     -11.567  19.519 -18.789  1.00  0.00    -0.000 C 
BRANCH  13  14
ATOM     14  C   UNL     1     -12.723  19.164 -19.738  1.00  0.00    -0.000 C 
BRANCH  14  15
ATOM     15  C   UNL     1     -13.464  20.408 -20.261  1.00  0.00    -0.000 C 
BRANCH  15  16
ATOM     16  C   UNL     1     -14.115  20.179 -21.636  1.00  0.00    -0.000 C 
BRANCH  16  17
ATOM     17  C   UNL     1     -13.365  20.818 -22.819  1.00  0.00    -0.003 C 
ATOM     18  C   UNL     1     -12.026  20.142 -23.113  1.00  0.00     0.004 C 
ENDBRANCH  16  17
ENDBRANCH  15  16
ENDBRANCH  14  15
ENDBRANCH  13  14
ENDBRANCH  12  13
ENDBRANCH  11  12
ENDBRANCH   1  11
TORSDOF 14
ENDMDL
MODEL 4
REMARK VINA RESULT:     9.078      5.439     10.787
REMARK INTER + INTRA:          16.000
REMARK INTER:                  16.523
REMARK INTRA:                  -0.523
REMARK UNBOUND:                -0.509
REMARK SMILES CCCCCCCCCCCCCCCC(=O)[O-]
REMARK SMILES IDX 9 1 10 2 11 3 12 4 13 5 14 6 15 7 16 8 17 9 18 10 8 11 7 12
REMARK SMILES IDX 6 13 5 14 4 15 3 16 2 17 1 18
REMARK H PARENT
REMARK Flexibility Score: inf
ROOT
ATOM      1  C   UNL     1     -13.369  18.603 -15.293  1.00  0.00     0.000 C 
ENDROOT
BRANCH   1   2
ATOM      2  C   UNL     1     -11.958  18.861 -14.737  1.00  0.00     0.000 C 
BRANCH   2   3
ATOM      3  C   UNL     1     -11.981  19.574 -13.376  1.00  0.00     0.000 C 
BRANCH   3   4
ATOM      4  C   UNL     1     -13.208  19.194 -12.528  1.00  0.00     0.000 C 
BRANCH   4   5
ATOM      5  C   UNL     1     -12.825  18.727 -11.115  1.00  0.00     0.000 C 
BRANCH   5   6
ATOM      6  C   UNL     1     -13.513  19.552 -10.013  1.00  0.00     0.006 C 
BRANCH   6   7
ATOM      7  C   UNL     1     -13.037  19.155  -8.610  1.00  0.00     0.053 C 
BRANCH   7   8
ATOM      8  C   UNL     1     -12.637  20.348  -7.799  1.00  0.00     0.041 C 
ATOM      9  O   UNL     1     -11.947  21.265  -8.319  1.00  0.00    -0.550 OA
ATOM     10  O   UNL     1     -13.058  20.467  -6.480  1.00  0.00    -0.550 OA
ENDBRANCH   7   8
ENDBRANCH   6   7
ENDBRANCH   5   6
ENDBRANCH   4   5
ENDBRANCH   3   4
ENDBRANCH   2   3
ENDBRANCH   1   2
BRANCH   1  11
ATOM     11  C   UNL     1     -13.354  17.737 -16.567  1.00  0.00     0.000 C 
BRANCH  11  12
ATOM     12  C   UNL     1     -14.432  18.113 -17.601  1.00  0.00    -0.000 C 
BRANCH  12  13
ATOM     13  C   UNL     1     -13.833  18.470 -18.973  1.00  0.00    -0.000 C 
BRANCH  13  14
ATOM     14  C   UNL     1     -14.652  19.542 -19.712  1.00  0.00    -0.000 C 
BRANCH  14  15
ATOM     15  C   UNL     1     -13.769  20.504 -20.527  1.00  0.00    -0.000 C 
BRANCH  15  16
ATOM     16  C   UNL     1     -14.312  20.755 -21.944  1.00  0.00    -0.000 C 
BRANCH  16  17
ATOM     17  C   UNL     1     -13.669  19.889 -23.043  1.00  0.00    -0.003 C 
ATOM     18  C   UNL     1     -12.152  20.057 -23.124  1.00  0.00     0.004 C 
ENDBRANCH  16  17
ENDBRANCH  15  16
ENDBRANCH  14  15
ENDBRANCH  13  14
ENDBRANCH  12  13
ENDBRANCH  11  12
ENDBRANCH   1  11
TORSDOF 14
ENDMDL
MODEL 5
REMARK VINA RESULT:    10.501     12.651     15.494
REMARK INTER + INTRA:          18.586
REMARK INTER:                  18.650
REMARK INTRA:                  -0.063
REMARK UNBOUND:                -0.509
REMARK SMILES CCCCCCCCCCCCCCCC(=O)[O-]
REMARK SMILES IDX 9 1 10 2 11 3 12 4 13 5 14 6 15 7 16 8 17 9 18 10 8 11 7 12
REMARK SMILES IDX 6 13 5 14 4 15 3 16 2 17 1 18
REMARK H PARENT
REMARK Flexibility Score: inf
ROOT
ATOM      1  C   UNL     1      -7.287   7.634 -17.894  1.00  0.00     0.000 C 
ENDROOT
BRANCH   1   2
ATOM      2  C   UNL     1      -7.989   8.827 -18.568  1.00  0.00     0.000 C 
BRANCH   2   3
ATOM      3  C   UNL     1      -7.774  10.144 -17.805  1.00  0.00     0.000 C 
BRANCH   3   4
ATOM      4  C   UNL     1      -7.293  11.286 -18.717  1.00  0.00     0.000 C 
BRANCH   4   5
ATOM      5  C   UNL     1      -6.049  11.999 -18.162  1.00  0.00     0.000 C 
BRANCH   5   6
ATOM      6  C   UNL     1      -6.343  13.445 -17.728  1.00  0.00     0.006 C 
BRANCH   6   7
ATOM      7  C   UNL     1      -5.724  13.776 -16.363  1.00  0.00     0.053 C 
BRANCH   7   8
ATOM      8  C   UNL     1      -4.229  13.809 -16.422  1.00  0.00     0.041 C 
ATOM      9  O   UNL     1      -3.611  14.889 -16.226  1.00  0.00    -0.550 OA
ATOM     10  O   UNL     1      -3.515  12.640 -16.658  1.00  0.00    -0.550 OA
ENDBRANCH   7   8
ENDBRANCH   6   7
ENDBRANCH   5   6
ENDBRANCH   4   5
ENDBRANCH   3   4
ENDBRANCH   2   3
ENDBRANCH   1   2
BRANCH   1  11
ATOM     11  C   UNL     1      -6.801   6.585 -18.911  1.00  0.00     0.000 C 
BRANCH  11  12
ATOM     12  C   UNL     1      -7.541   5.235 -18.832  1.00  0.00    -0.000 C 
BRANCH  12  13
ATOM     13  C   UNL     1      -8.144   4.813 -20.183  1.00  0.00    -0.000 C 
BRANCH  13  14
ATOM     14  C   UNL     1      -7.365   3.662 -20.842  1.00  0.00    -0.000 C 
BRANCH  14  15
ATOM     15  C   UNL     1      -6.809   4.039 -22.227  1.00  0.00    -0.000 C 
BRANCH  15  16
ATOM     16  C   UNL     1      -7.763   4.944 -23.025  1.00  0.00    -0.000 C 
BRANCH  16  17
ATOM     17  C   UNL     1      -9.209   4.426 -23.125  1.00  0.00    -0.003 C 
ATOM     18  C   UNL     1     -10.251   5.541 -23.031  1.00  0.00     0.004 C 
ENDBRANCH  16  17
ENDBRANCH  15  16
ENDBRANCH  14  15
ENDBRANCH  13  14
ENDBRANCH  12  13
ENDBRANCH  11  12
ENDBRANCH   1  11
TORSDOF 14
ENDMDL
