MODEL 1
REMARK VINA RESULT:    -3.070      0.000      0.000
REMARK INTER + INTRA:          -8.034
REMARK INTER:                  -5.583
REMARK INTRA:                  -2.451
REMARK UNBOUND:                -2.451
REMARK SMILES CCCCCCCCCCCCCC[C@H](C)C(=O)[O-]
REMARK SMILES IDX 9 1 10 2 11 3 12 4 13 5 14 6 15 7 16 8 17 9 18 10 19 11 8 12
REMARK SMILES IDX 7 13 6 14 5 15 4 16 3 17 2 18 1 19
REMARK H PARENT
REMARK Flexibility Score: inf
ROOT
ATOM      1  C   UNL     1      22.562  66.188  18.321  1.00  0.00     0.000 C 
ENDROOT
BRANCH   1   2
ATOM      2  C   UNL     1      23.059  67.596  17.935  1.00  0.00     0.000 C 
BRANCH   2   3
ATOM      3  C   UNL     1      22.365  68.759  18.667  1.00  0.00     0.000 C 
BRANCH   3   4
ATOM      4  C   UNL     1      22.726  70.132  18.079  1.00  0.00     0.000 C 
BRANCH   4   5
ATOM      5  C   UNL     1      21.568  70.697  17.248  1.00  0.00     0.001 C 
BRANCH   5   6
ATOM      6  C   UNL     1      21.945  70.980  15.778  1.00  0.00     0.009 C 
BRANCH   6   7
ATOM      7  C   UNL     1      21.648  72.405  15.244  1.00  0.00     0.032 C 
ATOM      8  C   UNL     1      20.859  72.393  13.926  1.00  0.00     0.014 C 
BRANCH   7   9
ATOM      9  C   UNL     1      22.889  73.259  15.161  1.00  0.00     0.044 C 
ATOM     10  O   UNL     1      22.802  74.453  14.766  1.00  0.00    -0.550 OA
ATOM     11  O   UNL     1      24.139  72.746  15.493  1.00  0.00    -0.550 OA
ENDBRANCH   7   9
ENDBRANCH   6   7
ENDBRANCH   5   6
ENDBRANCH   4   5
ENDBRANCH   3   4
ENDBRANCH   2   3
ENDBRANCH   1   2
BRANCH   1  12
ATOM     12  C   UNL     1      21.269  66.155  19.155  1.00  0.00     0.000 C 
BRANCH  12  13
ATOM     13  C   UNL     1      20.246  65.136  18.631  1.00  0.00    -0.000 C 
BRANCH  13  14
ATOM     14  C   UNL     1      19.041  65.845  17.997  1.00  0.00    -0.000 C 
BRANCH  14  15
ATOM     15  C   UNL     1      19.047  67.366  18.230  1.00  0.00    -0.000 C 
BRANCH  15  16
ATOM     16  C   UNL     1      18.961  68.221  16.952  1.00  0.00    -0.000 C 
BRANCH  16  17
ATOM     17  C   UNL     1      19.303  67.431  15.677  1.00  0.00    -0.000 C 
BRANCH  17  18
ATOM     18  C   UNL     1      20.757  67.638  15.229  1.00  0.00    -0.003 C 
ATOM     19  C   UNL     1      21.426  66.339  14.781  1.00  0.00     0.004 C 
ENDBRANCH  17  18
ENDBRANCH  16  17
ENDBRANCH  15  16
ENDBRANCH  14  15
ENDBRANCH  13  14
ENDBRANCH  12  13
ENDBRANCH   1  12
TORSDOF 14
ENDMDL
MODEL 2
REMARK VINA RESULT:    -3.017      1.110      3.230
REMARK INTER + INTRA:          -7.938
REMARK INTER:                  -5.294
REMARK INTRA:                  -2.644
REMARK UNBOUND:                -2.451
REMARK SMILES CCCCCCCCCCCCCC[C@H](C)C(=O)[O-]
REMARK SMILES IDX 9 1 10 2 11 3 12 4 13 5 14 6 15 7 16 8 17 9 18 10 19 11 8 12
REMARK SMILES IDX 7 13 6 14 5 15 4 16 3 17 2 18 1 19
REMARK H PARENT
REMARK Flexibility Score: inf
ROOT
ATOM      1  C   UNL     1      21.116  66.429  15.350  1.00  0.00     0.000 C 
ENDROOT
BRANCH   1   2
ATOM      2  C   UNL     1      19.858  67.319  15.402  1.00  0.00     0.000 C 
BRANCH   2   3
ATOM      3  C   UNL     1      20.120  68.832  15.300  1.00  0.00     0.000 C 
BRANCH   3   4
ATOM      4  C   UNL     1      19.604  69.609  16.521  1.00  0.00     0.000 C 
BRANCH   4   5
ATOM      5  C   UNL     1      20.675  70.567  17.057  1.00  0.00     0.001 C 
BRANCH   5   6
ATOM      6  C   UNL     1      21.865  70.762  16.094  1.00  0.00     0.009 C 
BRANCH   6   7
ATOM      7  C   UNL     1      21.983  72.145  15.403  1.00  0.00     0.032 C 
ATOM      8  C   UNL     1      21.135  72.246  14.126  1.00  0.00     0.014 C 
BRANCH   7   9
ATOM      9  C   UNL     1      23.417  72.552  15.171  1.00  0.00     0.044 C 
ATOM     10  O   UNL     1      24.165  72.799  16.155  1.00  0.00    -0.550 OA
ATOM     11  O   UNL     1      23.929  72.682  13.883  1.00  0.00    -0.550 OA
ENDBRANCH   7   9
ENDBRANCH   6   7
ENDBRANCH   5   6
ENDBRANCH   4   5
ENDBRANCH   3   4
ENDBRANCH   2   3
ENDBRANCH   1   2
BRANCH   1  12
ATOM     12  C   UNL     1      22.413  67.097  15.840  1.00  0.00     0.000 C 
BRANCH  12  13
ATOM     13  C   UNL     1      23.322  66.137  16.621  1.00  0.00    -0.000 C 
BRANCH  13  14
ATOM     14  C   UNL     1      23.177  66.354  18.134  1.00  0.00    -0.000 C 
BRANCH  14  15
ATOM     15  C   UNL     1      22.444  67.660  18.487  1.00  0.00    -0.000 C 
BRANCH  15  16
ATOM     16  C   UNL     1      21.087  67.475  19.192  1.00  0.00    -0.000 C 
BRANCH  16  17
ATOM     17  C   UNL     1      20.519  66.054  19.036  1.00  0.00    -0.000 C 
BRANCH  17  18
ATOM     18  C   UNL     1      18.997  66.049  18.832  1.00  0.00    -0.003 C 
ATOM     19  C   UNL     1      18.346  67.374  19.228  1.00  0.00     0.004 C 
ENDBRANCH  17  18
ENDBRANCH  16  17
ENDBRANCH  15  16
ENDBRANCH  14  15
ENDBRANCH  13  14
ENDBRANCH  12  13
ENDBRANCH   1  12
TORSDOF 14
ENDMDL
MODEL 3
REMARK VINA RESULT:    -2.930      1.512      2.992
REMARK INTER + INTRA:          -7.780
REMARK INTER:                  -5.428
REMARK INTRA:                  -2.351
REMARK UNBOUND:                -2.451
REMARK SMILES CCCCCCCCCCCCCC[C@H](C)C(=O)[O-]
REMARK SMILES IDX 9 1 10 2 11 3 12 4 13 5 14 6 15 7 16 8 17 9 18 10 19 11 8 12
REMARK SMILES IDX 7 13 6 14 5 15 4 16 3 17 2 18 1 19
REMARK H PARENT
REMARK Flexibility Score: inf
ROOT
ATOM      1  C   UNL     1      22.191  68.376  18.779  1.00  0.00     0.000 C 
ENDROOT
BRANCH   1   2
ATOM      2  C   UNL     1      22.652  69.621  17.993  1.00  0.00     0.000 C 
BRANCH   2   3
ATOM      3  C   UNL     1      21.533  70.607  17.613  1.00  0.00     0.000 C 
BRANCH   3   4
ATOM      4  C   UNL     1      20.759  70.174  16.358  1.00  0.00     0.000 C 
BRANCH   4   5
ATOM      5  C   UNL     1      21.687  70.091  15.139  1.00  0.00     0.001 C 
BRANCH   5   6
ATOM      6  C   UNL     1      21.938  71.456  14.465  1.00  0.00     0.009 C 
BRANCH   6   7
ATOM      7  C   UNL     1      23.385  72.008  14.526  1.00  0.00     0.032 C 
ATOM      8  C   UNL     1      23.514  73.240  15.435  1.00  0.00     0.014 C 
BRANCH   7   9
ATOM      9  C   UNL     1      23.970  72.245  13.155  1.00  0.00     0.044 C 
ATOM     10  O   UNL     1      25.066  71.706  12.841  1.00  0.00    -0.550 OA
ATOM     11  O   UNL     1      23.331  73.067  12.233  1.00  0.00    -0.550 OA
ENDBRANCH   7   9
ENDBRANCH   6   7
ENDBRANCH   5   6
ENDBRANCH   4   5
ENDBRANCH   3   4
ENDBRANCH   2   3
ENDBRANCH   1   2
BRANCH   1  12
ATOM     12  C   UNL     1      22.836  67.048  18.341  1.00  0.00     0.000 C 
BRANCH  12  13
ATOM     13  C   UNL     1      23.130  66.996  16.834  1.00  0.00    -0.000 C 
BRANCH  13  14
ATOM     14  C   UNL     1      22.963  65.569  16.293  1.00  0.00    -0.000 C 
BRANCH  14  15
ATOM     15  C   UNL     1      21.542  65.286  15.772  1.00  0.00    -0.000 C 
BRANCH  15  16
ATOM     16  C   UNL     1      20.740  66.533  15.358  1.00  0.00    -0.000 C 
BRANCH  16  17
ATOM     17  C   UNL     1      19.471  66.738  16.203  1.00  0.00    -0.000 C 
BRANCH  17  18
ATOM     18  C   UNL     1      19.345  65.708  17.335  1.00  0.00    -0.003 C 
ATOM     19  C   UNL     1      19.083  66.356  18.694  1.00  0.00     0.004 C 
ENDBRANCH  17  18
ENDBRANCH  16  17
ENDBRANCH  15  16
ENDBRANCH  14  15
ENDBRANCH  13  14
ENDBRANCH  12  13
ENDBRANCH   1  12
TORSDOF 14
ENDMDL
MODEL 4
REMARK VINA RESULT:    -2.909      1.272      2.145
REMARK INTER + INTRA:          -7.742
REMARK INTER:                  -5.216
REMARK INTRA:                  -2.526
REMARK UNBOUND:                -2.451
REMARK SMILES CCCCCCCCCCCCCC[C@H](C)C(=O)[O-]
REMARK SMILES IDX 9 1 10 2 11 3 12 4 13 5 14 6 15 7 16 8 17 9 18 10 19 11 8 12
REMARK SMILES IDX 7 13 6 14 5 15 4 16 3 17 2 18 1 19
REMARK H PARENT
REMARK Flexibility Score: inf
ROOT
ATOM      1  C   UNL     1      22.716  68.383  17.753  1.00  0.00     0.000 C 
ENDROOT
BRANCH   1   2
ATOM      2  C   UNL     1      22.310  69.771  18.289  1.00  0.00     0.000 C 
BRANCH   2   3
ATOM      3  C   UNL     1      21.513  70.646  17.305  1.00  0.00     0.000 C 
BRANCH   3   4
ATOM      4  C   UNL     1      21.905  70.404  15.840  1.00  0.00     0.000 C 
BRANCH   4   5
ATOM      5  C   UNL     1      20.958  71.143  14.886  1.00  0.00     0.001 C 
BRANCH   5   6
ATOM      6  C   UNL     1      21.354  72.616  14.646  1.00  0.00     0.009 C 
BRANCH   6   7
ATOM      7  C   UNL     1      22.870  72.938  14.643  1.00  0.00     0.032 C 
ATOM      8  C   UNL     1      23.173  74.378  15.087  1.00  0.00     0.014 C 
BRANCH   7   9
ATOM      9  C   UNL     1      23.530  72.594  13.330  1.00  0.00     0.044 C 
ATOM     10  O   UNL     1      24.646  72.008  13.326  1.00  0.00    -0.550 OA
ATOM     11  O   UNL     1      22.937  72.931  12.117  1.00  0.00    -0.550 OA
ENDBRANCH   7   9
ENDBRANCH   6   7
ENDBRANCH   5   6
ENDBRANCH   4   5
ENDBRANCH   3   4
ENDBRANCH   2   3
ENDBRANCH   1   2
BRANCH   1  12
ATOM     12  C   UNL     1      22.162  67.186  18.546  1.00  0.00     0.000 C 
BRANCH  12  13
ATOM     13  C   UNL     1      20.887  67.528  19.330  1.00  0.00    -0.000 C 
BRANCH  13  14
ATOM     14  C   UNL     1      19.643  66.971  18.625  1.00  0.00    -0.000 C 
BRANCH  14  15
ATOM     15  C   UNL     1      18.826  68.055  17.899  1.00  0.00    -0.000 C 
BRANCH  15  16
ATOM     16  C   UNL     1      19.019  68.103  16.373  1.00  0.00    -0.000 C 
BRANCH  16  17
ATOM     17  C   UNL     1      19.626  66.809  15.804  1.00  0.00    -0.000 C 
BRANCH  17  18
ATOM     18  C   UNL     1      20.795  67.079  14.845  1.00  0.00    -0.003 C 
ATOM     19  C   UNL     1      21.898  66.026  14.948  1.00  0.00     0.004 C 
ENDBRANCH  17  18
ENDBRANCH  16  17
ENDBRANCH  15  16
ENDBRANCH  14  15
ENDBRANCH  13  14
ENDBRANCH  12  13
ENDBRANCH   1  12
TORSDOF 14
ENDMDL
MODEL 5
REMARK VINA RESULT:    -2.908      1.555      4.021
REMARK INTER + INTRA:          -7.739
REMARK INTER:                  -5.014
REMARK INTRA:                  -2.725
REMARK UNBOUND:                -2.451
REMARK SMILES CCCCCCCCCCCCCC[C@H](C)C(=O)[O-]
REMARK SMILES IDX 9 1 10 2 11 3 12 4 13 5 14 6 15 7 16 8 17 9 18 10 19 11 8 12
REMARK SMILES IDX 7 13 6 14 5 15 4 16 3 17 2 18 1 19
REMARK H PARENT
REMARK Flexibility Score: inf
ROOT
ATOM      1  C   UNL     1      22.110  65.990  14.780  1.00  0.00     0.000 C 
ENDROOT
BRANCH   1   2
ATOM      2  C   UNL     1      20.680  65.504  15.092  1.00  0.00     0.000 C 
BRANCH   2   3
ATOM      3  C   UNL     1      19.656  66.618  15.372  1.00  0.00     0.000 C 
BRANCH   3   4
ATOM      4  C   UNL     1      19.764  67.788  14.383  1.00  0.00     0.000 C 
BRANCH   4   5
ATOM      5  C   UNL     1      19.538  69.130  15.092  1.00  0.00     0.001 C 
BRANCH   5   6
ATOM      6  C   UNL     1      20.307  69.261  16.423  1.00  0.00     0.009 C 
BRANCH   6   7
ATOM      7  C   UNL     1      21.702  69.934  16.358  1.00  0.00     0.032 C 
ATOM      8  C   UNL     1      22.260  70.281  17.747  1.00  0.00     0.014 C 
BRANCH   7   9
ATOM      9  C   UNL     1      21.729  71.114  15.419  1.00  0.00     0.044 C 
ATOM     10  O   UNL     1      22.400  71.051  14.354  1.00  0.00    -0.550 OA
ATOM     11  O   UNL     1      21.042  72.287  15.717  1.00  0.00    -0.550 OA
ENDBRANCH   7   9
ENDBRANCH   6   7
ENDBRANCH   5   6
ENDBRANCH   4   5
ENDBRANCH   3   4
ENDBRANCH   2   3
ENDBRANCH   1   2
BRANCH   1  12
ATOM     12  C   UNL     1      23.235  65.015  15.172  1.00  0.00     0.000 C 
BRANCH  12  13
ATOM     13  C   UNL     1      23.892  65.370  16.514  1.00  0.00    -0.000 C 
BRANCH  13  14
ATOM     14  C   UNL     1      23.418  66.744  17.010  1.00  0.00    -0.000 C 
BRANCH  14  15
ATOM     15  C   UNL     1      22.760  66.687  18.401  1.00  0.00    -0.000 C 
BRANCH  15  16
ATOM     16  C   UNL     1      22.023  65.373  18.719  1.00  0.00    -0.000 C 
BRANCH  16  17
ATOM     17  C   UNL     1      20.498  65.550  18.820  1.00  0.00    -0.000 C 
BRANCH  17  18
ATOM     18  C   UNL     1      20.091  67.007  19.082  1.00  0.00    -0.003 C 
ATOM     19  C   UNL     1      18.577  67.213  19.037  1.00  0.00     0.004 C 
ENDBRANCH  17  18
ENDBRANCH  16  17
ENDBRANCH  15  16
ENDBRANCH  14  15
ENDBRANCH  13  14
ENDBRANCH  12  13
ENDBRANCH   1  12
TORSDOF 14
ENDMDL
MODEL 6
REMARK VINA RESULT:    -2.881      1.261      3.085
REMARK INTER + INTRA:          -7.690
REMARK INTER:                  -5.422
REMARK INTRA:                  -2.268
REMARK UNBOUND:                -2.451
REMARK SMILES CCCCCCCCCCCCCC[C@H](C)C(=O)[O-]
REMARK SMILES IDX 9 1 10 2 11 3 12 4 13 5 14 6 15 7 16 8 17 9 18 10 19 11 8 12
REMARK SMILES IDX 7 13 6 14 5 15 4 16 3 17 2 18 1 19
REMARK H PARENT
REMARK Flexibility Score: inf
ROOT
ATOM      1  C   UNL     1      22.709  69.571  18.068  1.00  0.00     0.000 C 
ENDROOT
BRANCH   1   2
ATOM      2  C   UNL     1      21.773  70.560  17.343  1.00  0.00     0.000 C 
BRANCH   2   3
ATOM      3  C   UNL     1      21.574  70.291  15.841  1.00  0.00     0.000 C 
BRANCH   3   4
ATOM      4  C   UNL     1      20.440  71.130  15.231  1.00  0.00     0.000 C 
BRANCH   4   5
ATOM      5  C   UNL     1      20.963  72.023  14.099  1.00  0.00     0.001 C 
BRANCH   5   6
ATOM      6  C   UNL     1      22.338  71.584  13.554  1.00  0.00     0.009 C 
BRANCH   6   7
ATOM      7  C   UNL     1      23.478  72.633  13.611  1.00  0.00     0.032 C 
ATOM      8  C   UNL     1      24.837  72.060  13.180  1.00  0.00     0.014 C 
BRANCH   7   9
ATOM      9  C   UNL     1      23.550  73.333  14.947  1.00  0.00     0.044 C 
ATOM     10  O   UNL     1      24.105  72.762  15.923  1.00  0.00    -0.550 OA
ATOM     11  O   UNL     1      22.993  74.595  15.128  1.00  0.00    -0.550 OA
ENDBRANCH   7   9
ENDBRANCH   6   7
ENDBRANCH   5   6
ENDBRANCH   4   5
ENDBRANCH   3   4
ENDBRANCH   2   3
ENDBRANCH   1   2
BRANCH   1  12
ATOM     12  C   UNL     1      22.001  68.437  18.831  1.00  0.00     0.000 C 
BRANCH  12  13
ATOM     13  C   UNL     1      22.466  67.041  18.391  1.00  0.00    -0.000 C 
BRANCH  13  14
ATOM     14  C   UNL     1      23.078  67.085  16.984  1.00  0.00    -0.000 C 
BRANCH  14  15
ATOM     15  C   UNL     1      22.120  66.567  15.895  1.00  0.00    -0.000 C 
BRANCH  15  16
ATOM     16  C   UNL     1      21.154  65.459  16.351  1.00  0.00    -0.000 C 
BRANCH  16  17
ATOM     17  C   UNL     1      19.675  65.859  16.216  1.00  0.00    -0.000 C 
BRANCH  17  18
ATOM     18  C   UNL     1      19.494  67.359  15.938  1.00  0.00    -0.003 C 
ATOM     19  C   UNL     1      18.823  68.095  17.097  1.00  0.00     0.004 C 
ENDBRANCH  17  18
ENDBRANCH  16  17
ENDBRANCH  15  16
ENDBRANCH  14  15
ENDBRANCH  13  14
ENDBRANCH  12  13
ENDBRANCH   1  12
TORSDOF 14
ENDMDL
MODEL 7
REMARK VINA RESULT:    -2.880      2.605      5.577
REMARK INTER + INTRA:          -7.689
REMARK INTER:                  -5.401
REMARK INTRA:                  -2.288
REMARK UNBOUND:                -2.451
REMARK SMILES CCCCCCCCCCCCCC[C@H](C)C(=O)[O-]
REMARK SMILES IDX 9 1 10 2 11 3 12 4 13 5 14 6 15 7 16 8 17 9 18 10 19 11 8 12
REMARK SMILES IDX 7 13 6 14 5 15 4 16 3 17 2 18 1 19
REMARK H PARENT
REMARK Flexibility Score: inf
ROOT
ATOM      1  C   UNL     1      20.373  67.548  15.278  1.00  0.00     0.000 C 
ENDROOT
BRANCH   1   2
ATOM      2  C   UNL     1      19.352  66.497  15.762  1.00  0.00     0.000 C 
BRANCH   2   3
ATOM      3  C   UNL     1      19.632  65.904  17.155  1.00  0.00     0.000 C 
BRANCH   3   4
ATOM      4  C   UNL     1      19.013  66.735  18.289  1.00  0.00     0.000 C 
BRANCH   4   5
ATOM      5  C   UNL     1      19.982  67.823  18.768  1.00  0.00     0.001 C 
BRANCH   5   6
ATOM      6  C   UNL     1      21.290  67.262  19.365  1.00  0.00     0.009 C 
BRANCH   6   7
ATOM      7  C   UNL     1      22.609  67.669  18.659  1.00  0.00     0.032 C 
ATOM      8  C   UNL     1      22.488  68.994  17.891  1.00  0.00     0.014 C 
BRANCH   7   9
ATOM      9  C   UNL     1      23.169  66.560  17.801  1.00  0.00     0.044 C 
ATOM     10  O   UNL     1      23.773  66.841  16.732  1.00  0.00    -0.550 OA
ATOM     11  O   UNL     1      23.011  65.225  18.159  1.00  0.00    -0.550 OA
ENDBRANCH   7   9
ENDBRANCH   6   7
ENDBRANCH   5   6
ENDBRANCH   4   5
ENDBRANCH   3   4
ENDBRANCH   2   3
ENDBRANCH   1   2
BRANCH   1  12
ATOM     12  C   UNL     1      19.773  68.906  14.872  1.00  0.00     0.000 C 
BRANCH  12  13
ATOM     13  C   UNL     1      18.474  69.233  15.623  1.00  0.00    -0.000 C 
BRANCH  13  14
ATOM     14  C   UNL     1      18.648  70.481  16.499  1.00  0.00    -0.000 C 
BRANCH  14  15
ATOM     15  C   UNL     1      20.019  71.158  16.318  1.00  0.00    -0.000 C 
BRANCH  15  16
ATOM     16  C   UNL     1      19.967  72.601  15.785  1.00  0.00    -0.000 C 
BRANCH  16  17
ATOM     17  C   UNL     1      21.261  73.024  15.069  1.00  0.00    -0.000 C 
BRANCH  17  18
ATOM     18  C   UNL     1      22.456  72.131  15.438  1.00  0.00    -0.003 C 
ATOM     19  C   UNL     1      23.799  72.778  15.102  1.00  0.00     0.004 C 
ENDBRANCH  17  18
ENDBRANCH  16  17
ENDBRANCH  15  16
ENDBRANCH  14  15
ENDBRANCH  13  14
ENDBRANCH  12  13
ENDBRANCH   1  12
TORSDOF 14
ENDMDL
MODEL 8
REMARK VINA RESULT:    -2.854      1.517      2.278
REMARK INTER + INTRA:          -7.641
REMARK INTER:                  -5.161
REMARK INTRA:                  -2.480
REMARK UNBOUND:                -2.451
REMARK SMILES CCCCCCCCCCCCCC[C@H](C)C(=O)[O-]
REMARK SMILES IDX 9 1 10 2 11 3 12 4 13 5 14 6 15 7 16 8 17 9 18 10 19 11 8 12
REMARK SMILES IDX 7 13 6 14 5 15 4 16 3 17 2 18 1 19
REMARK H PARENT
REMARK Flexibility Score: inf
ROOT
ATOM      1  C   UNL     1      21.611  67.831  19.379  1.00  0.00     0.000 C 
ENDROOT
BRANCH   1   2
ATOM      2  C   UNL     1      22.552  68.448  18.325  1.00  0.00     0.000 C 
BRANCH   2   3
ATOM      3  C   UNL     1      22.352  69.953  18.069  1.00  0.00     0.000 C 
BRANCH   3   4
ATOM      4  C   UNL     1      20.981  70.276  17.456  1.00  0.00     0.000 C 
BRANCH   4   5
ATOM      5  C   UNL     1      21.121  71.242  16.273  1.00  0.00     0.001 C 
BRANCH   5   6
ATOM      6  C   UNL     1      22.146  70.777  15.217  1.00  0.00     0.009 C 
BRANCH   6   7
ATOM      7  C   UNL     1      22.114  71.503  13.848  1.00  0.00     0.032 C 
ATOM      8  C   UNL     1      21.413  70.682  12.755  1.00  0.00     0.014 C 
BRANCH   7   9
ATOM      9  C   UNL     1      23.479  71.981  13.417  1.00  0.00     0.044 C 
ATOM     10  O   UNL     1      24.256  72.499  14.263  1.00  0.00    -0.550 OA
ATOM     11  O   UNL     1      23.891  71.880  12.092  1.00  0.00    -0.550 OA
ENDBRANCH   7   9
ENDBRANCH   6   7
ENDBRANCH   5   6
ENDBRANCH   4   5
ENDBRANCH   3   4
ENDBRANCH   2   3
ENDBRANCH   1   2
BRANCH   1  12
ATOM     12  C   UNL     1      20.831  66.587  18.914  1.00  0.00     0.000 C 
BRANCH  12  13
ATOM     13  C   UNL     1      19.532  66.940  18.175  1.00  0.00    -0.000 C 
BRANCH  13  14
ATOM     14  C   UNL     1      19.499  66.291  16.784  1.00  0.00    -0.000 C 
BRANCH  14  15
ATOM     15  C   UNL     1      19.818  67.283  15.650  1.00  0.00    -0.000 C 
BRANCH  15  16
ATOM     16  C   UNL     1      21.255  67.206  15.103  1.00  0.00    -0.000 C 
BRANCH  16  17
ATOM     17  C   UNL     1      21.926  65.848  15.368  1.00  0.00    -0.000 C 
BRANCH  17  18
ATOM     18  C   UNL     1      23.392  65.991  15.803  1.00  0.00    -0.003 C 
ATOM     19  C   UNL     1      23.728  65.143  17.030  1.00  0.00     0.004 C 
ENDBRANCH  17  18
ENDBRANCH  16  17
ENDBRANCH  15  16
ENDBRANCH  14  15
ENDBRANCH  13  14
ENDBRANCH  12  13
ENDBRANCH   1  12
TORSDOF 14
ENDMDL
MODEL 9
REMARK VINA RESULT:    -2.838      1.279      3.026
REMARK INTER + INTRA:          -7.612
REMARK INTER:                  -5.017
REMARK INTRA:                  -2.595
REMARK UNBOUND:                -2.451
REMARK SMILES CCCCCCCCCCCCCC[C@H](C)C(=O)[O-]
REMARK SMILES IDX 9 1 10 2 11 3 12 4 13 5 14 6 15 7 16 8 17 9 18 10 19 11 8 12
REMARK SMILES IDX 7 13 6 14 5 15 4 16 3 17 2 18 1 19
REMARK H PARENT
REMARK Flexibility Score: inf
ROOT
ATOM      1  C   UNL     1      20.215  67.018  15.215  1.00  0.00     0.000 C 
ENDROOT
BRANCH   1   2
ATOM      2  C   UNL     1      19.411  68.308  14.949  1.00  0.00     0.000 C 
BRANCH   2   3
ATOM      3  C   UNL     1      18.638  68.860  16.160  1.00  0.00     0.000 C 
BRANCH   3   4
ATOM      4  C   UNL     1      19.239  70.165  16.704  1.00  0.00     0.000 C 
BRANCH   4   5
ATOM      5  C   UNL     1      19.323  71.233  15.607  1.00  0.00     0.001 C 
BRANCH   5   6
ATOM      6  C   UNL     1      20.465  72.248  15.822  1.00  0.00     0.009 C 
BRANCH   6   7
ATOM      7  C   UNL     1      21.602  72.252  14.768  1.00  0.00     0.032 C 
ATOM      8  C   UNL     1      22.081  70.839  14.404  1.00  0.00     0.014 C 
BRANCH   7   9
ATOM      9  C   UNL     1      22.743  73.162  15.154  1.00  0.00     0.044 C 
ATOM     10  O   UNL     1      22.645  74.403  14.963  1.00  0.00    -0.550 OA
ATOM     11  O   UNL     1      23.916  72.651  15.701  1.00  0.00    -0.550 OA
ENDBRANCH   7   9
ENDBRANCH   6   7
ENDBRANCH   5   6
ENDBRANCH   4   5
ENDBRANCH   3   4
ENDBRANCH   2   3
ENDBRANCH   1   2
BRANCH   1  12
ATOM     12  C   UNL     1      19.563  66.031  16.199  1.00  0.00     0.000 C 
BRANCH  12  13
ATOM     13  C   UNL     1      20.564  65.025  16.787  1.00  0.00    -0.000 C 
BRANCH  13  14
ATOM     14  C   UNL     1      20.916  65.386  18.237  1.00  0.00    -0.000 C 
BRANCH  14  15
ATOM     15  C   UNL     1      19.975  66.445  18.839  1.00  0.00    -0.000 C 
BRANCH  15  16
ATOM     16  C   UNL     1      20.639  67.794  19.168  1.00  0.00    -0.000 C 
BRANCH  16  17
ATOM     17  C   UNL     1      22.130  67.837  18.793  1.00  0.00    -0.000 C 
BRANCH  17  18
ATOM     18  C   UNL     1      22.419  68.811  17.641  1.00  0.00    -0.003 C 
ATOM     19  C   UNL     1      22.736  70.224  18.131  1.00  0.00     0.004 C 
ENDBRANCH  17  18
ENDBRANCH  16  17
ENDBRANCH  15  16
ENDBRANCH  14  15
ENDBRANCH  13  14
ENDBRANCH  12  13
ENDBRANCH   1  12
TORSDOF 14
ENDMDL
