MODEL 1
REMARK VINA RESULT:    -4.913      0.000      0.000
REMARK INTER + INTRA:          -7.252
REMARK INTER:                  -6.636
REMARK INTRA:                  -0.617
REMARK UNBOUND:                -0.617
REMARK SMILES COc1ccc(-c2cc(=O)c3c(OC)c(OC)c(OC)c(OC)c3o2)cc1
REMARK SMILES IDX 7 1 8 2 9 3 10 4 11 5 24 6 25 7 21 8 18 9 15 10 12 11 6 12
REMARK SMILES IDX 3 13 4 14 27 15 5 16 26 17 2 18 1 19 22 20 23 21 13 22 14 23
REMARK SMILES IDX 19 24 20 25 16 26 17 27
REMARK H PARENT
REMARK Flexibility Score: inf
ROOT
ATOM      1  C   UNL     1      14.270  57.873  16.490  1.00  0.00     0.138 A 
ATOM      2  C   UNL     1      12.978  57.539  16.921  1.00  0.00     0.100 A 
ATOM      3  C   UNL     1      12.808  56.911  18.155  1.00  0.00     0.197 A 
ATOM      4  O   UNL     1      11.640  56.619  18.531  1.00  0.00    -0.289 OA
ATOM      5  C   UNL     1      13.936  56.613  18.949  1.00  0.00     0.115 A 
ATOM      6  C   UNL     1      15.206  56.958  18.436  1.00  0.00     0.188 A 
ATOM      7  O   UNL     1      15.314  57.561  17.254  1.00  0.00    -0.452 OA
ATOM      8  C   UNL     1      16.363  56.692  19.182  1.00  0.00     0.209 A 
ATOM      9  C   UNL     1      16.279  56.093  20.445  1.00  0.00     0.211 A 
ATOM     10  C   UNL     1      15.013  55.710  20.952  1.00  0.00     0.208 A 
ATOM     11  C   UNL     1      13.840  56.020  20.228  1.00  0.00     0.179 A 
ENDROOT
BRANCH   1  12
ATOM     12  C   UNL     1      14.505  58.558  15.194  1.00  0.00     0.018 A 
ATOM     13  C   UNL     1      14.913  59.907  12.745  1.00  0.00     0.118 A 
ATOM     14  C   UNL     1      14.981  58.503  12.804  1.00  0.00     0.047 A 
ATOM     15  C   UNL     1      14.633  60.625  13.912  1.00  0.00     0.047 A 
ATOM     16  C   UNL     1      14.775  57.836  14.015  1.00  0.00     0.016 A 
ATOM     17  C   UNL     1      14.425  59.959  15.123  1.00  0.00     0.016 A 
BRANCH  13  18
ATOM     18  O   UNL     1      15.114  60.621  11.555  1.00  0.00    -0.497 OA
ATOM     19  C   UNL     1      14.978  62.033  11.431  1.00  0.00     0.278 C 
ENDBRANCH  13  18
ENDBRANCH   1  12
BRANCH   8  20
ATOM     20  O   UNL     1      17.624  57.038  18.685  1.00  0.00    -0.490 OA
ATOM     21  C   UNL     1      18.355  56.177  17.821  1.00  0.00     0.278 C 
ENDBRANCH   8  20
BRANCH  11  22
ATOM     22  O   UNL     1      12.580  55.756  20.778  1.00  0.00    -0.492 OA
ATOM     23  C   UNL     1      12.078  56.472  21.902  1.00  0.00     0.278 C 
ENDBRANCH  11  22
BRANCH   9  24
ATOM     24  O   UNL     1      17.492  55.888  21.130  1.00  0.00    -0.490 OA
ATOM     25  C   UNL     1      18.233  54.674  21.199  1.00  0.00     0.279 C 
ENDBRANCH   9  24
BRANCH  10  26
ATOM     26  O   UNL     1      14.927  55.013  22.162  1.00  0.00    -0.490 OA
ATOM     27  C   UNL     1      14.830  53.592  22.223  1.00  0.00     0.278 C 
ENDBRANCH  10  26
TORSDOF 6
ENDMDL
MODEL 2
REMARK VINA RESULT:    -4.602      1.043      3.459
REMARK INTER + INTRA:          -6.833
REMARK INTER:                  -6.319
REMARK INTRA:                  -0.514
REMARK UNBOUND:                -0.617
REMARK SMILES COc1ccc(-c2cc(=O)c3c(OC)c(OC)c(OC)c(OC)c3o2)cc1
REMARK SMILES IDX 7 1 8 2 9 3 10 4 11 5 24 6 25 7 21 8 18 9 15 10 12 11 6 12
REMARK SMILES IDX 3 13 4 14 27 15 5 16 26 17 2 18 1 19 22 20 23 21 13 22 14 23
REMARK SMILES IDX 19 24 20 25 16 26 17 27
REMARK H PARENT
REMARK Flexibility Score: inf
ROOT
ATOM      1  C   UNL     1      15.692  58.283  16.379  1.00  0.00     0.138 A 
ATOM      2  C   UNL     1      16.978  57.825  16.699  1.00  0.00     0.100 A 
ATOM      3  C   UNL     1      17.156  57.014  17.820  1.00  0.00     0.197 A 
ATOM      4  O   UNL     1      18.318  56.607  18.095  1.00  0.00    -0.289 OA
ATOM      5  C   UNL     1      16.045  56.672  18.620  1.00  0.00     0.115 A 
ATOM      6  C   UNL     1      14.786  57.193  18.247  1.00  0.00     0.188 A 
ATOM      7  O   UNL     1      14.668  57.958  17.165  1.00  0.00    -0.452 OA
ATOM      8  C   UNL     1      13.645  56.883  19.000  1.00  0.00     0.209 A 
ATOM      9  C   UNL     1      13.732  56.049  20.122  1.00  0.00     0.211 A 
ATOM     10  C   UNL     1      14.995  55.552  20.526  1.00  0.00     0.208 A 
ATOM     11  C   UNL     1      16.141  55.820  19.743  1.00  0.00     0.179 A 
ENDROOT
BRANCH   1  12
ATOM     12  C   UNL     1      15.443  59.134  15.187  1.00  0.00     0.018 A 
ATOM     13  C   UNL     1      14.942  60.794  12.956  1.00  0.00     0.118 A 
ATOM     14  C   UNL     1      14.971  59.394  12.810  1.00  0.00     0.047 A 
ATOM     15  C   UNL     1      15.155  61.350  14.221  1.00  0.00     0.047 A 
ATOM     16  C   UNL     1      15.216  58.574  13.915  1.00  0.00     0.016 A 
ATOM     17  C   UNL     1      15.398  60.531  15.327  1.00  0.00     0.016 A 
BRANCH  13  18
ATOM     18  O   UNL     1      14.702  61.658  11.879  1.00  0.00    -0.497 OA
ATOM     19  C   UNL     1      15.306  61.531  10.596  1.00  0.00     0.278 C 
ENDBRANCH  13  18
ENDBRANCH   1  12
BRANCH   8  20
ATOM     20  O   UNL     1      12.394  57.387  18.633  1.00  0.00    -0.490 OA
ATOM     21  C   UNL     1      11.546  56.706  17.716  1.00  0.00     0.278 C 
ENDBRANCH   8  20
BRANCH  11  22
ATOM     22  O   UNL     1      17.369  55.231  20.066  1.00  0.00    -0.492 OA
ATOM     23  C   UNL     1      17.681  53.885  19.721  1.00  0.00     0.278 C 
ENDBRANCH  11  22
BRANCH   9  24
ATOM     24  O   UNL     1      12.529  55.775  20.801  1.00  0.00    -0.490 OA
ATOM     25  C   UNL     1      12.076  56.383  22.006  1.00  0.00     0.279 C 
ENDBRANCH   9  24
BRANCH  10  26
ATOM     26  O   UNL     1      15.109  54.810  21.706  1.00  0.00    -0.490 OA
ATOM     27  C   UNL     1      14.743  53.435  21.784  1.00  0.00     0.278 C 
ENDBRANCH  10  26
TORSDOF 6
ENDMDL
MODEL 3
REMARK VINA RESULT:    -4.306      2.100      3.085
REMARK INTER + INTRA:          -6.434
REMARK INTER:                  -5.878
REMARK INTRA:                  -0.555
REMARK UNBOUND:                -0.617
REMARK SMILES COc1ccc(-c2cc(=O)c3c(OC)c(OC)c(OC)c(OC)c3o2)cc1
REMARK SMILES IDX 7 1 8 2 9 3 10 4 11 5 24 6 25 7 21 8 18 9 15 10 12 11 6 12
REMARK SMILES IDX 3 13 4 14 27 15 5 16 26 17 2 18 1 19 22 20 23 21 13 22 14 23
REMARK SMILES IDX 19 24 20 25 16 26 17 27
REMARK H PARENT
REMARK Flexibility Score: inf
ROOT
ATOM      1  C   UNL     1      14.026  57.605  18.419  1.00  0.00     0.138 A 
ATOM      2  C   UNL     1      13.303  58.634  19.040  1.00  0.00     0.100 A 
ATOM      3  C   UNL     1      12.951  58.509  20.383  1.00  0.00     0.197 A 
ATOM      4  O   UNL     1      12.302  59.442  20.930  1.00  0.00    -0.289 OA
ATOM      5  C   UNL     1      13.319  57.349  21.098  1.00  0.00     0.115 A 
ATOM      6  C   UNL     1      14.025  56.346  20.397  1.00  0.00     0.188 A 
ATOM      7  O   UNL     1      14.342  56.516  19.116  1.00  0.00    -0.452 OA
ATOM      8  C   UNL     1      14.423  55.174  21.056  1.00  0.00     0.209 A 
ATOM      9  C   UNL     1      14.137  54.983  22.413  1.00  0.00     0.211 A 
ATOM     10  C   UNL     1      13.397  55.966  23.116  1.00  0.00     0.208 A 
ATOM     11  C   UNL     1      13.037  57.171  22.471  1.00  0.00     0.179 A 
ENDROOT
BRANCH   1  12
ATOM     12  C   UNL     1      14.442  57.695  16.996  1.00  0.00     0.018 A 
ATOM     13  C   UNL     1      15.277  57.908  14.305  1.00  0.00     0.118 A 
ATOM     14  C   UNL     1      13.926  57.664  14.614  1.00  0.00     0.047 A 
ATOM     15  C   UNL     1      16.198  58.051  15.347  1.00  0.00     0.047 A 
ATOM     16  C   UNL     1      13.513  57.563  15.945  1.00  0.00     0.016 A 
ATOM     17  C   UNL     1      15.786  57.952  16.679  1.00  0.00     0.016 A 
BRANCH  13  18
ATOM     18  O   UNL     1      15.740  58.015  12.986  1.00  0.00    -0.497 OA
ATOM     19  C   UNL     1      15.011  58.621  11.924  1.00  0.00     0.278 C 
ENDBRANCH  13  18
ENDBRANCH   1  12
BRANCH   8  20
ATOM     20  O   UNL     1      15.129  54.180  20.372  1.00  0.00    -0.490 OA
ATOM     21  C   UNL     1      16.544  54.222  20.230  1.00  0.00     0.278 C 
ENDBRANCH   8  20
BRANCH  11  22
ATOM     22  O   UNL     1      12.416  58.198  23.191  1.00  0.00    -0.492 OA
ATOM     23  C   UNL     1      13.125  59.012  24.120  1.00  0.00     0.278 C 
ENDBRANCH  11  22
BRANCH   9  24
ATOM     24  O   UNL     1      14.598  53.786  22.994  1.00  0.00    -0.490 OA
ATOM     25  C   UNL     1      15.762  53.624  23.797  1.00  0.00     0.279 C 
ENDBRANCH   9  24
BRANCH  10  26
ATOM     26  O   UNL     1      13.013  55.737  24.441  1.00  0.00    -0.490 OA
ATOM     27  C   UNL     1      11.681  55.381  24.801  1.00  0.00     0.278 C 
ENDBRANCH  10  26
TORSDOF 6
ENDMDL
MODEL 4
REMARK VINA RESULT:    -4.136      1.406      3.674
REMARK INTER + INTRA:          -6.203
REMARK INTER:                  -5.649
REMARK INTRA:                  -0.554
REMARK UNBOUND:                -0.617
REMARK SMILES COc1ccc(-c2cc(=O)c3c(OC)c(OC)c(OC)c(OC)c3o2)cc1
REMARK SMILES IDX 7 1 8 2 9 3 10 4 11 5 24 6 25 7 21 8 18 9 15 10 12 11 6 12
REMARK SMILES IDX 3 13 4 14 27 15 5 16 26 17 2 18 1 19 22 20 23 21 13 22 14 23
REMARK SMILES IDX 19 24 20 25 16 26 17 27
REMARK H PARENT
REMARK Flexibility Score: inf
ROOT
ATOM      1  C   UNL     1      16.189  58.027  16.724  1.00  0.00     0.138 A 
ATOM      2  C   UNL     1      17.504  57.556  16.845  1.00  0.00     0.100 A 
ATOM      3  C   UNL     1      17.822  56.667  17.872  1.00  0.00     0.197 A 
ATOM      4  O   UNL     1      19.008  56.250  17.967  1.00  0.00    -0.289 OA
ATOM      5  C   UNL     1      16.821  56.260  18.779  1.00  0.00     0.115 A 
ATOM      6  C   UNL     1      15.526  56.797  18.607  1.00  0.00     0.188 A 
ATOM      7  O   UNL     1      15.273  57.638  17.608  1.00  0.00    -0.452 OA
ATOM      8  C   UNL     1      14.489  56.426  19.475  1.00  0.00     0.209 A 
ATOM      9  C   UNL     1      14.715  55.513  20.513  1.00  0.00     0.211 A 
ATOM     10  C   UNL     1      16.018  54.998  20.716  1.00  0.00     0.208 A 
ATOM     11  C   UNL     1      17.056  55.330  19.816  1.00  0.00     0.179 A 
ENDROOT
BRANCH   1  12
ATOM     12  C   UNL     1      15.793  58.960  15.639  1.00  0.00     0.018 A 
ATOM     13  C   UNL     1      15.064  60.696  13.532  1.00  0.00     0.118 A 
ATOM     14  C   UNL     1      15.407  61.213  14.795  1.00  0.00     0.047 A 
ATOM     15  C   UNL     1      15.098  59.312  13.332  1.00  0.00     0.047 A 
ATOM     16  C   UNL     1      15.771  60.355  15.835  1.00  0.00     0.016 A 
ATOM     17  C   UNL     1      15.463  58.452  14.371  1.00  0.00     0.016 A 
BRANCH  13  18
ATOM     18  O   UNL     1      14.690  61.516  12.458  1.00  0.00    -0.497 OA
ATOM     19  C   UNL     1      15.129  61.334  11.116  1.00  0.00     0.278 C 
ENDBRANCH  13  18
ENDBRANCH   1  12
BRANCH   8  20
ATOM     20  O   UNL     1      13.202  56.946  19.307  1.00  0.00    -0.490 OA
ATOM     21  C   UNL     1      12.828  58.215  19.830  1.00  0.00     0.278 C 
ENDBRANCH   8  20
BRANCH  11  22
ATOM     22  O   UNL     1      18.315  54.728  19.937  1.00  0.00    -0.492 OA
ATOM     23  C   UNL     1      18.570  53.403  19.481  1.00  0.00     0.278 C 
ENDBRANCH  11  22
BRANCH   9  24
ATOM     24  O   UNL     1      13.607  55.182  21.317  1.00  0.00    -0.490 OA
ATOM     25  C   UNL     1      13.290  55.728  22.592  1.00  0.00     0.279 C 
ENDBRANCH   9  24
BRANCH  10  26
ATOM     26  O   UNL     1      16.280  54.172  21.814  1.00  0.00    -0.490 OA
ATOM     27  C   UNL     1      15.886  52.803  21.855  1.00  0.00     0.278 C 
ENDBRANCH  10  26
TORSDOF 6
ENDMDL
MODEL 5
REMARK VINA RESULT:    -4.099      2.937      4.784
REMARK INTER + INTRA:          -6.154
REMARK INTER:                  -5.602
REMARK INTRA:                  -0.552
REMARK UNBOUND:                -0.617
REMARK SMILES COc1ccc(-c2cc(=O)c3c(OC)c(OC)c(OC)c(OC)c3o2)cc1
REMARK SMILES IDX 7 1 8 2 9 3 10 4 11 5 24 6 25 7 21 8 18 9 15 10 12 11 6 12
REMARK SMILES IDX 3 13 4 14 27 15 5 16 26 17 2 18 1 19 22 20 23 21 13 22 14 23
REMARK SMILES IDX 19 24 20 25 16 26 17 27
REMARK H PARENT
REMARK Flexibility Score: inf
ROOT
ATOM      1  C   UNL     1      14.338  57.946  18.033  1.00  0.00     0.138 A 
ATOM      2  C   UNL     1      15.598  58.165  17.457  1.00  0.00     0.100 A 
ATOM      3  C   UNL     1      16.667  57.344  17.816  1.00  0.00     0.197 A 
ATOM      4  O   UNL     1      17.794  57.551  17.290  1.00  0.00    -0.289 OA
ATOM      5  C   UNL     1      16.470  56.311  18.757  1.00  0.00     0.115 A 
ATOM      6  C   UNL     1      15.178  56.168  19.311  1.00  0.00     0.188 A 
ATOM      7  O   UNL     1      14.190  56.975  18.931  1.00  0.00    -0.452 OA
ATOM      8  C   UNL     1      14.921  55.156  20.246  1.00  0.00     0.209 A 
ATOM      9  C   UNL     1      15.931  54.268  20.637  1.00  0.00     0.211 A 
ATOM     10  C   UNL     1      17.238  54.426  20.116  1.00  0.00     0.208 A 
ATOM     11  C   UNL     1      17.492  55.412  19.136  1.00  0.00     0.179 A 
ENDROOT
BRANCH   1  12
ATOM     12  C   UNL     1      13.163  58.779  17.672  1.00  0.00     0.018 A 
ATOM     13  C   UNL     1      10.906  60.318  16.948  1.00  0.00     0.118 A 
ATOM     14  C   UNL     1      12.122  60.947  17.276  1.00  0.00     0.047 A 
ATOM     15  C   UNL     1      10.833  58.922  16.978  1.00  0.00     0.047 A 
ATOM     16  C   UNL     1      13.238  60.185  17.630  1.00  0.00     0.016 A 
ATOM     17  C   UNL     1      11.949  58.158  17.331  1.00  0.00     0.016 A 
BRANCH  13  18
ATOM     18  O   UNL     1       9.759  61.039  16.589  1.00  0.00    -0.497 OA
ATOM     19  C   UNL     1       8.695  61.355  17.481  1.00  0.00     0.278 C 
ENDBRANCH  13  18
ENDBRANCH   1  12
BRANCH   8  20
ATOM     20  O   UNL     1      13.643  55.003  20.793  1.00  0.00    -0.490 OA
ATOM     21  C   UNL     1      13.197  55.781  21.897  1.00  0.00     0.278 C 
ENDBRANCH   8  20
BRANCH  11  22
ATOM     22  O   UNL     1      18.750  55.493  18.526  1.00  0.00    -0.492 OA
ATOM     23  C   UNL     1      19.125  54.647  17.444  1.00  0.00     0.278 C 
ENDBRANCH  11  22
BRANCH   9  24
ATOM     24  O   UNL     1      15.571  53.270  21.563  1.00  0.00    -0.490 OA
ATOM     25  C   UNL     1      15.828  53.277  22.963  1.00  0.00     0.279 C 
ENDBRANCH   9  24
BRANCH  10  26
ATOM     26  O   UNL     1      18.278  53.615  20.581  1.00  0.00    -0.490 OA
ATOM     27  C   UNL     1      18.443  52.264  20.160  1.00  0.00     0.278 C 
ENDBRANCH  10  26
TORSDOF 6
ENDMDL
MODEL 6
REMARK VINA RESULT:    -4.017      2.548      7.329
REMARK INTER + INTRA:          -6.043
REMARK INTER:                  -5.525
REMARK INTRA:                  -0.518
REMARK UNBOUND:                -0.617
REMARK SMILES COc1ccc(-c2cc(=O)c3c(OC)c(OC)c(OC)c(OC)c3o2)cc1
REMARK SMILES IDX 7 1 8 2 9 3 10 4 11 5 24 6 25 7 21 8 18 9 15 10 12 11 6 12
REMARK SMILES IDX 3 13 4 14 27 15 5 16 26 17 2 18 1 19 22 20 23 21 13 22 14 23
REMARK SMILES IDX 19 24 20 25 16 26 17 27
REMARK H PARENT
REMARK Flexibility Score: inf
ROOT
ATOM      1  C   UNL     1      15.135  56.547  19.377  1.00  0.00     0.138 A 
ATOM      2  C   UNL     1      14.112  57.171  20.105  1.00  0.00     0.100 A 
ATOM      3  C   UNL     1      13.540  58.345  19.615  1.00  0.00     0.197 A 
ATOM      4  O   UNL     1      12.619  58.895  20.278  1.00  0.00    -0.289 OA
ATOM      5  C   UNL     1      14.002  58.892  18.399  1.00  0.00     0.115 A 
ATOM      6  C   UNL     1      15.052  58.220  17.736  1.00  0.00     0.188 A 
ATOM      7  O   UNL     1      15.560  57.099  18.243  1.00  0.00    -0.452 OA
ATOM      8  C   UNL     1      15.548  58.713  16.521  1.00  0.00     0.209 A 
ATOM      9  C   UNL     1      15.008  59.868  15.942  1.00  0.00     0.211 A 
ATOM     10  C   UNL     1      13.980  60.571  16.617  1.00  0.00     0.208 A 
ATOM     11  C   UNL     1      13.441  60.052  17.817  1.00  0.00     0.179 A 
ENDROOT
BRANCH   1  12
ATOM     12  C   UNL     1      15.766  55.287  19.845  1.00  0.00     0.018 A 
ATOM     13  C   UNL     1      17.003  52.889  20.684  1.00  0.00     0.118 A 
ATOM     14  C   UNL     1      15.653  53.141  20.994  1.00  0.00     0.047 A 
ATOM     15  C   UNL     1      17.720  53.837  19.949  1.00  0.00     0.047 A 
ATOM     16  C   UNL     1      15.041  54.325  20.576  1.00  0.00     0.016 A 
ATOM     17  C   UNL     1      17.109  55.022  19.528  1.00  0.00     0.016 A 
BRANCH  13  18
ATOM     18  O   UNL     1      17.661  51.717  21.083  1.00  0.00    -0.497 OA
ATOM     19  C   UNL     1      18.880  51.247  20.519  1.00  0.00     0.278 C 
ENDBRANCH  13  18
ENDBRANCH   1  12
BRANCH   8  20
ATOM     20  O   UNL     1      16.582  58.049  15.854  1.00  0.00    -0.490 OA
ATOM     21  C   UNL     1      17.951  58.277  16.168  1.00  0.00     0.278 C 
ENDBRANCH   8  20
BRANCH  11  22
ATOM     22  O   UNL     1      12.343  60.672  18.424  1.00  0.00    -0.492 OA
ATOM     23  C   UNL     1      12.460  61.904  19.129  1.00  0.00     0.278 C 
ENDBRANCH  11  22
BRANCH   9  24
ATOM     24  O   UNL     1      15.554  60.274  14.710  1.00  0.00    -0.490 OA
ATOM     25  C   UNL     1      15.052  59.963  13.414  1.00  0.00     0.279 C 
ENDBRANCH   9  24
BRANCH  10  26
ATOM     26  O   UNL     1      13.509  61.784  16.104  1.00  0.00    -0.490 OA
ATOM     27  C   UNL     1      12.390  61.860  15.225  1.00  0.00     0.278 C 
ENDBRANCH  10  26
TORSDOF 6
ENDMDL
MODEL 7
REMARK VINA RESULT:    -3.897      3.749      8.421
REMARK INTER + INTRA:          -5.881
REMARK INTER:                  -5.294
REMARK INTRA:                  -0.587
REMARK UNBOUND:                -0.617
REMARK SMILES COc1ccc(-c2cc(=O)c3c(OC)c(OC)c(OC)c(OC)c3o2)cc1
REMARK SMILES IDX 7 1 8 2 9 3 10 4 11 5 24 6 25 7 21 8 18 9 15 10 12 11 6 12
REMARK SMILES IDX 3 13 4 14 27 15 5 16 26 17 2 18 1 19 22 20 23 21 13 22 14 23
REMARK SMILES IDX 19 24 20 25 16 26 17 27
REMARK H PARENT
REMARK Flexibility Score: inf
ROOT
ATOM      1  C   UNL     1      11.917  55.967  23.681  1.00  0.00     0.138 A 
ATOM      2  C   UNL     1      12.762  55.335  24.604  1.00  0.00     0.100 A 
ATOM      3  C   UNL     1      14.050  54.967  24.215  1.00  0.00     0.197 A 
ATOM      4  O   UNL     1      14.800  54.400  25.056  1.00  0.00    -0.289 OA
ATOM      5  C   UNL     1      14.482  55.228  22.897  1.00  0.00     0.115 A 
ATOM      6  C   UNL     1      13.566  55.846  22.018  1.00  0.00     0.188 A 
ATOM      7  O   UNL     1      12.350  56.183  22.441  1.00  0.00    -0.452 OA
ATOM      8  C   UNL     1      13.941  56.136  20.699  1.00  0.00     0.209 A 
ATOM      9  C   UNL     1      15.227  55.828  20.236  1.00  0.00     0.211 A 
ATOM     10  C   UNL     1      16.141  55.174  21.098  1.00  0.00     0.208 A 
ATOM     11  C   UNL     1      15.786  54.925  22.443  1.00  0.00     0.179 A 
ENDROOT
BRANCH   1  12
ATOM     12  C   UNL     1      10.544  56.396  24.049  1.00  0.00     0.018 A 
ATOM     13  C   UNL     1       7.955  57.264  24.775  1.00  0.00     0.118 A 
ATOM     14  C   UNL     1       8.262  55.891  24.741  1.00  0.00     0.047 A 
ATOM     15  C   UNL     1       8.950  58.192  24.454  1.00  0.00     0.047 A 
ATOM     16  C   UNL     1       9.544  55.463  24.385  1.00  0.00     0.016 A 
ATOM     17  C   UNL     1      10.233  57.765  24.100  1.00  0.00     0.016 A 
BRANCH  13  18
ATOM     18  O   UNL     1       6.684  57.743  25.124  1.00  0.00    -0.497 OA
ATOM     19  C   UNL     1       5.573  57.795  24.236  1.00  0.00     0.278 C 
ENDBRANCH  13  18
ENDBRANCH   1  12
BRANCH   8  20
ATOM     20  O   UNL     1      13.043  56.755  19.824  1.00  0.00    -0.490 OA
ATOM     21  C   UNL     1      12.007  56.031  19.171  1.00  0.00     0.278 C 
ENDBRANCH   8  20
BRANCH  11  22
ATOM     22  O   UNL     1      16.726  54.393  23.334  1.00  0.00    -0.492 OA
ATOM     23  C   UNL     1      17.842  55.146  23.800  1.00  0.00     0.278 C 
ENDBRANCH  11  22
BRANCH   9  24
ATOM     24  O   UNL     1      15.520  56.179  18.904  1.00  0.00    -0.490 OA
ATOM     25  C   UNL     1      16.238  57.328  18.466  1.00  0.00     0.279 C 
ENDBRANCH   9  24
BRANCH  10  26
ATOM     26  O   UNL     1      17.388  54.765  20.614  1.00  0.00    -0.490 OA
ATOM     27  C   UNL     1      17.596  53.487  20.018  1.00  0.00     0.278 C 
ENDBRANCH  10  26
TORSDOF 6
ENDMDL
MODEL 8
REMARK VINA RESULT:    -3.820      3.365      4.209
REMARK INTER + INTRA:          -5.776
REMARK INTER:                  -5.216
REMARK INTRA:                  -0.560
REMARK UNBOUND:                -0.617
REMARK SMILES COc1ccc(-c2cc(=O)c3c(OC)c(OC)c(OC)c(OC)c3o2)cc1
REMARK SMILES IDX 7 1 8 2 9 3 10 4 11 5 24 6 25 7 21 8 18 9 15 10 12 11 6 12
REMARK SMILES IDX 3 13 4 14 27 15 5 16 26 17 2 18 1 19 22 20 23 21 13 22 14 23
REMARK SMILES IDX 19 24 20 25 16 26 17 27
REMARK H PARENT
REMARK Flexibility Score: inf
ROOT
ATOM      1  C   UNL     1      13.184  57.376  19.498  1.00  0.00     0.138 A 
ATOM      2  C   UNL     1      12.717  56.682  20.623  1.00  0.00     0.100 A 
ATOM      3  C   UNL     1      13.562  55.781  21.271  1.00  0.00     0.197 A 
ATOM      4  O   UNL     1      13.130  55.165  22.284  1.00  0.00    -0.289 OA
ATOM      5  C   UNL     1      14.869  55.573  20.783  1.00  0.00     0.115 A 
ATOM      6  C   UNL     1      15.258  56.290  19.630  1.00  0.00     0.188 A 
ATOM      7  O   UNL     1      14.416  57.143  19.052  1.00  0.00    -0.452 OA
ATOM      8  C   UNL     1      16.547  56.129  19.102  1.00  0.00     0.209 A 
ATOM      9  C   UNL     1      17.468  55.268  19.711  1.00  0.00     0.211 A 
ATOM     10  C   UNL     1      17.076  54.516  20.846  1.00  0.00     0.208 A 
ATOM     11  C   UNL     1      15.796  54.711  21.412  1.00  0.00     0.179 A 
ENDROOT
BRANCH   1  12
ATOM     12  C   UNL     1      12.333  58.360  18.781  1.00  0.00     0.018 A 
ATOM     13  C   UNL     1      10.730  60.206  17.364  1.00  0.00     0.118 A 
ATOM     14  C   UNL     1      11.355  60.582  18.568  1.00  0.00     0.047 A 
ATOM     15  C   UNL     1      10.920  58.910  16.876  1.00  0.00     0.047 A 
ATOM     16  C   UNL     1      12.151  59.669  19.266  1.00  0.00     0.016 A 
ATOM     17  C   UNL     1      11.717  57.996  17.572  1.00  0.00     0.016 A 
BRANCH  13  18
ATOM     18  O   UNL     1       9.922  61.084  16.629  1.00  0.00    -0.497 OA
ATOM     19  C   UNL     1       8.502  61.002  16.558  1.00  0.00     0.278 C 
ENDBRANCH  13  18
ENDBRANCH   1  12
BRANCH   8  20
ATOM     20  O   UNL     1      16.943  56.841  17.966  1.00  0.00    -0.490 OA
ATOM     21  C   UNL     1      17.475  58.158  18.049  1.00  0.00     0.278 C 
ENDBRANCH   8  20
BRANCH  11  22
ATOM     22  O   UNL     1      15.445  54.065  22.604  1.00  0.00    -0.492 OA
ATOM     23  C   UNL     1      16.023  54.418  23.857  1.00  0.00     0.278 C 
ENDBRANCH  11  22
BRANCH   9  24
ATOM     24  O   UNL     1      18.746  55.190  19.124  1.00  0.00    -0.490 OA
ATOM     25  C   UNL     1      19.125  54.374  18.020  1.00  0.00     0.279 C 
ENDBRANCH   9  24
BRANCH  10  26
ATOM     26  O   UNL     1      17.950  53.573  21.396  1.00  0.00    -0.490 OA
ATOM     27  C   UNL     1      18.013  52.226  20.934  1.00  0.00     0.278 C 
ENDBRANCH  10  26
TORSDOF 6
ENDMDL
