MODEL 1
REMARK VINA RESULT:    -4.142      0.000      0.000
REMARK INTER + INTRA:         -10.502
REMARK INTER:                  -7.532
REMARK INTRA:                  -2.969
REMARK UNBOUND:                -2.969
REMARK SMILES CCCCCC=CCC=CCCCCCCCC(=O)[O-]
REMARK SMILES IDX 11 1 12 2 13 3 14 4 15 5 16 6 17 7 18 8 19 9 20 10 10 11
REMARK SMILES IDX 9 12 8 13 7 14 6 15 5 16 4 17 3 18 2 19 1 20
REMARK H PARENT
REMARK Flexibility Score: inf
ROOT
ATOM      1  C   UNL     1     123.215 123.136 125.458  1.00  0.00     0.027 C 
ENDROOT
BRANCH   1   2
ATOM      2  C   UNL     1     124.145 122.440 124.453  1.00  0.00     0.004 C 
BRANCH   2   3
ATOM      3  C   UNL     1     123.779 122.778 122.997  1.00  0.00     0.000 C 
BRANCH   3   4
ATOM      4  C   UNL     1     124.987 123.262 122.177  1.00  0.00     0.000 C 
BRANCH   4   5
ATOM      5  C   UNL     1     125.257 124.777 122.255  1.00  0.00     0.000 C 
BRANCH   5   6
ATOM      6  C   UNL     1     124.100 125.645 121.716  1.00  0.00     0.006 C 
BRANCH   6   7
ATOM      7  C   UNL     1     124.597 126.784 120.816  1.00  0.00     0.053 C 
BRANCH   7   8
ATOM      8  C   UNL     1     125.519 126.254 119.764  1.00  0.00     0.041 C 
ATOM      9  O   UNL     1     125.078 125.494 118.861  1.00  0.00    -0.550 OA
ATOM     10  O   UNL     1     126.853 126.640 119.748  1.00  0.00    -0.550 OA
ENDBRANCH   7   8
ENDBRANCH   6   7
ENDBRANCH   5   6
ENDBRANCH   4   5
ENDBRANCH   3   4
ENDBRANCH   2   3
ENDBRANCH   1   2
BRANCH   1  11
ATOM     11  C   UNL     1     122.581 124.379 124.890  1.00  0.00    -0.031 C 
ATOM     12  C   UNL     1     122.953 125.602 125.290  1.00  0.00    -0.027 C 
BRANCH  12  13
ATOM     13  C   UNL     1     122.310 126.833 124.716  1.00  0.00     0.054 C 
BRANCH  13  14
ATOM     14  C   UNL     1     120.819 126.663 124.592  1.00  0.00    -0.027 C 
ATOM     15  C   UNL     1     120.124 126.792 123.444  1.00  0.00    -0.031 C 
BRANCH  15  16
ATOM     16  C   UNL     1     120.731 127.084 122.091  1.00  0.00     0.027 C 
BRANCH  16  17
ATOM     17  C   UNL     1     120.381 126.004 121.058  1.00  0.00     0.004 C 
BRANCH  17  18
ATOM     18  C   UNL     1     120.650 124.584 121.579  1.00  0.00     0.000 C 
BRANCH  18  19
ATOM     19  C   UNL     1     121.139 123.670 120.451  1.00  0.00    -0.003 C 
ATOM     20  C   UNL     1     121.601 124.482 119.245  1.00  0.00     0.004 C 
ENDBRANCH  18  19
ENDBRANCH  17  18
ENDBRANCH  16  17
ENDBRANCH  15  16
ENDBRANCH  13  14
ENDBRANCH  12  13
ENDBRANCH   1  11
TORSDOF 14
ENDMDL
MODEL 2
REMARK VINA RESULT:    -4.112      2.790      4.668
REMARK INTER + INTRA:         -10.448
REMARK INTER:                  -7.816
REMARK INTRA:                  -2.632
REMARK UNBOUND:                -2.969
REMARK SMILES CCCCCC=CCC=CCCCCCCCC(=O)[O-]
REMARK SMILES IDX 11 1 12 2 13 3 14 4 15 5 16 6 17 7 18 8 19 9 20 10 10 11
REMARK SMILES IDX 9 12 8 13 7 14 6 15 5 16 4 17 3 18 2 19 1 20
REMARK H PARENT
REMARK Flexibility Score: inf
ROOT
ATOM      1  C   UNL     1     124.526 122.919 123.054  1.00  0.00     0.027 C 
ENDROOT
BRANCH   1   2
ATOM      2  C   UNL     1     123.705 123.053 124.346  1.00  0.00     0.004 C 
BRANCH   2   3
ATOM      3  C   UNL     1     123.749 124.482 124.914  1.00  0.00     0.000 C 
BRANCH   3   4
ATOM      4  C   UNL     1     122.355 125.125 125.015  1.00  0.00     0.000 C 
BRANCH   4   5
ATOM      5  C   UNL     1     122.298 126.613 124.623  1.00  0.00     0.000 C 
BRANCH   5   6
ATOM      6  C   UNL     1     120.962 127.035 123.974  1.00  0.00     0.006 C 
BRANCH   6   7
ATOM      7  C   UNL     1     119.753 126.380 124.655  1.00  0.00     0.053 C 
BRANCH   7   8
ATOM      8  C   UNL     1     118.908 125.667 123.647  1.00  0.00     0.041 C 
ATOM      9  O   UNL     1     117.685 125.946 123.535  1.00  0.00    -0.550 OA
ATOM     10  O   UNL     1     119.481 124.730 122.797  1.00  0.00    -0.550 OA
ENDBRANCH   7   8
ENDBRANCH   6   7
ENDBRANCH   5   6
ENDBRANCH   4   5
ENDBRANCH   3   4
ENDBRANCH   2   3
ENDBRANCH   1   2
BRANCH   1  11
ATOM     11  C   UNL     1     124.279 124.054 122.096  1.00  0.00    -0.031 C 
ATOM     12  C   UNL     1     125.265 124.876 121.712  1.00  0.00    -0.027 C 
BRANCH  12  13
ATOM     13  C   UNL     1     125.003 126.006 120.756  1.00  0.00     0.054 C 
BRANCH  13  14
ATOM     14  C   UNL     1     123.938 126.930 121.283  1.00  0.00    -0.027 C 
ATOM     15  C   UNL     1     122.728 127.109 120.716  1.00  0.00    -0.031 C 
BRANCH  15  16
ATOM     16  C   UNL     1     122.228 126.381 119.489  1.00  0.00     0.027 C 
BRANCH  16  17
ATOM     17  C   UNL     1     121.378 125.157 119.853  1.00  0.00     0.004 C 
BRANCH  17  18
ATOM     18  C   UNL     1     121.807 123.896 119.088  1.00  0.00     0.000 C 
BRANCH  18  19
ATOM     19  C   UNL     1     123.016 124.185 118.190  1.00  0.00    -0.003 C 
ATOM     20  C   UNL     1     124.133 123.173 118.428  1.00  0.00     0.004 C 
ENDBRANCH  18  19
ENDBRANCH  17  18
ENDBRANCH  16  17
ENDBRANCH  15  16
ENDBRANCH  13  14
ENDBRANCH  12  13
ENDBRANCH   1  11
TORSDOF 14
ENDMDL
MODEL 3
REMARK VINA RESULT:    -4.035      3.417      5.602
REMARK INTER + INTRA:         -10.307
REMARK INTER:                  -7.308
REMARK INTRA:                  -2.999
REMARK UNBOUND:                -2.969
REMARK SMILES CCCCCC=CCC=CCCCCCCCC(=O)[O-]
REMARK SMILES IDX 11 1 12 2 13 3 14 4 15 5 16 6 17 7 18 8 19 9 20 10 10 11
REMARK SMILES IDX 9 12 8 13 7 14 6 15 5 16 4 17 3 18 2 19 1 20
REMARK H PARENT
REMARK Flexibility Score: inf
ROOT
ATOM      1  C   UNL     1     123.618 126.387 122.006  1.00  0.00     0.027 C 
ENDROOT
BRANCH   1   2
ATOM      2  C   UNL     1     122.348 126.806 121.250  1.00  0.00     0.004 C 
BRANCH   2   3
ATOM      3  C   UNL     1     121.084 126.650 122.112  1.00  0.00     0.000 C 
BRANCH   3   4
ATOM      4  C   UNL     1     120.010 125.778 121.440  1.00  0.00     0.000 C 
BRANCH   4   5
ATOM      5  C   UNL     1     120.223 125.533 119.933  1.00  0.00     0.000 C 
BRANCH   5   6
ATOM      6  C   UNL     1     119.563 124.239 119.413  1.00  0.00     0.006 C 
BRANCH   6   7
ATOM      7  C   UNL     1     118.774 123.508 120.509  1.00  0.00     0.053 C 
BRANCH   7   8
ATOM      8  C   UNL     1     117.303 123.677 120.294  1.00  0.00     0.041 C 
ATOM      9  O   UNL     1     116.546 123.931 121.269  1.00  0.00    -0.550 OA
ATOM     10  O   UNL     1     116.774 123.606 119.012  1.00  0.00    -0.550 OA
ENDBRANCH   7   8
ENDBRANCH   6   7
ENDBRANCH   5   6
ENDBRANCH   4   5
ENDBRANCH   3   4
ENDBRANCH   2   3
ENDBRANCH   1   2
BRANCH   1  11
ATOM     11  C   UNL     1     123.313 125.779 123.349  1.00  0.00    -0.031 C 
ATOM     12  C   UNL     1     124.147 124.905 123.929  1.00  0.00    -0.027 C 
BRANCH  12  13
ATOM     13  C   UNL     1     123.828 124.305 125.271  1.00  0.00     0.054 C 
BRANCH  13  14
ATOM     14  C   UNL     1     123.895 122.802 125.227  1.00  0.00    -0.027 C 
ATOM     15  C   UNL     1     122.832 121.990 125.059  1.00  0.00    -0.031 C 
BRANCH  15  16
ATOM     16  C   UNL     1     121.411 122.455 124.845  1.00  0.00     0.027 C 
BRANCH  16  17
ATOM     17  C   UNL     1     121.141 122.828 123.381  1.00  0.00     0.004 C 
BRANCH  17  18
ATOM     18  C   UNL     1     121.762 121.826 122.396  1.00  0.00     0.000 C 
BRANCH  18  19
ATOM     19  C   UNL     1     122.382 122.550 121.195  1.00  0.00    -0.003 C 
ATOM     20  C   UNL     1     123.905 122.519 121.259  1.00  0.00     0.004 C 
ENDBRANCH  18  19
ENDBRANCH  17  18
ENDBRANCH  16  17
ENDBRANCH  15  16
ENDBRANCH  13  14
ENDBRANCH  12  13
ENDBRANCH   1  11
TORSDOF 14
ENDMDL
MODEL 4
REMARK VINA RESULT:    -3.971      3.856      6.161
REMARK INTER + INTRA:         -10.190
REMARK INTER:                  -7.677
REMARK INTRA:                  -2.513
REMARK UNBOUND:                -2.969
REMARK SMILES CCCCCC=CCC=CCCCCCCCC(=O)[O-]
REMARK SMILES IDX 11 1 12 2 13 3 14 4 15 5 16 6 17 7 18 8 19 9 20 10 10 11
REMARK SMILES IDX 9 12 8 13 7 14 6 15 5 16 4 17 3 18 2 19 1 20
REMARK H PARENT
REMARK Flexibility Score: inf
ROOT
ATOM      1  C   UNL     1     122.652 125.651 125.025  1.00  0.00     0.027 C 
ENDROOT
BRANCH   1   2
ATOM      2  C   UNL     1     122.168 127.087 124.770  1.00  0.00     0.004 C 
BRANCH   2   3
ATOM      3  C   UNL     1     120.727 127.125 124.232  1.00  0.00     0.000 C 
BRANCH   3   4
ATOM      4  C   UNL     1     119.858 125.979 124.779  1.00  0.00     0.000 C 
BRANCH   4   5
ATOM      5  C   UNL     1     119.244 125.061 123.705  1.00  0.00     0.000 C 
BRANCH   5   6
ATOM      6  C   UNL     1     118.120 125.729 122.884  1.00  0.00     0.006 C 
BRANCH   6   7
ATOM      7  C   UNL     1     117.231 124.701 122.172  1.00  0.00     0.053 C 
BRANCH   7   8
ATOM      8  C   UNL     1     115.874 124.657 122.802  1.00  0.00     0.041 C 
ATOM      9  O   UNL     1     115.500 125.589 123.563  1.00  0.00    -0.550 OA
ATOM     10  O   UNL     1     115.004 123.615 122.510  1.00  0.00    -0.550 OA
ENDBRANCH   7   8
ENDBRANCH   6   7
ENDBRANCH   5   6
ENDBRANCH   4   5
ENDBRANCH   3   4
ENDBRANCH   2   3
ENDBRANCH   1   2
BRANCH   1  11
ATOM     11  C   UNL     1     123.701 125.214 124.037  1.00  0.00    -0.031 C 
ATOM     12  C   UNL     1     123.578 124.077 123.340  1.00  0.00    -0.027 C 
BRANCH  12  13
ATOM     13  C   UNL     1     124.636 123.652 122.359  1.00  0.00     0.054 C 
BRANCH  13  14
ATOM     14  C   UNL     1     125.526 124.807 121.983  1.00  0.00    -0.027 C 
ATOM     15  C   UNL     1     125.375 125.566 120.880  1.00  0.00    -0.031 C 
BRANCH  15  16
ATOM     16  C   UNL     1     124.267 125.410 119.865  1.00  0.00     0.027 C 
BRANCH  16  17
ATOM     17  C   UNL     1     123.412 126.679 119.747  1.00  0.00     0.004 C 
BRANCH  17  18
ATOM     18  C   UNL     1     122.349 126.776 120.852  1.00  0.00     0.000 C 
BRANCH  18  19
ATOM     19  C   UNL     1     121.446 125.537 120.853  1.00  0.00    -0.003 C 
ATOM     20  C   UNL     1     120.427 125.598 119.720  1.00  0.00     0.004 C 
ENDBRANCH  18  19
ENDBRANCH  17  18
ENDBRANCH  16  17
ENDBRANCH  15  16
ENDBRANCH  13  14
ENDBRANCH  12  13
ENDBRANCH   1  11
TORSDOF 14
ENDMDL
MODEL 5
REMARK VINA RESULT:    -3.955      3.060      5.456
REMARK INTER + INTRA:         -10.161
REMARK INTER:                  -6.843
REMARK INTRA:                  -3.318
REMARK UNBOUND:                -2.969
REMARK SMILES CCCCCC=CCC=CCCCCCCCC(=O)[O-]
REMARK SMILES IDX 11 1 12 2 13 3 14 4 15 5 16 6 17 7 18 8 19 9 20 10 10 11
REMARK SMILES IDX 9 12 8 13 7 14 6 15 5 16 4 17 3 18 2 19 1 20
REMARK H PARENT
REMARK Flexibility Score: inf
ROOT
ATOM      1  C   UNL     1     121.069 124.188 119.416  1.00  0.00     0.027 C 
ENDROOT
BRANCH   1   2
ATOM      2  C   UNL     1     121.340 122.770 119.942  1.00  0.00     0.004 C 
BRANCH   2   3
ATOM      3  C   UNL     1     121.996 122.786 121.334  1.00  0.00     0.000 C 
BRANCH   3   4
ATOM      4  C   UNL     1     121.090 122.188 122.424  1.00  0.00     0.000 C 
BRANCH   4   5
ATOM      5  C   UNL     1     120.353 123.224 123.294  1.00  0.00     0.000 C 
BRANCH   5   6
ATOM      6  C   UNL     1     118.821 123.040 123.318  1.00  0.00     0.006 C 
BRANCH   6   7
ATOM      7  C   UNL     1     118.242 122.811 121.915  1.00  0.00     0.053 C 
BRANCH   7   8
ATOM      8  C   UNL     1     117.667 124.082 121.373  1.00  0.00     0.041 C 
ATOM      9  O   UNL     1     117.323 125.006 122.157  1.00  0.00    -0.550 OA
ATOM     10  O   UNL     1     117.558 124.267 120.001  1.00  0.00    -0.550 OA
ENDBRANCH   7   8
ENDBRANCH   6   7
ENDBRANCH   5   6
ENDBRANCH   4   5
ENDBRANCH   3   4
ENDBRANCH   2   3
ENDBRANCH   1   2
BRANCH   1  11
ATOM     11  C   UNL     1     121.524 125.255 120.376  1.00  0.00    -0.031 C 
ATOM     12  C   UNL     1     120.650 126.054 121.002  1.00  0.00    -0.027 C 
BRANCH  12  13
ATOM     13  C   UNL     1     121.120 127.116 121.957  1.00  0.00     0.054 C 
BRANCH  13  14
ATOM     14  C   UNL     1     120.411 127.012 123.281  1.00  0.00    -0.027 C 
ATOM     15  C   UNL     1     121.015 126.750 124.457  1.00  0.00    -0.031 C 
BRANCH  15  16
ATOM     16  C   UNL     1     122.503 126.561 124.645  1.00  0.00     0.027 C 
BRANCH  16  17
ATOM     17  C   UNL     1     122.852 125.127 125.065  1.00  0.00     0.004 C 
BRANCH  17  18
ATOM     18  C   UNL     1     123.947 124.507 124.184  1.00  0.00     0.000 C 
BRANCH  18  19
ATOM     19  C   UNL     1     124.195 125.362 122.936  1.00  0.00    -0.003 C 
ATOM     20  C   UNL     1     125.137 124.658 121.965  1.00  0.00     0.004 C 
ENDBRANCH  18  19
ENDBRANCH  17  18
ENDBRANCH  16  17
ENDBRANCH  15  16
ENDBRANCH  13  14
ENDBRANCH  12  13
ENDBRANCH   1  11
TORSDOF 14
ENDMDL
MODEL 6
REMARK VINA RESULT:    -3.936      3.067      4.221
REMARK INTER + INTRA:         -10.126
REMARK INTER:                  -6.888
REMARK INTRA:                  -3.239
REMARK UNBOUND:                -2.969
REMARK SMILES CCCCCC=CCC=CCCCCCCCC(=O)[O-]
REMARK SMILES IDX 11 1 12 2 13 3 14 4 15 5 16 6 17 7 18 8 19 9 20 10 10 11
REMARK SMILES IDX 9 12 8 13 7 14 6 15 5 16 4 17 3 18 2 19 1 20
REMARK H PARENT
REMARK Flexibility Score: inf
ROOT
ATOM      1  C   UNL     1     124.186 125.625 121.801  1.00  0.00     0.027 C 
ENDROOT
BRANCH   1   2
ATOM      2  C   UNL     1     124.923 124.675 122.758  1.00  0.00     0.004 C 
BRANCH   2   3
ATOM      3  C   UNL     1     124.466 123.215 122.589  1.00  0.00     0.000 C 
BRANCH   3   4
ATOM      4  C   UNL     1     123.875 122.625 123.880  1.00  0.00     0.000 C 
BRANCH   4   5
ATOM      5  C   UNL     1     122.336 122.622 123.946  1.00  0.00     0.000 C 
BRANCH   5   6
ATOM      6  C   UNL     1     121.653 122.817 122.575  1.00  0.00     0.006 C 
BRANCH   6   7
ATOM      7  C   UNL     1     121.069 121.509 122.025  1.00  0.00     0.053 C 
BRANCH   7   8
ATOM      8  C   UNL     1     119.575 121.578 121.989  1.00  0.00     0.041 C 
ATOM      9  O   UNL     1     118.940 122.071 122.959  1.00  0.00    -0.550 OA
ATOM     10  O   UNL     1     118.885 121.147 120.863  1.00  0.00    -0.550 OA
ENDBRANCH   7   8
ENDBRANCH   6   7
ENDBRANCH   5   6
ENDBRANCH   4   5
ENDBRANCH   3   4
ENDBRANCH   2   3
ENDBRANCH   1   2
BRANCH   1  11
ATOM     11  C   UNL     1     122.964 126.240 122.430  1.00  0.00    -0.031 C 
ATOM     12  C   UNL     1     122.818 126.309 123.760  1.00  0.00    -0.027 C 
BRANCH  12  13
ATOM     13  C   UNL     1     121.591 126.925 124.373  1.00  0.00     0.054 C 
BRANCH  13  14
ATOM     14  C   UNL     1     120.534 125.886 124.640  1.00  0.00    -0.027 C 
ATOM     15  C   UNL     1     119.497 125.618 123.821  1.00  0.00    -0.031 C 
BRANCH  15  16
ATOM     16  C   UNL     1     119.251 126.283 122.487  1.00  0.00     0.027 C 
BRANCH  16  17
ATOM     17  C   UNL     1     119.177 125.265 121.341  1.00  0.00     0.004 C 
BRANCH  17  18
ATOM     18  C   UNL     1     120.164 125.584 120.208  1.00  0.00     0.000 C 
BRANCH  18  19
ATOM     19  C   UNL     1     120.476 124.329 119.384  1.00  0.00    -0.003 C 
ATOM     20  C   UNL     1     121.970 124.219 119.094  1.00  0.00     0.004 C 
ENDBRANCH  18  19
ENDBRANCH  17  18
ENDBRANCH  16  17
ENDBRANCH  15  16
ENDBRANCH  13  14
ENDBRANCH  12  13
ENDBRANCH   1  11
TORSDOF 14
ENDMDL
MODEL 7
REMARK VINA RESULT:    -3.890      3.102      4.688
REMARK INTER + INTRA:         -10.043
REMARK INTER:                  -7.159
REMARK INTRA:                  -2.884
REMARK UNBOUND:                -2.969
REMARK SMILES CCCCCC=CCC=CCCCCCCCC(=O)[O-]
REMARK SMILES IDX 11 1 12 2 13 3 14 4 15 5 16 6 17 7 18 8 19 9 20 10 10 11
REMARK SMILES IDX 9 12 8 13 7 14 6 15 5 16 4 17 3 18 2 19 1 20
REMARK H PARENT
REMARK Flexibility Score: inf
ROOT
ATOM      1  C   UNL     1     123.759 123.123 126.124  1.00  0.00     0.027 C 
ENDROOT
BRANCH   1   2
ATOM      2  C   UNL     1     123.257 122.024 125.174  1.00  0.00     0.004 C 
BRANCH   2   3
ATOM      3  C   UNL     1     121.782 121.669 125.429  1.00  0.00     0.000 C 
BRANCH   3   4
ATOM      4  C   UNL     1     121.189 120.770 124.331  1.00  0.00     0.000 C 
BRANCH   4   5
ATOM      5  C   UNL     1     120.045 121.408 123.519  1.00  0.00     0.000 C 
BRANCH   5   6
ATOM      6  C   UNL     1     119.956 122.942 123.667  1.00  0.00     0.006 C 
BRANCH   6   7
ATOM      7  C   UNL     1     119.737 123.644 122.319  1.00  0.00     0.053 C 
BRANCH   7   8
ATOM      8  C   UNL     1     118.596 124.607 122.412  1.00  0.00     0.041 C 
ATOM      9  O   UNL     1     117.699 124.612 121.528  1.00  0.00    -0.550 OA
ATOM     10  O   UNL     1     118.496 125.465 123.499  1.00  0.00    -0.550 OA
ENDBRANCH   7   8
ENDBRANCH   6   7
ENDBRANCH   5   6
ENDBRANCH   4   5
ENDBRANCH   3   4
ENDBRANCH   2   3
ENDBRANCH   1   2
BRANCH   1  11
ATOM     11  C   UNL     1     123.771 124.482 125.475  1.00  0.00    -0.031 C 
ATOM     12  C   UNL     1     122.642 125.069 125.055  1.00  0.00    -0.027 C 
BRANCH  12  13
ATOM     13  C   UNL     1     122.671 126.426 124.407  1.00  0.00     0.054 C 
BRANCH  13  14
ATOM     14  C   UNL     1     121.905 126.428 123.111  1.00  0.00    -0.027 C 
ATOM     15  C   UNL     1     122.457 126.604 121.894  1.00  0.00    -0.031 C 
BRANCH  15  16
ATOM     16  C   UNL     1     123.933 126.784 121.628  1.00  0.00     0.027 C 
BRANCH  16  17
ATOM     17  C   UNL     1     124.582 125.502 121.089  1.00  0.00     0.004 C 
BRANCH  17  18
ATOM     18  C   UNL     1     125.182 124.634 122.205  1.00  0.00     0.000 C 
BRANCH  18  19
ATOM     19  C   UNL     1     124.863 123.152 121.978  1.00  0.00    -0.003 C 
ATOM     20  C   UNL     1     123.373 122.942 121.726  1.00  0.00     0.004 C 
ENDBRANCH  18  19
ENDBRANCH  17  18
ENDBRANCH  16  17
ENDBRANCH  15  16
ENDBRANCH  13  14
ENDBRANCH  12  13
ENDBRANCH   1  11
TORSDOF 14
ENDMDL
MODEL 8
REMARK VINA RESULT:    -3.886      3.074      4.544
REMARK INTER + INTRA:         -10.036
REMARK INTER:                  -7.064
REMARK INTRA:                  -2.972
REMARK UNBOUND:                -2.969
REMARK SMILES CCCCCC=CCC=CCCCCCCCC(=O)[O-]
REMARK SMILES IDX 11 1 12 2 13 3 14 4 15 5 16 6 17 7 18 8 19 9 20 10 10 11
REMARK SMILES IDX 9 12 8 13 7 14 6 15 5 16 4 17 3 18 2 19 1 20
REMARK H PARENT
REMARK Flexibility Score: inf
ROOT
ATOM      1  C   UNL     1     123.827 123.727 125.731  1.00  0.00     0.027 C 
ENDROOT
BRANCH   1   2
ATOM      2  C   UNL     1     123.611 122.288 125.238  1.00  0.00     0.004 C 
BRANCH   2   3
ATOM      3  C   UNL     1     122.180 121.793 125.509  1.00  0.00     0.000 C 
BRANCH   3   4
ATOM      4  C   UNL     1     121.208 122.128 124.365  1.00  0.00     0.000 C 
BRANCH   4   5
ATOM      5  C   UNL     1     120.380 123.411 124.572  1.00  0.00     0.000 C 
BRANCH   5   6
ATOM      6  C   UNL     1     120.330 124.326 123.330  1.00  0.00     0.006 C 
BRANCH   6   7
ATOM      7  C   UNL     1     119.455 125.567 123.557  1.00  0.00     0.053 C 
BRANCH   7   8
ATOM      8  C   UNL     1     118.151 125.425 122.838  1.00  0.00     0.041 C 
ATOM      9  O   UNL     1     117.089 125.855 123.362  1.00  0.00    -0.550 OA
ATOM     10  O   UNL     1     118.114 124.865 121.568  1.00  0.00    -0.550 OA
ENDBRANCH   7   8
ENDBRANCH   6   7
ENDBRANCH   5   6
ENDBRANCH   4   5
ENDBRANCH   3   4
ENDBRANCH   2   3
ENDBRANCH   1   2
BRANCH   1  11
ATOM     11  C   UNL     1     123.888 124.720 124.600  1.00  0.00    -0.031 C 
ATOM     12  C   UNL     1     124.090 124.330 123.335  1.00  0.00    -0.027 C 
BRANCH  12  13
ATOM     13  C   UNL     1     124.150 125.333 122.216  1.00  0.00     0.054 C 
BRANCH  13  14
ATOM     14  C   UNL     1     123.133 126.426 122.409  1.00  0.00    -0.027 C 
ATOM     15  C   UNL     1     122.344 126.921 121.434  1.00  0.00    -0.031 C 
BRANCH  15  16
ATOM     16  C   UNL     1     122.321 126.432 120.004  1.00  0.00     0.027 C 
BRANCH  16  17
ATOM     17  C   UNL     1     121.145 125.482 119.739  1.00  0.00     0.004 C 
BRANCH  17  18
ATOM     18  C   UNL     1     121.602 124.118 119.199  1.00  0.00     0.000 C 
BRANCH  18  19
ATOM     19  C   UNL     1     121.155 122.984 120.128  1.00  0.00    -0.003 C 
ATOM     20  C   UNL     1     122.354 122.293 120.770  1.00  0.00     0.004 C 
ENDBRANCH  18  19
ENDBRANCH  17  18
ENDBRANCH  16  17
ENDBRANCH  15  16
ENDBRANCH  13  14
ENDBRANCH  12  13
ENDBRANCH   1  11
TORSDOF 14
ENDMDL
