MODEL 1
REMARK VINA RESULT:    -7.777      0.000      0.000
REMARK INTER + INTRA:         -10.200
REMARK INTER:                  -9.823
REMARK INTRA:                  -0.377
REMARK UNBOUND:                -0.377
REMARK SMILES Oc1ccc(CCc2cc(O)cc(O)c2)cc1
REMARK SMILES IDX 6 1 5 2 4 3 3 4 2 5 16 6 17 7 1 8 7 10 8 11 15 12 9 13 13 14
REMARK SMILES IDX 10 15 12 16 14 17 11 19
REMARK H PARENT 1 9 14 18 11 20
REMARK Flexibility Score: inf
ROOT
ATOM      1  C   UNL     1     -12.451   0.137 -11.025  1.00  0.00     0.040 C 
ENDROOT
BRANCH   1   2
ATOM      2  C   UNL     1     -11.647  -1.051 -10.570  1.00  0.00    -0.047 A 
ATOM      3  C   UNL     1     -10.255  -0.947 -10.414  1.00  0.00     0.007 A 
ATOM      4  C   UNL     1      -9.505  -2.059 -10.022  1.00  0.00     0.046 A 
ATOM      5  C   UNL     1     -10.135  -3.288  -9.793  1.00  0.00     0.115 A 
ATOM      6  C   UNL     1     -12.274  -2.288 -10.351  1.00  0.00     0.007 A 
ATOM      7  C   UNL     1     -11.522  -3.400  -9.960  1.00  0.00     0.046 A 
BRANCH   5   8
ATOM      8  O   UNL     1      -9.375  -4.388  -9.402  1.00  0.00    -0.508 OA
ATOM      9  H   UNL     1      -8.481  -4.595  -9.834  1.00  0.00     0.293 HD
ENDBRANCH   5   8
ENDBRANCH   1   2
BRANCH   1  10
ATOM     10  C   UNL     1     -13.390   0.611  -9.911  1.00  0.00     0.040 C 
BRANCH  10  11
ATOM     11  C   UNL     1     -12.851   1.855  -9.259  1.00  0.00    -0.040 A 
ATOM     12  C   UNL     1     -13.729   2.847  -8.793  1.00  0.00     0.050 A 
ATOM     13  C   UNL     1     -11.465   2.060  -9.162  1.00  0.00     0.050 A 
ATOM     14  C   UNL     1     -13.226   4.022  -8.216  1.00  0.00     0.119 A 
ATOM     15  C   UNL     1     -10.962   3.234  -8.584  1.00  0.00     0.119 A 
ATOM     16  C   UNL     1     -11.845   4.210  -8.111  1.00  0.00     0.092 A 
BRANCH  14  17
ATOM     17  O   UNL     1     -14.092   5.007  -7.746  1.00  0.00    -0.508 OA
ATOM     18  H   UNL     1     -14.827   5.389  -8.329  1.00  0.00     0.293 HD
ENDBRANCH  14  17
BRANCH  15  19
ATOM     19  O   UNL     1      -9.588   3.441  -8.478  1.00  0.00    -0.508 OA
ATOM     20  H   UNL     1      -9.142   3.580  -7.579  1.00  0.00     0.293 HD
ENDBRANCH  15  19
ENDBRANCH  10  11
ENDBRANCH   1  10
TORSDOF 6
ENDMDL
MODEL 2
REMARK VINA RESULT:    -7.721      0.477      2.380
REMARK INTER + INTRA:         -10.130
REMARK INTER:                 -10.096
REMARK INTRA:                  -0.034
REMARK UNBOUND:                -0.377
REMARK SMILES Oc1ccc(CCc2cc(O)cc(O)c2)cc1
REMARK SMILES IDX 6 1 5 2 4 3 3 4 2 5 16 6 17 7 1 8 7 10 8 11 15 12 9 13 13 14
REMARK SMILES IDX 10 15 12 16 14 17 11 19
REMARK H PARENT 1 9 14 18 11 20
REMARK Flexibility Score: inf
ROOT
ATOM      1  C   UNL     1     -13.228   0.142 -11.017  1.00  0.00     0.040 C 
ENDROOT
BRANCH   1   2
ATOM      2  C   UNL     1     -12.262  -0.962 -10.681  1.00  0.00    -0.047 A 
ATOM      3  C   UNL     1     -12.731  -2.263 -10.434  1.00  0.00     0.007 A 
ATOM      4  C   UNL     1     -11.836  -3.281 -10.092  1.00  0.00     0.046 A 
ATOM      5  C   UNL     1     -10.468  -3.008  -9.982  1.00  0.00     0.115 A 
ATOM      6  C   UNL     1     -10.890  -0.689 -10.558  1.00  0.00     0.007 A 
ATOM      7  C   UNL     1      -9.997  -1.709 -10.214  1.00  0.00     0.046 A 
BRANCH   5   8
ATOM      8  O   UNL     1      -9.588  -4.032  -9.640  1.00  0.00    -0.508 OA
ATOM      9  H   UNL     1      -9.742  -4.613  -8.823  1.00  0.00     0.293 HD
ENDBRANCH   5   8
ENDBRANCH   1   2
BRANCH   1  10
ATOM     10  C   UNL     1     -13.900   0.674  -9.747  1.00  0.00     0.040 C 
BRANCH  10  11
ATOM     11  C   UNL     1     -13.195   1.908  -9.253  1.00  0.00    -0.040 A 
ATOM     12  C   UNL     1     -11.800   1.911  -9.096  1.00  0.00     0.050 A 
ATOM     13  C   UNL     1     -13.932   3.048  -8.894  1.00  0.00     0.050 A 
ATOM     14  C   UNL     1     -11.146   3.050  -8.605  1.00  0.00     0.119 A 
ATOM     15  C   UNL     1     -13.279   4.187  -8.403  1.00  0.00     0.119 A 
ATOM     16  C   UNL     1     -11.887   4.185  -8.263  1.00  0.00     0.092 A 
BRANCH  14  17
ATOM     17  O   UNL     1      -9.761   3.062  -8.452  1.00  0.00    -0.508 OA
ATOM     18  H   UNL     1      -9.275   3.870  -8.081  1.00  0.00     0.293 HD
ENDBRANCH  14  17
BRANCH  15  19
ATOM     19  O   UNL     1     -14.003   5.325  -8.050  1.00  0.00    -0.508 OA
ATOM     20  H   UNL     1     -13.558   6.232  -7.976  1.00  0.00     0.293 HD
ENDBRANCH  15  19
ENDBRANCH  10  11
ENDBRANCH   1  10
TORSDOF 6
ENDMDL
MODEL 3
REMARK VINA RESULT:    -7.386      1.454      2.840
REMARK INTER + INTRA:          -9.706
REMARK INTER:                  -9.262
REMARK INTRA:                  -0.445
REMARK UNBOUND:                -0.377
REMARK SMILES Oc1ccc(CCc2cc(O)cc(O)c2)cc1
REMARK SMILES IDX 6 1 5 2 4 3 3 4 2 5 16 6 17 7 1 8 7 10 8 11 15 12 9 13 13 14
REMARK SMILES IDX 10 15 12 16 14 17 11 19
REMARK H PARENT 1 9 14 18 11 20
REMARK Flexibility Score: inf
ROOT
ATOM      1  C   UNL     1     -10.260  -0.941 -10.776  1.00  0.00     0.040 C 
ENDROOT
BRANCH   1   2
ATOM      2  C   UNL     1      -9.941  -2.043  -9.801  1.00  0.00    -0.047 A 
ATOM      3  C   UNL     1     -10.112  -1.839  -8.422  1.00  0.00     0.007 A 
ATOM      4  C   UNL     1      -9.786  -2.852  -7.515  1.00  0.00     0.046 A 
ATOM      5  C   UNL     1      -9.277  -4.072  -7.975  1.00  0.00     0.115 A 
ATOM      6  C   UNL     1      -9.419  -3.263 -10.258  1.00  0.00     0.007 A 
ATOM      7  C   UNL     1      -9.093  -4.275  -9.350  1.00  0.00     0.046 A 
BRANCH   5   8
ATOM      8  O   UNL     1      -8.956  -5.072  -7.060  1.00  0.00    -0.508 OA
ATOM      9  H   UNL     1      -8.766  -6.022  -7.359  1.00  0.00     0.293 HD
ENDBRANCH   5   8
ENDBRANCH   1   2
BRANCH   1  10
ATOM     10  C   UNL     1     -11.765  -0.656 -10.793  1.00  0.00     0.040 C 
BRANCH  10  11
ATOM     11  C   UNL     1     -12.064   0.648 -10.105  1.00  0.00    -0.040 A 
ATOM     12  C   UNL     1     -11.030   1.385  -9.505  1.00  0.00     0.050 A 
ATOM     13  C   UNL     1     -13.386   1.112 -10.010  1.00  0.00     0.050 A 
ATOM     14  C   UNL     1     -11.313   2.584  -8.835  1.00  0.00     0.119 A 
ATOM     15  C   UNL     1     -13.670   2.310  -9.341  1.00  0.00     0.119 A 
ATOM     16  C   UNL     1     -12.631   3.044  -8.758  1.00  0.00     0.092 A 
BRANCH  14  17
ATOM     17  O   UNL     1     -10.291   3.323  -8.243  1.00  0.00    -0.508 OA
ATOM     18  H   UNL     1      -9.325   3.021  -8.286  1.00  0.00     0.293 HD
ENDBRANCH  14  17
BRANCH  15  19
ATOM     19  O   UNL     1     -14.979   2.780  -9.248  1.00  0.00    -0.508 OA
ATOM     20  H   UNL     1     -15.220   3.727  -9.514  1.00  0.00     0.293 HD
ENDBRANCH  15  19
ENDBRANCH  10  11
ENDBRANCH   1  10
TORSDOF 6
ENDMDL
MODEL 4
REMARK VINA RESULT:    -6.845      1.613      6.622
REMARK INTER + INTRA:          -9.023
REMARK INTER:                  -8.508
REMARK INTRA:                  -0.515
REMARK UNBOUND:                -0.377
REMARK SMILES Oc1ccc(CCc2cc(O)cc(O)c2)cc1
REMARK SMILES IDX 6 1 5 2 4 3 3 4 2 5 16 6 17 7 1 8 7 10 8 11 15 12 9 13 13 14
REMARK SMILES IDX 10 15 12 16 14 17 11 19
REMARK H PARENT 1 9 14 18 11 20
REMARK Flexibility Score: inf
ROOT
ATOM      1  C   UNL     1     -11.740  -1.163 -10.505  1.00  0.00     0.040 C 
ENDROOT
BRANCH   1   2
ATOM      2  C   UNL     1     -12.258   0.186 -10.083  1.00  0.00    -0.047 A 
ATOM      3  C   UNL     1     -11.399   1.118  -9.480  1.00  0.00     0.007 A 
ATOM      4  C   UNL     1     -11.888   2.359  -9.060  1.00  0.00     0.046 A 
ATOM      5  C   UNL     1     -13.241   2.675  -9.228  1.00  0.00     0.115 A 
ATOM      6  C   UNL     1     -13.617   0.502 -10.239  1.00  0.00     0.007 A 
ATOM      7  C   UNL     1     -14.105   1.743  -9.818  1.00  0.00     0.046 A 
BRANCH   5   8
ATOM      8  O   UNL     1     -13.715   3.915  -8.805  1.00  0.00    -0.508 OA
ATOM      9  H   UNL     1     -13.410   4.777  -9.244  1.00  0.00     0.293 HD
ENDBRANCH   5   8
ENDBRANCH   1   2
BRANCH   1  10
ATOM     10  C   UNL     1     -10.228  -1.254 -10.273  1.00  0.00     0.040 C 
BRANCH  10  11
ATOM     11  C   UNL     1      -9.887  -2.494  -9.492  1.00  0.00    -0.040 A 
ATOM     12  C   UNL     1     -10.285  -2.617  -8.151  1.00  0.00     0.050 A 
ATOM     13  C   UNL     1      -9.122  -3.514 -10.080  1.00  0.00     0.050 A 
ATOM     14  C   UNL     1      -9.939  -3.758  -7.412  1.00  0.00     0.119 A 
ATOM     15  C   UNL     1      -8.776  -4.655  -9.343  1.00  0.00     0.119 A 
ATOM     16  C   UNL     1      -9.189  -4.773  -8.011  1.00  0.00     0.092 A 
BRANCH  14  17
ATOM     17  O   UNL     1     -10.336  -3.889  -6.083  1.00  0.00    -0.508 OA
ATOM     18  H   UNL     1      -9.664  -4.062  -5.344  1.00  0.00     0.293 HD
ENDBRANCH  14  17
BRANCH  15  19
ATOM     19  O   UNL     1      -8.022  -5.674  -9.921  1.00  0.00    -0.508 OA
ATOM     20  H   UNL     1      -7.028  -5.761  -9.746  1.00  0.00     0.293 HD
ENDBRANCH  15  19
ENDBRANCH  10  11
ENDBRANCH   1  10
TORSDOF 6
ENDMDL
MODEL 5
REMARK VINA RESULT:    -6.823      1.463      6.480
REMARK INTER + INTRA:          -8.995
REMARK INTER:                  -8.457
REMARK INTRA:                  -0.538
REMARK UNBOUND:                -0.377
REMARK SMILES Oc1ccc(CCc2cc(O)cc(O)c2)cc1
REMARK SMILES IDX 6 1 5 2 4 3 3 4 2 5 16 6 17 7 1 8 7 10 8 11 15 12 9 13 13 14
REMARK SMILES IDX 10 15 12 16 14 17 11 19
REMARK H PARENT 1 9 14 18 11 20
REMARK Flexibility Score: inf
ROOT
ATOM      1  C   UNL     1     -10.670   0.884  -9.618  1.00  0.00     0.040 C 
ENDROOT
BRANCH   1   2
ATOM      2  C   UNL     1     -11.541   2.027  -9.171  1.00  0.00    -0.047 A 
ATOM      3  C   UNL     1     -10.979   3.127  -8.503  1.00  0.00     0.007 A 
ATOM      4  C   UNL     1     -11.794   4.174  -8.060  1.00  0.00     0.046 A 
ATOM      5  C   UNL     1     -13.177   4.126  -8.269  1.00  0.00     0.115 A 
ATOM      6  C   UNL     1     -12.930   1.977  -9.369  1.00  0.00     0.007 A 
ATOM      7  C   UNL     1     -13.744   3.024  -8.924  1.00  0.00     0.046 A 
BRANCH   5   8
ATOM      8  O   UNL     1     -13.977   5.175  -7.822  1.00  0.00    -0.508 OA
ATOM      9  H   UNL     1     -13.573   6.027  -7.448  1.00  0.00     0.293 HD
ENDBRANCH   5   8
ENDBRANCH   1   2
BRANCH   1  10
ATOM     10  C   UNL     1     -11.295   0.168 -10.819  1.00  0.00     0.040 C 
BRANCH  10  11
ATOM     11  C   UNL     1     -11.575  -1.273 -10.488  1.00  0.00    -0.040 A 
ATOM     12  C   UNL     1     -12.778  -1.872 -10.893  1.00  0.00     0.050 A 
ATOM     13  C   UNL     1     -10.659  -2.014  -9.723  1.00  0.00     0.050 A 
ATOM     14  C   UNL     1     -13.054  -3.205 -10.556  1.00  0.00     0.119 A 
ATOM     15  C   UNL     1     -10.933  -3.346  -9.386  1.00  0.00     0.119 A 
ATOM     16  C   UNL     1     -12.129  -3.938  -9.806  1.00  0.00     0.092 A 
BRANCH  14  17
ATOM     17  O   UNL     1     -14.243  -3.808 -10.961  1.00  0.00    -0.508 OA
ATOM     18  H   UNL     1     -15.108  -3.668 -10.452  1.00  0.00     0.293 HD
ENDBRANCH  14  17
BRANCH  15  19
ATOM     19  O   UNL     1     -10.027  -4.090  -8.633  1.00  0.00    -0.508 OA
ATOM     20  H   UNL     1      -9.622  -3.723  -7.779  1.00  0.00     0.293 HD
ENDBRANCH  15  19
ENDBRANCH  10  11
ENDBRANCH   1  10
TORSDOF 6
ENDMDL
MODEL 6
REMARK VINA RESULT:    -6.796      1.606      6.904
REMARK INTER + INTRA:          -8.962
REMARK INTER:                  -8.431
REMARK INTRA:                  -0.531
REMARK UNBOUND:                -0.377
REMARK SMILES Oc1ccc(CCc2cc(O)cc(O)c2)cc1
REMARK SMILES IDX 6 1 5 2 4 3 3 4 2 5 16 6 17 7 1 8 7 10 8 11 15 12 9 13 13 14
REMARK SMILES IDX 10 15 12 16 14 17 11 19
REMARK H PARENT 1 9 14 18 11 20
REMARK Flexibility Score: inf
ROOT
ATOM      1  C   UNL     1     -11.726  -1.180 -10.536  1.00  0.00     0.040 C 
ENDROOT
BRANCH   1   2
ATOM      2  C   UNL     1     -12.255   0.152 -10.076  1.00  0.00    -0.047 A 
ATOM      3  C   UNL     1     -13.605   0.484 -10.272  1.00  0.00     0.007 A 
ATOM      4  C   UNL     1     -14.088   1.734  -9.873  1.00  0.00     0.046 A 
ATOM      5  C   UNL     1     -13.226   2.667  -9.286  1.00  0.00     0.115 A 
ATOM      6  C   UNL     1     -11.390   1.096  -9.498  1.00  0.00     0.007 A 
ATOM      7  C   UNL     1     -11.875   2.346  -9.101  1.00  0.00     0.046 A 
BRANCH   5   8
ATOM      8  O   UNL     1     -13.721   3.909  -8.894  1.00  0.00    -0.508 OA
ATOM      9  H   UNL     1     -13.962   4.622  -9.572  1.00  0.00     0.293 HD
ENDBRANCH   5   8
ENDBRANCH   1   2
BRANCH   1  10
ATOM     10  C   UNL     1     -10.207  -1.251 -10.347  1.00  0.00     0.040 C 
BRANCH  10  11
ATOM     11  C   UNL     1      -9.833  -2.456  -9.527  1.00  0.00    -0.040 A 
ATOM     12  C   UNL     1      -9.100  -3.505 -10.105  1.00  0.00     0.050 A 
ATOM     13  C   UNL     1     -10.260  -2.566  -8.194  1.00  0.00     0.050 A 
ATOM     14  C   UNL     1      -8.779  -4.643  -9.351  1.00  0.00     0.119 A 
ATOM     15  C   UNL     1      -9.940  -3.702  -7.439  1.00  0.00     0.119 A 
ATOM     16  C   UNL     1      -9.198  -4.736  -8.020  1.00  0.00     0.092 A 
BRANCH  14  17
ATOM     17  O   UNL     1      -8.047  -5.685  -9.916  1.00  0.00    -0.508 OA
ATOM     18  H   UNL     1      -7.136  -5.947  -9.559  1.00  0.00     0.293 HD
ENDBRANCH  14  17
BRANCH  15  19
ATOM     19  O   UNL     1     -10.355  -3.816  -6.114  1.00  0.00    -0.508 OA
ATOM     20  H   UNL     1     -10.911  -4.603  -5.800  1.00  0.00     0.293 HD
ENDBRANCH  15  19
ENDBRANCH  10  11
ENDBRANCH   1  10
TORSDOF 6
ENDMDL
MODEL 7
REMARK VINA RESULT:    -6.726      1.440      6.728
REMARK INTER + INTRA:          -8.873
REMARK INTER:                  -8.342
REMARK INTRA:                  -0.531
REMARK UNBOUND:                -0.377
REMARK SMILES Oc1ccc(CCc2cc(O)cc(O)c2)cc1
REMARK SMILES IDX 6 1 5 2 4 3 3 4 2 5 16 6 17 7 1 8 7 10 8 11 15 12 9 13 13 14
REMARK SMILES IDX 10 15 12 16 14 17 11 19
REMARK H PARENT 1 9 14 18 11 20
REMARK Flexibility Score: inf
ROOT
ATOM      1  C   UNL     1     -10.682   0.933  -9.635  1.00  0.00     0.040 C 
ENDROOT
BRANCH   1   2
ATOM      2  C   UNL     1     -11.548   2.071  -9.165  1.00  0.00    -0.047 A 
ATOM      3  C   UNL     1     -10.979   3.159  -8.483  1.00  0.00     0.007 A 
ATOM      4  C   UNL     1     -11.788   4.201  -8.019  1.00  0.00     0.046 A 
ATOM      5  C   UNL     1     -13.172   4.160  -8.220  1.00  0.00     0.115 A 
ATOM      6  C   UNL     1     -12.938   2.027  -9.354  1.00  0.00     0.007 A 
ATOM      7  C   UNL     1     -13.746   3.069  -8.888  1.00  0.00     0.046 A 
BRANCH   5   8
ATOM      8  O   UNL     1     -13.966   5.204  -7.753  1.00  0.00    -0.508 OA
ATOM      9  H   UNL     1     -13.916   5.518  -6.790  1.00  0.00     0.293 HD
ENDBRANCH   5   8
ENDBRANCH   1   2
BRANCH   1  10
ATOM     10  C   UNL     1     -11.356   0.184 -10.788  1.00  0.00     0.040 C 
BRANCH  10  11
ATOM     11  C   UNL     1     -11.614  -1.249 -10.409  1.00  0.00    -0.040 A 
ATOM     12  C   UNL     1     -10.650  -1.975  -9.692  1.00  0.00     0.050 A 
ATOM     13  C   UNL     1     -12.796  -1.887 -10.817  1.00  0.00     0.050 A 
ATOM     14  C   UNL     1     -10.875  -3.321  -9.368  1.00  0.00     0.119 A 
ATOM     15  C   UNL     1     -13.023  -3.232 -10.492  1.00  0.00     0.119 A 
ATOM     16  C   UNL     1     -12.062  -3.943  -9.766  1.00  0.00     0.092 A 
BRANCH  14  17
ATOM     17  O   UNL     1      -9.926  -4.046  -8.651  1.00  0.00    -0.508 OA
ATOM     18  H   UNL     1      -8.943  -3.800  -8.673  1.00  0.00     0.293 HD
ENDBRANCH  14  17
BRANCH  15  19
ATOM     19  O   UNL     1     -14.196  -3.871 -10.888  1.00  0.00    -0.508 OA
ATOM     20  H   UNL     1     -14.181  -4.795 -11.303  1.00  0.00     0.293 HD
ENDBRANCH  15  19
ENDBRANCH  10  11
ENDBRANCH   1  10
TORSDOF 6
ENDMDL
MODEL 8
REMARK VINA RESULT:    -6.548      1.256      6.415
REMARK INTER + INTRA:          -8.648
REMARK INTER:                  -8.077
REMARK INTRA:                  -0.571
REMARK UNBOUND:                -0.377
REMARK SMILES Oc1ccc(CCc2cc(O)cc(O)c2)cc1
REMARK SMILES IDX 6 1 5 2 4 3 3 4 2 5 16 6 17 7 1 8 7 10 8 11 15 12 9 13 13 14
REMARK SMILES IDX 10 15 12 16 14 17 11 19
REMARK H PARENT 1 9 14 18 11 20
REMARK Flexibility Score: inf
ROOT
ATOM      1  C   UNL     1     -13.156   0.758 -10.493  1.00  0.00     0.040 C 
ENDROOT
BRANCH   1   2
ATOM      2  C   UNL     1     -12.984   1.869  -9.492  1.00  0.00    -0.047 A 
ATOM      3  C   UNL     1     -14.102   2.420  -8.846  1.00  0.00     0.007 A 
ATOM      4  C   UNL     1     -13.945   3.473  -7.940  1.00  0.00     0.046 A 
ATOM      5  C   UNL     1     -12.672   3.994  -7.681  1.00  0.00     0.115 A 
ATOM      6  C   UNL     1     -11.710   2.402  -9.239  1.00  0.00     0.007 A 
ATOM      7  C   UNL     1     -11.554   3.457  -8.333  1.00  0.00     0.046 A 
BRANCH   5   8
ATOM      8  O   UNL     1     -12.530   5.044  -6.776  1.00  0.00    -0.508 OA
ATOM      9  H   UNL     1     -13.289   5.323  -6.164  1.00  0.00     0.293 HD
ENDBRANCH   5   8
ENDBRANCH   1   2
BRANCH   1  10
ATOM     10  C   UNL     1     -11.794   0.282 -11.009  1.00  0.00     0.040 C 
BRANCH  10  11
ATOM     11  C   UNL     1     -11.507  -1.115 -10.531  1.00  0.00    -0.040 A 
ATOM     12  C   UNL     1     -12.485  -2.116 -10.643  1.00  0.00     0.050 A 
ATOM     13  C   UNL     1     -10.279  -1.416  -9.919  1.00  0.00     0.050 A 
ATOM     14  C   UNL     1     -12.230  -3.411 -10.168  1.00  0.00     0.119 A 
ATOM     15  C   UNL     1     -10.023  -2.710  -9.444  1.00  0.00     0.119 A 
ATOM     16  C   UNL     1     -11.000  -3.704  -9.573  1.00  0.00     0.092 A 
BRANCH  14  17
ATOM     17  O   UNL     1     -13.194  -4.411 -10.282  1.00  0.00    -0.508 OA
ATOM     18  H   UNL     1     -13.789  -4.482 -11.099  1.00  0.00     0.293 HD
ENDBRANCH  14  17
BRANCH  15  19
ATOM     19  O   UNL     1      -8.805  -3.018  -8.842  1.00  0.00    -0.508 OA
ATOM     20  H   UNL     1      -8.372  -2.390  -8.174  1.00  0.00     0.293 HD
ENDBRANCH  15  19
ENDBRANCH  10  11
ENDBRANCH   1  10
TORSDOF 6
ENDMDL
MODEL 9
REMARK VINA RESULT:    -5.968      1.435      2.010
REMARK INTER + INTRA:          -7.916
REMARK INTER:                  -7.373
REMARK INTRA:                  -0.543
REMARK UNBOUND:                -0.377
REMARK SMILES Oc1ccc(CCc2cc(O)cc(O)c2)cc1
REMARK SMILES IDX 6 1 5 2 4 3 3 4 2 5 16 6 17 7 1 8 7 10 8 11 15 12 9 13 13 14
REMARK SMILES IDX 10 15 12 16 14 17 11 19
REMARK H PARENT 1 9 14 18 11 20
REMARK Flexibility Score: inf
ROOT
ATOM      1  C   UNL     1     -11.839  -1.195 -10.424  1.00  0.00     0.040 C 
ENDROOT
BRANCH   1   2
ATOM      2  C   UNL     1     -10.906  -2.151  -9.731  1.00  0.00    -0.047 A 
ATOM      3  C   UNL     1     -10.586  -3.384 -10.323  1.00  0.00     0.007 A 
ATOM      4  C   UNL     1      -9.744  -4.285  -9.665  1.00  0.00     0.046 A 
ATOM      5  C   UNL     1      -9.223  -3.969  -8.405  1.00  0.00     0.115 A 
ATOM      6  C   UNL     1     -10.390  -1.843  -8.462  1.00  0.00     0.007 A 
ATOM      7  C   UNL     1      -9.549  -2.746  -7.804  1.00  0.00     0.046 A 
BRANCH   5   8
ATOM      8  O   UNL     1      -8.385  -4.876  -7.761  1.00  0.00    -0.508 OA
ATOM      9  H   UNL     1      -7.972  -4.667  -6.859  1.00  0.00     0.293 HD
ENDBRANCH   5   8
ENDBRANCH   1   2
BRANCH   1  10
ATOM     10  C   UNL     1     -11.132   0.132 -10.716  1.00  0.00     0.040 C 
BRANCH  10  11
ATOM     11  C   UNL     1     -11.763   1.251  -9.933  1.00  0.00    -0.040 A 
ATOM     12  C   UNL     1     -13.156   1.425  -9.946  1.00  0.00     0.050 A 
ATOM     13  C   UNL     1     -10.961   2.163  -9.229  1.00  0.00     0.050 A 
ATOM     14  C   UNL     1     -13.743   2.488  -9.243  1.00  0.00     0.119 A 
ATOM     15  C   UNL     1     -11.546   3.225  -8.526  1.00  0.00     0.119 A 
ATOM     16  C   UNL     1     -12.936   3.382  -8.534  1.00  0.00     0.092 A 
BRANCH  14  17
ATOM     17  O   UNL     1     -15.125   2.663  -9.246  1.00  0.00    -0.508 OA
ATOM     18  H   UNL     1     -15.682   2.492  -8.417  1.00  0.00     0.293 HD
ENDBRANCH  14  17
BRANCH  15  19
ATOM     19  O   UNL     1     -10.756   4.131  -7.820  1.00  0.00    -0.508 OA
ATOM     20  H   UNL     1      -9.931   3.831  -7.315  1.00  0.00     0.293 HD
ENDBRANCH  15  19
ENDBRANCH  10  11
ENDBRANCH   1  10
TORSDOF 6
ENDMDL
