MODEL 1
REMARK VINA RESULT:     1.816      0.000      0.000
REMARK INTER + INTRA:           2.283
REMARK INTER:                   2.771
REMARK INTRA:                  -0.488
REMARK UNBOUND:                -0.488
REMARK SMILES CCCCCCCCCCC(=O)[O-]
REMARK SMILES IDX 7 1 8 2 9 3 10 4 11 5 12 6 13 7 6 8 5 9 4 10 3 11 2 12 1 13
REMARK H PARENT
REMARK Flexibility Score: inf
ROOT
ATOM      1  C   UNL     1      -4.805 -13.104   6.490  1.00  0.00     0.000 C 
ENDROOT
BRANCH   1   2
ATOM      2  C   UNL     1      -4.345 -11.958   7.407  1.00  0.00     0.000 C 
BRANCH   2   3
ATOM      3  C   UNL     1      -3.090 -12.322   8.219  1.00  0.00     0.006 C 
BRANCH   3   4
ATOM      4  C   UNL     1      -2.772 -13.822   8.180  1.00  0.00     0.053 C 
BRANCH   4   5
ATOM      5  C   UNL     1      -1.534 -14.071   7.380  1.00  0.00     0.041 C 
ATOM      6  O   UNL     1      -1.618 -14.403   6.168  1.00  0.00    -0.550 OA
ATOM      7  O   UNL     1      -0.286 -13.984   7.984  1.00  0.00    -0.550 OA
ENDBRANCH   4   5
ENDBRANCH   3   4
ENDBRANCH   2   3
ENDBRANCH   1   2
BRANCH   1   8
ATOM      8  C   UNL     1      -6.227 -12.891   5.948  1.00  0.00     0.000 C 
BRANCH   8   9
ATOM      9  C   UNL     1      -7.103 -14.148   6.065  1.00  0.00    -0.000 C 
BRANCH   9  10
ATOM     10  C   UNL     1      -6.813 -14.900   7.369  1.00  0.00    -0.000 C 
BRANCH  10  11
ATOM     11  C   UNL     1      -6.242 -16.297   7.085  1.00  0.00    -0.000 C 
BRANCH  11  12
ATOM     12  C   UNL     1      -4.867 -16.244   6.400  1.00  0.00    -0.003 C 
ATOM     13  C   UNL     1      -3.803 -17.046   7.148  1.00  0.00     0.004 C 
ENDBRANCH  11  12
ENDBRANCH  10  11
ENDBRANCH   9  10
ENDBRANCH   8   9
ENDBRANCH   1   8
TORSDOF 9
ENDMDL
MODEL 2
REMARK VINA RESULT:     1.937      2.797      5.281
REMARK INTER + INTRA:           2.468
REMARK INTER:                   2.963
REMARK INTRA:                  -0.495
REMARK UNBOUND:                -0.488
REMARK SMILES CCCCCCCCCCC(=O)[O-]
REMARK SMILES IDX 7 1 8 2 9 3 10 4 11 5 12 6 13 7 6 8 5 9 4 10 3 11 2 12 1 13
REMARK H PARENT
REMARK Flexibility Score: inf
ROOT
ATOM      1  C   UNL     1      -3.354 -13.853   6.071  1.00  0.00     0.000 C 
ENDROOT
BRANCH   1   2
ATOM      2  C   UNL     1      -4.121 -12.935   7.039  1.00  0.00     0.000 C 
BRANCH   2   3
ATOM      3  C   UNL     1      -5.578 -12.705   6.603  1.00  0.00     0.006 C 
BRANCH   3   4
ATOM      4  C   UNL     1      -6.202 -13.942   5.944  1.00  0.00     0.053 C 
BRANCH   4   5
ATOM      5  C   UNL     1      -6.447 -15.008   6.964  1.00  0.00     0.041 C 
ATOM      6  O   UNL     1      -7.121 -14.753   7.997  1.00  0.00    -0.550 OA
ATOM      7  O   UNL     1      -5.893 -16.270   6.799  1.00  0.00    -0.550 OA
ENDBRANCH   4   5
ENDBRANCH   3   4
ENDBRANCH   2   3
ENDBRANCH   1   2
BRANCH   1   8
ATOM      8  C   UNL     1      -2.628 -14.999   6.794  1.00  0.00     0.000 C 
BRANCH   8   9
ATOM      9  C   UNL     1      -1.756 -14.508   7.960  1.00  0.00    -0.000 C 
BRANCH   9  10
ATOM     10  C   UNL     1      -0.516 -13.768   7.445  1.00  0.00    -0.000 C 
BRANCH  10  11
ATOM     11  C   UNL     1       0.508 -13.559   8.570  1.00  0.00    -0.000 C 
BRANCH  11  12
ATOM     12  C   UNL     1       1.310 -14.833   8.882  1.00  0.00    -0.003 C 
ATOM     13  C   UNL     1       1.526 -15.043  10.381  1.00  0.00     0.004 C 
ENDBRANCH  11  12
ENDBRANCH  10  11
ENDBRANCH   9  10
ENDBRANCH   8   9
ENDBRANCH   1   8
TORSDOF 9
ENDMDL
MODEL 3
REMARK VINA RESULT:     2.282      1.772      3.054
REMARK INTER + INTRA:           2.994
REMARK INTER:                   3.645
REMARK INTRA:                  -0.652
REMARK UNBOUND:                -0.488
REMARK SMILES CCCCCCCCCCC(=O)[O-]
REMARK SMILES IDX 7 1 8 2 9 3 10 4 11 5 12 6 13 7 6 8 5 9 4 10 3 11 2 12 1 13
REMARK H PARENT
REMARK Flexibility Score: inf
ROOT
ATOM      1  C   UNL     1      -3.038 -14.247   6.519  1.00  0.00     0.000 C 
ENDROOT
BRANCH   1   2
ATOM      2  C   UNL     1      -1.605 -14.725   6.811  1.00  0.00     0.000 C 
BRANCH   2   3
ATOM      3  C   UNL     1      -1.107 -14.280   8.197  1.00  0.00     0.006 C 
BRANCH   3   4
ATOM      4  C   UNL     1       0.344 -13.781   8.174  1.00  0.00     0.053 C 
BRANCH   4   5
ATOM      5  C   UNL     1       1.223 -14.698   8.962  1.00  0.00     0.041 C 
ATOM      6  O   UNL     1       1.982 -15.511   8.372  1.00  0.00    -0.550 OA
ATOM      7  O   UNL     1       1.170 -14.690  10.350  1.00  0.00    -0.550 OA
ENDBRANCH   4   5
ENDBRANCH   3   4
ENDBRANCH   2   3
ENDBRANCH   1   2
BRANCH   1   8
ATOM      8  C   UNL     1      -3.439 -13.030   7.367  1.00  0.00     0.000 C 
BRANCH   8   9
ATOM      9  C   UNL     1      -4.827 -12.483   7.003  1.00  0.00    -0.000 C 
BRANCH   9  10
ATOM     10  C   UNL     1      -5.463 -13.305   5.875  1.00  0.00    -0.000 C 
BRANCH  10  11
ATOM     11  C   UNL     1      -6.889 -13.738   6.246  1.00  0.00    -0.000 C 
BRANCH  11  12
ATOM     12  C   UNL     1      -6.913 -14.817   7.341  1.00  0.00    -0.003 C 
ATOM     13  C   UNL     1      -6.031 -16.018   7.004  1.00  0.00     0.004 C 
ENDBRANCH  11  12
ENDBRANCH  10  11
ENDBRANCH   9  10
ENDBRANCH   8   9
ENDBRANCH   1   8
TORSDOF 9
ENDMDL
MODEL 4
REMARK VINA RESULT:     2.802      2.297      4.936
REMARK INTER + INTRA:           3.787
REMARK INTER:                   4.364
REMARK INTRA:                  -0.577
REMARK UNBOUND:                -0.488
REMARK SMILES CCCCCCCCCCC(=O)[O-]
REMARK SMILES IDX 7 1 8 2 9 3 10 4 11 5 12 6 13 7 6 8 5 9 4 10 3 11 2 12 1 13
REMARK H PARENT
REMARK Flexibility Score: inf
ROOT
ATOM      1  C   UNL     1      -5.264 -16.880   6.863  1.00  0.00     0.000 C 
ENDROOT
BRANCH   1   2
ATOM      2  C   UNL     1      -6.667 -16.258   6.761  1.00  0.00     0.000 C 
BRANCH   2   3
ATOM      3  C   UNL     1      -6.690 -14.781   7.188  1.00  0.00     0.006 C 
BRANCH   3   4
ATOM      4  C   UNL     1      -7.089 -13.839   6.044  1.00  0.00     0.053 C 
BRANCH   4   5
ATOM      5  C   UNL     1      -6.424 -12.510   6.209  1.00  0.00     0.041 C 
ATOM      6  O   UNL     1      -5.243 -12.441   6.640  1.00  0.00    -0.550 OA
ATOM      7  O   UNL     1      -7.125 -11.343   5.933  1.00  0.00    -0.550 OA
ENDBRANCH   4   5
ENDBRANCH   3   4
ENDBRANCH   2   3
ENDBRANCH   1   2
BRANCH   1   8
ATOM      8  C   UNL     1      -4.161 -15.823   7.033  1.00  0.00     0.000 C 
BRANCH   8   9
ATOM      9  C   UNL     1      -2.789 -16.312   6.547  1.00  0.00    -0.000 C 
BRANCH   9  10
ATOM     10  C   UNL     1      -1.837 -15.133   6.308  1.00  0.00    -0.000 C 
BRANCH  10  11
ATOM     11  C   UNL     1      -2.315 -13.880   7.056  1.00  0.00    -0.000 C 
BRANCH  11  12
ATOM     12  C   UNL     1      -1.468 -13.579   8.303  1.00  0.00    -0.003 C 
ATOM     13  C   UNL     1      -0.011 -14.011   8.146  1.00  0.00     0.004 C 
ENDBRANCH  11  12
ENDBRANCH  10  11
ENDBRANCH   9  10
ENDBRANCH   8   9
ENDBRANCH   1   8
TORSDOF 9
ENDMDL
MODEL 5
REMARK VINA RESULT:     2.850      1.235      3.147
REMARK INTER + INTRA:           3.861
REMARK INTER:                   4.398
REMARK INTRA:                  -0.537
REMARK UNBOUND:                -0.488
REMARK SMILES CCCCCCCCCCC(=O)[O-]
REMARK SMILES IDX 7 1 8 2 9 3 10 4 11 5 12 6 13 7 6 8 5 9 4 10 3 11 2 12 1 13
REMARK H PARENT
REMARK Flexibility Score: inf
ROOT
ATOM      1  C   UNL     1      -3.530 -16.641   6.756  1.00  0.00     0.000 C 
ENDROOT
BRANCH   1   2
ATOM      2  C   UNL     1      -2.279 -15.903   6.249  1.00  0.00     0.000 C 
BRANCH   2   3
ATOM      3  C   UNL     1      -2.559 -14.427   5.918  1.00  0.00     0.006 C 
BRANCH   3   4
ATOM      4  C   UNL     1      -1.474 -13.484   6.455  1.00  0.00     0.053 C 
BRANCH   4   5
ATOM      5  C   UNL     1      -1.112 -13.852   7.859  1.00  0.00     0.041 C 
ATOM      6  O   UNL     1       0.093 -14.037   8.174  1.00  0.00    -0.550 OA
ATOM      7  O   UNL     1      -2.108 -14.037   8.808  1.00  0.00    -0.550 OA
ENDBRANCH   4   5
ENDBRANCH   3   4
ENDBRANCH   2   3
ENDBRANCH   1   2
BRANCH   1   8
ATOM      8  C   UNL     1      -4.570 -15.688   7.366  1.00  0.00     0.000 C 
BRANCH   8   9
ATOM      9  C   UNL     1      -5.996 -15.966   6.867  1.00  0.00    -0.000 C 
BRANCH   9  10
ATOM     10  C   UNL     1      -6.889 -14.730   7.038  1.00  0.00    -0.000 C 
BRANCH  10  11
ATOM     11  C   UNL     1      -6.696 -13.746   5.875  1.00  0.00    -0.000 C 
BRANCH  11  12
ATOM     12  C   UNL     1      -6.298 -12.340   6.351  1.00  0.00    -0.003 C 
ATOM     13  C   UNL     1      -4.922 -12.309   7.016  1.00  0.00     0.004 C 
ENDBRANCH  11  12
ENDBRANCH  10  11
ENDBRANCH   9  10
ENDBRANCH   8   9
ENDBRANCH   1   8
TORSDOF 9
ENDMDL
MODEL 6
REMARK VINA RESULT:     3.309      2.620      5.205
REMARK INTER + INTRA:           4.562
REMARK INTER:                   4.902
REMARK INTRA:                  -0.340
REMARK UNBOUND:                -0.488
REMARK SMILES CCCCCCCCCCC(=O)[O-]
REMARK SMILES IDX 7 1 8 2 9 3 10 4 11 5 12 6 13 7 6 8 5 9 4 10 3 11 2 12 1 13
REMARK H PARENT
REMARK Flexibility Score: inf
ROOT
ATOM      1  C   UNL     1      -2.882 -16.270   7.233  1.00  0.00     0.000 C 
ENDROOT
BRANCH   1   2
ATOM      2  C   UNL     1      -4.098 -16.879   6.514  1.00  0.00     0.000 C 
BRANCH   2   3
ATOM      3  C   UNL     1      -5.407 -16.141   6.843  1.00  0.00     0.006 C 
BRANCH   3   4
ATOM      4  C   UNL     1      -5.674 -14.960   5.901  1.00  0.00     0.053 C 
BRANCH   4   5
ATOM      5  C   UNL     1      -6.613 -13.987   6.539  1.00  0.00     0.041 C 
ATOM      6  O   UNL     1      -7.125 -14.242   7.661  1.00  0.00    -0.550 OA
ATOM      7  O   UNL     1      -6.961 -12.818   5.875  1.00  0.00    -0.550 OA
ENDBRANCH   4   5
ENDBRANCH   3   4
ENDBRANCH   2   3
ENDBRANCH   1   2
BRANCH   1   8
ATOM      8  C   UNL     1      -2.253 -15.108   6.447  1.00  0.00     0.000 C 
BRANCH   8   9
ATOM      9  C   UNL     1      -1.143 -14.393   7.231  1.00  0.00    -0.000 C 
BRANCH   9  10
ATOM     10  C   UNL     1      -1.729 -13.326   8.165  1.00  0.00    -0.000 C 
BRANCH  10  11
ATOM     11  C   UNL     1      -3.264 -13.367   8.154  1.00  0.00    -0.000 C 
BRANCH  11  12
ATOM     12  C   UNL     1      -3.888 -12.023   7.745  1.00  0.00    -0.003 C 
ATOM     13  C   UNL     1      -3.347 -10.849   8.561  1.00  0.00     0.004 C 
ENDBRANCH  11  12
ENDBRANCH  10  11
ENDBRANCH   9  10
ENDBRANCH   8   9
ENDBRANCH   1   8
TORSDOF 9
ENDMDL
MODEL 7
REMARK VINA RESULT:     4.040      3.289      6.019
REMARK INTER + INTRA:           5.677
REMARK INTER:                   6.229
REMARK INTRA:                  -0.551
REMARK UNBOUND:                -0.488
REMARK SMILES CCCCCCCCCCC(=O)[O-]
REMARK SMILES IDX 7 1 8 2 9 3 10 4 11 5 12 6 13 7 6 8 5 9 4 10 3 11 2 12 1 13
REMARK H PARENT
REMARK Flexibility Score: inf
ROOT
ATOM      1  C   UNL     1      -2.547 -14.228   8.089  1.00  0.00     0.000 C 
ENDROOT
BRANCH   1   2
ATOM      2  C   UNL     1      -2.518 -14.058   6.560  1.00  0.00     0.000 C 
BRANCH   2   3
ATOM      3  C   UNL     1      -3.913 -13.786   5.971  1.00  0.00     0.006 C 
BRANCH   3   4
ATOM      4  C   UNL     1      -4.952 -13.438   7.045  1.00  0.00     0.053 C 
BRANCH   4   5
ATOM      5  C   UNL     1      -6.312 -13.891   6.620  1.00  0.00     0.041 C 
ATOM      6  O   UNL     1      -6.709 -15.053   6.898  1.00  0.00    -0.550 OA
ATOM      7  O   UNL     1      -7.125 -13.047   5.875  1.00  0.00    -0.550 OA
ENDBRANCH   4   5
ENDBRANCH   3   4
ENDBRANCH   2   3
ENDBRANCH   1   2
BRANCH   1   8
ATOM      8  C   UNL     1      -1.139 -14.280   8.703  1.00  0.00     0.000 C 
BRANCH   8   9
ATOM      9  C   UNL     1      -0.071 -13.645   7.799  1.00  0.00    -0.000 C 
BRANCH   9  10
ATOM     10  C   UNL     1       1.316 -13.720   8.449  1.00  0.00    -0.000 C 
BRANCH  10  11
ATOM     11  C   UNL     1       1.578 -15.117   9.029  1.00  0.00    -0.000 C 
BRANCH  11  12
ATOM     12  C   UNL     1       2.166 -15.066  10.449  1.00  0.00    -0.003 C 
ATOM     13  C   UNL     1       1.092 -15.133  11.535  1.00  0.00     0.004 C 
ENDBRANCH  11  12
ENDBRANCH  10  11
ENDBRANCH   9  10
ENDBRANCH   8   9
ENDBRANCH   1   8
TORSDOF 9
ENDMDL
MODEL 8
REMARK VINA RESULT:     4.765     15.242     16.818
REMARK INTER + INTRA:           6.783
REMARK INTER:                   7.218
REMARK INTRA:                  -0.435
REMARK UNBOUND:                -0.488
REMARK SMILES CCCCCCCCCCC(=O)[O-]
REMARK SMILES IDX 7 1 8 2 9 3 10 4 11 5 12 6 13 7 6 8 5 9 4 10 3 11 2 12 1 13
REMARK H PARENT
REMARK Flexibility Score: inf
ROOT
ATOM      1  C   UNL     1      -0.976  -8.033  21.646  1.00  0.00     0.000 C 
ENDROOT
BRANCH   1   2
ATOM      2  C   UNL     1      -1.486  -6.637  22.044  1.00  0.00     0.000 C 
BRANCH   2   3
ATOM      3  C   UNL     1      -1.728  -6.507  23.557  1.00  0.00     0.006 C 
BRANCH   3   4
ATOM      4  C   UNL     1      -2.079  -5.075  23.980  1.00  0.00     0.053 C 
BRANCH   4   5
ATOM      5  C   UNL     1      -3.333  -5.065  24.795  1.00  0.00     0.041 C 
ATOM      6  O   UNL     1      -3.342  -4.536  25.938  1.00  0.00    -0.550 OA
ATOM      7  O   UNL     1      -4.480  -5.681  24.313  1.00  0.00    -0.550 OA
ENDBRANCH   4   5
ENDBRANCH   3   4
ENDBRANCH   2   3
ENDBRANCH   1   2
BRANCH   1   8
ATOM      8  C   UNL     1      -1.244  -8.361  20.169  1.00  0.00     0.000 C 
BRANCH   8   9
ATOM      9  C   UNL     1      -2.743  -8.424  19.836  1.00  0.00    -0.000 C 
BRANCH   9  10
ATOM     10  C   UNL     1      -3.398  -9.651  20.482  1.00  0.00    -0.000 C 
BRANCH  10  11
ATOM     11  C   UNL     1      -3.409 -10.843  19.514  1.00  0.00    -0.000 C 
BRANCH  11  12
ATOM     12  C   UNL     1      -4.375 -11.954  19.956  1.00  0.00    -0.003 C 
ATOM     13  C   UNL     1      -4.758 -11.850  21.432  1.00  0.00     0.004 C 
ENDBRANCH  11  12
ENDBRANCH  10  11
ENDBRANCH   9  10
ENDBRANCH   8   9
ENDBRANCH   1   8
TORSDOF 9
ENDMDL
