MODEL 1
REMARK VINA RESULT:    -3.680      0.000      0.000
REMARK INTER + INTRA:          -4.432
REMARK INTER:                  -4.325
REMARK INTRA:                  -0.107
REMARK UNBOUND:                -0.107
REMARK SMILES O=C([O-])CCC(=O)[O-]
REMARK SMILES IDX 4 1 2 2 1 3 3 4 5 5 6 6 7 7 8 8
REMARK H PARENT
REMARK Flexibility Score: inf
ROOT
ATOM      1  C   UNL     1      19.354   6.658 -12.243  1.00  0.00     0.059 C 
ENDROOT
BRANCH   1   2
ATOM      2  C   UNL     1      18.607   6.423 -10.965  1.00  0.00     0.042 C 
ATOM      3  O   UNL     1      17.585   5.687 -10.956  1.00  0.00    -0.550 OA
ATOM      4  O   UNL     1      19.015   7.049  -9.794  1.00  0.00    -0.550 OA
ENDBRANCH   1   2
BRANCH   1   5
ATOM      5  C   UNL     1      20.316   5.507 -12.555  1.00  0.00     0.059 C 
BRANCH   5   6
ATOM      6  C   UNL     1      21.735   5.873 -12.241  1.00  0.00     0.042 C 
ATOM      7  O   UNL     1      22.679   5.131 -12.621  1.00  0.00    -0.550 OA
ATOM      8  O   UNL     1      22.011   7.010 -11.493  1.00  0.00    -0.550 OA
ENDBRANCH   5   6
ENDBRANCH   1   5
TORSDOF 3
ENDMDL
MODEL 2
REMARK VINA RESULT:    -3.650      0.118      3.803
REMARK INTER + INTRA:          -4.398
REMARK INTER:                  -4.297
REMARK INTRA:                  -0.101
REMARK UNBOUND:                -0.107
REMARK SMILES O=C([O-])CCC(=O)[O-]
REMARK SMILES IDX 4 1 2 2 1 3 3 4 5 5 6 6 7 7 8 8
REMARK H PARENT
REMARK Flexibility Score: inf
ROOT
ATOM      1  C   UNL     1      20.337   5.604 -12.585  1.00  0.00     0.059 C 
ENDROOT
BRANCH   1   2
ATOM      2  C   UNL     1      21.748   5.987 -12.257  1.00  0.00     0.042 C 
ATOM      3  O   UNL     1      22.706   5.268 -12.648  1.00  0.00    -0.550 OA
ATOM      4  O   UNL     1      22.003   7.114 -11.487  1.00  0.00    -0.550 OA
ENDBRANCH   1   2
BRANCH   1   5
ATOM      5  C   UNL     1      19.358   6.744 -12.283  1.00  0.00     0.059 C 
BRANCH   5   6
ATOM      6  C   UNL     1      18.632   6.521 -10.990  1.00  0.00     0.042 C 
ATOM      7  O   UNL     1      18.997   7.125  -9.948  1.00  0.00    -0.550 OA
ATOM      8  O   UNL     1      17.580   5.616 -10.930  1.00  0.00    -0.550 OA
ENDBRANCH   5   6
ENDBRANCH   1   5
TORSDOF 3
ENDMDL
MODEL 3
REMARK VINA RESULT:    -3.614      1.925      2.699
REMARK INTER + INTRA:          -4.355
REMARK INTER:                  -4.278
REMARK INTRA:                  -0.077
REMARK UNBOUND:                -0.107
REMARK SMILES O=C([O-])CCC(=O)[O-]
REMARK SMILES IDX 4 1 2 2 1 3 3 4 5 5 6 6 7 7 8 8
REMARK H PARENT
REMARK Flexibility Score: inf
ROOT
ATOM      1  C   UNL     1      17.776   5.685 -11.039  1.00  0.00     0.059 C 
ENDROOT
BRANCH   1   2
ATOM      2  C   UNL     1      16.881   4.527 -10.716  1.00  0.00     0.042 C 
ATOM      3  O   UNL     1      17.170   3.371 -11.123  1.00  0.00    -0.550 OA
ATOM      4  O   UNL     1      15.707   4.732 -10.002  1.00  0.00    -0.550 OA
ENDBRANCH   1   2
BRANCH   1   5
ATOM      5  C   UNL     1      19.253   5.331 -10.837  1.00  0.00     0.059 C 
BRANCH   5   6
ATOM      6  C   UNL     1      20.079   5.703 -12.031  1.00  0.00     0.042 C 
ATOM      7  O   UNL     1      20.680   6.809 -12.065  1.00  0.00    -0.550 OA
ATOM      8  O   UNL     1      20.152   4.846 -13.121  1.00  0.00    -0.550 OA
ENDBRANCH   5   6
ENDBRANCH   1   5
TORSDOF 3
ENDMDL
MODEL 4
REMARK VINA RESULT:    -3.587     11.708     13.306
REMARK INTER + INTRA:          -4.323
REMARK INTER:                  -4.202
REMARK INTRA:                  -0.122
REMARK UNBOUND:                -0.107
REMARK SMILES O=C([O-])CCC(=O)[O-]
REMARK SMILES IDX 4 1 2 2 1 3 3 4 5 5 6 6 7 7 8 8
REMARK H PARENT
REMARK Flexibility Score: inf
ROOT
ATOM      1  C   UNL     1      24.293  -2.490 -19.734  1.00  0.00     0.059 C 
ENDROOT
BRANCH   1   2
ATOM      2  C   UNL     1      24.412  -1.977 -18.331  1.00  0.00     0.042 C 
ATOM      3  O   UNL     1      25.024  -2.652 -17.461  1.00  0.00    -0.550 OA
ATOM      4  O   UNL     1      23.814  -0.775 -17.975  1.00  0.00    -0.550 OA
ENDBRANCH   1   2
BRANCH   1   5
ATOM      5  C   UNL     1      25.653  -2.916 -20.298  1.00  0.00     0.059 C 
BRANCH   5   6
ATOM      6  C   UNL     1      25.725  -4.398 -20.507  1.00  0.00     0.042 C 
ATOM      7  O   UNL     1      25.175  -5.181 -19.688  1.00  0.00    -0.550 OA
ATOM      8  O   UNL     1      26.435  -4.915 -21.583  1.00  0.00    -0.550 OA
ENDBRANCH   5   6
ENDBRANCH   1   5
TORSDOF 3
ENDMDL
MODEL 5
REMARK VINA RESULT:    -3.583     11.756     13.636
REMARK INTER + INTRA:          -4.319
REMARK INTER:                  -4.199
REMARK INTRA:                  -0.120
REMARK UNBOUND:                -0.107
REMARK SMILES O=C([O-])CCC(=O)[O-]
REMARK SMILES IDX 4 1 2 2 1 3 3 4 5 5 6 6 7 7 8 8
REMARK H PARENT
REMARK Flexibility Score: inf
ROOT
ATOM      1  C   UNL     1      25.795  -2.978 -20.219  1.00  0.00     0.059 C 
ENDROOT
BRANCH   1   2
ATOM      2  C   UNL     1      25.775  -4.450 -20.498  1.00  0.00     0.042 C 
ATOM      3  O   UNL     1      25.173  -5.233 -19.717  1.00  0.00    -0.550 OA
ATOM      4  O   UNL     1      26.455  -4.960 -21.596  1.00  0.00    -0.550 OA
ENDBRANCH   1   2
BRANCH   1   5
ATOM      5  C   UNL     1      24.432  -2.476 -19.729  1.00  0.00     0.059 C 
BRANCH   5   6
ATOM      6  C   UNL     1      24.484  -2.043 -18.296  1.00  0.00     0.042 C 
ATOM      7  O   UNL     1      25.048  -2.769 -17.435  1.00  0.00    -0.550 OA
ATOM      8  O   UNL     1      23.873  -0.859 -17.904  1.00  0.00    -0.550 OA
ENDBRANCH   5   6
ENDBRANCH   1   5
TORSDOF 3
ENDMDL
MODEL 6
REMARK VINA RESULT:    -3.569      1.997      4.060
REMARK INTER + INTRA:          -4.302
REMARK INTER:                  -4.270
REMARK INTRA:                  -0.032
REMARK UNBOUND:                -0.107
REMARK SMILES O=C([O-])CCC(=O)[O-]
REMARK SMILES IDX 4 1 2 2 1 3 3 4 5 5 6 6 7 7 8 8
REMARK H PARENT
REMARK Flexibility Score: inf
ROOT
ATOM      1  C   UNL     1      18.391   6.368 -11.045  1.00  0.00     0.059 C 
ENDROOT
BRANCH   1   2
ATOM      2  C   UNL     1      19.527   6.852 -11.894  1.00  0.00     0.042 C 
ATOM      3  O   UNL     1      19.337   7.125 -13.108  1.00  0.00    -0.550 OA
ATOM      4  O   UNL     1      20.802   6.961 -11.354  1.00  0.00    -0.550 OA
ENDBRANCH   1   2
BRANCH   1   5
ATOM      5  C   UNL     1      18.515   4.873 -10.731  1.00  0.00     0.059 C 
BRANCH   5   6
ATOM      6  C   UNL     1      17.182   4.189 -10.760  1.00  0.00     0.042 C 
ATOM      7  O   UNL     1      17.094   2.989 -11.129  1.00  0.00    -0.550 OA
ATOM      8  O   UNL     1      16.033   4.891 -10.418  1.00  0.00    -0.550 OA
ENDBRANCH   5   6
ENDBRANCH   1   5
TORSDOF 3
ENDMDL
MODEL 7
REMARK VINA RESULT:    -3.530      1.650      2.358
REMARK INTER + INTRA:          -4.257
REMARK INTER:                  -4.161
REMARK INTRA:                  -0.095
REMARK UNBOUND:                -0.107
REMARK SMILES O=C([O-])CCC(=O)[O-]
REMARK SMILES IDX 4 1 2 2 1 3 3 4 5 5 6 6 7 7 8 8
REMARK H PARENT
REMARK Flexibility Score: inf
ROOT
ATOM      1  C   UNL     1      18.154   6.034 -10.828  1.00  0.00     0.059 C 
ENDROOT
BRANCH   1   2
ATOM      2  C   UNL     1      17.335   4.782 -10.749  1.00  0.00     0.042 C 
ATOM      3  O   UNL     1      17.833   3.678 -11.095  1.00  0.00    -0.550 OA
ATOM      4  O   UNL     1      16.012   4.840 -10.333  1.00  0.00    -0.550 OA
ENDBRANCH   1   2
BRANCH   1   5
ATOM      5  C   UNL     1      19.486   5.795 -11.548  1.00  0.00     0.059 C 
BRANCH   5   6
ATOM      6  C   UNL     1      20.655   6.025 -10.639  1.00  0.00     0.042 C 
ATOM      7  O   UNL     1      21.808   6.187 -11.119  1.00  0.00    -0.550 OA
ATOM      8  O   UNL     1      20.477   6.021  -9.262  1.00  0.00    -0.550 OA
ENDBRANCH   5   6
ENDBRANCH   1   5
TORSDOF 3
ENDMDL
MODEL 8
REMARK VINA RESULT:    -3.511      1.995      3.138
REMARK INTER + INTRA:          -4.234
REMARK INTER:                  -4.117
REMARK INTRA:                  -0.117
REMARK UNBOUND:                -0.107
REMARK SMILES O=C([O-])CCC(=O)[O-]
REMARK SMILES IDX 4 1 2 2 1 3 3 4 5 5 6 6 7 7 8 8
REMARK H PARENT
REMARK Flexibility Score: inf
ROOT
ATOM      1  C   UNL     1      21.766   5.828 -12.044  1.00  0.00     0.059 C 
ENDROOT
BRANCH   1   2
ATOM      2  C   UNL     1      20.519   5.583 -12.838  1.00  0.00     0.042 C 
ATOM      3  O   UNL     1      20.314   4.455 -13.360  1.00  0.00    -0.550 OA
ATOM      4  O   UNL     1      19.606   6.610 -13.035  1.00  0.00    -0.550 OA
ENDBRANCH   1   2
BRANCH   1   5
ATOM      5  C   UNL     1      21.557   6.915 -10.984  1.00  0.00     0.059 C 
BRANCH   5   6
ATOM      6  C   UNL     1      20.761   6.408  -9.820  1.00  0.00     0.042 C 
ATOM      7  O   UNL     1      21.293   5.641  -8.976  1.00  0.00    -0.550 OA
ATOM      8  O   UNL     1      19.421   6.751  -9.692  1.00  0.00    -0.550 OA
ENDBRANCH   5   6
ENDBRANCH   1   5
TORSDOF 3
ENDMDL
MODEL 9
REMARK VINA RESULT:    -3.358      1.645      2.208
REMARK INTER + INTRA:          -4.054
REMARK INTER:                  -3.983
REMARK INTRA:                  -0.071
REMARK UNBOUND:                -0.107
REMARK SMILES O=C([O-])CCC(=O)[O-]
REMARK SMILES IDX 4 1 2 2 1 3 3 4 5 5 6 6 7 7 8 8
REMARK H PARENT
REMARK Flexibility Score: inf
ROOT
ATOM      1  C   UNL     1      20.903   6.791 -11.337  1.00  0.00     0.059 C 
ENDROOT
BRANCH   1   2
ATOM      2  C   UNL     1      20.257   6.518 -10.012  1.00  0.00     0.042 C 
ATOM      3  O   UNL     1      20.841   5.799  -9.160  1.00  0.00    -0.550 OA
ATOM      4  O   UNL     1      18.993   7.024  -9.736  1.00  0.00    -0.550 OA
ENDBRANCH   1   2
BRANCH   1   5
ATOM      5  C   UNL     1      20.101   6.183 -12.493  1.00  0.00     0.059 C 
BRANCH   5   6
ATOM      6  C   UNL     1      20.800   4.998 -13.087  1.00  0.00     0.042 C 
ATOM      7  O   UNL     1      20.138   4.098 -13.666  1.00  0.00    -0.550 OA
ATOM      8  O   UNL     1      22.177   4.869 -12.963  1.00  0.00    -0.550 OA
ENDBRANCH   5   6
ENDBRANCH   1   5
TORSDOF 3
ENDMDL
