MODEL 1
REMARK VINA RESULT:    -4.330      0.000      0.000
REMARK INTER + INTRA:          -7.011
REMARK INTER:                  -6.608
REMARK INTRA:                  -0.403
REMARK UNBOUND:                -0.403
REMARK SMILES CCCCCCCCCCC(=O)[O-]
REMARK SMILES IDX 7 1 8 2 9 3 10 4 11 5 12 6 13 7 6 8 5 9 4 10 3 11 2 12 1 13
REMARK H PARENT
REMARK Flexibility Score: inf
ROOT
ATOM      1  C   UNL     1      20.809   3.542   8.253  1.00  0.00     0.000 C 
ENDROOT
BRANCH   1   2
ATOM      2  C   UNL     1      19.295   3.285   8.263  1.00  0.00     0.000 C 
BRANCH   2   3
ATOM      3  C   UNL     1      18.968   1.956   8.961  1.00  0.00     0.006 C 
BRANCH   3   4
ATOM      4  C   UNL     1      17.595   1.982   9.645  1.00  0.00     0.053 C 
BRANCH   4   5
ATOM      5  C   UNL     1      17.592   1.186  10.914  1.00  0.00     0.041 C 
ATOM      6  O   UNL     1      18.344   0.183  11.035  1.00  0.00    -0.550 OA
ATOM      7  O   UNL     1      16.736   1.533  11.951  1.00  0.00    -0.550 OA
ENDBRANCH   4   5
ENDBRANCH   3   4
ENDBRANCH   2   3
ENDBRANCH   1   2
BRANCH   1   8
ATOM      8  C   UNL     1      21.165   5.033   8.122  1.00  0.00     0.000 C 
BRANCH   8   9
ATOM      9  C   UNL     1      22.097   5.380   6.946  1.00  0.00    -0.000 C 
BRANCH   9  10
ATOM     10  C   UNL     1      23.392   6.077   7.392  1.00  0.00    -0.000 C 
BRANCH  10  11
ATOM     11  C   UNL     1      24.531   5.061   7.559  1.00  0.00    -0.000 C 
BRANCH  11  12
ATOM     12  C   UNL     1      24.436   3.899   6.558  1.00  0.00    -0.003 C 
ATOM     13  C   UNL     1      25.533   3.942   5.495  1.00  0.00     0.004 C 
ENDBRANCH  11  12
ENDBRANCH  10  11
ENDBRANCH   9  10
ENDBRANCH   8   9
ENDBRANCH   1   8
TORSDOF 9
ENDMDL
MODEL 2
REMARK VINA RESULT:    -4.278      3.424      7.191
REMARK INTER + INTRA:          -6.932
REMARK INTER:                  -6.511
REMARK INTRA:                  -0.421
REMARK UNBOUND:                -0.403
REMARK SMILES CCCCCCCCCCC(=O)[O-]
REMARK SMILES IDX 7 1 8 2 9 3 10 4 11 5 12 6 13 7 6 8 5 9 4 10 3 11 2 12 1 13
REMARK H PARENT
REMARK Flexibility Score: inf
ROOT
ATOM      1  C   UNL     1      21.217   5.044   8.188  1.00  0.00     0.000 C 
ENDROOT
BRANCH   1   2
ATOM      2  C   UNL     1      21.877   5.443   6.860  1.00  0.00     0.000 C 
BRANCH   2   3
ATOM      3  C   UNL     1      23.194   6.194   7.106  1.00  0.00     0.006 C 
BRANCH   3   4
ATOM      4  C   UNL     1      24.248   5.312   7.788  1.00  0.00     0.053 C 
BRANCH   4   5
ATOM      5  C   UNL     1      24.655   4.163   6.917  1.00  0.00     0.041 C 
ATOM      6  O   UNL     1      25.107   4.372   5.761  1.00  0.00    -0.550 OA
ATOM      7  O   UNL     1      24.506   2.859   7.371  1.00  0.00    -0.550 OA
ENDBRANCH   4   5
ENDBRANCH   3   4
ENDBRANCH   2   3
ENDBRANCH   1   2
BRANCH   1   8
ATOM      8  C   UNL     1      20.886   3.543   8.268  1.00  0.00     0.000 C 
BRANCH   8   9
ATOM      9  C   UNL     1      19.383   3.206   8.274  1.00  0.00    -0.000 C 
BRANCH   9  10
ATOM     10  C   UNL     1      19.066   1.893   9.006  1.00  0.00    -0.000 C 
BRANCH  10  11
ATOM     11  C   UNL     1      17.687   1.961   9.680  1.00  0.00    -0.000 C 
BRANCH  11  12
ATOM     12  C   UNL     1      17.558   0.982  10.858  1.00  0.00    -0.003 C 
ATOM     13  C   UNL     1      17.192   1.677  12.168  1.00  0.00     0.004 C 
ENDBRANCH  11  12
ENDBRANCH  10  11
ENDBRANCH   9  10
ENDBRANCH   8   9
ENDBRANCH   1   8
TORSDOF 9
ENDMDL
MODEL 3
REMARK VINA RESULT:    -4.169     12.384     14.424
REMARK INTER + INTRA:          -6.764
REMARK INTER:                  -5.866
REMARK INTRA:                  -0.898
REMARK UNBOUND:                -0.403
REMARK SMILES CCCCCCCCCCC(=O)[O-]
REMARK SMILES IDX 7 1 8 2 9 3 10 4 11 5 12 6 13 7 6 8 5 9 4 10 3 11 2 12 1 13
REMARK H PARENT
REMARK Flexibility Score: inf
ROOT
ATOM      1  C   UNL     1      24.944  -3.756  18.371  1.00  0.00     0.000 C 
ENDROOT
BRANCH   1   2
ATOM      2  C   UNL     1      24.668  -4.927  19.326  1.00  0.00     0.000 C 
BRANCH   2   3
ATOM      3  C   UNL     1      24.810  -6.272  18.600  1.00  0.00     0.006 C 
BRANCH   3   4
ATOM      4  C   UNL     1      23.683  -7.249  18.961  1.00  0.00     0.053 C 
BRANCH   4   5
ATOM      5  C   UNL     1      23.878  -8.585  18.312  1.00  0.00     0.041 C 
ATOM      6  O   UNL     1      23.188  -9.574  18.675  1.00  0.00    -0.550 OA
ATOM      7  O   UNL     1      24.846  -8.746  17.329  1.00  0.00    -0.550 OA
ENDBRANCH   4   5
ENDBRANCH   3   4
ENDBRANCH   2   3
ENDBRANCH   1   2
BRANCH   1   8
ATOM      8  C   UNL     1      23.969  -3.707  17.182  1.00  0.00     0.000 C 
BRANCH   8   9
ATOM      9  C   UNL     1      22.496  -3.984  17.535  1.00  0.00    -0.000 C 
BRANCH   9  10
ATOM     10  C   UNL     1      21.711  -2.708  17.880  1.00  0.00    -0.000 C 
BRANCH  10  11
ATOM     11  C   UNL     1      20.744  -2.959  19.046  1.00  0.00    -0.000 C 
BRANCH  11  12
ATOM     12  C   UNL     1      21.164  -4.156  19.914  1.00  0.00    -0.003 C 
ATOM     13  C   UNL     1      21.762  -3.735  21.255  1.00  0.00     0.004 C 
ENDBRANCH  11  12
ENDBRANCH  10  11
ENDBRANCH   9  10
ENDBRANCH   8   9
ENDBRANCH   1   8
TORSDOF 9
ENDMDL
MODEL 4
REMARK VINA RESULT:    -4.130     13.477     15.164
REMARK INTER + INTRA:          -6.705
REMARK INTER:                  -5.693
REMARK INTRA:                  -1.013
REMARK UNBOUND:                -0.403
REMARK SMILES CCCCCCCCCCC(=O)[O-]
REMARK SMILES IDX 7 1 8 2 9 3 10 4 11 5 12 6 13 7 6 8 5 9 4 10 3 11 2 12 1 13
REMARK H PARENT
REMARK Flexibility Score: inf
ROOT
ATOM      1  C   UNL     1      27.170  -5.722  19.124  1.00  0.00     0.000 C 
ENDROOT
BRANCH   1   2
ATOM      2  C   UNL     1      27.284  -6.736  17.976  1.00  0.00     0.000 C 
BRANCH   2   3
ATOM      3  C   UNL     1      25.903  -7.286  17.589  1.00  0.00     0.006 C 
BRANCH   3   4
ATOM      4  C   UNL     1      25.044  -7.614  18.818  1.00  0.00     0.053 C 
BRANCH   4   5
ATOM      5  C   UNL     1      23.841  -8.427  18.451  1.00  0.00     0.041 C 
ATOM      6  O   UNL     1      22.810  -8.395  19.173  1.00  0.00    -0.550 OA
ATOM      7  O   UNL     1      23.870  -9.245  17.329  1.00  0.00    -0.550 OA
ENDBRANCH   4   5
ENDBRANCH   3   4
ENDBRANCH   2   3
ENDBRANCH   1   2
BRANCH   1   8
ATOM      8  C   UNL     1      26.742  -4.322  18.649  1.00  0.00     0.000 C 
BRANCH   8   9
ATOM      9  C   UNL     1      25.436  -3.794  19.272  1.00  0.00    -0.000 C 
BRANCH   9  10
ATOM     10  C   UNL     1      24.248  -3.833  18.298  1.00  0.00    -0.000 C 
BRANCH  10  11
ATOM     11  C   UNL     1      23.043  -4.544  18.932  1.00  0.00    -0.000 C 
BRANCH  11  12
ATOM     12  C   UNL     1      23.107  -4.556  20.467  1.00  0.00    -0.003 C 
ATOM     13  C   UNL     1      21.921  -3.842  21.115  1.00  0.00     0.004 C 
ENDBRANCH  11  12
ENDBRANCH  10  11
ENDBRANCH   9  10
ENDBRANCH   8   9
ENDBRANCH   1   8
TORSDOF 9
ENDMDL
MODEL 5
REMARK VINA RESULT:    -4.116     10.357     12.615
REMARK INTER + INTRA:          -6.683
REMARK INTER:                  -6.002
REMARK INTRA:                  -0.682
REMARK UNBOUND:                -0.403
REMARK SMILES CCCCCCCCCCC(=O)[O-]
REMARK SMILES IDX 7 1 8 2 9 3 10 4 11 5 12 6 13 7 6 8 5 9 4 10 3 11 2 12 1 13
REMARK H PARENT
REMARK Flexibility Score: inf
ROOT
ATOM      1  C   UNL     1      24.798  -3.749  18.247  1.00  0.00     0.000 C 
ENDROOT
BRANCH   1   2
ATOM      2  C   UNL     1      24.576  -5.259  18.421  1.00  0.00     0.000 C 
BRANCH   2   3
ATOM      3  C   UNL     1      23.657  -5.544  19.618  1.00  0.00     0.006 C 
BRANCH   3   4
ATOM      4  C   UNL     1      23.302  -4.269  20.395  1.00  0.00     0.053 C 
BRANCH   4   5
ATOM      5  C   UNL     1      21.822  -4.121  20.570  1.00  0.00     0.041 C 
ATOM      6  O   UNL     1      21.314  -4.136  21.722  1.00  0.00    -0.550 OA
ATOM      7  O   UNL     1      20.998  -4.000  19.458  1.00  0.00    -0.550 OA
ENDBRANCH   4   5
ENDBRANCH   3   4
ENDBRANCH   2   3
ENDBRANCH   1   2
BRANCH   1   8
ATOM      8  C   UNL     1      24.340  -3.228  16.873  1.00  0.00     0.000 C 
BRANCH   8   9
ATOM      9  C   UNL     1      22.817  -3.231  16.649  1.00  0.00    -0.000 C 
BRANCH   9  10
ATOM     10  C   UNL     1      22.367  -4.262  15.603  1.00  0.00    -0.000 C 
BRANCH  10  11
ATOM     11  C   UNL     1      22.313  -3.633  14.202  1.00  0.00    -0.000 C 
BRANCH  11  12
ATOM     12  C   UNL     1      21.421  -4.427  13.234  1.00  0.00    -0.003 C 
ATOM     13  C   UNL     1      20.999  -5.784  13.795  1.00  0.00     0.004 C 
ENDBRANCH  11  12
ENDBRANCH  10  11
ENDBRANCH   9  10
ENDBRANCH   8   9
ENDBRANCH   1   8
TORSDOF 9
ENDMDL
MODEL 6
REMARK VINA RESULT:    -4.097     12.038     14.196
REMARK INTER + INTRA:          -6.655
REMARK INTER:                  -5.293
REMARK INTRA:                  -1.362
REMARK UNBOUND:                -0.403
REMARK SMILES CCCCCCCCCCC(=O)[O-]
REMARK SMILES IDX 7 1 8 2 9 3 10 4 11 5 12 6 13 7 6 8 5 9 4 10 3 11 2 12 1 13
REMARK H PARENT
REMARK Flexibility Score: inf
ROOT
ATOM      1  C   UNL     1      24.940  -4.091  19.327  1.00  0.00     0.000 C 
ENDROOT
BRANCH   1   2
ATOM      2  C   UNL     1      25.718  -5.346  18.907  1.00  0.00     0.000 C 
BRANCH   2   3
ATOM      3  C   UNL     1      25.109  -6.607  19.538  1.00  0.00     0.006 C 
BRANCH   3   4
ATOM      4  C   UNL     1      24.900  -7.727  18.511  1.00  0.00     0.053 C 
BRANCH   4   5
ATOM      5  C   UNL     1      23.563  -8.384  18.672  1.00  0.00     0.041 C 
ATOM      6  O   UNL     1      22.646  -7.807  19.314  1.00  0.00    -0.550 OA
ATOM      7  O   UNL     1      23.341  -9.649  18.142  1.00  0.00    -0.550 OA
ENDBRANCH   4   5
ENDBRANCH   3   4
ENDBRANCH   2   3
ENDBRANCH   1   2
BRANCH   1   8
ATOM      8  C   UNL     1      23.527  -4.405  19.849  1.00  0.00     0.000 C 
BRANCH   8   9
ATOM      9  C   UNL     1      22.394  -4.206  18.826  1.00  0.00    -0.000 C 
BRANCH   9  10
ATOM     10  C   UNL     1      22.787  -3.274  17.669  1.00  0.00    -0.000 C 
BRANCH  10  11
ATOM     11  C   UNL     1      22.573  -3.963  16.313  1.00  0.00    -0.000 C 
BRANCH  11  12
ATOM     12  C   UNL     1      23.019  -5.434  16.323  1.00  0.00    -0.003 C 
ATOM     13  C   UNL     1      24.238  -5.689  15.437  1.00  0.00     0.004 C 
ENDBRANCH  11  12
ENDBRANCH  10  11
ENDBRANCH   9  10
ENDBRANCH   8   9
ENDBRANCH   1   8
TORSDOF 9
ENDMDL
MODEL 7
REMARK VINA RESULT:    -4.061      9.769     11.919
REMARK INTER + INTRA:          -6.601
REMARK INTER:                  -5.736
REMARK INTRA:                  -0.865
REMARK UNBOUND:                -0.403
REMARK SMILES CCCCCCCCCCC(=O)[O-]
REMARK SMILES IDX 7 1 8 2 9 3 10 4 11 5 12 6 13 7 6 8 5 9 4 10 3 11 2 12 1 13
REMARK H PARENT
REMARK Flexibility Score: inf
ROOT
ATOM      1  C   UNL     1      22.304  -3.009  17.250  1.00  0.00     0.000 C 
ENDROOT
BRANCH   1   2
ATOM      2  C   UNL     1      23.458  -4.012  17.109  1.00  0.00     0.000 C 
BRANCH   2   3
ATOM      3  C   UNL     1      24.512  -3.796  18.205  1.00  0.00     0.006 C 
BRANCH   3   4
ATOM      4  C   UNL     1      24.010  -4.232  19.588  1.00  0.00     0.053 C 
BRANCH   4   5
ATOM      5  C   UNL     1      23.665  -5.689  19.618  1.00  0.00     0.041 C 
ATOM      6  O   UNL     1      22.494  -6.058  19.896  1.00  0.00    -0.550 OA
ATOM      7  O   UNL     1      24.646  -6.641  19.372  1.00  0.00    -0.550 OA
ENDBRANCH   4   5
ENDBRANCH   3   4
ENDBRANCH   2   3
ENDBRANCH   1   2
BRANCH   1   8
ATOM      8  C   UNL     1      22.427  -1.812  16.290  1.00  0.00     0.000 C 
BRANCH   8   9
ATOM      9  C   UNL     1      23.336  -2.046  15.070  1.00  0.00    -0.000 C 
BRANCH   9  10
ATOM     10  C   UNL     1      22.550  -2.236  13.763  1.00  0.00    -0.000 C 
BRANCH  10  11
ATOM     11  C   UNL     1      22.643  -3.688  13.274  1.00  0.00    -0.000 C 
BRANCH  11  12
ATOM     12  C   UNL     1      21.264  -4.354  13.139  1.00  0.00    -0.003 C 
ATOM     13  C   UNL     1      21.154  -5.654  13.935  1.00  0.00     0.004 C 
ENDBRANCH  11  12
ENDBRANCH  10  11
ENDBRANCH   9  10
ENDBRANCH   8   9
ENDBRANCH   1   8
TORSDOF 9
ENDMDL
MODEL 8
REMARK VINA RESULT:    -4.057     12.894     14.164
REMARK INTER + INTRA:          -6.594
REMARK INTER:                  -5.358
REMARK INTRA:                  -1.237
REMARK UNBOUND:                -0.403
REMARK SMILES CCCCCCCCCCC(=O)[O-]
REMARK SMILES IDX 7 1 8 2 9 3 10 4 11 5 12 6 13 7 6 8 5 9 4 10 3 11 2 12 1 13
REMARK H PARENT
REMARK Flexibility Score: inf
ROOT
ATOM      1  C   UNL     1      23.765  -6.619  19.262  1.00  0.00     0.000 C 
ENDROOT
BRANCH   1   2
ATOM      2  C   UNL     1      23.482  -5.678  18.082  1.00  0.00     0.000 C 
BRANCH   2   3
ATOM      3  C   UNL     1      23.059  -4.287  18.578  1.00  0.00     0.006 C 
BRANCH   3   4
ATOM      4  C   UNL     1      22.905  -4.237  20.104  1.00  0.00     0.053 C 
BRANCH   4   5
ATOM      5  C   UNL     1      21.513  -3.857  20.508  1.00  0.00     0.041 C 
ATOM      6  O   UNL     1      20.735  -3.320  19.676  1.00  0.00    -0.550 OA
ATOM      7  O   UNL     1      21.087  -4.066  21.814  1.00  0.00    -0.550 OA
ENDBRANCH   4   5
ENDBRANCH   3   4
ENDBRANCH   2   3
ENDBRANCH   1   2
BRANCH   1   8
ATOM      8  C   UNL     1      25.259  -6.957  19.417  1.00  0.00     0.000 C 
BRANCH   8   9
ATOM      9  C   UNL     1      26.118  -6.703  18.165  1.00  0.00    -0.000 C 
BRANCH   9  10
ATOM     10  C   UNL     1      27.219  -5.656  18.396  1.00  0.00    -0.000 C 
BRANCH  10  11
ATOM     11  C   UNL     1      27.074  -4.483  17.415  1.00  0.00    -0.000 C 
BRANCH  11  12
ATOM     12  C   UNL     1      26.430  -3.248  18.064  1.00  0.00    -0.003 C 
ATOM     13  C   UNL     1      26.521  -3.265  19.590  1.00  0.00     0.004 C 
ENDBRANCH  11  12
ENDBRANCH  10  11
ENDBRANCH   9  10
ENDBRANCH   8   9
ENDBRANCH   1   8
TORSDOF 9
ENDMDL
MODEL 9
REMARK VINA RESULT:    -3.999     12.739     14.735
REMARK INTER + INTRA:          -6.506
REMARK INTER:                  -5.330
REMARK INTRA:                  -1.175
REMARK UNBOUND:                -0.403
REMARK SMILES CCCCCCCCCCC(=O)[O-]
REMARK SMILES IDX 7 1 8 2 9 3 10 4 11 5 12 6 13 7 6 8 5 9 4 10 3 11 2 12 1 13
REMARK H PARENT
REMARK Flexibility Score: inf
ROOT
ATOM      1  C   UNL     1      26.460  -6.220  19.062  1.00  0.00     0.000 C 
ENDROOT
BRANCH   1   2
ATOM      2  C   UNL     1      26.606  -6.716  17.615  1.00  0.00     0.000 C 
BRANCH   2   3
ATOM      3  C   UNL     1      25.360  -7.500  17.176  1.00  0.00     0.006 C 
BRANCH   3   4
ATOM      4  C   UNL     1      24.587  -8.078  18.369  1.00  0.00     0.053 C 
BRANCH   4   5
ATOM      5  C   UNL     1      23.893  -9.356  18.013  1.00  0.00     0.041 C 
ATOM      6  O   UNL     1      24.011  -9.841  16.857  1.00  0.00    -0.550 OA
ATOM      7  O   UNL     1      23.088  -9.995  18.948  1.00  0.00    -0.550 OA
ENDBRANCH   4   5
ENDBRANCH   3   4
ENDBRANCH   2   3
ENDBRANCH   1   2
BRANCH   1   8
ATOM      8  C   UNL     1      26.808  -4.729  19.224  1.00  0.00     0.000 C 
BRANCH   8   9
ATOM      9  C   UNL     1      25.615  -3.764  19.098  1.00  0.00    -0.000 C 
BRANCH   9  10
ATOM     10  C   UNL     1      24.284  -4.394  19.540  1.00  0.00    -0.000 C 
BRANCH  10  11
ATOM     11  C   UNL     1      23.178  -4.115  18.512  1.00  0.00    -0.000 C 
BRANCH  11  12
ATOM     12  C   UNL     1      23.707  -4.087  17.069  1.00  0.00    -0.003 C 
ATOM     13  C   UNL     1      22.653  -4.498  16.043  1.00  0.00     0.004 C 
ENDBRANCH  11  12
ENDBRANCH  10  11
ENDBRANCH   9  10
ENDBRANCH   8   9
ENDBRANCH   1   8
TORSDOF 9
ENDMDL
