MODEL 1
REMARK VINA RESULT:    -2.916      0.000      0.000
REMARK INTER + INTRA:          -7.781
REMARK INTER:                  -5.302
REMARK INTRA:                  -2.479
REMARK UNBOUND:                -2.479
REMARK SMILES CCCCCCCCCCCCCCCC(=O)[O-]
REMARK SMILES IDX 9 1 10 2 11 3 12 4 13 5 14 6 15 7 16 8 17 9 18 10 8 11 7 12
REMARK SMILES IDX 6 13 5 14 4 15 3 16 2 17 1 18
REMARK H PARENT
REMARK Flexibility Score: inf
ROOT
ATOM      1  C   UNL     1      54.106  81.373  30.241  1.00  0.00     0.000 C 
ENDROOT
BRANCH   1   2
ATOM      2  C   UNL     1      53.435  81.614  28.879  1.00  0.00     0.000 C 
BRANCH   2   3
ATOM      3  C   UNL     1      52.273  82.619  28.963  1.00  0.00     0.000 C 
BRANCH   3   4
ATOM      4  C   UNL     1      52.744  84.082  28.899  1.00  0.00     0.000 C 
BRANCH   4   5
ATOM      5  C   UNL     1      52.326  84.961  30.096  1.00  0.00     0.000 C 
BRANCH   5   6
ATOM      6  C   UNL     1      50.825  84.933  30.434  1.00  0.00     0.006 C 
BRANCH   6   7
ATOM      7  C   UNL     1      50.555  84.867  31.942  1.00  0.00     0.053 C 
BRANCH   7   8
ATOM      8  C   UNL     1      49.732  83.663  32.273  1.00  0.00     0.041 C 
ATOM      9  O   UNL     1      49.821  82.622  31.569  1.00  0.00    -0.550 OA
ATOM     10  O   UNL     1      48.832  83.703  33.330  1.00  0.00    -0.550 OA
ENDBRANCH   7   8
ENDBRANCH   6   7
ENDBRANCH   5   6
ENDBRANCH   4   5
ENDBRANCH   3   4
ENDBRANCH   2   3
ENDBRANCH   1   2
BRANCH   1  11
ATOM     11  C   UNL     1      53.129  81.509  31.418  1.00  0.00     0.000 C 
BRANCH  11  12
ATOM     12  C   UNL     1      53.792  82.241  32.597  1.00  0.00    -0.000 C 
BRANCH  12  13
ATOM     13  C   UNL     1      55.313  82.029  32.649  1.00  0.00    -0.000 C 
BRANCH  13  14
ATOM     14  C   UNL     1      56.092  83.355  32.713  1.00  0.00    -0.000 C 
BRANCH  14  15
ATOM     15  C   UNL     1      55.304  84.532  32.117  1.00  0.00    -0.000 C 
BRANCH  15  16
ATOM     16  C   UNL     1      55.879  85.013  30.775  1.00  0.00    -0.000 C 
BRANCH  16  17
ATOM     17  C   UNL     1      57.107  84.186  30.377  1.00  0.00    -0.003 C 
ATOM     18  C   UNL     1      56.879  83.462  29.053  1.00  0.00     0.004 C 
ENDBRANCH  16  17
ENDBRANCH  15  16
ENDBRANCH  14  15
ENDBRANCH  13  14
ENDBRANCH  12  13
ENDBRANCH  11  12
ENDBRANCH   1  11
TORSDOF 14
ENDMDL
MODEL 2
REMARK VINA RESULT:    -2.593      1.197      2.220
REMARK INTER + INTRA:          -7.195
REMARK INTER:                  -4.948
REMARK INTRA:                  -2.247
REMARK UNBOUND:                -2.479
REMARK SMILES CCCCCCCCCCCCCCCC(=O)[O-]
REMARK SMILES IDX 9 1 10 2 11 3 12 4 13 5 14 6 15 7 16 8 17 9 18 10 8 11 7 12
REMARK SMILES IDX 6 13 5 14 4 15 3 16 2 17 1 18
REMARK H PARENT
REMARK Flexibility Score: inf
ROOT
ATOM      1  C   UNL     1      53.547  81.366  32.693  1.00  0.00     0.000 C 
ENDROOT
BRANCH   1   2
ATOM      2  C   UNL     1      52.549  82.263  31.942  1.00  0.00     0.000 C 
BRANCH   2   3
ATOM      3  C   UNL     1      51.684  81.476  30.942  1.00  0.00     0.000 C 
BRANCH   3   4
ATOM      4  C   UNL     1      51.090  82.367  29.837  1.00  0.00     0.000 C 
BRANCH   4   5
ATOM      5  C   UNL     1      51.362  83.878  29.991  1.00  0.00     0.000 C 
BRANCH   5   6
ATOM      6  C   UNL     1      50.154  84.717  30.443  1.00  0.00     0.006 C 
BRANCH   6   7
ATOM      7  C   UNL     1      49.907  84.639  31.955  1.00  0.00     0.053 C 
BRANCH   7   8
ATOM      8  C   UNL     1      48.683  83.829  32.244  1.00  0.00     0.041 C 
ATOM      9  O   UNL     1      48.320  83.632  33.433  1.00  0.00    -0.550 OA
ATOM     10  O   UNL     1      47.970  83.249  31.201  1.00  0.00    -0.550 OA
ENDBRANCH   7   8
ENDBRANCH   6   7
ENDBRANCH   5   6
ENDBRANCH   4   5
ENDBRANCH   3   4
ENDBRANCH   2   3
ENDBRANCH   1   2
BRANCH   1  11
ATOM     11  C   UNL     1      55.003  81.823  32.523  1.00  0.00     0.000 C 
BRANCH  11  12
ATOM     12  C   UNL     1      55.113  83.352  32.632  1.00  0.00    -0.000 C 
BRANCH  12  13
ATOM     13  C   UNL     1      56.507  83.878  32.254  1.00  0.00    -0.000 C 
BRANCH  13  14
ATOM     14  C   UNL     1      56.588  84.338  30.787  1.00  0.00    -0.000 C 
BRANCH  14  15
ATOM     15  C   UNL     1      55.204  84.618  30.179  1.00  0.00    -0.000 C 
BRANCH  15  16
ATOM     16  C   UNL     1      54.960  83.843  28.875  1.00  0.00    -0.000 C 
BRANCH  16  17
ATOM     17  C   UNL     1      55.725  82.516  28.875  1.00  0.00    -0.003 C 
ATOM     18  C   UNL     1      54.776  81.331  29.029  1.00  0.00     0.004 C 
ENDBRANCH  16  17
ENDBRANCH  15  16
ENDBRANCH  14  15
ENDBRANCH  13  14
ENDBRANCH  12  13
ENDBRANCH  11  12
ENDBRANCH   1  11
TORSDOF 14
ENDMDL
MODEL 3
REMARK VINA RESULT:    -2.404      2.472      5.429
REMARK INTER + INTRA:          -6.851
REMARK INTER:                  -4.963
REMARK INTRA:                  -1.888
REMARK UNBOUND:                -2.479
REMARK SMILES CCCCCCCCCCCCCCCC(=O)[O-]
REMARK SMILES IDX 9 1 10 2 11 3 12 4 13 5 14 6 15 7 16 8 17 9 18 10 8 11 7 12
REMARK SMILES IDX 6 13 5 14 4 15 3 16 2 17 1 18
REMARK H PARENT
REMARK Flexibility Score: inf
ROOT
ATOM      1  C   UNL     1      52.363  82.281  31.992  1.00  0.00     0.000 C 
ENDROOT
BRANCH   1   2
ATOM      2  C   UNL     1      52.442  81.413  30.725  1.00  0.00     0.000 C 
BRANCH   2   3
ATOM      3  C   UNL     1      53.846  81.413  30.097  1.00  0.00     0.000 C 
BRANCH   3   4
ATOM      4  C   UNL     1      54.002  82.461  28.981  1.00  0.00     0.000 C 
BRANCH   4   5
ATOM      5  C   UNL     1      55.030  83.576  29.264  1.00  0.00     0.000 C 
BRANCH   5   6
ATOM      6  C   UNL     1      56.344  83.104  29.909  1.00  0.00     0.006 C 
BRANCH   6   7
ATOM      7  C   UNL     1      56.826  84.034  31.030  1.00  0.00     0.053 C 
BRANCH   7   8
ATOM      8  C   UNL     1      55.927  83.926  32.221  1.00  0.00     0.041 C 
ATOM      9  O   UNL     1      55.748  82.812  32.780  1.00  0.00    -0.550 OA
ATOM     10  O   UNL     1      55.249  85.046  32.685  1.00  0.00    -0.550 OA
ENDBRANCH   7   8
ENDBRANCH   6   7
ENDBRANCH   5   6
ENDBRANCH   4   5
ENDBRANCH   3   4
ENDBRANCH   2   3
ENDBRANCH   1   2
BRANCH   1  11
ATOM     11  C   UNL     1      52.124  83.766  31.682  1.00  0.00     0.000 C 
BRANCH  11  12
ATOM     12  C   UNL     1      51.603  84.507  32.924  1.00  0.00    -0.000 C 
BRANCH  12  13
ATOM     13  C   UNL     1      50.094  84.791  32.858  1.00  0.00    -0.000 C 
BRANCH  13  14
ATOM     14  C   UNL     1      49.277  83.553  32.447  1.00  0.00    -0.000 C 
BRANCH  14  15
ATOM     15  C   UNL     1      48.501  83.766  31.138  1.00  0.00    -0.000 C 
BRANCH  15  16
ATOM     16  C   UNL     1      48.800  85.124  30.484  1.00  0.00    -0.000 C 
BRANCH  16  17
ATOM     17  C   UNL     1      49.395  84.938  29.084  1.00  0.00    -0.003 C 
ATOM     18  C   UNL     1      49.881  83.506  28.877  1.00  0.00     0.004 C 
ENDBRANCH  16  17
ENDBRANCH  15  16
ENDBRANCH  14  15
ENDBRANCH  13  14
ENDBRANCH  12  13
ENDBRANCH  11  12
ENDBRANCH   1  11
TORSDOF 14
ENDMDL
MODEL 4
REMARK VINA RESULT:    -2.399      1.245      2.429
REMARK INTER + INTRA:          -6.842
REMARK INTER:                  -4.988
REMARK INTRA:                  -1.853
REMARK UNBOUND:                -2.479
REMARK SMILES CCCCCCCCCCCCCCCC(=O)[O-]
REMARK SMILES IDX 9 1 10 2 11 3 12 4 13 5 14 6 15 7 16 8 17 9 18 10 8 11 7 12
REMARK SMILES IDX 6 13 5 14 4 15 3 16 2 17 1 18
REMARK H PARENT
REMARK Flexibility Score: inf
ROOT
ATOM      1  C   UNL     1      52.735  81.837  30.728  1.00  0.00     0.000 C 
ENDROOT
BRANCH   1   2
ATOM      2  C   UNL     1      51.205  81.716  30.635  1.00  0.00     0.000 C 
BRANCH   2   3
ATOM      3  C   UNL     1      50.615  82.561  29.494  1.00  0.00     0.000 C 
BRANCH   3   4
ATOM      4  C   UNL     1      51.506  83.757  29.114  1.00  0.00     0.000 C 
BRANCH   4   5
ATOM      5  C   UNL     1      51.050  85.122  29.672  1.00  0.00     0.000 C 
BRANCH   5   6
ATOM      6  C   UNL     1      49.724  85.098  30.451  1.00  0.00     0.006 C 
BRANCH   6   7
ATOM      7  C   UNL     1      49.927  85.068  31.971  1.00  0.00     0.053 C 
BRANCH   7   8
ATOM      8  C   UNL     1      48.814  84.317  32.632  1.00  0.00     0.041 C 
ATOM      9  O   UNL     1      48.555  84.511  33.849  1.00  0.00    -0.550 OA
ATOM     10  O   UNL     1      48.095  83.367  31.917  1.00  0.00    -0.550 OA
ENDBRANCH   7   8
ENDBRANCH   6   7
ENDBRANCH   5   6
ENDBRANCH   4   5
ENDBRANCH   3   4
ENDBRANCH   2   3
ENDBRANCH   1   2
BRANCH   1  11
ATOM     11  C   UNL     1      53.468  80.865  29.791  1.00  0.00     0.000 C 
BRANCH  11  12
ATOM     12  C   UNL     1      54.830  81.436  29.367  1.00  0.00    -0.000 C 
BRANCH  12  13
ATOM     13  C   UNL     1      54.992  82.920  29.730  1.00  0.00    -0.000 C 
BRANCH  13  14
ATOM     14  C   UNL     1      56.466  83.365  29.757  1.00  0.00    -0.000 C 
BRANCH  14  15
ATOM     15  C   UNL     1      56.855  84.038  31.082  1.00  0.00    -0.000 C 
BRANCH  15  16
ATOM     16  C   UNL     1      55.893  83.694  32.229  1.00  0.00    -0.000 C 
BRANCH  16  17
ATOM     17  C   UNL     1      55.217  84.957  32.775  1.00  0.00    -0.003 C 
ATOM     18  C   UNL     1      53.815  85.125  32.198  1.00  0.00     0.004 C 
ENDBRANCH  16  17
ENDBRANCH  15  16
ENDBRANCH  14  15
ENDBRANCH  13  14
ENDBRANCH  12  13
ENDBRANCH  11  12
ENDBRANCH   1  11
TORSDOF 14
ENDMDL
MODEL 5
REMARK VINA RESULT:    -2.338      1.296      3.013
REMARK INTER + INTRA:          -6.730
REMARK INTER:                  -4.801
REMARK INTRA:                  -1.929
REMARK UNBOUND:                -2.479
REMARK SMILES CCCCCCCCCCCCCCCC(=O)[O-]
REMARK SMILES IDX 9 1 10 2 11 3 12 4 13 5 14 6 15 7 16 8 17 9 18 10 8 11 7 12
REMARK SMILES IDX 6 13 5 14 4 15 3 16 2 17 1 18
REMARK H PARENT
REMARK Flexibility Score: inf
ROOT
ATOM      1  C   UNL     1      55.340  81.953  32.407  1.00  0.00     0.000 C 
ENDROOT
BRANCH   1   2
ATOM      2  C   UNL     1      53.949  81.569  32.938  1.00  0.00     0.000 C 
BRANCH   2   3
ATOM      3  C   UNL     1      52.810  82.220  32.134  1.00  0.00     0.000 C 
BRANCH   3   4
ATOM      4  C   UNL     1      52.592  83.699  32.499  1.00  0.00     0.000 C 
BRANCH   4   5
ATOM      5  C   UNL     1      51.763  84.513  31.484  1.00  0.00     0.000 C 
BRANCH   5   6
ATOM      6  C   UNL     1      51.914  84.075  30.017  1.00  0.00     0.006 C 
BRANCH   6   7
ATOM      7  C   UNL     1      50.575  84.024  29.270  1.00  0.00     0.053 C 
BRANCH   7   8
ATOM      8  C   UNL     1      49.481  83.578  30.189  1.00  0.00     0.041 C 
ATOM      9  O   UNL     1      49.229  82.352  30.325  1.00  0.00    -0.550 OA
ATOM     10  O   UNL     1      48.707  84.519  30.858  1.00  0.00    -0.550 OA
ENDBRANCH   7   8
ENDBRANCH   6   7
ENDBRANCH   5   6
ENDBRANCH   4   5
ENDBRANCH   3   4
ENDBRANCH   2   3
ENDBRANCH   1   2
BRANCH   1  11
ATOM     11  C   UNL     1      56.063  82.963  33.312  1.00  0.00     0.000 C 
BRANCH  11  12
ATOM     12  C   UNL     1      56.102  84.353  32.657  1.00  0.00    -0.000 C 
BRANCH  12  13
ATOM     13  C   UNL     1      55.795  84.311  31.152  1.00  0.00    -0.000 C 
BRANCH  13  14
ATOM     14  C   UNL     1      57.054  84.081  30.297  1.00  0.00    -0.000 C 
BRANCH  14  15
ATOM     15  C   UNL     1      56.744  83.380  28.965  1.00  0.00    -0.000 C 
BRANCH  15  16
ATOM     16  C   UNL     1      55.291  82.889  28.876  1.00  0.00    -0.000 C 
BRANCH  16  17
ATOM     17  C   UNL     1      55.229  81.357  28.875  1.00  0.00    -0.003 C 
ATOM     18  C   UNL     1      53.790  80.863  28.984  1.00  0.00     0.004 C 
ENDBRANCH  16  17
ENDBRANCH  15  16
ENDBRANCH  14  15
ENDBRANCH  13  14
ENDBRANCH  12  13
ENDBRANCH  11  12
ENDBRANCH   1  11
TORSDOF 14
ENDMDL
MODEL 6
REMARK VINA RESULT:    -2.296      2.430      5.450
REMARK INTER + INTRA:          -6.655
REMARK INTER:                  -4.685
REMARK INTRA:                  -1.969
REMARK UNBOUND:                -2.479
REMARK SMILES CCCCCCCCCCCCCCCC(=O)[O-]
REMARK SMILES IDX 9 1 10 2 11 3 12 4 13 5 14 6 15 7 16 8 17 9 18 10 8 11 7 12
REMARK SMILES IDX 6 13 5 14 4 15 3 16 2 17 1 18
REMARK H PARENT
REMARK Flexibility Score: inf
ROOT
ATOM      1  C   UNL     1      54.803  81.736  32.471  1.00  0.00     0.000 C 
ENDROOT
BRANCH   1   2
ATOM      2  C   UNL     1      55.982  82.577  32.987  1.00  0.00     0.000 C 
BRANCH   2   3
ATOM      3  C   UNL     1      55.863  84.060  32.600  1.00  0.00     0.000 C 
BRANCH   3   4
ATOM      4  C   UNL     1      56.451  84.363  31.210  1.00  0.00     0.000 C 
BRANCH   4   5
ATOM      5  C   UNL     1      55.449  84.927  30.180  1.00  0.00     0.000 C 
BRANCH   5   6
ATOM      6  C   UNL     1      55.332  84.121  28.875  1.00  0.00     0.006 C 
BRANCH   6   7
ATOM      7  C   UNL     1      54.154  83.138  28.886  1.00  0.00     0.053 C 
BRANCH   7   8
ATOM      8  C   UNL     1      54.651  81.727  28.880  1.00  0.00     0.041 C 
ATOM      9  O   UNL     1      53.835  80.768  28.913  1.00  0.00    -0.550 OA
ATOM     10  O   UNL     1      56.016  81.470  28.888  1.00  0.00    -0.550 OA
ENDBRANCH   7   8
ENDBRANCH   6   7
ENDBRANCH   5   6
ENDBRANCH   4   5
ENDBRANCH   3   4
ENDBRANCH   2   3
ENDBRANCH   1   2
BRANCH   1  11
ATOM     11  C   UNL     1      53.456  82.464  32.590  1.00  0.00     0.000 C 
BRANCH  11  12
ATOM     12  C   UNL     1      52.360  81.716  31.814  1.00  0.00    -0.000 C 
BRANCH  12  13
ATOM     13  C   UNL     1      51.160  82.612  31.467  1.00  0.00    -0.000 C 
BRANCH  13  14
ATOM     14  C   UNL     1      51.443  84.103  31.722  1.00  0.00    -0.000 C 
BRANCH  14  15
ATOM     15  C   UNL     1      50.503  85.026  30.930  1.00  0.00    -0.000 C 
BRANCH  15  16
ATOM     16  C   UNL     1      50.314  84.574  29.474  1.00  0.00    -0.000 C 
BRANCH  16  17
ATOM     17  C   UNL     1      48.829  84.377  29.150  1.00  0.00    -0.003 C 
ATOM     18  C   UNL     1      47.994  84.288  30.424  1.00  0.00     0.004 C 
ENDBRANCH  16  17
ENDBRANCH  15  16
ENDBRANCH  14  15
ENDBRANCH  13  14
ENDBRANCH  12  13
ENDBRANCH  11  12
ENDBRANCH   1  11
TORSDOF 14
ENDMDL
MODEL 7
REMARK VINA RESULT:    -2.141      2.937      6.240
REMARK INTER + INTRA:          -6.373
REMARK INTER:                  -4.237
REMARK INTRA:                  -2.136
REMARK UNBOUND:                -2.479
REMARK SMILES CCCCCCCCCCCCCCCC(=O)[O-]
REMARK SMILES IDX 9 1 10 2 11 3 12 4 13 5 14 6 15 7 16 8 17 9 18 10 8 11 7 12
REMARK SMILES IDX 6 13 5 14 4 15 3 16 2 17 1 18
REMARK H PARENT
REMARK Flexibility Score: inf
ROOT
ATOM      1  C   UNL     1      52.833  83.142  32.178  1.00  0.00     0.000 C 
ENDROOT
BRANCH   1   2
ATOM      2  C   UNL     1      54.045  82.358  32.707  1.00  0.00     0.000 C 
BRANCH   2   3
ATOM      3  C   UNL     1      54.717  81.505  31.617  1.00  0.00     0.000 C 
BRANCH   3   4
ATOM      4  C   UNL     1      53.861  81.379  30.345  1.00  0.00     0.000 C 
BRANCH   4   5
ATOM      5  C   UNL     1      54.598  81.672  29.022  1.00  0.00     0.000 C 
BRANCH   5   6
ATOM      6  C   UNL     1      55.142  83.105  28.882  1.00  0.00     0.006 C 
BRANCH   6   7
ATOM      7  C   UNL     1      56.675  83.164  28.891  1.00  0.00     0.053 C 
BRANCH   7   8
ATOM      8  C   UNL     1      57.155  84.081  29.971  1.00  0.00     0.041 C 
ATOM      9  O   UNL     1      56.395  84.387  30.927  1.00  0.00    -0.550 OA
ATOM     10  O   UNL     1      58.427  84.637  29.897  1.00  0.00    -0.550 OA
ENDBRANCH   7   8
ENDBRANCH   6   7
ENDBRANCH   5   6
ENDBRANCH   4   5
ENDBRANCH   3   4
ENDBRANCH   2   3
ENDBRANCH   1   2
BRANCH   1  11
ATOM     11  C   UNL     1      53.152  84.620  31.909  1.00  0.00     0.000 C 
BRANCH  11  12
ATOM     12  C   UNL     1      52.403  85.124  30.664  1.00  0.00    -0.000 C 
BRANCH  12  13
ATOM     13  C   UNL     1      51.514  84.044  30.027  1.00  0.00    -0.000 C 
BRANCH  13  14
ATOM     14  C   UNL     1      50.119  84.574  29.650  1.00  0.00    -0.000 C 
BRANCH  14  15
ATOM     15  C   UNL     1      48.988  83.645  30.118  1.00  0.00    -0.000 C 
BRANCH  15  16
ATOM     16  C   UNL     1      49.056  83.338  31.622  1.00  0.00    -0.000 C 
BRANCH  16  17
ATOM     17  C   UNL     1      48.455  84.484  32.443  1.00  0.00    -0.003 C 
ATOM     18  C   UNL     1      49.380  84.885  33.589  1.00  0.00     0.004 C 
ENDBRANCH  16  17
ENDBRANCH  15  16
ENDBRANCH  14  15
ENDBRANCH  13  14
ENDBRANCH  12  13
ENDBRANCH  11  12
ENDBRANCH   1  11
TORSDOF 14
ENDMDL
MODEL 8
REMARK VINA RESULT:    -2.140      3.045      6.258
REMARK INTER + INTRA:          -6.371
REMARK INTER:                  -5.193
REMARK INTRA:                  -1.178
REMARK UNBOUND:                -2.479
REMARK SMILES CCCCCCCCCCCCCCCC(=O)[O-]
REMARK SMILES IDX 9 1 10 2 11 3 12 4 13 5 14 6 15 7 16 8 17 9 18 10 8 11 7 12
REMARK SMILES IDX 6 13 5 14 4 15 3 16 2 17 1 18
REMARK H PARENT
REMARK Flexibility Score: inf
ROOT
ATOM      1  C   UNL     1      52.651  81.710  31.997  1.00  0.00     0.000 C 
ENDROOT
BRANCH   1   2
ATOM      2  C   UNL     1      53.932  81.999  31.197  1.00  0.00     0.000 C 
BRANCH   2   3
ATOM      3  C   UNL     1      55.209  81.695  31.999  1.00  0.00     0.000 C 
BRANCH   3   4
ATOM      4  C   UNL     1      55.713  82.908  32.800  1.00  0.00     0.000 C 
BRANCH   4   5
ATOM      5  C   UNL     1      56.422  83.998  31.970  1.00  0.00     0.000 C 
BRANCH   5   6
ATOM      6  C   UNL     1      55.503  84.815  31.045  1.00  0.00     0.006 C 
BRANCH   6   7
ATOM      7  C   UNL     1      56.147  85.124  29.688  1.00  0.00     0.053 C 
BRANCH   7   8
ATOM      8  C   UNL     1      57.088  84.030  29.295  1.00  0.00     0.041 C 
ATOM      9  O   UNL     1      56.648  82.880  29.031  1.00  0.00    -0.550 OA
ATOM     10  O   UNL     1      58.457  84.266  29.267  1.00  0.00    -0.550 OA
ENDBRANCH   7   8
ENDBRANCH   6   7
ENDBRANCH   5   6
ENDBRANCH   4   5
ENDBRANCH   3   4
ENDBRANCH   2   3
ENDBRANCH   1   2
BRANCH   1  11
ATOM     11  C   UNL     1      51.399  81.636  31.110  1.00  0.00     0.000 C 
BRANCH  11  12
ATOM     12  C   UNL     1      51.509  82.613  29.928  1.00  0.00    -0.000 C 
BRANCH  12  13
ATOM     13  C   UNL     1      50.215  82.695  29.102  1.00  0.00    -0.000 C 
BRANCH  13  14
ATOM     14  C   UNL     1      49.471  84.028  29.300  1.00  0.00    -0.000 C 
BRANCH  14  15
ATOM     15  C   UNL     1      48.185  83.869  30.127  1.00  0.00    -0.000 C 
BRANCH  15  16
ATOM     16  C   UNL     1      48.428  84.015  31.637  1.00  0.00    -0.000 C 
BRANCH  16  17
ATOM     17  C   UNL     1      49.446  85.125  31.923  1.00  0.00    -0.003 C 
ATOM     18  C   UNL     1      50.406  84.719  33.038  1.00  0.00     0.004 C 
ENDBRANCH  16  17
ENDBRANCH  15  16
ENDBRANCH  14  15
ENDBRANCH  13  14
ENDBRANCH  12  13
ENDBRANCH  11  12
ENDBRANCH   1  11
TORSDOF 14
ENDMDL
MODEL 9
REMARK VINA RESULT:    -2.131      2.613      5.655
REMARK INTER + INTRA:          -6.355
REMARK INTER:                  -4.909
REMARK INTRA:                  -1.446
REMARK UNBOUND:                -2.479
REMARK SMILES CCCCCCCCCCCCCCCC(=O)[O-]
REMARK SMILES IDX 9 1 10 2 11 3 12 4 13 5 14 6 15 7 16 8 17 9 18 10 8 11 7 12
REMARK SMILES IDX 6 13 5 14 4 15 3 16 2 17 1 18
REMARK H PARENT
REMARK Flexibility Score: inf
ROOT
ATOM      1  C   UNL     1      52.308  81.285  30.933  1.00  0.00     0.000 C 
ENDROOT
BRANCH   1   2
ATOM      2  C   UNL     1      53.049  81.110  29.597  1.00  0.00     0.000 C 
BRANCH   2   3
ATOM      3  C   UNL     1      54.561  81.361  29.724  1.00  0.00     0.000 C 
BRANCH   3   4
ATOM      4  C   UNL     1      55.032  82.586  28.920  1.00  0.00     0.000 C 
BRANCH   4   5
ATOM      5  C   UNL     1      54.471  83.942  29.395  1.00  0.00     0.000 C 
BRANCH   5   6
ATOM      6  C   UNL     1      55.421  84.768  30.279  1.00  0.00     0.006 C 
BRANCH   6   7
ATOM      7  C   UNL     1      56.410  83.899  31.066  1.00  0.00     0.053 C 
BRANCH   7   8
ATOM      8  C   UNL     1      55.911  83.671  32.458  1.00  0.00     0.041 C 
ATOM      9  O   UNL     1      55.744  84.645  33.238  1.00  0.00    -0.550 OA
ATOM     10  O   UNL     1      55.676  82.379  32.911  1.00  0.00    -0.550 OA
ENDBRANCH   7   8
ENDBRANCH   6   7
ENDBRANCH   5   6
ENDBRANCH   4   5
ENDBRANCH   3   4
ENDBRANCH   2   3
ENDBRANCH   1   2
BRANCH   1  11
ATOM     11  C   UNL     1      50.955  81.993  30.775  1.00  0.00     0.000 C 
BRANCH  11  12
ATOM     12  C   UNL     1      51.027  83.071  29.681  1.00  0.00    -0.000 C 
BRANCH  12  13
ATOM     13  C   UNL     1      49.670  83.746  29.420  1.00  0.00    -0.000 C 
BRANCH  13  14
ATOM     14  C   UNL     1      48.689  83.574  30.594  1.00  0.00    -0.000 C 
BRANCH  14  15
ATOM     15  C   UNL     1      48.607  84.825  31.483  1.00  0.00    -0.000 C 
BRANCH  15  16
ATOM     16  C   UNL     1      48.333  84.489  32.957  1.00  0.00    -0.000 C 
BRANCH  16  17
ATOM     17  C   UNL     1      49.393  85.120  33.868  1.00  0.00    -0.003 C 
ATOM     18  C   UNL     1      50.778  85.051  33.232  1.00  0.00     0.004 C 
ENDBRANCH  16  17
ENDBRANCH  15  16
ENDBRANCH  14  15
ENDBRANCH  13  14
ENDBRANCH  12  13
ENDBRANCH  11  12
ENDBRANCH   1  11
TORSDOF 14
ENDMDL
