MODEL 1
REMARK VINA RESULT:    -3.724      0.000      0.000
REMARK INTER + INTRA:          -4.345
REMARK INTER:                  -4.268
REMARK INTRA:                  -0.077
REMARK UNBOUND:                -0.077
REMARK SMILES COc1cc(C(=O)[O-])ccc1O
REMARK SMILES IDX 5 1 9 2 4 3 10 4 3 5 11 6 6 7 7 8 8 9 2 10 1 11 12 12
REMARK H PARENT 12 13
REMARK Flexibility Score: inf
ROOT
ATOM      1  C   UNL     1     148.271 139.878 149.241  1.00  0.00     0.001 A 
ATOM      2  C   UNL     1     148.573 139.426 150.536  1.00  0.00     0.014 A 
ATOM      3  C   UNL     1     146.927 139.921 148.827  1.00  0.00     0.060 A 
ATOM      4  C   UNL     1     147.553 139.023 151.399  1.00  0.00     0.051 A 
ATOM      5  C   UNL     1     145.892 139.516 149.696  1.00  0.00     0.161 A 
ATOM      6  C   UNL     1     146.217 139.066 150.988  1.00  0.00     0.157 A 
ENDROOT
BRANCH   1   7
ATOM      7  C   UNL     1     149.350 140.306 148.323  1.00  0.00     0.072 C 
ATOM      8  O   UNL     1     150.312 141.001 148.744  1.00  0.00    -0.545 OA
ATOM      9  O   UNL     1     149.318 139.945 146.980  1.00  0.00    -0.545 OA
ENDBRANCH   1   7
BRANCH   5  10
ATOM     10  O   UNL     1     144.543 139.548 149.310  1.00  0.00    -0.493 OA
ATOM     11  C   UNL     1     144.072 140.027 148.055  1.00  0.00     0.278 C 
ENDBRANCH   5  10
BRANCH   6  12
ATOM     12  O   UNL     1     145.225 138.655 151.880  1.00  0.00    -0.504 OA
ATOM     13  H   UNL     1     144.348 139.152 151.977  1.00  0.00     0.293 HD
ENDBRANCH   6  12
TORSDOF 3
ENDMDL
MODEL 2
REMARK VINA RESULT:    -3.622      7.806      9.320
REMARK INTER + INTRA:          -4.228
REMARK INTER:                  -4.150
REMARK INTRA:                  -0.078
REMARK UNBOUND:                -0.077
REMARK SMILES COc1cc(C(=O)[O-])ccc1O
REMARK SMILES IDX 5 1 9 2 4 3 10 4 3 5 11 6 6 7 7 8 8 9 2 10 1 11 12 12
REMARK H PARENT 12 13
REMARK Flexibility Score: inf
ROOT
ATOM      1  C   UNL     1     155.974 138.027 149.444  1.00  0.00     0.001 A 
ATOM      2  C   UNL     1     156.918 137.023 149.173  1.00  0.00     0.014 A 
ATOM      3  C   UNL     1     155.279 138.000 150.666  1.00  0.00     0.060 A 
ATOM      4  C   UNL     1     157.162 136.013 150.103  1.00  0.00     0.051 A 
ATOM      5  C   UNL     1     155.522 136.981 151.611  1.00  0.00     0.161 A 
ATOM      6  C   UNL     1     156.471 135.985 151.319  1.00  0.00     0.157 A 
ENDROOT
BRANCH   1   7
ATOM      7  C   UNL     1     155.713 139.101 148.459  1.00  0.00     0.072 C 
ATOM      8  O   UNL     1     156.665 139.748 147.948  1.00  0.00    -0.545 OA
ATOM      9  O   UNL     1     154.411 139.410 148.082  1.00  0.00    -0.545 OA
ENDBRANCH   1   7
BRANCH   5  10
ATOM     10  O   UNL     1     154.843 136.929 152.839  1.00  0.00    -0.493 OA
ATOM     11  C   UNL     1     153.515 137.395 153.050  1.00  0.00     0.278 C 
ENDBRANCH   5  10
BRANCH   6  12
ATOM     12  O   UNL     1     156.742 134.959 152.224  1.00  0.00    -0.504 OA
ATOM     13  H   UNL     1     157.536 134.340 152.116  1.00  0.00     0.293 HD
ENDBRANCH   6  12
TORSDOF 3
ENDMDL
MODEL 3
REMARK VINA RESULT:    -3.614      1.844      3.186
REMARK INTER + INTRA:          -4.219
REMARK INTER:                  -4.121
REMARK INTRA:                  -0.097
REMARK UNBOUND:                -0.077
REMARK SMILES COc1cc(C(=O)[O-])ccc1O
REMARK SMILES IDX 5 1 9 2 4 3 10 4 3 5 11 6 6 7 7 8 8 9 2 10 1 11 12 12
REMARK H PARENT 12 13
REMARK Flexibility Score: inf
ROOT
ATOM      1  C   UNL     1     146.536 139.846 147.856  1.00  0.00     0.001 A 
ATOM      2  C   UNL     1     145.161 139.880 148.144  1.00  0.00     0.014 A 
ATOM      3  C   UNL     1     147.441 139.517 148.882  1.00  0.00     0.060 A 
ATOM      4  C   UNL     1     144.701 139.593 149.429  1.00  0.00     0.051 A 
ATOM      5  C   UNL     1     146.981 139.225 150.183  1.00  0.00     0.161 A 
ATOM      6  C   UNL     1     145.600 139.266 150.448  1.00  0.00     0.157 A 
ENDROOT
BRANCH   1   7
ATOM      7  C   UNL     1     147.027 140.150 146.494  1.00  0.00     0.072 C 
ATOM      8  O   UNL     1     146.863 141.294 145.994  1.00  0.00    -0.545 OA
ATOM      9  O   UNL     1     147.680 139.176 145.746  1.00  0.00    -0.545 OA
ENDBRANCH   1   7
BRANCH   5  10
ATOM     10  O   UNL     1     147.861 138.893 151.225  1.00  0.00    -0.493 OA
ATOM     11  C   UNL     1     148.573 139.841 152.014  1.00  0.00     0.278 C 
ENDBRANCH   5  10
BRANCH   6  12
ATOM     12  O   UNL     1     145.102 138.984 151.721  1.00  0.00    -0.504 OA
ATOM     13  H   UNL     1     144.123 138.787 151.886  1.00  0.00     0.293 HD
ENDBRANCH   6  12
TORSDOF 3
ENDMDL
MODEL 4
REMARK VINA RESULT:    -3.599      2.799      5.472
REMARK INTER + INTRA:          -4.201
REMARK INTER:                  -4.106
REMARK INTRA:                  -0.095
REMARK UNBOUND:                -0.077
REMARK SMILES COc1cc(C(=O)[O-])ccc1O
REMARK SMILES IDX 5 1 9 2 4 3 10 4 3 5 11 6 6 7 7 8 8 9 2 10 1 11 12 12
REMARK H PARENT 12 13
REMARK Flexibility Score: inf
ROOT
ATOM      1  C   UNL     1     147.653 139.760 147.192  1.00  0.00     0.001 A 
ATOM      2  C   UNL     1     148.844 140.137 147.835  1.00  0.00     0.014 A 
ATOM      3  C   UNL     1     147.682 139.465 145.817  1.00  0.00     0.060 A 
ATOM      4  C   UNL     1     150.038 140.219 147.118  1.00  0.00     0.051 A 
ATOM      5  C   UNL     1     148.887 139.546 145.088  1.00  0.00     0.161 A 
ATOM      6  C   UNL     1     150.067 139.927 145.751  1.00  0.00     0.157 A 
ENDROOT
BRANCH   1   7
ATOM      7  C   UNL     1     146.385 139.672 147.949  1.00  0.00     0.072 C 
ATOM      8  O   UNL     1     145.287 139.949 147.396  1.00  0.00    -0.545 OA
ATOM      9  O   UNL     1     146.385 139.280 149.283  1.00  0.00    -0.545 OA
ENDBRANCH   1   7
BRANCH   5  10
ATOM     10  O   UNL     1     148.945 139.258 143.715  1.00  0.00    -0.493 OA
ATOM     11  C   UNL     1     148.693 140.202 142.679  1.00  0.00     0.278 C 
ENDBRANCH   5  10
BRANCH   6  12
ATOM     12  O   UNL     1     151.280 140.020 145.068  1.00  0.00    -0.504 OA
ATOM     13  H   UNL     1     151.669 140.909 144.778  1.00  0.00     0.293 HD
ENDBRANCH   6  12
TORSDOF 3
ENDMDL
MODEL 5
REMARK VINA RESULT:    -3.589      9.620     10.999
REMARK INTER + INTRA:          -4.190
REMARK INTER:                  -4.087
REMARK INTRA:                  -0.103
REMARK UNBOUND:                -0.077
REMARK SMILES COc1cc(C(=O)[O-])ccc1O
REMARK SMILES IDX 5 1 9 2 4 3 10 4 3 5 11 6 6 7 7 8 8 9 2 10 1 11 12 12
REMARK H PARENT 12 13
REMARK Flexibility Score: inf
ROOT
ATOM      1  C   UNL     1     156.953 137.915 149.976  1.00  0.00     0.001 A 
ATOM      2  C   UNL     1     156.185 136.801 149.596  1.00  0.00     0.014 A 
ATOM      3  C   UNL     1     157.777 137.822 151.112  1.00  0.00     0.060 A 
ATOM      4  C   UNL     1     156.239 135.621 150.337  1.00  0.00     0.051 A 
ATOM      5  C   UNL     1     157.836 136.630 151.864  1.00  0.00     0.161 A 
ATOM      6  C   UNL     1     157.058 135.528 151.466  1.00  0.00     0.157 A 
ENDROOT
BRANCH   1   7
ATOM      7  C   UNL     1     156.898 139.169 149.193  1.00  0.00     0.072 C 
ATOM      8  O   UNL     1     156.151 139.262 148.183  1.00  0.00    -0.545 OA
ATOM      9  O   UNL     1     157.669 140.266 149.562  1.00  0.00    -0.545 OA
ENDBRANCH   1   7
BRANCH   5  10
ATOM     10  O   UNL     1     158.649 136.509 153.002  1.00  0.00    -0.493 OA
ATOM     11  C   UNL     1     158.282 136.940 154.308  1.00  0.00     0.278 C 
ENDBRANCH   5  10
BRANCH   6  12
ATOM     12  O   UNL     1     157.086 134.330 152.181  1.00  0.00    -0.504 OA
ATOM     13  H   UNL     1     157.544 133.500 151.826  1.00  0.00     0.293 HD
ENDBRANCH   6  12
TORSDOF 3
ENDMDL
MODEL 6
REMARK VINA RESULT:    -3.531      1.945      5.374
REMARK INTER + INTRA:          -4.123
REMARK INTER:                  -4.023
REMARK INTRA:                  -0.101
REMARK UNBOUND:                -0.077
REMARK SMILES COc1cc(C(=O)[O-])ccc1O
REMARK SMILES IDX 5 1 9 2 4 3 10 4 3 5 11 6 6 7 7 8 8 9 2 10 1 11 12 12
REMARK H PARENT 12 13
REMARK Flexibility Score: inf
ROOT
ATOM      1  C   UNL     1     147.032 139.614 147.615  1.00  0.00     0.001 A 
ATOM      2  C   UNL     1     146.976 139.139 146.294  1.00  0.00     0.014 A 
ATOM      3  C   UNL     1     148.236 140.157 148.097  1.00  0.00     0.060 A 
ATOM      4  C   UNL     1     148.102 139.205 145.473  1.00  0.00     0.051 A 
ATOM      5  C   UNL     1     149.377 140.227 147.270  1.00  0.00     0.161 A 
ATOM      6  C   UNL     1     149.299 139.745 145.951  1.00  0.00     0.157 A 
ENDROOT
BRANCH   1   7
ATOM      7  C   UNL     1     145.840 139.545 148.490  1.00  0.00     0.072 C 
ATOM      8  O   UNL     1     145.965 139.376 149.732  1.00  0.00    -0.545 OA
ATOM      9  O   UNL     1     144.563 139.668 147.953  1.00  0.00    -0.545 OA
ENDBRANCH   1   7
BRANCH   5  10
ATOM     10  O   UNL     1     150.592 140.765 147.724  1.00  0.00    -0.493 OA
ATOM     11  C   UNL     1     151.561 140.047 148.480  1.00  0.00     0.278 C 
ENDBRANCH   5  10
BRANCH   6  12
ATOM     12  O   UNL     1     150.403 139.794 145.099  1.00  0.00    -0.504 OA
ATOM     13  H   UNL     1     151.002 138.992 144.945  1.00  0.00     0.293 HD
ENDBRANCH   6  12
TORSDOF 3
ENDMDL
MODEL 7
REMARK VINA RESULT:    -3.528      6.353      8.541
REMARK INTER + INTRA:          -4.121
REMARK INTER:                  -4.040
REMARK INTRA:                  -0.081
REMARK UNBOUND:                -0.077
REMARK SMILES COc1cc(C(=O)[O-])ccc1O
REMARK SMILES IDX 5 1 9 2 4 3 10 4 3 5 11 6 6 7 7 8 8 9 2 10 1 11 12 12
REMARK H PARENT 12 13
REMARK Flexibility Score: inf
ROOT
ATOM      1  C   UNL     1     151.582 141.890 141.921  1.00  0.00     0.001 A 
ATOM      2  C   UNL     1     151.207 141.299 140.703  1.00  0.00     0.014 A 
ATOM      3  C   UNL     1     150.839 141.600 143.079  1.00  0.00     0.060 A 
ATOM      4  C   UNL     1     150.112 140.438 140.644  1.00  0.00     0.051 A 
ATOM      5  C   UNL     1     149.731 140.729 143.026  1.00  0.00     0.161 A 
ATOM      6  C   UNL     1     149.373 140.149 141.795  1.00  0.00     0.157 A 
ENDROOT
BRANCH   1   7
ATOM      7  C   UNL     1     152.744 142.805 141.987  1.00  0.00     0.072 C 
ATOM      8  O   UNL     1     152.701 143.936 141.434  1.00  0.00    -0.545 OA
ATOM      9  O   UNL     1     153.900 142.430 142.662  1.00  0.00    -0.545 OA
ENDBRANCH   1   7
BRANCH   5  10
ATOM     10  O   UNL     1     148.971 140.422 144.166  1.00  0.00    -0.493 OA
ATOM     11  C   UNL     1     149.226 139.324 145.035  1.00  0.00     0.278 C 
ENDBRANCH   5  10
BRANCH   6  12
ATOM     12  O   UNL     1     148.284 139.282 141.697  1.00  0.00    -0.504 OA
ATOM     13  H   UNL     1     148.339 138.400 141.203  1.00  0.00     0.293 HD
ENDBRANCH   6  12
TORSDOF 3
ENDMDL
MODEL 8
REMARK VINA RESULT:    -3.506      1.656      4.748
REMARK INTER + INTRA:          -4.095
REMARK INTER:                  -3.994
REMARK INTRA:                  -0.100
REMARK UNBOUND:                -0.077
REMARK SMILES COc1cc(C(=O)[O-])ccc1O
REMARK SMILES IDX 5 1 9 2 4 3 10 4 3 5 11 6 6 7 7 8 8 9 2 10 1 11 12 12
REMARK H PARENT 12 13
REMARK Flexibility Score: inf
ROOT
ATOM      1  C   UNL     1     146.835 139.483 149.234  1.00  0.00     0.001 A 
ATOM      2  C   UNL     1     145.804 139.340 148.291  1.00  0.00     0.014 A 
ATOM      3  C   UNL     1     148.082 139.981 148.814  1.00  0.00     0.060 A 
ATOM      4  C   UNL     1     146.016 139.686 146.956  1.00  0.00     0.051 A 
ATOM      5  C   UNL     1     148.301 140.333 147.466  1.00  0.00     0.161 A 
ATOM      6  C   UNL     1     147.254 140.181 146.538  1.00  0.00     0.157 A 
ENDROOT
BRANCH   1   7
ATOM      7  C   UNL     1     146.615 139.117 150.651  1.00  0.00     0.072 C 
ATOM      8  O   UNL     1     147.587 138.822 151.395  1.00  0.00    -0.545 OA
ATOM      9  O   UNL     1     145.330 139.093 151.182  1.00  0.00    -0.545 OA
ENDBRANCH   1   7
BRANCH   5  10
ATOM     10  O   UNL     1     149.535 140.832 147.019  1.00  0.00    -0.493 OA
ATOM     11  C   UNL     1     150.715 140.051 146.864  1.00  0.00     0.278 C 
ENDBRANCH   5  10
BRANCH   6  12
ATOM     12  O   UNL     1     147.428 140.517 145.195  1.00  0.00    -0.504 OA
ATOM     13  H   UNL     1     146.700 140.967 144.653  1.00  0.00     0.293 HD
ENDBRANCH   6  12
TORSDOF 3
ENDMDL
MODEL 9
REMARK VINA RESULT:    -3.453      1.548      3.058
REMARK INTER + INTRA:          -4.035
REMARK INTER:                  -3.934
REMARK INTRA:                  -0.101
REMARK UNBOUND:                -0.077
REMARK SMILES COc1cc(C(=O)[O-])ccc1O
REMARK SMILES IDX 5 1 9 2 4 3 10 4 3 5 11 6 6 7 7 8 8 9 2 10 1 11 12 12
REMARK H PARENT 12 13
REMARK Flexibility Score: inf
ROOT
ATOM      1  C   UNL     1     148.423 140.031 147.221  1.00  0.00     0.001 A 
ATOM      2  C   UNL     1     147.312 139.707 146.424  1.00  0.00     0.014 A 
ATOM      3  C   UNL     1     148.270 140.081 148.618  1.00  0.00     0.060 A 
ATOM      4  C   UNL     1     146.075 139.441 147.011  1.00  0.00     0.051 A 
ATOM      5  C   UNL     1     147.022 139.812 149.217  1.00  0.00     0.161 A 
ATOM      6  C   UNL     1     145.923 139.490 148.400  1.00  0.00     0.157 A 
ENDROOT
BRANCH   1   7
ATOM      7  C   UNL     1     149.736 140.315 146.601  1.00  0.00     0.072 C 
ATOM      8  O   UNL     1     149.982 139.947 145.422  1.00  0.00    -0.545 OA
ATOM      9  O   UNL     1     150.720 140.994 147.312  1.00  0.00    -0.545 OA
ENDBRANCH   1   7
BRANCH   5  10
ATOM     10  O   UNL     1     146.841 139.854 150.609  1.00  0.00    -0.493 OA
ATOM     11  C   UNL     1     147.111 138.772 151.493  1.00  0.00     0.278 C 
ENDBRANCH   5  10
BRANCH   6  12
ATOM     12  O   UNL     1     144.671 139.217 148.950  1.00  0.00    -0.504 OA
ATOM     13  H   UNL     1     143.895 138.886 148.389  1.00  0.00     0.293 HD
ENDBRANCH   6  12
TORSDOF 3
ENDMDL
