MODEL 1
REMARK VINA RESULT:    -1.817      0.000      0.000
REMARK INTER + INTRA:          -2.184
REMARK INTER:                  -1.923
REMARK INTRA:                  -0.261
REMARK UNBOUND:                -0.261
REMARK SMILES O=c1cc(-c2ccccc2)oc2ccccc12
REMARK SMILES IDX 4 1 3 2 2 3 1 4 17 5 16 6 15 7 14 8 13 9 12 10 11 11 5 12
REMARK SMILES IDX 8 13 7 14 9 15 6 16 10 17
REMARK H PARENT
REMARK Flexibility Score: inf
ROOT
ATOM      1  C   UNL     1      -3.451   1.018  18.991  1.00  0.00     0.138 A 
ATOM      2  C   UNL     1      -3.033   2.345  18.761  1.00  0.00     0.100 A 
ATOM      3  C   UNL     1      -3.250   2.929  17.512  1.00  0.00     0.193 A 
ATOM      4  O   UNL     1      -2.876   4.116  17.306  1.00  0.00    -0.289 OA
ATOM      5  C   UNL     1      -3.881   2.187  16.503  1.00  0.00     0.065 A 
ATOM      6  C   UNL     1      -4.130   2.716  15.223  1.00  0.00     0.016 A 
ATOM      7  C   UNL     1      -4.763   1.932  14.253  1.00  0.00     0.001 A 
ATOM      8  C   UNL     1      -5.150   0.621  14.551  1.00  0.00     0.004 A 
ATOM      9  C   UNL     1      -4.907   0.090  15.821  1.00  0.00     0.048 A 
ATOM     10  C   UNL     1      -4.275   0.866  16.798  1.00  0.00     0.138 A 
ATOM     11  O   UNL     1      -4.047   0.350  18.002  1.00  0.00    -0.456 OA
ENDROOT
BRANCH   1  12
ATOM     12  C   UNL     1      -3.257   0.319  20.299  1.00  0.00     0.017 A 
ATOM     13  C   UNL     1      -2.884  -0.913  22.811  1.00  0.00     0.000 A 
ATOM     14  C   UNL     1      -2.877   0.478  22.707  1.00  0.00     0.001 A 
ATOM     15  C   UNL     1      -3.076  -1.694  21.672  1.00  0.00     0.001 A 
ATOM     16  C   UNL     1      -3.062   1.090  21.465  1.00  0.00     0.012 A 
ATOM     17  C   UNL     1      -3.260  -1.089  20.424  1.00  0.00     0.012 A 
ENDBRANCH   1  12
TORSDOF 1
ENDMDL
MODEL 2
REMARK VINA RESULT:    -1.618      1.191      2.645
REMARK INTER + INTRA:          -1.973
REMARK INTER:                  -1.710
REMARK INTRA:                  -0.263
REMARK UNBOUND:                -0.261
REMARK SMILES O=c1cc(-c2ccccc2)oc2ccccc12
REMARK SMILES IDX 4 1 3 2 2 3 1 4 17 5 16 6 15 7 14 8 13 9 12 10 11 11 5 12
REMARK SMILES IDX 8 13 7 14 9 15 6 16 10 17
REMARK H PARENT
REMARK Flexibility Score: inf
ROOT
ATOM      1  C   UNL     1      -3.410   0.615  18.537  1.00  0.00     0.138 A 
ATOM      2  C   UNL     1      -3.886  -0.286  17.561  1.00  0.00     0.100 A 
ATOM      3  C   UNL     1      -4.033   0.144  16.241  1.00  0.00     0.193 A 
ATOM      4  O   UNL     1      -4.459  -0.662  15.369  1.00  0.00    -0.289 OA
ATOM      5  C   UNL     1      -3.706   1.464  15.904  1.00  0.00     0.065 A 
ATOM      6  C   UNL     1      -3.831   1.960  14.593  1.00  0.00     0.016 A 
ATOM      7  C   UNL     1      -3.490   3.287  14.311  1.00  0.00     0.001 A 
ATOM      8  C   UNL     1      -3.024   4.125  15.329  1.00  0.00     0.004 A 
ATOM      9  C   UNL     1      -2.897   3.640  16.634  1.00  0.00     0.048 A 
ATOM     10  C   UNL     1      -3.234   2.314  16.926  1.00  0.00     0.138 A 
ATOM     11  O   UNL     1      -3.110   1.863  18.170  1.00  0.00    -0.456 OA
ENDROOT
BRANCH   1  12
ATOM     12  C   UNL     1      -3.222   0.237  19.972  1.00  0.00     0.017 A 
ATOM     13  C   UNL     1      -2.875  -0.573  22.653  1.00  0.00     0.000 A 
ATOM     14  C   UNL     1      -3.044  -1.528  21.652  1.00  0.00     0.001 A 
ATOM     15  C   UNL     1      -2.878   0.784  22.328  1.00  0.00     0.001 A 
ATOM     16  C   UNL     1      -3.216  -1.130  20.324  1.00  0.00     0.012 A 
ATOM     17  C   UNL     1      -3.051   1.191  21.001  1.00  0.00     0.012 A 
ENDBRANCH   1  12
TORSDOF 1
ENDMDL
MODEL 3
REMARK VINA RESULT:    -1.571      1.197      2.383
REMARK INTER + INTRA:          -1.924
REMARK INTER:                  -1.660
REMARK INTRA:                  -0.263
REMARK UNBOUND:                -0.261
REMARK SMILES O=c1cc(-c2ccccc2)oc2ccccc12
REMARK SMILES IDX 4 1 3 2 2 3 1 4 17 5 16 6 15 7 14 8 13 9 12 10 11 11 5 12
REMARK SMILES IDX 8 13 7 14 9 15 6 16 10 17
REMARK H PARENT
REMARK Flexibility Score: inf
ROOT
ATOM      1  C   UNL     1      -3.446   0.580  18.492  1.00  0.00     0.138 A 
ATOM      2  C   UNL     1      -3.945  -0.300  17.509  1.00  0.00     0.100 A 
ATOM      3  C   UNL     1      -4.096   0.149  16.196  1.00  0.00     0.193 A 
ATOM      4  O   UNL     1      -4.543  -0.638  15.318  1.00  0.00    -0.289 OA
ATOM      5  C   UNL     1      -3.751   1.468  15.873  1.00  0.00     0.065 A 
ATOM      6  C   UNL     1      -3.879   1.983  14.570  1.00  0.00     0.016 A 
ATOM      7  C   UNL     1      -3.519   3.308  14.302  1.00  0.00     0.001 A 
ATOM      8  C   UNL     1      -3.031   4.125  15.327  1.00  0.00     0.004 A 
ATOM      9  C   UNL     1      -2.901   3.621  16.624  1.00  0.00     0.048 A 
ATOM     10  C   UNL     1      -3.257   2.297  16.902  1.00  0.00     0.138 A 
ATOM     11  O   UNL     1      -3.130   1.827  18.139  1.00  0.00    -0.456 OA
ENDROOT
BRANCH   1  12
ATOM     12  C   UNL     1      -3.253   0.180  19.920  1.00  0.00     0.017 A 
ATOM     13  C   UNL     1      -2.881  -0.479  22.640  1.00  0.00     0.000 A 
ATOM     14  C   UNL     1      -2.876   0.857  22.238  1.00  0.00     0.001 A 
ATOM     15  C   UNL     1      -3.069  -1.488  21.696  1.00  0.00     0.001 A 
ATOM     16  C   UNL     1      -3.060   1.185  20.892  1.00  0.00     0.012 A 
ATOM     17  C   UNL     1      -3.254  -1.167  20.347  1.00  0.00     0.012 A 
ENDBRANCH   1  12
TORSDOF 1
ENDMDL
MODEL 4
REMARK VINA RESULT:     0.621      1.608      5.929
REMARK INTER + INTRA:           0.397
REMARK INTER:                   0.619
REMARK INTRA:                  -0.222
REMARK UNBOUND:                -0.261
REMARK SMILES O=c1cc(-c2ccccc2)oc2ccccc12
REMARK SMILES IDX 4 1 3 2 2 3 1 4 17 5 16 6 15 7 14 8 13 9 12 10 11 11 5 12
REMARK SMILES IDX 8 13 7 14 9 15 6 16 10 17
REMARK H PARENT
REMARK Flexibility Score: inf
ROOT
ATOM      1  C   UNL     1      -4.231   2.519  17.739  1.00  0.00     0.138 A 
ATOM      2  C   UNL     1      -3.841   3.443  18.731  1.00  0.00     0.100 A 
ATOM      3  C   UNL     1      -3.397   2.976  19.970  1.00  0.00     0.193 A 
ATOM      4  O   UNL     1      -3.049   3.802  20.857  1.00  0.00    -0.289 OA
ATOM      5  C   UNL     1      -3.345   1.596  20.210  1.00  0.00     0.065 A 
ATOM      6  C   UNL     1      -2.908   1.061  21.436  1.00  0.00     0.016 A 
ATOM      7  C   UNL     1      -2.875  -0.325  21.622  1.00  0.00     0.001 A 
ATOM      8  C   UNL     1      -3.277  -1.183  20.593  1.00  0.00     0.004 A 
ATOM      9  C   UNL     1      -3.712  -0.658  19.373  1.00  0.00     0.048 A 
ATOM     10  C   UNL     1      -3.748   0.726  19.175  1.00  0.00     0.138 A 
ATOM     11  O   UNL     1      -4.164   1.214  18.012  1.00  0.00    -0.456 OA
ENDROOT
BRANCH   1  12
ATOM     12  C   UNL     1      -4.717   2.933  16.387  1.00  0.00     0.017 A 
ATOM     13  C   UNL     1      -5.724   3.737  13.875  1.00  0.00     0.000 A 
ATOM     14  C   UNL     1      -6.542   3.785  15.003  1.00  0.00     0.001 A 
ATOM     15  C   UNL     1      -4.407   3.292  13.990  1.00  0.00     0.001 A 
ATOM     16  C   UNL     1      -6.046   3.388  16.248  1.00  0.00     0.012 A 
ATOM     17  C   UNL     1      -3.903   2.891  15.232  1.00  0.00     0.012 A 
ENDBRANCH   1  12
TORSDOF 1
ENDMDL
