MODEL 1
REMARK VINA RESULT:    -4.312      0.000      0.000
REMARK INTER + INTRA:         -14.944
REMARK INTER:                 -11.371
REMARK INTRA:                  -3.573
REMARK UNBOUND:                -3.573
REMARK SMILES CCCCCCCCCCCCCCCCCCCCCCCCCCCCCC(=O)[O-]
REMARK SMILES IDX 16 1 17 2 18 3 19 4 20 5 21 6 22 7 23 8 24 9 25 10 26 11
REMARK SMILES IDX 27 12 28 13 29 14 30 15 31 16 32 17 15 18 14 19 13 20 12 21
REMARK SMILES IDX 11 22 10 23 9 24 8 25 7 26 6 27 5 28 4 29 3 30 2 31 1 32
REMARK H PARENT
REMARK Flexibility Score: inf
ROOT
ATOM      1  C   UNL     1      -6.546  -4.994  -4.889  1.00  0.00     0.000 C 
ENDROOT
BRANCH   1   2
ATOM      2  C   UNL     1      -7.534  -4.018  -5.552  1.00  0.00     0.000 C 
BRANCH   2   3
ATOM      3  C   UNL     1      -7.003  -3.449  -6.878  1.00  0.00     0.000 C 
BRANCH   3   4
ATOM      4  C   UNL     1      -6.708  -1.941  -6.795  1.00  0.00     0.000 C 
BRANCH   4   5
ATOM      5  C   UNL     1      -7.978  -1.090  -6.650  1.00  0.00     0.000 C 
BRANCH   5   6
ATOM      6  C   UNL     1      -7.715   0.411  -6.866  1.00  0.00     0.000 C 
BRANCH   6   7
ATOM      7  C   UNL     1      -7.150   1.092  -5.609  1.00  0.00     0.000 C 
BRANCH   7   8
ATOM      8  C   UNL     1      -5.941   2.011  -5.903  1.00  0.00     0.000 C 
BRANCH   8   9
ATOM      9  C   UNL     1      -4.714   1.213  -6.378  1.00  0.00     0.000 C 
BRANCH   9  10
ATOM     10  C   UNL     1      -4.078   0.381  -5.244  1.00  0.00     0.000 C 
BRANCH  10  11
ATOM     11  C   UNL     1      -2.650  -0.099  -5.556  1.00  0.00     0.000 C 
BRANCH  11  12
ATOM     12  C   UNL     1      -2.345  -1.486  -4.968  1.00  0.00     0.000 C 
BRANCH  12  13
ATOM     13  C   UNL     1      -3.307  -2.574  -5.480  1.00  0.00     0.006 C 
BRANCH  13  14
ATOM     14  C   UNL     1      -2.604  -3.822  -6.040  1.00  0.00     0.053 C 
BRANCH  14  15
ATOM     15  C   UNL     1      -2.144  -4.742  -4.950  1.00  0.00     0.041 C 
ATOM     16  O   UNL     1      -0.940  -4.734  -4.578  1.00  0.00    -0.550 OA
ATOM     17  O   UNL     1      -3.039  -5.629  -4.367  1.00  0.00    -0.550 OA
ENDBRANCH  14  15
ENDBRANCH  13  14
ENDBRANCH  12  13
ENDBRANCH  11  12
ENDBRANCH  10  11
ENDBRANCH   9  10
ENDBRANCH   8   9
ENDBRANCH   7   8
ENDBRANCH   6   7
ENDBRANCH   5   6
ENDBRANCH   4   5
ENDBRANCH   3   4
ENDBRANCH   2   3
ENDBRANCH   1   2
BRANCH   1  18
ATOM     18  C   UNL     1      -7.096  -5.576  -3.569  1.00  0.00     0.000 C 
BRANCH  18  19
ATOM     19  C   UNL     1      -8.313  -4.814  -3.009  1.00  0.00     0.000 C 
BRANCH  19  20
ATOM     20  C   UNL     1      -8.335  -4.649  -1.481  1.00  0.00     0.000 C 
BRANCH  20  21
ATOM     21  C   UNL     1      -7.192  -5.407  -0.786  1.00  0.00     0.000 C 
BRANCH  21  22
ATOM     22  C   UNL     1      -7.090  -5.085   0.716  1.00  0.00     0.000 C 
BRANCH  22  23
ATOM     23  C   UNL     1      -5.899  -4.187   1.112  1.00  0.00     0.000 C 
BRANCH  23  24
ATOM     24  C   UNL     1      -4.509  -4.852   1.025  1.00  0.00    -0.000 C 
BRANCH  24  25
ATOM     25  C   UNL     1      -3.477  -4.352   2.052  1.00  0.00    -0.000 C 
BRANCH  25  26
ATOM     26  C   UNL     1      -3.570  -2.838   2.304  1.00  0.00    -0.000 C 
BRANCH  26  27
ATOM     27  C   UNL     1      -2.648  -2.030   1.376  1.00  0.00    -0.000 C 
BRANCH  27  28
ATOM     28  C   UNL     1      -1.286  -2.704   1.150  1.00  0.00    -0.000 C 
BRANCH  28  29
ATOM     29  C   UNL     1      -0.761  -2.417  -0.262  1.00  0.00    -0.000 C 
BRANCH  29  30
ATOM     30  C   UNL     1      -1.105  -3.561  -1.223  1.00  0.00    -0.000 C 
BRANCH  30  31
ATOM     31  C   UNL     1      -0.732  -4.919  -0.616  1.00  0.00    -0.003 C 
ATOM     32  C   UNL     1      -1.646  -6.025  -1.133  1.00  0.00     0.004 C 
ENDBRANCH  30  31
ENDBRANCH  29  30
ENDBRANCH  28  29
ENDBRANCH  27  28
ENDBRANCH  26  27
ENDBRANCH  25  26
ENDBRANCH  24  25
ENDBRANCH  23  24
ENDBRANCH  22  23
ENDBRANCH  21  22
ENDBRANCH  20  21
ENDBRANCH  19  20
ENDBRANCH  18  19
ENDBRANCH   1  18
TORSDOF 28
ENDMDL
MODEL 2
REMARK VINA RESULT:    -4.297      4.070      8.903
REMARK INTER + INTRA:         -14.903
REMARK INTER:                 -11.529
REMARK INTRA:                  -3.375
REMARK UNBOUND:                -3.573
REMARK SMILES CCCCCCCCCCCCCCCCCCCCCCCCCCCCCC(=O)[O-]
REMARK SMILES IDX 16 1 17 2 18 3 19 4 20 5 21 6 22 7 23 8 24 9 25 10 26 11
REMARK SMILES IDX 27 12 28 13 29 14 30 15 31 16 32 17 15 18 14 19 13 20 12 21
REMARK SMILES IDX 11 22 10 23 9 24 8 25 7 26 6 27 5 28 4 29 3 30 2 31 1 32
REMARK H PARENT
REMARK Flexibility Score: inf
ROOT
ATOM      1  C   UNL     1      -4.979  -2.860   1.481  1.00  0.00     0.000 C 
ENDROOT
BRANCH   1   2
ATOM      2  C   UNL     1      -3.655  -2.158   1.829  1.00  0.00     0.000 C 
BRANCH   2   3
ATOM      3  C   UNL     1      -2.423  -2.993   1.442  1.00  0.00     0.000 C 
BRANCH   3   4
ATOM      4  C   UNL     1      -1.377  -2.173   0.665  1.00  0.00     0.000 C 
BRANCH   4   5
ATOM      5  C   UNL     1      -0.987  -2.817  -0.674  1.00  0.00     0.000 C 
BRANCH   5   6
ATOM      6  C   UNL     1      -1.223  -4.337  -0.693  1.00  0.00     0.000 C 
BRANCH   6   7
ATOM      7  C   UNL     1       0.048  -5.130  -0.345  1.00  0.00     0.000 C 
BRANCH   7   8
ATOM      8  C   UNL     1      -0.047  -5.873   1.007  1.00  0.00     0.000 C 
BRANCH   8   9
ATOM      9  C   UNL     1       0.750  -5.161   2.113  1.00  0.00     0.000 C 
BRANCH   9  10
ATOM     10  C   UNL     1       1.763  -4.142   1.546  1.00  0.00     0.000 C 
BRANCH  10  11
ATOM     11  C   UNL     1       3.063  -4.044   2.363  1.00  0.00     0.000 C 
BRANCH  11  12
ATOM     12  C   UNL     1       4.322  -4.038   1.480  1.00  0.00     0.000 C 
BRANCH  12  13
ATOM     13  C   UNL     1       4.363  -5.220   0.495  1.00  0.00     0.006 C 
BRANCH  13  14
ATOM     14  C   UNL     1       5.592  -5.225  -0.430  1.00  0.00     0.053 C 
BRANCH  14  15
ATOM     15  C   UNL     1       6.875  -5.261   0.343  1.00  0.00     0.041 C 
ATOM     16  O   UNL     1       7.133  -6.234   1.102  1.00  0.00    -0.550 OA
ATOM     17  O   UNL     1       7.772  -4.205   0.249  1.00  0.00    -0.550 OA
ENDBRANCH  14  15
ENDBRANCH  13  14
ENDBRANCH  12  13
ENDBRANCH  11  12
ENDBRANCH  10  11
ENDBRANCH   9  10
ENDBRANCH   8   9
ENDBRANCH   7   8
ENDBRANCH   6   7
ENDBRANCH   5   6
ENDBRANCH   4   5
ENDBRANCH   3   4
ENDBRANCH   2   3
ENDBRANCH   1   2
BRANCH   1  18
ATOM     18  C   UNL     1      -4.833  -4.396   1.435  1.00  0.00     0.000 C 
BRANCH  18  19
ATOM     19  C   UNL     1      -6.144  -5.140   1.116  1.00  0.00     0.000 C 
BRANCH  19  20
ATOM     20  C   UNL     1      -7.119  -4.383   0.199  1.00  0.00     0.000 C 
BRANCH  20  21
ATOM     21  C   UNL     1      -8.553  -4.932   0.276  1.00  0.00     0.000 C 
BRANCH  21  22
ATOM     22  C   UNL     1      -9.568  -4.055  -0.479  1.00  0.00     0.000 C 
BRANCH  22  23
ATOM     23  C   UNL     1     -11.048  -4.335  -0.148  1.00  0.00     0.000 C 
BRANCH  23  24
ATOM     24  C   UNL     1     -11.946  -4.672  -1.357  1.00  0.00    -0.000 C 
BRANCH  24  25
ATOM     25  C   UNL     1     -11.618  -5.997  -2.068  1.00  0.00    -0.000 C 
BRANCH  25  26
ATOM     26  C   UNL     1     -11.298  -5.812  -3.561  1.00  0.00    -0.000 C 
BRANCH  26  27
ATOM     27  C   UNL     1     -10.020  -6.554  -3.985  1.00  0.00    -0.000 C 
BRANCH  27  28
ATOM     28  C   UNL     1      -9.118  -6.920  -2.796  1.00  0.00    -0.000 C 
BRANCH  28  29
ATOM     29  C   UNL     1      -7.703  -6.361  -2.990  1.00  0.00    -0.000 C 
BRANCH  29  30
ATOM     30  C   UNL     1      -7.743  -4.939  -3.561  1.00  0.00    -0.000 C 
BRANCH  30  31
ATOM     31  C   UNL     1      -7.017  -4.867  -4.910  1.00  0.00    -0.003 C 
ATOM     32  C   UNL     1      -7.664  -3.839  -5.832  1.00  0.00     0.004 C 
ENDBRANCH  30  31
ENDBRANCH  29  30
ENDBRANCH  28  29
ENDBRANCH  27  28
ENDBRANCH  26  27
ENDBRANCH  25  26
ENDBRANCH  24  25
ENDBRANCH  23  24
ENDBRANCH  22  23
ENDBRANCH  21  22
ENDBRANCH  20  21
ENDBRANCH  19  20
ENDBRANCH  18  19
ENDBRANCH   1  18
TORSDOF 28
ENDMDL
MODEL 3
REMARK VINA RESULT:    -4.288      4.842      8.477
REMARK INTER + INTRA:         -14.881
REMARK INTER:                 -11.321
REMARK INTRA:                  -3.560
REMARK UNBOUND:                -3.573
REMARK SMILES CCCCCCCCCCCCCCCCCCCCCCCCCCCCCC(=O)[O-]
REMARK SMILES IDX 16 1 17 2 18 3 19 4 20 5 21 6 22 7 23 8 24 9 25 10 26 11
REMARK SMILES IDX 27 12 28 13 29 14 30 15 31 16 32 17 15 18 14 19 13 20 12 21
REMARK SMILES IDX 11 22 10 23 9 24 8 25 7 26 6 27 5 28 4 29 3 30 2 31 1 32
REMARK H PARENT
REMARK Flexibility Score: inf
ROOT
ATOM      1  C   UNL     1      -0.536  -2.908  -0.131  1.00  0.00     0.000 C 
ENDROOT
BRANCH   1   2
ATOM      2  C   UNL     1      -1.487  -2.007   0.677  1.00  0.00     0.000 C 
BRANCH   2   3
ATOM      3  C   UNL     1      -2.414  -2.808   1.607  1.00  0.00     0.000 C 
BRANCH   3   4
ATOM      4  C   UNL     1      -3.735  -2.074   1.896  1.00  0.00     0.000 C 
BRANCH   4   5
ATOM      5  C   UNL     1      -4.974  -2.914   1.551  1.00  0.00     0.000 C 
BRANCH   5   6
ATOM      6  C   UNL     1      -4.625  -4.375   1.217  1.00  0.00     0.000 C 
BRANCH   6   7
ATOM      7  C   UNL     1      -5.013  -5.342   2.348  1.00  0.00     0.000 C 
BRANCH   7   8
ATOM      8  C   UNL     1      -6.159  -6.305   1.962  1.00  0.00     0.000 C 
BRANCH   8   9
ATOM      9  C   UNL     1      -7.480  -5.557   1.710  1.00  0.00     0.000 C 
BRANCH   9  10
ATOM     10  C   UNL     1      -7.953  -5.676   0.245  1.00  0.00     0.000 C 
BRANCH  10  11
ATOM     11  C   UNL     1      -7.732  -4.397  -0.581  1.00  0.00     0.000 C 
BRANCH  11  12
ATOM     12  C   UNL     1      -9.047  -3.757  -1.054  1.00  0.00     0.000 C 
BRANCH  12  13
ATOM     13  C   UNL     1     -10.276  -4.297  -0.299  1.00  0.00     0.006 C 
BRANCH  13  14
ATOM     14  C   UNL     1     -11.473  -4.632  -1.205  1.00  0.00     0.053 C 
BRANCH  14  15
ATOM     15  C   UNL     1     -11.187  -5.796  -2.104  1.00  0.00     0.041 C 
ATOM     16  O   UNL     1     -11.007  -5.616  -3.339  1.00  0.00    -0.550 OA
ATOM     17  O   UNL     1     -11.149  -7.083  -1.583  1.00  0.00    -0.550 OA
ENDBRANCH  14  15
ENDBRANCH  13  14
ENDBRANCH  12  13
ENDBRANCH  11  12
ENDBRANCH  10  11
ENDBRANCH   9  10
ENDBRANCH   8   9
ENDBRANCH   7   8
ENDBRANCH   6   7
ENDBRANCH   5   6
ENDBRANCH   4   5
ENDBRANCH   3   4
ENDBRANCH   2   3
ENDBRANCH   1   2
BRANCH   1  18
ATOM     18  C   UNL     1      -1.283  -3.747  -1.189  1.00  0.00     0.000 C 
BRANCH  18  19
ATOM     19  C   UNL     1      -0.625  -5.109  -1.487  1.00  0.00     0.000 C 
BRANCH  19  20
ATOM     20  C   UNL     1      -0.006  -5.815  -0.270  1.00  0.00     0.000 C 
BRANCH  20  21
ATOM     21  C   UNL     1      -0.954  -6.847   0.363  1.00  0.00     0.000 C 
BRANCH  21  22
ATOM     22  C   UNL     1      -1.496  -6.396   1.732  1.00  0.00     0.000 C 
BRANCH  22  23
ATOM     23  C   UNL     1      -0.524  -5.543   2.572  1.00  0.00     0.000 C 
BRANCH  23  24
ATOM     24  C   UNL     1       0.593  -6.327   3.293  1.00  0.00    -0.000 C 
BRANCH  24  25
ATOM     25  C   UNL     1       1.993  -5.691   3.218  1.00  0.00    -0.000 C 
BRANCH  25  26
ATOM     26  C   UNL     1       2.079  -4.551   2.190  1.00  0.00    -0.000 C 
BRANCH  26  27
ATOM     27  C   UNL     1       3.503  -4.358   1.643  1.00  0.00    -0.000 C 
BRANCH  27  28
ATOM     28  C   UNL     1       4.563  -4.270   2.752  1.00  0.00    -0.000 C 
BRANCH  28  29
ATOM     29  C   UNL     1       4.430  -2.956   3.532  1.00  0.00    -0.000 C 
BRANCH  29  30
ATOM     30  C   UNL     1       4.364  -3.214   5.042  1.00  0.00    -0.000 C 
BRANCH  30  31
ATOM     31  C   UNL     1       5.112  -2.124   5.819  1.00  0.00    -0.003 C 
ATOM     32  C   UNL     1       4.382  -0.788   5.736  1.00  0.00     0.004 C 
ENDBRANCH  30  31
ENDBRANCH  29  30
ENDBRANCH  28  29
ENDBRANCH  27  28
ENDBRANCH  26  27
ENDBRANCH  25  26
ENDBRANCH  24  25
ENDBRANCH  23  24
ENDBRANCH  22  23
ENDBRANCH  21  22
ENDBRANCH  20  21
ENDBRANCH  19  20
ENDBRANCH  18  19
ENDBRANCH   1  18
TORSDOF 28
ENDMDL
MODEL 4
REMARK VINA RESULT:    -4.283      2.267      7.292
REMARK INTER + INTRA:         -14.867
REMARK INTER:                 -10.822
REMARK INTRA:                  -4.045
REMARK UNBOUND:                -3.573
REMARK SMILES CCCCCCCCCCCCCCCCCCCCCCCCCCCCCC(=O)[O-]
REMARK SMILES IDX 16 1 17 2 18 3 19 4 20 5 21 6 22 7 23 8 24 9 25 10 26 11
REMARK SMILES IDX 27 12 28 13 29 14 30 15 31 16 32 17 15 18 14 19 13 20 12 21
REMARK SMILES IDX 11 22 10 23 9 24 8 25 7 26 6 27 5 28 4 29 3 30 2 31 1 32
REMARK H PARENT
REMARK Flexibility Score: inf
ROOT
ATOM      1  C   UNL     1      -9.130  -3.731  -0.768  1.00  0.00     0.000 C 
ENDROOT
BRANCH   1   2
ATOM      2  C   UNL     1      -7.813  -4.263  -0.175  1.00  0.00     0.000 C 
BRANCH   2   3
ATOM      3  C   UNL     1      -8.038  -5.369   0.868  1.00  0.00     0.000 C 
BRANCH   3   4
ATOM      4  C   UNL     1      -6.837  -6.325   0.982  1.00  0.00     0.000 C 
BRANCH   4   5
ATOM      5  C   UNL     1      -5.582  -5.793   0.273  1.00  0.00     0.000 C 
BRANCH   5   6
ATOM      6  C   UNL     1      -4.396  -5.598   1.234  1.00  0.00     0.000 C 
BRANCH   6   7
ATOM      7  C   UNL     1      -4.600  -4.402   2.179  1.00  0.00     0.000 C 
BRANCH   7   8
ATOM      8  C   UNL     1      -4.691  -3.047   1.438  1.00  0.00     0.000 C 
BRANCH   8   9
ATOM      9  C   UNL     1      -3.502  -2.129   1.768  1.00  0.00     0.000 C 
BRANCH   9  10
ATOM     10  C   UNL     1      -2.143  -2.788   1.448  1.00  0.00     0.000 C 
BRANCH  10  11
ATOM     11  C   UNL     1      -1.330  -2.041   0.377  1.00  0.00     0.000 C 
BRANCH  11  12
ATOM     12  C   UNL     1      -0.994  -2.921  -0.838  1.00  0.00     0.000 C 
BRANCH  12  13
ATOM     13  C   UNL     1      -1.406  -4.390  -0.640  1.00  0.00     0.006 C 
BRANCH  13  14
ATOM     14  C   UNL     1      -0.236  -5.386  -0.708  1.00  0.00     0.053 C 
BRANCH  14  15
ATOM     15  C   UNL     1      -0.703  -6.783  -0.986  1.00  0.00     0.041 C 
ATOM     16  O   UNL     1      -0.259  -7.415  -1.982  1.00  0.00    -0.550 OA
ATOM     17  O   UNL     1      -1.652  -7.374  -0.162  1.00  0.00    -0.550 OA
ENDBRANCH  14  15
ENDBRANCH  13  14
ENDBRANCH  12  13
ENDBRANCH  11  12
ENDBRANCH  10  11
ENDBRANCH   9  10
ENDBRANCH   8   9
ENDBRANCH   7   8
ENDBRANCH   6   7
ENDBRANCH   5   6
ENDBRANCH   4   5
ENDBRANCH   3   4
ENDBRANCH   2   3
ENDBRANCH   1   2
BRANCH   1  18
ATOM     18  C   UNL     1     -10.369  -4.285  -0.032  1.00  0.00     0.000 C 
BRANCH  18  19
ATOM     19  C   UNL     1     -11.581  -4.537  -0.950  1.00  0.00     0.000 C 
BRANCH  19  20
ATOM     20  C   UNL     1     -11.455  -5.754  -1.881  1.00  0.00     0.000 C 
BRANCH  20  21
ATOM     21  C   UNL     1     -11.094  -7.044  -1.125  1.00  0.00     0.000 C 
BRANCH  21  22
ATOM     22  C   UNL     1      -9.836  -7.731  -1.687  1.00  0.00     0.000 C 
BRANCH  22  23
ATOM     23  C   UNL     1      -9.259  -7.093  -2.967  1.00  0.00     0.000 C 
BRANCH  23  24
ATOM     24  C   UNL     1      -7.721  -7.141  -3.096  1.00  0.00    -0.000 C 
BRANCH  24  25
ATOM     25  C   UNL     1      -7.028  -5.769  -3.188  1.00  0.00    -0.000 C 
BRANCH  25  26
ATOM     26  C   UNL     1      -7.778  -4.780  -4.096  1.00  0.00    -0.000 C 
BRANCH  26  27
ATOM     27  C   UNL     1      -6.958  -4.380  -5.334  1.00  0.00    -0.000 C 
BRANCH  27  28
ATOM     28  C   UNL     1      -7.833  -3.885  -6.495  1.00  0.00    -0.000 C 
BRANCH  28  29
ATOM     29  C   UNL     1      -7.227  -2.632  -7.141  1.00  0.00    -0.000 C 
BRANCH  29  30
ATOM     30  C   UNL     1      -8.195  -1.446  -7.062  1.00  0.00    -0.000 C 
BRANCH  30  31
ATOM     31  C   UNL     1      -7.562  -0.270  -6.307  1.00  0.00    -0.003 C 
ATOM     32  C   UNL     1      -6.364   0.292  -7.063  1.00  0.00     0.004 C 
ENDBRANCH  30  31
ENDBRANCH  29  30
ENDBRANCH  28  29
ENDBRANCH  27  28
ENDBRANCH  26  27
ENDBRANCH  25  26
ENDBRANCH  24  25
ENDBRANCH  23  24
ENDBRANCH  22  23
ENDBRANCH  21  22
ENDBRANCH  20  21
ENDBRANCH  19  20
ENDBRANCH  18  19
ENDBRANCH   1  18
TORSDOF 28
ENDMDL
MODEL 5
REMARK VINA RESULT:    -4.278      3.976      7.837
REMARK INTER + INTRA:         -14.854
REMARK INTER:                  -9.904
REMARK INTRA:                  -4.950
REMARK UNBOUND:                -3.573
REMARK SMILES CCCCCCCCCCCCCCCCCCCCCCCCCCCCCC(=O)[O-]
REMARK SMILES IDX 16 1 17 2 18 3 19 4 20 5 21 6 22 7 23 8 24 9 25 10 26 11
REMARK SMILES IDX 27 12 28 13 29 14 30 15 31 16 32 17 15 18 14 19 13 20 12 21
REMARK SMILES IDX 11 22 10 23 9 24 8 25 7 26 6 27 5 28 4 29 3 30 2 31 1 32
REMARK H PARENT
REMARK Flexibility Score: inf
ROOT
ATOM      1  C   UNL     1      -3.723  -1.859   1.832  1.00  0.00     0.000 C 
ENDROOT
BRANCH   1   2
ATOM      2  C   UNL     1      -4.984  -2.696   1.556  1.00  0.00     0.000 C 
BRANCH   2   3
ATOM      3  C   UNL     1      -4.739  -4.206   1.715  1.00  0.00     0.000 C 
BRANCH   3   4
ATOM      4  C   UNL     1      -5.632  -5.048   0.787  1.00  0.00     0.000 C 
BRANCH   4   5
ATOM      5  C   UNL     1      -6.317  -6.215   1.514  1.00  0.00     0.000 C 
BRANCH   5   6
ATOM      6  C   UNL     1      -7.810  -5.957   1.777  1.00  0.00     0.000 C 
BRANCH   6   7
ATOM      7  C   UNL     1      -8.697  -7.120   1.303  1.00  0.00     0.000 C 
BRANCH   7   8
ATOM      8  C   UNL     1     -10.186  -6.946   1.681  1.00  0.00     0.000 C 
BRANCH   8   9
ATOM      9  C   UNL     1     -11.029  -6.458   0.490  1.00  0.00     0.000 C 
BRANCH   9  10
ATOM     10  C   UNL     1     -11.312  -4.942   0.550  1.00  0.00     0.000 C 
BRANCH  10  11
ATOM     11  C   UNL     1     -10.324  -4.096  -0.272  1.00  0.00     0.000 C 
BRANCH  11  12
ATOM     12  C   UNL     1      -9.767  -4.847  -1.492  1.00  0.00     0.000 C 
BRANCH  12  13
ATOM     13  C   UNL     1      -8.312  -4.462  -1.815  1.00  0.00     0.006 C 
BRANCH  13  14
ATOM     14  C   UNL     1      -7.461  -5.623  -2.357  1.00  0.00     0.053 C 
BRANCH  14  15
ATOM     15  C   UNL     1      -7.070  -5.410  -3.789  1.00  0.00     0.041 C 
ATOM     16  O   UNL     1      -7.638  -4.519  -4.477  1.00  0.00    -0.550 OA
ATOM     17  O   UNL     1      -6.101  -6.217  -4.371  1.00  0.00    -0.550 OA
ENDBRANCH  14  15
ENDBRANCH  13  14
ENDBRANCH  12  13
ENDBRANCH  11  12
ENDBRANCH  10  11
ENDBRANCH   9  10
ENDBRANCH   8   9
ENDBRANCH   7   8
ENDBRANCH   6   7
ENDBRANCH   5   6
ENDBRANCH   4   5
ENDBRANCH   3   4
ENDBRANCH   2   3
ENDBRANCH   1   2
BRANCH   1  18
ATOM     18  C   UNL     1      -2.425  -2.653   1.573  1.00  0.00     0.000 C 
BRANCH  18  19
ATOM     19  C   UNL     1      -1.642  -2.182   0.331  1.00  0.00     0.000 C 
BRANCH  19  20
ATOM     20  C   UNL     1      -0.155  -2.569   0.310  1.00  0.00     0.000 C 
BRANCH  20  21
ATOM     21  C   UNL     1       0.221  -3.539   1.443  1.00  0.00     0.000 C 
BRANCH  21  22
ATOM     22  C   UNL     1       1.558  -4.260   1.191  1.00  0.00     0.000 C 
BRANCH  22  23
ATOM     23  C   UNL     1       2.127  -5.026   2.403  1.00  0.00     0.000 C 
BRANCH  23  24
ATOM     24  C   UNL     1       2.298  -6.547   2.206  1.00  0.00    -0.000 C 
BRANCH  24  25
ATOM     25  C   UNL     1       1.258  -7.423   2.927  1.00  0.00    -0.000 C 
BRANCH  25  26
ATOM     26  C   UNL     1       0.546  -6.684   4.073  1.00  0.00    -0.000 C 
BRANCH  26  27
ATOM     27  C   UNL     1      -0.982  -6.854   4.024  1.00  0.00    -0.000 C 
BRANCH  27  28
ATOM     28  C   UNL     1      -1.648  -5.964   2.964  1.00  0.00    -0.000 C 
BRANCH  28  29
ATOM     29  C   UNL     1      -2.211  -6.810   1.814  1.00  0.00    -0.000 C 
BRANCH  29  30
ATOM     30  C   UNL     1      -1.386  -6.623   0.536  1.00  0.00    -0.000 C 
BRANCH  30  31
ATOM     31  C   UNL     1      -2.157  -5.797  -0.501  1.00  0.00    -0.003 C 
ATOM     32  C   UNL     1      -1.305  -5.528  -1.737  1.00  0.00     0.004 C 
ENDBRANCH  30  31
ENDBRANCH  29  30
ENDBRANCH  28  29
ENDBRANCH  27  28
ENDBRANCH  26  27
ENDBRANCH  25  26
ENDBRANCH  24  25
ENDBRANCH  23  24
ENDBRANCH  22  23
ENDBRANCH  21  22
ENDBRANCH  20  21
ENDBRANCH  19  20
ENDBRANCH  18  19
ENDBRANCH   1  18
TORSDOF 28
ENDMDL
MODEL 6
REMARK VINA RESULT:    -4.277      2.887      5.332
REMARK INTER + INTRA:         -14.850
REMARK INTER:                 -10.826
REMARK INTRA:                  -4.024
REMARK UNBOUND:                -3.573
REMARK SMILES CCCCCCCCCCCCCCCCCCCCCCCCCCCCCC(=O)[O-]
REMARK SMILES IDX 16 1 17 2 18 3 19 4 20 5 21 6 22 7 23 8 24 9 25 10 26 11
REMARK SMILES IDX 27 12 28 13 29 14 30 15 31 16 32 17 15 18 14 19 13 20 12 21
REMARK SMILES IDX 11 22 10 23 9 24 8 25 7 26 6 27 5 28 4 29 3 30 2 31 1 32
REMARK H PARENT
REMARK Flexibility Score: inf
ROOT
ATOM      1  C   UNL     1      -9.949  -4.841   0.083  1.00  0.00     0.000 C 
ENDROOT
BRANCH   1   2
ATOM      2  C   UNL     1     -11.451  -4.511   0.132  1.00  0.00     0.000 C 
BRANCH   2   3
ATOM      3  C   UNL     1     -12.114  -4.559  -1.255  1.00  0.00     0.000 C 
BRANCH   3   4
ATOM      4  C   UNL     1     -11.853  -5.888  -1.985  1.00  0.00     0.000 C 
BRANCH   4   5
ATOM      5  C   UNL     1     -11.697  -5.715  -3.504  1.00  0.00     0.000 C 
BRANCH   5   6
ATOM      6  C   UNL     1     -10.276  -6.041  -3.995  1.00  0.00     0.000 C 
BRANCH   6   7
ATOM      7  C   UNL     1      -9.475  -6.859  -2.968  1.00  0.00     0.000 C 
BRANCH   7   8
ATOM      8  C   UNL     1      -8.005  -6.399  -2.833  1.00  0.00     0.000 C 
BRANCH   8   9
ATOM      9  C   UNL     1      -7.723  -5.126  -3.649  1.00  0.00     0.000 C 
BRANCH   9  10
ATOM     10  C   UNL     1      -6.463  -5.259  -4.531  1.00  0.00     0.000 C 
BRANCH  10  11
ATOM     11  C   UNL     1      -6.667  -4.775  -5.977  1.00  0.00     0.000 C 
BRANCH  11  12
ATOM     12  C   UNL     1      -7.956  -3.957  -6.156  1.00  0.00     0.000 C 
BRANCH  12  13
ATOM     13  C   UNL     1      -7.682  -2.470  -6.445  1.00  0.00     0.006 C 
BRANCH  13  14
ATOM     14  C   UNL     1      -6.292  -2.191  -7.041  1.00  0.00     0.053 C 
BRANCH  14  15
ATOM     15  C   UNL     1      -6.376  -1.693  -8.451  1.00  0.00     0.041 C 
ATOM     16  O   UNL     1      -6.103  -2.461  -9.413  1.00  0.00    -0.550 OA
ATOM     17  O   UNL     1      -6.726  -0.373  -8.702  1.00  0.00    -0.550 OA
ENDBRANCH  14  15
ENDBRANCH  13  14
ENDBRANCH  12  13
ENDBRANCH  11  12
ENDBRANCH  10  11
ENDBRANCH   9  10
ENDBRANCH   8   9
ENDBRANCH   7   8
ENDBRANCH   6   7
ENDBRANCH   5   6
ENDBRANCH   4   5
ENDBRANCH   3   4
ENDBRANCH   2   3
ENDBRANCH   1   2
BRANCH   1  18
ATOM     18  C   UNL     1      -9.134  -3.752  -0.646  1.00  0.00     0.000 C 
BRANCH  18  19
ATOM     19  C   UNL     1      -7.648  -3.706  -0.240  1.00  0.00     0.000 C 
BRANCH  19  20
ATOM     20  C   UNL     1      -7.186  -4.846   0.682  1.00  0.00     0.000 C 
BRANCH  20  21
ATOM     21  C   UNL     1      -5.735  -5.277   0.412  1.00  0.00     0.000 C 
BRANCH  21  22
ATOM     22  C   UNL     1      -4.917  -5.457   1.704  1.00  0.00     0.000 C 
BRANCH  22  23
ATOM     23  C   UNL     1      -4.442  -4.147   2.366  1.00  0.00     0.000 C 
BRANCH  23  24
ATOM     24  C   UNL     1      -4.166  -2.978   1.397  1.00  0.00    -0.000 C 
BRANCH  24  25
ATOM     25  C   UNL     1      -2.804  -2.283   1.580  1.00  0.00    -0.000 C 
BRANCH  25  26
ATOM     26  C   UNL     1      -1.643  -3.277   1.747  1.00  0.00    -0.000 C 
BRANCH  26  27
ATOM     27  C   UNL     1      -0.484  -2.997   0.776  1.00  0.00    -0.000 C 
BRANCH  27  28
ATOM     28  C   UNL     1      -0.949  -2.362  -0.543  1.00  0.00    -0.000 C 
BRANCH  28  29
ATOM     29  C   UNL     1      -1.236  -3.438  -1.598  1.00  0.00    -0.000 C 
BRANCH  29  30
ATOM     30  C   UNL     1      -0.795  -4.822  -1.110  1.00  0.00    -0.000 C 
BRANCH  30  31
ATOM     31  C   UNL     1      -1.995  -5.770  -0.986  1.00  0.00    -0.003 C 
ATOM     32  C   UNL     1      -1.820  -6.732   0.184  1.00  0.00     0.004 C 
ENDBRANCH  30  31
ENDBRANCH  29  30
ENDBRANCH  28  29
ENDBRANCH  27  28
ENDBRANCH  26  27
ENDBRANCH  25  26
ENDBRANCH  24  25
ENDBRANCH  23  24
ENDBRANCH  22  23
ENDBRANCH  21  22
ENDBRANCH  20  21
ENDBRANCH  19  20
ENDBRANCH  18  19
ENDBRANCH   1  18
TORSDOF 28
ENDMDL
MODEL 7
REMARK VINA RESULT:    -4.225      3.458      6.861
REMARK INTER + INTRA:         -14.714
REMARK INTER:                  -8.949
REMARK INTRA:                  -5.764
REMARK UNBOUND:                -3.573
REMARK SMILES CCCCCCCCCCCCCCCCCCCCCCCCCCCCCC(=O)[O-]
REMARK SMILES IDX 16 1 17 2 18 3 19 4 20 5 21 6 22 7 23 8 24 9 25 10 26 11
REMARK SMILES IDX 27 12 28 13 29 14 30 15 31 16 32 17 15 18 14 19 13 20 12 21
REMARK SMILES IDX 11 22 10 23 9 24 8 25 7 26 6 27 5 28 4 29 3 30 2 31 1 32
REMARK H PARENT
REMARK Flexibility Score: inf
ROOT
ATOM      1  C   UNL     1      -1.353  -6.421  -0.848  1.00  0.00     0.000 C 
ENDROOT
BRANCH   1   2
ATOM      2  C   UNL     1      -2.813  -5.994  -0.615  1.00  0.00     0.000 C 
BRANCH   2   3
ATOM      3  C   UNL     1      -3.818  -7.098  -0.986  1.00  0.00     0.000 C 
BRANCH   3   4
ATOM      4  C   UNL     1      -5.276  -6.674  -0.736  1.00  0.00     0.000 C 
BRANCH   4   5
ATOM      5  C   UNL     1      -6.290  -7.761  -1.124  1.00  0.00     0.000 C 
BRANCH   5   6
ATOM      6  C   UNL     1      -7.618  -7.633  -0.358  1.00  0.00     0.000 C 
BRANCH   6   7
ATOM      7  C   UNL     1      -7.497  -6.724   0.875  1.00  0.00     0.000 C 
BRANCH   7   8
ATOM      8  C   UNL     1      -8.464  -5.518   0.842  1.00  0.00     0.000 C 
BRANCH   8   9
ATOM      9  C   UNL     1      -7.786  -4.252   0.290  1.00  0.00     0.000 C 
BRANCH   9  10
ATOM     10  C   UNL     1      -8.359  -3.826  -1.079  1.00  0.00     0.000 C 
BRANCH  10  11
ATOM     11  C   UNL     1      -9.531  -4.701  -1.558  1.00  0.00     0.000 C 
BRANCH  11  12
ATOM     12  C   UNL     1      -9.238  -5.411  -2.890  1.00  0.00     0.000 C 
BRANCH  12  13
ATOM     13  C   UNL     1      -7.791  -5.202  -3.371  1.00  0.00     0.006 C 
BRANCH  13  14
ATOM     14  C   UNL     1      -7.678  -4.524  -4.747  1.00  0.00     0.053 C 
BRANCH  14  15
ATOM     15  C   UNL     1      -7.281  -5.492  -5.819  1.00  0.00     0.041 C 
ATOM     16  O   UNL     1      -8.161  -6.149  -6.439  1.00  0.00    -0.550 OA
ATOM     17  O   UNL     1      -5.939  -5.693  -6.112  1.00  0.00    -0.550 OA
ENDBRANCH  14  15
ENDBRANCH  13  14
ENDBRANCH  12  13
ENDBRANCH  11  12
ENDBRANCH  10  11
ENDBRANCH   9  10
ENDBRANCH   8   9
ENDBRANCH   7   8
ENDBRANCH   6   7
ENDBRANCH   5   6
ENDBRANCH   4   5
ENDBRANCH   3   4
ENDBRANCH   2   3
ENDBRANCH   1   2
BRANCH   1  18
ATOM     18  C   UNL     1      -0.447  -5.226  -1.217  1.00  0.00     0.000 C 
BRANCH  18  19
ATOM     19  C   UNL     1      -1.220  -3.966  -1.654  1.00  0.00     0.000 C 
BRANCH  19  20
ATOM     20  C   UNL     1      -0.842  -2.676  -0.908  1.00  0.00     0.000 C 
BRANCH  20  21
ATOM     21  C   UNL     1      -0.300  -2.946   0.505  1.00  0.00     0.000 C 
BRANCH  21  22
ATOM     22  C   UNL     1      -1.415  -3.039   1.563  1.00  0.00     0.000 C 
BRANCH  22  23
ATOM     23  C   UNL     1      -2.645  -2.147   1.298  1.00  0.00     0.000 C 
BRANCH  23  24
ATOM     24  C   UNL     1      -3.943  -2.578   2.012  1.00  0.00    -0.000 C 
BRANCH  24  25
ATOM     25  C   UNL     1      -4.549  -3.907   1.524  1.00  0.00    -0.000 C 
BRANCH  25  26
ATOM     26  C   UNL     1      -4.836  -4.890   2.672  1.00  0.00    -0.000 C 
BRANCH  26  27
ATOM     27  C   UNL     1      -3.838  -4.748   3.832  1.00  0.00    -0.000 C 
BRANCH  27  28
ATOM     28  C   UNL     1      -3.138  -6.069   4.185  1.00  0.00    -0.000 C 
BRANCH  28  29
ATOM     29  C   UNL     1      -2.088  -6.432   3.127  1.00  0.00    -0.000 C 
BRANCH  29  30
ATOM     30  C   UNL     1      -2.404  -7.783   2.474  1.00  0.00    -0.000 C 
BRANCH  30  31
ATOM     31  C   UNL     1      -3.566  -8.481   3.191  1.00  0.00    -0.003 C 
ATOM     32  C   UNL     1      -4.684  -8.832   2.215  1.00  0.00     0.004 C 
ENDBRANCH  30  31
ENDBRANCH  29  30
ENDBRANCH  28  29
ENDBRANCH  27  28
ENDBRANCH  26  27
ENDBRANCH  25  26
ENDBRANCH  24  25
ENDBRANCH  23  24
ENDBRANCH  22  23
ENDBRANCH  21  22
ENDBRANCH  20  21
ENDBRANCH  19  20
ENDBRANCH  18  19
ENDBRANCH   1  18
TORSDOF 28
ENDMDL
MODEL 8
REMARK VINA RESULT:    -4.203      3.959      7.344
REMARK INTER + INTRA:         -14.655
REMARK INTER:                  -9.762
REMARK INTRA:                  -4.893
REMARK UNBOUND:                -3.573
REMARK SMILES CCCCCCCCCCCCCCCCCCCCCCCCCCCCCC(=O)[O-]
REMARK SMILES IDX 16 1 17 2 18 3 19 4 20 5 21 6 22 7 23 8 24 9 25 10 26 11
REMARK SMILES IDX 27 12 28 13 29 14 30 15 31 16 32 17 15 18 14 19 13 20 12 21
REMARK SMILES IDX 11 22 10 23 9 24 8 25 7 26 6 27 5 28 4 29 3 30 2 31 1 32
REMARK H PARENT
REMARK Flexibility Score: inf
ROOT
ATOM      1  C   UNL     1      -1.504  -2.609   1.435  1.00  0.00     0.000 C 
ENDROOT
BRANCH   1   2
ATOM      2  C   UNL     1      -2.825  -1.894   1.104  1.00  0.00     0.000 C 
BRANCH   2   3
ATOM      3  C   UNL     1      -3.924  -2.169   2.144  1.00  0.00     0.000 C 
BRANCH   3   4
ATOM      4  C   UNL     1      -3.938  -3.635   2.611  1.00  0.00     0.000 C 
BRANCH   4   5
ATOM      5  C   UNL     1      -4.357  -4.612   1.502  1.00  0.00     0.000 C 
BRANCH   5   6
ATOM      6  C   UNL     1      -5.844  -4.484   1.129  1.00  0.00     0.000 C 
BRANCH   6   7
ATOM      7  C   UNL     1      -6.527  -5.852   0.970  1.00  0.00     0.000 C 
BRANCH   7   8
ATOM      8  C   UNL     1      -7.918  -5.921   1.641  1.00  0.00     0.000 C 
BRANCH   8   9
ATOM      9  C   UNL     1      -9.045  -6.114   0.612  1.00  0.00     0.000 C 
BRANCH   9  10
ATOM     10  C   UNL     1      -9.836  -4.813   0.355  1.00  0.00     0.000 C 
BRANCH  10  11
ATOM     11  C   UNL     1      -9.756  -4.317  -1.099  1.00  0.00     0.000 C 
BRANCH  11  12
ATOM     12  C   UNL     1      -8.309  -4.135  -1.588  1.00  0.00     0.000 C 
BRANCH  12  13
ATOM     13  C   UNL     1      -8.058  -4.788  -2.959  1.00  0.00     0.006 C 
BRANCH  13  14
ATOM     14  C   UNL     1      -6.897  -5.797  -2.972  1.00  0.00     0.053 C 
BRANCH  14  15
ATOM     15  C   UNL     1      -7.324  -7.149  -2.485  1.00  0.00     0.041 C 
ATOM     16  O   UNL     1      -6.495  -7.909  -1.916  1.00  0.00    -0.550 OA
ATOM     17  O   UNL     1      -8.628  -7.580  -2.687  1.00  0.00    -0.550 OA
ENDBRANCH  14  15
ENDBRANCH  13  14
ENDBRANCH  12  13
ENDBRANCH  11  12
ENDBRANCH  10  11
ENDBRANCH   9  10
ENDBRANCH   8   9
ENDBRANCH   7   8
ENDBRANCH   6   7
ENDBRANCH   5   6
ENDBRANCH   4   5
ENDBRANCH   3   4
ENDBRANCH   2   3
ENDBRANCH   1   2
BRANCH   1  18
ATOM     18  C   UNL     1      -0.495  -2.544   0.269  1.00  0.00     0.000 C 
BRANCH  18  19
ATOM     19  C   UNL     1      -1.020  -3.152  -1.047  1.00  0.00     0.000 C 
BRANCH  19  20
ATOM     20  C   UNL     1      -0.948  -4.684  -1.134  1.00  0.00     0.000 C 
BRANCH  20  21
ATOM     21  C   UNL     1      -1.233  -5.212  -2.550  1.00  0.00     0.000 C 
BRANCH  21  22
ATOM     22  C   UNL     1      -2.310  -6.313  -2.570  1.00  0.00     0.000 C 
BRANCH  22  23
ATOM     23  C   UNL     1      -3.088  -6.490  -1.250  1.00  0.00     0.000 C 
BRANCH  23  24
ATOM     24  C   UNL     1      -2.947  -7.873  -0.578  1.00  0.00    -0.000 C 
BRANCH  24  25
ATOM     25  C   UNL     1      -2.727  -7.843   0.945  1.00  0.00    -0.000 C 
BRANCH  25  26
ATOM     26  C   UNL     1      -1.277  -7.510   1.333  1.00  0.00    -0.000 C 
BRANCH  26  27
ATOM     27  C   UNL     1      -1.177  -6.257   2.218  1.00  0.00    -0.000 C 
BRANCH  27  28
ATOM     28  C   UNL     1      -0.319  -6.477   3.474  1.00  0.00    -0.000 C 
BRANCH  28  29
ATOM     29  C   UNL     1       1.105  -5.947   3.263  1.00  0.00    -0.000 C 
BRANCH  29  30
ATOM     30  C   UNL     1       1.184  -5.052   2.021  1.00  0.00    -0.000 C 
BRANCH  30  31
ATOM     31  C   UNL     1       2.460  -5.336   1.219  1.00  0.00    -0.003 C 
ATOM     32  C   UNL     1       2.178  -6.265   0.043  1.00  0.00     0.004 C 
ENDBRANCH  30  31
ENDBRANCH  29  30
ENDBRANCH  28  29
ENDBRANCH  27  28
ENDBRANCH  26  27
ENDBRANCH  25  26
ENDBRANCH  24  25
ENDBRANCH  23  24
ENDBRANCH  22  23
ENDBRANCH  21  22
ENDBRANCH  20  21
ENDBRANCH  19  20
ENDBRANCH  18  19
ENDBRANCH   1  18
TORSDOF 28
ENDMDL
MODEL 9
REMARK VINA RESULT:    -4.171      4.908      8.750
REMARK INTER + INTRA:         -14.571
REMARK INTER:                 -10.365
REMARK INTRA:                  -4.206
REMARK UNBOUND:                -3.573
REMARK SMILES CCCCCCCCCCCCCCCCCCCCCCCCCCCCCC(=O)[O-]
REMARK SMILES IDX 16 1 17 2 18 3 19 4 20 5 21 6 22 7 23 8 24 9 25 10 26 11
REMARK SMILES IDX 27 12 28 13 29 14 30 15 31 16 32 17 15 18 14 19 13 20 12 21
REMARK SMILES IDX 11 22 10 23 9 24 8 25 7 26 6 27 5 28 4 29 3 30 2 31 1 32
REMARK H PARENT
REMARK Flexibility Score: inf
ROOT
ATOM      1  C   UNL     1      -5.260  -4.439   1.500  1.00  0.00     0.000 C 
ENDROOT
BRANCH   1   2
ATOM      2  C   UNL     1      -5.335  -2.903   1.454  1.00  0.00     0.000 C 
BRANCH   2   3
ATOM      3  C   UNL     1      -4.039  -2.232   1.939  1.00  0.00     0.000 C 
BRANCH   3   4
ATOM      4  C   UNL     1      -2.779  -2.908   1.371  1.00  0.00     0.000 C 
BRANCH   4   5
ATOM      5  C   UNL     1      -1.829  -1.918   0.680  1.00  0.00     0.000 C 
BRANCH   5   6
ATOM      6  C   UNL     1      -0.648  -2.616  -0.016  1.00  0.00     0.000 C 
BRANCH   6   7
ATOM      7  C   UNL     1       0.354  -3.209   0.988  1.00  0.00     0.000 C 
BRANCH   7   8
ATOM      8  C   UNL     1       0.580  -4.728   0.800  1.00  0.00     0.000 C 
BRANCH   8   9
ATOM      9  C   UNL     1      -0.133  -5.265  -0.453  1.00  0.00     0.000 C 
BRANCH   9  10
ATOM     10  C   UNL     1      -1.174  -6.354  -0.116  1.00  0.00     0.000 C 
BRANCH  10  11
ATOM     11  C   UNL     1      -1.750  -6.241   1.307  1.00  0.00     0.000 C 
BRANCH  11  12
ATOM     12  C   UNL     1      -1.708  -7.572   2.075  1.00  0.00     0.000 C 
BRANCH  12  13
ATOM     13  C   UNL     1      -2.187  -7.434   3.531  1.00  0.00     0.006 C 
BRANCH  13  14
ATOM     14  C   UNL     1      -3.566  -6.770   3.679  1.00  0.00     0.053 C 
BRANCH  14  15
ATOM     15  C   UNL     1      -3.681  -5.996   4.957  1.00  0.00     0.041 C 
ATOM     16  O   UNL     1      -2.967  -6.300   5.951  1.00  0.00    -0.550 OA
ATOM     17  O   UNL     1      -4.599  -4.960   5.061  1.00  0.00    -0.550 OA
ENDBRANCH  14  15
ENDBRANCH  13  14
ENDBRANCH  12  13
ENDBRANCH  11  12
ENDBRANCH  10  11
ENDBRANCH   9  10
ENDBRANCH   8   9
ENDBRANCH   7   8
ENDBRANCH   6   7
ENDBRANCH   5   6
ENDBRANCH   4   5
ENDBRANCH   3   4
ENDBRANCH   2   3
ENDBRANCH   1   2
BRANCH   1  18
ATOM     18  C   UNL     1      -6.032  -5.097   0.336  1.00  0.00     0.000 C 
BRANCH  18  19
ATOM     19  C   UNL     1      -7.551  -4.841   0.369  1.00  0.00     0.000 C 
BRANCH  19  20
ATOM     20  C   UNL     1      -8.068  -3.836  -0.673  1.00  0.00     0.000 C 
BRANCH  20  21
ATOM     21  C   UNL     1      -8.344  -4.487  -2.038  1.00  0.00     0.000 C 
BRANCH  21  22
ATOM     22  C   UNL     1      -8.525  -6.013  -1.945  1.00  0.00     0.000 C 
BRANCH  22  23
ATOM     23  C   UNL     1      -9.794  -6.563  -2.629  1.00  0.00     0.000 C 
BRANCH  23  24
ATOM     24  C   UNL     1     -10.964  -5.565  -2.759  1.00  0.00    -0.000 C 
BRANCH  24  25
ATOM     25  C   UNL     1     -12.020  -5.643  -1.642  1.00  0.00    -0.000 C 
BRANCH  25  26
ATOM     26  C   UNL     1     -11.951  -4.454  -0.669  1.00  0.00    -0.000 C 
BRANCH  26  27
ATOM     27  C   UNL     1     -11.359  -4.844   0.696  1.00  0.00    -0.000 C 
BRANCH  27  28
ATOM     28  C   UNL     1     -11.025  -6.340   0.797  1.00  0.00    -0.000 C 
BRANCH  28  29
ATOM     29  C   UNL     1     -10.666  -6.724   2.238  1.00  0.00    -0.000 C 
BRANCH  29  30
ATOM     30  C   UNL     1      -9.330  -7.473   2.294  1.00  0.00    -0.000 C 
BRANCH  30  31
ATOM     31  C   UNL     1      -8.702  -7.373   3.690  1.00  0.00    -0.003 C 
ATOM     32  C   UNL     1      -7.337  -6.695   3.634  1.00  0.00     0.004 C 
ENDBRANCH  30  31
ENDBRANCH  29  30
ENDBRANCH  28  29
ENDBRANCH  27  28
ENDBRANCH  26  27
ENDBRANCH  25  26
ENDBRANCH  24  25
ENDBRANCH  23  24
ENDBRANCH  22  23
ENDBRANCH  21  22
ENDBRANCH  20  21
ENDBRANCH  19  20
ENDBRANCH  18  19
ENDBRANCH   1  18
TORSDOF 28
ENDMDL
