MODEL 1
REMARK VINA RESULT:    -3.245      0.000      0.000
REMARK INTER + INTRA:          -3.680
REMARK INTER:                  -3.624
REMARK INTRA:                  -0.056
REMARK UNBOUND:                -0.056
REMARK SMILES CCCC(=O)[O-]
REMARK SMILES IDX 3 1 4 2 5 3 6 4 2 5 1 6
REMARK H PARENT
REMARK Flexibility Score: inf
ROOT
ATOM      1  C   UNL     1     -10.480  -3.466  -1.903  1.00  0.00     0.052 C 
ENDROOT
BRANCH   1   2
ATOM      2  C   UNL     1      -8.988  -3.596  -1.854  1.00  0.00     0.041 C 
ATOM      3  O   UNL     1      -8.456  -4.711  -1.606  1.00  0.00    -0.550 OA
ATOM      4  O   UNL     1      -8.185  -2.494  -2.114  1.00  0.00    -0.550 OA
ENDBRANCH   1   2
BRANCH   1   5
ATOM      5  C   UNL     1     -11.085  -4.313  -3.029  1.00  0.00     0.003 C 
ATOM      6  C   UNL     1     -10.988  -3.627  -4.392  1.00  0.00     0.004 C 
ENDBRANCH   1   5
TORSDOF 2
ENDMDL
MODEL 2
REMARK VINA RESULT:    -3.238      1.912      2.685
REMARK INTER + INTRA:          -3.673
REMARK INTER:                  -3.656
REMARK INTRA:                  -0.017
REMARK UNBOUND:                -0.056
REMARK SMILES CCCC(=O)[O-]
REMARK SMILES IDX 3 1 4 2 5 3 6 4 2 5 1 6
REMARK H PARENT
REMARK Flexibility Score: inf
ROOT
ATOM      1  C   UNL     1      -9.338  -4.026  -1.876  1.00  0.00     0.052 C 
ENDROOT
BRANCH   1   2
ATOM      2  C   UNL     1      -9.592  -4.088  -3.351  1.00  0.00     0.041 C 
ATOM      3  O   UNL     1      -9.242  -5.101  -4.013  1.00  0.00    -0.550 OA
ATOM      4  O   UNL     1     -10.244  -3.042  -3.989  1.00  0.00    -0.550 OA
ENDBRANCH   1   2
BRANCH   1   5
ATOM      5  C   UNL     1     -10.358  -3.130  -1.163  1.00  0.00     0.003 C 
ATOM      6  C   UNL     1     -11.124  -3.875  -0.069  1.00  0.00     0.004 C 
ENDBRANCH   1   5
TORSDOF 2
ENDMDL
MODEL 3
REMARK VINA RESULT:    -3.236      0.103      1.326
REMARK INTER + INTRA:          -3.670
REMARK INTER:                  -3.610
REMARK INTRA:                  -0.060
REMARK UNBOUND:                -0.056
REMARK SMILES CCCC(=O)[O-]
REMARK SMILES IDX 3 1 4 2 5 3 6 4 2 5 1 6
REMARK H PARENT
REMARK Flexibility Score: inf
ROOT
ATOM      1  C   UNL     1     -10.442  -3.362  -1.870  1.00  0.00     0.052 C 
ENDROOT
BRANCH   1   2
ATOM      2  C   UNL     1      -8.953  -3.528  -1.851  1.00  0.00     0.041 C 
ATOM      3  O   UNL     1      -8.203  -2.539  -2.065  1.00  0.00    -0.550 OA
ATOM      4  O   UNL     1      -8.395  -4.766  -1.566  1.00  0.00    -0.550 OA
ENDBRANCH   1   2
BRANCH   1   5
ATOM      5  C   UNL     1     -11.090  -4.196  -2.983  1.00  0.00     0.003 C 
ATOM      6  C   UNL     1     -10.871  -3.588  -4.369  1.00  0.00     0.004 C 
ENDBRANCH   1   5
TORSDOF 2
ENDMDL
MODEL 4
REMARK VINA RESULT:    -3.212      1.894      2.905
REMARK INTER + INTRA:          -3.644
REMARK INTER:                  -3.636
REMARK INTRA:                  -0.008
REMARK UNBOUND:                -0.056
REMARK SMILES CCCC(=O)[O-]
REMARK SMILES IDX 3 1 4 2 5 3 6 4 2 5 1 6
REMARK H PARENT
REMARK Flexibility Score: inf
ROOT
ATOM      1  C   UNL     1      -9.452  -3.944  -1.803  1.00  0.00     0.052 C 
ENDROOT
BRANCH   1   2
ATOM      2  C   UNL     1      -9.516  -4.028  -3.298  1.00  0.00     0.041 C 
ATOM      3  O   UNL     1     -10.062  -3.108  -3.962  1.00  0.00    -0.550 OA
ATOM      4  O   UNL     1      -8.943  -5.106  -3.958  1.00  0.00    -0.550 OA
ENDBRANCH   1   2
BRANCH   1   5
ATOM      5  C   UNL     1     -10.738  -3.350  -1.214  1.00  0.00     0.003 C 
ATOM      6  C   UNL     1     -11.051  -3.903   0.176  1.00  0.00     0.004 C 
ENDBRANCH   1   5
TORSDOF 2
ENDMDL
MODEL 5
REMARK VINA RESULT:    -3.049      1.935      2.861
REMARK INTER + INTRA:          -3.461
REMARK INTER:                  -3.418
REMARK INTRA:                  -0.043
REMARK UNBOUND:                -0.056
REMARK SMILES CCCC(=O)[O-]
REMARK SMILES IDX 3 1 4 2 5 3 6 4 2 5 1 6
REMARK H PARENT
REMARK Flexibility Score: inf
ROOT
ATOM      1  C   UNL     1     -10.713  -3.481  -2.978  1.00  0.00     0.052 C 
ENDROOT
BRANCH   1   2
ATOM      2  C   UNL     1     -10.275  -4.812  -3.509  1.00  0.00     0.041 C 
ATOM      3  O   UNL     1     -11.111  -5.744  -3.652  1.00  0.00    -0.550 OA
ATOM      4  O   UNL     1      -8.951  -5.014  -3.875  1.00  0.00    -0.550 OA
ENDBRANCH   1   2
BRANCH   1   5
ATOM      5  C   UNL     1     -10.112  -3.196  -1.597  1.00  0.00     0.003 C 
ATOM      6  C   UNL     1     -10.984  -3.732  -0.461  1.00  0.00     0.004 C 
ENDBRANCH   1   5
TORSDOF 2
ENDMDL
MODEL 6
REMARK VINA RESULT:    -2.937      1.201      1.371
REMARK INTER + INTRA:          -3.336
REMARK INTER:                  -3.318
REMARK INTRA:                  -0.019
REMARK UNBOUND:                -0.056
REMARK SMILES CCCC(=O)[O-]
REMARK SMILES IDX 3 1 4 2 5 3 6 4 2 5 1 6
REMARK H PARENT
REMARK Flexibility Score: inf
ROOT
ATOM      1  C   UNL     1      -9.720  -4.103  -3.500  1.00  0.00     0.052 C 
ENDROOT
BRANCH   1   2
ATOM      2  C   UNL     1      -9.088  -3.817  -2.171  1.00  0.00     0.041 C 
ATOM      3  O   UNL     1      -8.459  -4.722  -1.562  1.00  0.00    -0.550 OA
ATOM      4  O   UNL     1      -9.168  -2.545  -1.622  1.00  0.00    -0.550 OA
ENDBRANCH   1   2
BRANCH   1   5
ATOM      5  C   UNL     1     -11.030  -4.886  -3.348  1.00  0.00     0.003 C 
ATOM      6  C   UNL     1     -11.124  -6.059  -4.324  1.00  0.00     0.004 C 
ENDBRANCH   1   5
TORSDOF 2
ENDMDL
MODEL 7
REMARK VINA RESULT:    -2.706      1.608      1.938
REMARK INTER + INTRA:          -3.078
REMARK INTER:                  -3.039
REMARK INTRA:                  -0.039
REMARK UNBOUND:                -0.056
REMARK SMILES CCCC(=O)[O-]
REMARK SMILES IDX 3 1 4 2 5 3 6 4 2 5 1 6
REMARK H PARENT
REMARK Flexibility Score: inf
ROOT
ATOM      1  C   UNL     1     -11.051  -4.761  -3.352  1.00  0.00     0.052 C 
ENDROOT
BRANCH   1   2
ATOM      2  C   UNL     1     -10.119  -3.945  -2.508  1.00  0.00     0.041 C 
ATOM      3  O   UNL     1      -9.061  -4.457  -2.057  1.00  0.00    -0.550 OA
ATOM      4  O   UNL     1     -10.404  -2.612  -2.249  1.00  0.00    -0.550 OA
ENDBRANCH   1   2
BRANCH   1   5
ATOM      5  C   UNL     1     -10.658  -4.718  -4.833  1.00  0.00     0.003 C 
ATOM      6  C   UNL     1      -9.828  -5.932  -5.251  1.00  0.00     0.004 C 
ENDBRANCH   1   5
TORSDOF 2
ENDMDL
MODEL 8
REMARK VINA RESULT:    -2.657      5.204      5.897
REMARK INTER + INTRA:          -3.023
REMARK INTER:                  -3.009
REMARK INTRA:                  -0.014
REMARK UNBOUND:                -0.056
REMARK SMILES CCCC(=O)[O-]
REMARK SMILES IDX 3 1 4 2 5 3 6 4 2 5 1 6
REMARK H PARENT
REMARK Flexibility Score: inf
ROOT
ATOM      1  C   UNL     1      -8.306  -6.439  -7.145  1.00  0.00     0.052 C 
ENDROOT
BRANCH   1   2
ATOM      2  C   UNL     1      -7.975  -7.063  -5.823  1.00  0.00     0.041 C 
ATOM      3  O   UNL     1      -8.876  -7.236  -4.960  1.00  0.00    -0.550 OA
ATOM      4  O   UNL     1      -6.679  -7.483  -5.557  1.00  0.00    -0.550 OA
ENDBRANCH   1   2
BRANCH   1   5
ATOM      5  C   UNL     1      -7.118  -5.653  -7.713  1.00  0.00     0.003 C 
ATOM      6  C   UNL     1      -7.116  -5.625  -9.241  1.00  0.00     0.004 C 
ENDBRANCH   1   5
TORSDOF 2
ENDMDL
MODEL 9
REMARK VINA RESULT:    -2.584      4.411      4.922
REMARK INTER + INTRA:          -2.942
REMARK INTER:                  -2.937
REMARK INTRA:                  -0.005
REMARK UNBOUND:                -0.056
REMARK SMILES CCCC(=O)[O-]
REMARK SMILES IDX 3 1 4 2 5 3 6 4 2 5 1 6
REMARK H PARENT
REMARK Flexibility Score: inf
ROOT
ATOM      1  C   UNL     1      -8.620  -6.050  -5.251  1.00  0.00     0.052 C 
ENDROOT
BRANCH   1   2
ATOM      2  C   UNL     1      -7.440  -6.574  -6.012  1.00  0.00     0.041 C 
ATOM      3  O   UNL     1      -7.182  -6.133  -7.163  1.00  0.00    -0.550 OA
ATOM      4  O   UNL     1      -6.609  -7.526  -5.437  1.00  0.00    -0.550 OA
ENDBRANCH   1   2
BRANCH   1   5
ATOM      5  C   UNL     1      -9.898  -6.832  -5.579  1.00  0.00     0.003 C 
ATOM      6  C   UNL     1     -11.080  -6.408  -4.706  1.00  0.00     0.004 C 
ENDBRANCH   1   5
TORSDOF 2
ENDMDL
