MODEL 1
REMARK VINA RESULT:    -3.355      0.000      0.000
REMARK INTER + INTRA:          -3.377
REMARK INTER:                  -4.140
REMARK INTRA:                   0.763
REMARK UNBOUND:                 0.763
REMARK SMILES CC1=CC=CC(C)(C)CC1=O
REMARK SMILES IDX 1 1 2 2 3 3 10 4 11 5 9 6 4 8 5 9 6 10 7 11 8 12
REMARK H PARENT
REMARK Flexibility Score: 80.00
ROOT
ATOM      1  C   UNL     1      83.713  31.997  67.189  1.00  0.00     0.048 C 
ATOM      2  C   UNL     1      85.131  32.007  66.670  1.00  0.00    -0.008 C 
ATOM      3  C   UNL     1      86.130  32.001  67.579  1.00  0.00     0.007 C 
ENDROOT
BRANCH   2   4
ATOM      4  C   UNL     1      85.314  31.946  65.198  1.00  0.00     0.159 C 
ATOM      5  O   UNL     1      84.312  31.700  64.471  1.00  0.00    -0.295 OA
BRANCH   4   6
ATOM      6  C   UNL     1      86.627  32.175  64.518  1.00  0.00     0.091 CG0
ATOM      7  G   UNL     1      87.724  31.179  64.957  1.00  0.00     0.000 G0
ENDBRANCH   4   6
ENDBRANCH   2   4
BRANCH   3   8
ATOM      8  C   UNL     1      87.598  31.981  67.379  1.00  0.00    -0.003 C 
ATOM      9  C   UNL     1      88.298  31.631  66.292  1.00  0.00    -0.020 C 
BRANCH   9  10
ATOM     10  C   UNL     1      87.731  31.186  64.964  1.00  0.00    -0.010 CG0
ATOM     11  C   UNL     1      87.227  29.727  65.068  1.00  0.00     0.016 C 
ATOM     12  C   UNL     1      88.865  31.225  63.915  1.00  0.00     0.016 C 
ATOM     13  G   UNL     1      86.626  32.167  64.515  1.00  0.00     0.000 G0
ENDBRANCH   9  10
ENDBRANCH   3   8
TORSDOF 0
ENDMDL
MODEL 2
REMARK VINA RESULT:    -3.264      1.364      1.989
REMARK INTER + INTRA:          -3.264
REMARK INTER:                  -4.015
REMARK INTRA:                   0.750
REMARK UNBOUND:                 0.763
REMARK SMILES CC1=CC=CC(C)(C)CC1=O
REMARK SMILES IDX 1 1 2 2 3 3 10 4 11 5 9 6 4 8 5 9 6 10 7 11 8 12
REMARK H PARENT
REMARK Flexibility Score: 80.00
ROOT
ATOM      1  C   UNL     1      83.494  31.809  64.545  1.00  0.00     0.048 C 
ATOM      2  C   UNL     1      84.676  32.148  65.420  1.00  0.00    -0.008 C 
ATOM      3  C   UNL     1      84.534  31.986  66.754  1.00  0.00     0.007 C 
ENDROOT
BRANCH   2   4
ATOM      4  C   UNL     1      85.928  32.560  64.737  1.00  0.00     0.159 C 
ATOM      5  O   UNL     1      86.009  32.429  63.485  1.00  0.00    -0.295 OA
BRANCH   4   6
ATOM      6  C   UNL     1      87.108  33.141  65.453  1.00  0.00     0.091 CG0
ATOM      7  G   UNL     1      87.691  32.201  66.531  1.00  0.00     0.000 G0
ENDBRANCH   4   6
ENDBRANCH   2   4
BRANCH   3   8
ATOM      8  C   UNL     1      85.509  32.206  67.848  1.00  0.00    -0.003 C 
ATOM      9  C   UNL     1      86.844  32.292  67.785  1.00  0.00    -0.020 C 
BRANCH   9  10
ATOM     10  C   UNL     1      87.691  32.210  66.537  1.00  0.00    -0.010 CG0
ATOM     11  C   UNL     1      87.809  30.739  66.075  1.00  0.00     0.016 C 
ATOM     12  C   UNL     1      89.110  32.717  66.880  1.00  0.00     0.016 C 
ATOM     13  G   UNL     1      87.101  33.131  65.446  1.00  0.00     0.000 G0
ENDBRANCH   9  10
ENDBRANCH   3   8
TORSDOF 0
ENDMDL
MODEL 3
REMARK VINA RESULT:    -2.954      1.596      2.637
REMARK INTER + INTRA:          -2.883
REMARK INTER:                  -3.642
REMARK INTRA:                   0.759
REMARK UNBOUND:                 0.763
REMARK SMILES CC1=CC=CC(C)(C)CC1=O
REMARK SMILES IDX 1 1 2 2 3 3 10 4 11 5 9 6 4 8 5 9 6 10 7 11 8 12
REMARK H PARENT
REMARK Flexibility Score: 80.00
ROOT
ATOM      1  C   UNL     1      83.243  30.150  64.518  1.00  0.00     0.048 C 
ATOM      2  C   UNL     1      84.569  30.519  65.139  1.00  0.00    -0.008 C 
ATOM      3  C   UNL     1      85.659  29.823  64.748  1.00  0.00     0.007 C 
ENDROOT
BRANCH   2   4
ATOM      4  C   UNL     1      84.581  31.671  66.076  1.00  0.00     0.159 C 
ATOM      5  O   UNL     1      83.554  32.399  66.157  1.00  0.00    -0.295 OA
BRANCH   4   6
ATOM      6  C   UNL     1      85.748  32.014  66.949  1.00  0.00     0.091 CG0
ATOM      7  G   UNL     1      87.039  32.308  66.154  1.00  0.00     0.000 G0
ENDBRANCH   4   6
ENDBRANCH   2   4
BRANCH   3   8
ATOM      8  C   UNL     1      87.077  29.969  65.151  1.00  0.00    -0.003 C 
ATOM      9  C   UNL     1      87.686  31.011  65.733  1.00  0.00    -0.020 C 
BRANCH   9  10
ATOM     10  C   UNL     1      87.040  32.310  66.150  1.00  0.00    -0.010 CG0
ATOM     11  C   UNL     1      86.792  33.199  64.909  1.00  0.00     0.016 C 
ATOM     12  C   UNL     1      88.016  33.059  67.085  1.00  0.00     0.016 C 
ATOM     13  G   UNL     1      85.745  32.018  66.940  1.00  0.00     0.000 G0
ENDBRANCH   9  10
ENDBRANCH   3   8
TORSDOF 0
ENDMDL
MODEL 4
REMARK VINA RESULT:    -2.711      1.901      3.659
REMARK INTER + INTRA:          -2.582
REMARK INTER:                  -3.609
REMARK INTRA:                   1.027
REMARK UNBOUND:                 0.763
REMARK SMILES CC1=CC=CC(C)(C)CC1=O
REMARK SMILES IDX 1 1 2 2 3 3 10 4 11 5 9 6 4 8 5 9 6 10 7 11 8 12
REMARK H PARENT
REMARK Flexibility Score: 80.00
ROOT
ATOM      1  C   UNL     1      89.125  30.832  66.222  1.00  0.00     0.048 C 
ATOM      2  C   UNL     1      87.641  30.836  65.943  1.00  0.00    -0.008 C 
ATOM      3  C   UNL     1      87.132  29.793  65.252  1.00  0.00     0.007 C 
ENDROOT
BRANCH   2   4
ATOM      4  C   UNL     1      86.847  31.951  66.518  1.00  0.00     0.159 C 
ATOM      5  O   UNL     1      87.452  32.978  66.932  1.00  0.00    -0.295 OA
BRANCH   4   6
ATOM      6  C   UNL     1      85.354  31.933  66.624  1.00  0.00     0.091 CG0
ATOM      7  G   UNL     1      84.647  31.771  65.260  1.00  0.00     0.000 G0
ENDBRANCH   4   6
ENDBRANCH   2   4
BRANCH   3   8
ATOM      8  C   UNL     1      85.733  29.506  64.855  1.00  0.00    -0.003 C 
ATOM      9  C   UNL     1      84.670  30.322  64.860  1.00  0.00    -0.020 C 
BRANCH   9  10
ATOM     10  C   UNL     1      84.658  31.778  65.258  1.00  0.00    -0.010 CG0
ATOM     11  C   UNL     1      83.206  32.311  65.270  1.00  0.00     0.016 C 
ATOM     12  C   UNL     1      85.450  32.577  64.199  1.00  0.00     0.016 C 
ATOM     13  G   UNL     1      85.366  31.951  66.620  1.00  0.00     0.000 G0
ENDBRANCH   9  10
ENDBRANCH   3   8
TORSDOF 0
ENDMDL
MODEL 5
REMARK VINA RESULT:    -2.612      1.593      2.259
REMARK INTER + INTRA:          -2.461
REMARK INTER:                  -3.444
REMARK INTRA:                   0.983
REMARK UNBOUND:                 0.763
REMARK SMILES CC1=CC=CC(C)(C)CC1=O
REMARK SMILES IDX 1 1 2 2 3 3 10 4 11 5 9 6 4 8 5 9 6 10 7 11 8 12
REMARK H PARENT
REMARK Flexibility Score: 80.00
ROOT
ATOM      1  C   UNL     1      87.628  35.276  64.884  1.00  0.00     0.048 C 
ATOM      2  C   UNL     1      87.584  33.820  65.282  1.00  0.00    -0.008 C 
ATOM      3  C   UNL     1      88.433  33.409  66.248  1.00  0.00     0.007 C 
ENDROOT
BRANCH   2   4
ATOM      4  C   UNL     1      86.554  32.972  64.630  1.00  0.00     0.159 C 
ATOM      5  O   UNL     1      85.956  33.417  63.612  1.00  0.00    -0.295 OA
BRANCH   4   6
ATOM      6  C   UNL     1      86.189  31.601  65.108  1.00  0.00     0.091 CG0
ATOM      7  G   UNL     1      87.389  30.630  65.148  1.00  0.00     0.000 G0
ENDBRANCH   4   6
ENDBRANCH   2   4
BRANCH   3   8
ATOM      8  C   UNL     1      88.602  32.070  66.860  1.00  0.00    -0.003 C 
ATOM      9  C   UNL     1      88.158  30.882  66.428  1.00  0.00    -0.020 C 
BRANCH   9  10
ATOM     10  C   UNL     1      87.378  30.622  65.161  1.00  0.00    -0.010 CG0
ATOM     11  C   UNL     1      86.916  29.147  65.118  1.00  0.00     0.016 C 
ATOM     12  C   UNL     1      88.315  30.863  63.956  1.00  0.00     0.016 C 
ATOM     13  G   UNL     1      86.200  31.617  65.061  1.00  0.00     0.000 G0
ENDBRANCH   9  10
ENDBRANCH   3   8
TORSDOF 0
ENDMDL
MODEL 6
REMARK VINA RESULT:    -2.339      1.921      3.052
REMARK INTER + INTRA:          -2.124
REMARK INTER:                  -3.149
REMARK INTRA:                   1.025
REMARK UNBOUND:                 0.763
REMARK SMILES CC1=CC=CC(C)(C)CC1=O
REMARK SMILES IDX 1 1 2 2 3 3 10 4 11 5 9 6 4 8 5 9 6 10 7 11 8 12
REMARK H PARENT
REMARK Flexibility Score: 80.00
ROOT
ATOM      1  C   UNL     1      85.543  28.327  64.695  1.00  0.00     0.048 C 
ATOM      2  C   UNL     1      86.081  29.674  65.113  1.00  0.00    -0.008 C 
ATOM      3  C   UNL     1      85.204  30.698  65.201  1.00  0.00     0.007 C 
ENDROOT
BRANCH   2   4
ATOM      4  C   UNL     1      87.521  29.748  65.467  1.00  0.00     0.159 C 
ATOM      5  O   UNL     1      88.287  28.817  65.095  1.00  0.00    -0.295 OA
BRANCH   4   6
ATOM      6  C   UNL     1      88.125  30.881  66.237  1.00  0.00     0.091 CG0
ATOM      7  G   UNL     1      87.973  32.247  65.532  1.00  0.00     0.000 G0
ENDBRANCH   4   6
ENDBRANCH   2   4
BRANCH   3   8
ATOM      8  C   UNL     1      85.424  32.107  65.604  1.00  0.00    -0.003 C 
ATOM      9  C   UNL     1      86.577  32.771  65.759  1.00  0.00    -0.020 C 
BRANCH   9  10
ATOM     10  C   UNL     1      87.966  32.225  65.525  1.00  0.00    -0.010 CG0
ATOM     11  C   UNL     1      89.023  33.251  65.995  1.00  0.00     0.016 C 
ATOM     12  C   UNL     1      88.152  32.010  64.006  1.00  0.00     0.016 C 
ATOM     13  G   UNL     1      88.112  30.856  66.227  1.00  0.00     0.000 G0
ENDBRANCH   9  10
ENDBRANCH   3   8
TORSDOF 0
ENDMDL
MODEL 7
REMARK VINA RESULT:    -2.283      1.353      2.395
REMARK INTER + INTRA:          -2.054
REMARK INTER:                  -3.082
REMARK INTRA:                   1.028
REMARK UNBOUND:                 0.763
REMARK SMILES CC1=CC=CC(C)(C)CC1=O
REMARK SMILES IDX 1 1 2 2 3 3 10 4 11 5 9 6 4 8 5 9 6 10 7 11 8 12
REMARK H PARENT
REMARK Flexibility Score: 80.00
ROOT
ATOM      1  C   UNL     1      83.502  32.622  64.806  1.00  0.00     0.048 C 
ATOM      2  C   UNL     1      84.983  32.373  64.967  1.00  0.00    -0.008 C 
ATOM      3  C   UNL     1      85.772  32.580  63.890  1.00  0.00     0.007 C 
ENDROOT
BRANCH   2   4
ATOM      4  C   UNL     1      85.463  31.994  66.320  1.00  0.00     0.159 C 
ATOM      5  O   UNL     1      84.619  31.627  67.183  1.00  0.00    -0.295 OA
BRANCH   4   6
ATOM      6  C   UNL     1      86.905  32.010  66.719  1.00  0.00     0.091 CG0
ATOM      7  G   UNL     1      87.790  31.092  65.845  1.00  0.00     0.000 G0
ENDBRANCH   4   6
ENDBRANCH   2   4
BRANCH   3   8
ATOM      8  C   UNL     1      87.241  32.449  63.748  1.00  0.00    -0.003 C 
ATOM      9  C   UNL     1      88.117  31.843  64.561  1.00  0.00    -0.020 C 
BRANCH   9  10
ATOM     10  C   UNL     1      87.794  31.104  65.838  1.00  0.00    -0.010 CG0
ATOM     11  C   UNL     1      89.101  30.676  66.545  1.00  0.00     0.016 C 
ATOM     12  C   UNL     1      87.010  29.824  65.472  1.00  0.00     0.016 C 
ATOM     13  G   UNL     1      86.893  31.982  66.733  1.00  0.00     0.000 G0
ENDBRANCH   9  10
ENDBRANCH   3   8
TORSDOF 0
ENDMDL
MODEL 8
REMARK VINA RESULT:    -1.585     15.045     15.874
REMARK INTER + INTRA:          -1.193
REMARK INTER:                  -1.951
REMARK INTRA:                   0.759
REMARK UNBOUND:                 0.763
REMARK SMILES CC1=CC=CC(C)(C)CC1=O
REMARK SMILES IDX 1 1 2 2 3 3 10 4 11 5 9 6 4 8 5 9 6 10 7 11 8 12
REMARK H PARENT
REMARK Flexibility Score: 80.00
ROOT
ATOM      1  C   UNL     1      76.609  32.400  52.182  1.00  0.00     0.048 C 
ATOM      2  C   UNL     1      77.969  33.055  52.232  1.00  0.00    -0.008 C 
ATOM      3  C   UNL     1      79.048  32.249  52.346  1.00  0.00     0.007 C 
ENDROOT
BRANCH   2   4
ATOM      4  C   UNL     1      78.016  34.530  52.075  1.00  0.00     0.159 C 
ATOM      5  O   UNL     1      76.973  35.135  51.704  1.00  0.00    -0.295 OA
BRANCH   4   6
ATOM      6  C   UNL     1      79.238  35.352  52.347  1.00  0.00     0.091 CG0
ATOM      7  G   UNL     1      80.445  34.958  51.468  1.00  0.00     0.000 G0
ENDBRANCH   4   6
ENDBRANCH   2   4
BRANCH   3   8
ATOM      8  C   UNL     1      80.489  32.590  52.392  1.00  0.00    -0.003 C 
ATOM      9  C   UNL     1      81.102  33.721  52.018  1.00  0.00    -0.020 C 
BRANCH   9  10
ATOM     10  C   UNL     1      80.438  34.963  51.470  1.00  0.00    -0.010 CG0
ATOM     11  C   UNL     1      80.041  34.740  49.992  1.00  0.00     0.016 C 
ATOM     12  C   UNL     1      81.460  36.121  51.520  1.00  0.00     0.016 C 
ATOM     13  G   UNL     1      79.234  35.345  52.359  1.00  0.00     0.000 G0
ENDBRANCH   9  10
ENDBRANCH   3   8
TORSDOF 0
ENDMDL
MODEL 9
REMARK VINA RESULT:    -1.561     14.943     16.313
REMARK INTER + INTRA:          -1.163
REMARK INTER:                  -1.912
REMARK INTRA:                   0.749
REMARK UNBOUND:                 0.763
REMARK SMILES CC1=CC=CC(C)(C)CC1=O
REMARK SMILES IDX 1 1 2 2 3 3 10 4 11 5 9 6 4 8 5 9 6 10 7 11 8 12
REMARK H PARENT
REMARK Flexibility Score: 80.00
ROOT
ATOM      1  C   UNL     1      81.338  31.782  49.411  1.00  0.00     0.048 C 
ATOM      2  C   UNL     1      80.979  33.079  50.097  1.00  0.00    -0.008 C 
ATOM      3  C   UNL     1      80.857  34.181  49.327  1.00  0.00     0.007 C 
ENDROOT
BRANCH   2   4
ATOM      4  C   UNL     1      80.713  33.021  51.557  1.00  0.00     0.159 C 
ATOM      5  O   UNL     1      80.598  31.893  52.110  1.00  0.00    -0.295 OA
BRANCH   4   6
ATOM      6  C   UNL     1      80.585  34.236  52.422  1.00  0.00     0.091 CG0
ATOM      7  G   UNL     1      79.443  35.179  51.985  1.00  0.00     0.000 G0
ENDBRANCH   4   6
ENDBRANCH   2   4
BRANCH   3   8
ATOM      8  C   UNL     1      80.494  35.568  49.701  1.00  0.00    -0.003 C 
ATOM      9  C   UNL     1      79.890  36.013  50.811  1.00  0.00    -0.020 C 
BRANCH   9  10
ATOM     10  C   UNL     1      79.448  35.176  51.989  1.00  0.00    -0.010 CG0
ATOM     11  C   UNL     1      78.145  34.420  51.640  1.00  0.00     0.016 C 
ATOM     12  C   UNL     1      79.147  36.125  53.171  1.00  0.00     0.016 C 
ATOM     13  G   UNL     1      80.592  34.228  52.412  1.00  0.00     0.000 G0
ENDBRANCH   9  10
ENDBRANCH   3   8
TORSDOF 0
ENDMDL
