MODEL 1
REMARK VINA RESULT:    -3.730      0.000      0.000
REMARK INTER + INTRA:          -4.438
REMARK INTER:                  -4.384
REMARK INTRA:                  -0.054
REMARK UNBOUND:                -0.054
REMARK SMILES O=C([O-])CCC(=O)[O-]
REMARK SMILES IDX 4 1 2 2 1 3 3 4 5 5 6 6 7 7 8 8
REMARK H PARENT
REMARK Flexibility Score: inf
ROOT
ATOM      1  C   UNL     1       3.185 -36.514  16.123  1.00  0.00     0.059 C 
ENDROOT
BRANCH   1   2
ATOM      2  C   UNL     1       3.209 -36.983  14.702  1.00  0.00     0.042 C 
ATOM      3  O   UNL     1       2.244 -36.727  13.934  1.00  0.00    -0.550 OA
ATOM      4  O   UNL     1       4.275 -37.744  14.239  1.00  0.00    -0.550 OA
ENDBRANCH   1   2
BRANCH   1   5
ATOM      5  C   UNL     1       2.019 -37.155  16.877  1.00  0.00     0.059 C 
BRANCH   5   6
ATOM      6  C   UNL     1       2.482 -37.702  18.190  1.00  0.00     0.042 C 
ATOM      7  O   UNL     1       3.706 -37.682  18.488  1.00  0.00    -0.550 OA
ATOM      8  O   UNL     1       1.571 -38.278  19.065  1.00  0.00    -0.550 OA
ENDBRANCH   5   6
ENDBRANCH   1   5
TORSDOF 3
ENDMDL
MODEL 2
REMARK VINA RESULT:    -3.609      4.497      6.681
REMARK INTER + INTRA:          -4.296
REMARK INTER:                  -4.186
REMARK INTRA:                  -0.110
REMARK UNBOUND:                -0.054
REMARK SMILES O=C([O-])CCC(=O)[O-]
REMARK SMILES IDX 4 1 2 2 1 3 3 4 5 5 6 6 7 7 8 8
REMARK H PARENT
REMARK Flexibility Score: inf
ROOT
ATOM      1  C   UNL     1       6.064 -35.650  21.326  1.00  0.00     0.059 C 
ENDROOT
BRANCH   1   2
ATOM      2  C   UNL     1       5.893 -35.689  22.812  1.00  0.00     0.042 C 
ATOM      3  O   UNL     1       6.124 -36.751  23.449  1.00  0.00    -0.550 OA
ATOM      4  O   UNL     1       5.431 -34.567  23.489  1.00  0.00    -0.550 OA
ENDBRANCH   1   2
BRANCH   1   5
ATOM      5  C   UNL     1       4.713 -35.818  20.628  1.00  0.00     0.059 C 
BRANCH   5   6
ATOM      6  C   UNL     1       4.664 -37.117  19.889  1.00  0.00     0.042 C 
ATOM      7  O   UNL     1       5.365 -38.091  20.272  1.00  0.00    -0.550 OA
ATOM      8  O   UNL     1       3.883 -37.239  18.747  1.00  0.00    -0.550 OA
ENDBRANCH   5   6
ENDBRANCH   1   5
TORSDOF 3
ENDMDL
MODEL 3
REMARK VINA RESULT:    -3.579      1.153      1.657
REMARK INTER + INTRA:          -4.260
REMARK INTER:                  -4.230
REMARK INTRA:                  -0.030
REMARK UNBOUND:                -0.054
REMARK SMILES O=C([O-])CCC(=O)[O-]
REMARK SMILES IDX 4 1 2 2 1 3 3 4 5 5 6 6 7 7 8 8
REMARK H PARENT
REMARK Flexibility Score: inf
ROOT
ATOM      1  C   UNL     1       2.677 -37.549  16.596  1.00  0.00     0.059 C 
ENDROOT
BRANCH   1   2
ATOM      2  C   UNL     1       3.286 -37.443  15.233  1.00  0.00     0.042 C 
ATOM      3  O   UNL     1       3.167 -36.381  14.567  1.00  0.00    -0.550 OA
ATOM      4  O   UNL     1       3.943 -38.534  14.679  1.00  0.00    -0.550 OA
ENDBRANCH   1   2
BRANCH   1   5
ATOM      5  C   UNL     1       3.534 -36.807  17.623  1.00  0.00     0.059 C 
BRANCH   5   6
ATOM      6  C   UNL     1       3.512 -37.522  18.937  1.00  0.00     0.042 C 
ATOM      7  O   UNL     1       2.417 -37.890  19.439  1.00  0.00    -0.550 OA
ATOM      8  O   UNL     1       4.695 -37.739  19.631  1.00  0.00    -0.550 OA
ENDBRANCH   5   6
ENDBRANCH   1   5
TORSDOF 3
ENDMDL
MODEL 4
REMARK VINA RESULT:    -3.579      4.439      5.880
REMARK INTER + INTRA:          -4.260
REMARK INTER:                  -4.162
REMARK INTRA:                  -0.098
REMARK UNBOUND:                -0.054
REMARK SMILES O=C([O-])CCC(=O)[O-]
REMARK SMILES IDX 4 1 2 2 1 3 3 4 5 5 6 6 7 7 8 8
REMARK H PARENT
REMARK Flexibility Score: inf
ROOT
ATOM      1  C   UNL     1       4.632 -36.001  20.625  1.00  0.00     0.059 C 
ENDROOT
BRANCH   1   2
ATOM      2  C   UNL     1       4.642 -37.297  19.879  1.00  0.00     0.042 C 
ATOM      3  O   UNL     1       5.384 -38.242  20.260  1.00  0.00    -0.550 OA
ATOM      4  O   UNL     1       3.870 -37.447  18.734  1.00  0.00    -0.550 OA
ENDBRANCH   1   2
BRANCH   1   5
ATOM      5  C   UNL     1       5.975 -35.774  21.322  1.00  0.00     0.059 C 
BRANCH   5   6
ATOM      6  C   UNL     1       5.792 -35.718  22.806  1.00  0.00     0.042 C 
ATOM      7  O   UNL     1       5.379 -34.662  23.353  1.00  0.00    -0.550 OA
ATOM      8  O   UNL     1       6.121 -36.816  23.589  1.00  0.00    -0.550 OA
ENDBRANCH   5   6
ENDBRANCH   1   5
TORSDOF 3
ENDMDL
MODEL 5
REMARK VINA RESULT:    -3.567      1.132      4.075
REMARK INTER + INTRA:          -4.246
REMARK INTER:                  -4.216
REMARK INTRA:                  -0.031
REMARK UNBOUND:                -0.054
REMARK SMILES O=C([O-])CCC(=O)[O-]
REMARK SMILES IDX 4 1 2 2 1 3 3 4 5 5 6 6 7 7 8 8
REMARK H PARENT
REMARK Flexibility Score: inf
ROOT
ATOM      1  C   UNL     1       3.511 -36.771  17.552  1.00  0.00     0.059 C 
ENDROOT
BRANCH   1   2
ATOM      2  C   UNL     1       3.512 -37.498  18.859  1.00  0.00     0.042 C 
ATOM      3  O   UNL     1       2.428 -37.894  19.365  1.00  0.00    -0.550 OA
ATOM      4  O   UNL     1       4.704 -37.697  19.544  1.00  0.00    -0.550 OA
ENDBRANCH   1   2
BRANCH   1   5
ATOM      5  C   UNL     1       2.670 -37.525  16.521  1.00  0.00     0.059 C 
BRANCH   5   6
ATOM      6  C   UNL     1       3.308 -37.449  15.170  1.00  0.00     0.042 C 
ATOM      7  O   UNL     1       3.212 -36.399  14.482  1.00  0.00    -0.550 OA
ATOM      8  O   UNL     1       3.968 -38.555  14.650  1.00  0.00    -0.550 OA
ENDBRANCH   5   6
ENDBRANCH   1   5
TORSDOF 3
ENDMDL
MODEL 6
REMARK VINA RESULT:    -3.527      1.926      4.189
REMARK INTER + INTRA:          -4.199
REMARK INTER:                  -4.168
REMARK INTRA:                  -0.031
REMARK UNBOUND:                -0.054
REMARK SMILES O=C([O-])CCC(=O)[O-]
REMARK SMILES IDX 4 1 2 2 1 3 3 4 5 5 6 6 7 7 8 8
REMARK H PARENT
REMARK Flexibility Score: inf
ROOT
ATOM      1  C   UNL     1       3.491 -37.524  18.469  1.00  0.00     0.059 C 
ENDROOT
BRANCH   1   2
ATOM      2  C   UNL     1       4.478 -37.151  19.531  1.00  0.00     0.042 C 
ATOM      3  O   UNL     1       4.621 -35.946  19.867  1.00  0.00    -0.550 OA
ATOM      4  O   UNL     1       5.274 -38.128  20.114  1.00  0.00    -0.550 OA
ENDBRANCH   1   2
BRANCH   1   5
ATOM      5  C   UNL     1       3.603 -36.571  17.277  1.00  0.00     0.059 C 
BRANCH   5   6
ATOM      6  C   UNL     1       2.943 -37.162  16.072  1.00  0.00     0.042 C 
ATOM      7  O   UNL     1       3.537 -38.040  15.391  1.00  0.00    -0.550 OA
ATOM      8  O   UNL     1       1.693 -36.711  15.672  1.00  0.00    -0.550 OA
ENDBRANCH   5   6
ENDBRANCH   1   5
TORSDOF 3
ENDMDL
MODEL 7
REMARK VINA RESULT:    -3.493      2.522      4.378
REMARK INTER + INTRA:          -4.160
REMARK INTER:                  -4.118
REMARK INTRA:                  -0.042
REMARK UNBOUND:                -0.054
REMARK SMILES O=C([O-])CCC(=O)[O-]
REMARK SMILES IDX 4 1 2 2 1 3 3 4 5 5 6 6 7 7 8 8
REMARK H PARENT
REMARK Flexibility Score: inf
ROOT
ATOM      1  C   UNL     1       3.875 -37.086  19.885  1.00  0.00     0.059 C 
ENDROOT
BRANCH   1   2
ATOM      2  C   UNL     1       5.044 -36.166  20.037  1.00  0.00     0.042 C 
ATOM      3  O   UNL     1       5.775 -36.233  21.060  1.00  0.00    -0.550 OA
ATOM      4  O   UNL     1       5.299 -35.200  19.072  1.00  0.00    -0.550 OA
ENDBRANCH   1   2
BRANCH   1   5
ATOM      5  C   UNL     1       3.700 -37.493  18.421  1.00  0.00     0.059 C 
BRANCH   5   6
ATOM      6  C   UNL     1       2.251 -37.659  18.093  1.00  0.00     0.042 C 
ATOM      7  O   UNL     1       1.787 -37.198  17.017  1.00  0.00    -0.550 OA
ATOM      8  O   UNL     1       1.400 -38.282  18.997  1.00  0.00    -0.550 OA
ENDBRANCH   5   6
ENDBRANCH   1   5
TORSDOF 3
ENDMDL
MODEL 8
REMARK VINA RESULT:    -3.482      2.471      3.927
REMARK INTER + INTRA:          -4.146
REMARK INTER:                  -4.101
REMARK INTRA:                  -0.045
REMARK UNBOUND:                -0.054
REMARK SMILES O=C([O-])CCC(=O)[O-]
REMARK SMILES IDX 4 1 2 2 1 3 3 4 5 5 6 6 7 7 8 8
REMARK H PARENT
REMARK Flexibility Score: inf
ROOT
ATOM      1  C   UNL     1       3.753 -37.486  18.443  1.00  0.00     0.059 C 
ENDROOT
BRANCH   1   2
ATOM      2  C   UNL     1       2.301 -37.647  18.119  1.00  0.00     0.042 C 
ATOM      3  O   UNL     1       1.533 -38.234  18.926  1.00  0.00    -0.550 OA
ATOM      4  O   UNL     1       1.806 -37.194  16.903  1.00  0.00    -0.550 OA
ENDBRANCH   1   2
BRANCH   1   5
ATOM      5  C   UNL     1       3.933 -37.101  19.913  1.00  0.00     0.059 C 
BRANCH   5   6
ATOM      6  C   UNL     1       5.082 -36.156  20.069  1.00  0.00     0.042 C 
ATOM      7  O   UNL     1       5.812 -36.209  21.094  1.00  0.00    -0.550 OA
ATOM      8  O   UNL     1       5.319 -35.184  19.105  1.00  0.00    -0.550 OA
ENDBRANCH   5   6
ENDBRANCH   1   5
TORSDOF 3
ENDMDL
