MODEL 1
REMARK VINA RESULT:    -3.740      0.000      0.000
REMARK INTER + INTRA:          -5.125
REMARK INTER:                  -4.614
REMARK INTRA:                  -0.511
REMARK UNBOUND:                -0.511
REMARK SMILES C=CC[C@@H](C)C(=O)CC
REMARK SMILES IDX 4 1 5 2 6 3 7 4 8 5 9 6 3 7 2 8 1 9
REMARK H PARENT
REMARK Flexibility Score: inf
ROOT
ATOM      1  C   UNL     1     -44.055  27.367  26.723  1.00  0.00     0.057 C 
ATOM      2  C   UNL     1     -42.666  26.840  26.343  1.00  0.00     0.016 C 
ENDROOT
BRANCH   1   3
ATOM      3  C   UNL     1     -43.976  28.850  27.025  1.00  0.00     0.135 C 
ATOM      4  O   UNL     1     -44.747  29.346  27.834  1.00  0.00    -0.299 OA
BRANCH   3   5
ATOM      5  C   UNL     1     -42.954  29.727  26.351  1.00  0.00     0.072 C 
ATOM      6  C   UNL     1     -43.623  30.690  25.377  1.00  0.00     0.012 C 
ENDBRANCH   3   5
ENDBRANCH   1   3
BRANCH   1   7
ATOM      7  C   UNL     1     -45.074  27.072  25.603  1.00  0.00     0.038 C 
BRANCH   7   8
ATOM      8  C   UNL     1     -44.404  26.896  24.265  1.00  0.00    -0.034 C 
ATOM      9  C   UNL     1     -44.634  27.726  23.243  1.00  0.00     0.004 C 
ENDBRANCH   7   8
ENDBRANCH   1   7
TORSDOF 4
ENDMDL
MODEL 2
REMARK VINA RESULT:    -3.516     10.750     12.236
REMARK INTER + INTRA:          -4.848
REMARK INTER:                  -4.521
REMARK INTRA:                  -0.328
REMARK UNBOUND:                -0.511
REMARK SMILES C=CC[C@@H](C)C(=O)CC
REMARK SMILES IDX 4 1 5 2 6 3 7 4 8 5 9 6 3 7 2 8 1 9
REMARK H PARENT
REMARK Flexibility Score: inf
ROOT
ATOM      1  C   UNL     1     -33.962  25.289  31.890  1.00  0.00     0.057 C 
ATOM      2  C   UNL     1     -35.049  24.212  31.997  1.00  0.00     0.016 C 
ENDROOT
BRANCH   1   3
ATOM      3  C   UNL     1     -32.611  24.635  31.677  1.00  0.00     0.135 C 
ATOM      4  O   UNL     1     -32.271  23.702  32.389  1.00  0.00    -0.299 OA
BRANCH   3   5
ATOM      5  C   UNL     1     -31.681  25.109  30.592  1.00  0.00     0.072 C 
ATOM      6  C   UNL     1     -31.465  24.018  29.549  1.00  0.00     0.012 C 
ENDBRANCH   3   5
ENDBRANCH   1   3
BRANCH   1   7
ATOM      7  C   UNL     1     -34.293  26.284  30.759  1.00  0.00     0.038 C 
BRANCH   7   8
ATOM      8  C   UNL     1     -35.437  25.805  29.904  1.00  0.00    -0.034 C 
ATOM      9  C   UNL     1     -36.190  26.649  29.191  1.00  0.00     0.004 C 
ENDBRANCH   7   8
ENDBRANCH   1   7
TORSDOF 4
ENDMDL
MODEL 3
REMARK VINA RESULT:    -3.483     11.241     12.774
REMARK INTER + INTRA:          -4.809
REMARK INTER:                  -4.473
REMARK INTRA:                  -0.335
REMARK UNBOUND:                -0.511
REMARK SMILES C=CC[C@@H](C)C(=O)CC
REMARK SMILES IDX 4 1 5 2 6 3 7 4 8 5 9 6 3 7 2 8 1 9
REMARK H PARENT
REMARK Flexibility Score: inf
ROOT
ATOM      1  C   UNL     1     -32.566  24.173  31.461  1.00  0.00     0.057 C 
ATOM      2  C   UNL     1     -31.944  24.294  32.858  1.00  0.00     0.016 C 
ENDROOT
BRANCH   1   3
ATOM      3  C   UNL     1     -33.970  24.744  31.473  1.00  0.00     0.135 C 
ATOM      4  O   UNL     1     -34.851  24.171  32.096  1.00  0.00    -0.299 OA
BRANCH   3   5
ATOM      5  C   UNL     1     -34.298  26.015  30.736  1.00  0.00     0.072 C 
ATOM      6  C   UNL     1     -35.507  25.818  29.828  1.00  0.00     0.012 C 
ENDBRANCH   3   5
ENDBRANCH   1   3
BRANCH   1   7
ATOM      7  C   UNL     1     -31.680  24.873  30.410  1.00  0.00     0.038 C 
BRANCH   7   8
ATOM      8  C   UNL     1     -31.270  23.936  29.304  1.00  0.00    -0.034 C 
ATOM      9  C   UNL     1     -31.695  22.669  29.255  1.00  0.00     0.004 C 
ENDBRANCH   7   8
ENDBRANCH   1   7
TORSDOF 4
ENDMDL
MODEL 4
REMARK VINA RESULT:    -3.444     10.970     12.696
REMARK INTER + INTRA:          -4.760
REMARK INTER:                  -4.326
REMARK INTRA:                  -0.434
REMARK UNBOUND:                -0.511
REMARK SMILES C=CC[C@@H](C)C(=O)CC
REMARK SMILES IDX 4 1 5 2 6 3 7 4 8 5 9 6 3 7 2 8 1 9
REMARK H PARENT
REMARK Flexibility Score: inf
ROOT
ATOM      1  C   UNL     1     -34.063  25.606  31.213  1.00  0.00     0.057 C 
ATOM      2  C   UNL     1     -34.999  25.750  30.006  1.00  0.00     0.016 C 
ENDROOT
BRANCH   1   3
ATOM      3  C   UNL     1     -34.555  24.490  32.113  1.00  0.00     0.135 C 
ATOM      4  O   UNL     1     -35.655  23.994  31.917  1.00  0.00    -0.299 OA
BRANCH   3   5
ATOM      5  C   UNL     1     -33.707  23.972  33.243  1.00  0.00     0.072 C 
ATOM      6  C   UNL     1     -33.475  22.472  33.103  1.00  0.00     0.012 C 
ENDBRANCH   3   5
ENDBRANCH   1   3
BRANCH   1   7
ATOM      7  C   UNL     1     -32.613  25.359  30.749  1.00  0.00     0.038 C 
BRANCH   7   8
ATOM      8  C   UNL     1     -32.524  24.231  29.754  1.00  0.00    -0.034 C 
ATOM      9  C   UNL     1     -31.416  23.497  29.612  1.00  0.00     0.004 C 
ENDBRANCH   7   8
ENDBRANCH   1   7
TORSDOF 4
ENDMDL
MODEL 5
REMARK VINA RESULT:    -3.385     11.168     12.911
REMARK INTER + INTRA:          -4.688
REMARK INTER:                  -4.313
REMARK INTRA:                  -0.375
REMARK UNBOUND:                -0.511
REMARK SMILES C=CC[C@@H](C)C(=O)CC
REMARK SMILES IDX 4 1 5 2 6 3 7 4 8 5 9 6 3 7 2 8 1 9
REMARK H PARENT
REMARK Flexibility Score: inf
ROOT
ATOM      1  C   UNL     1     -33.934  24.911  31.000  1.00  0.00     0.057 C 
ATOM      2  C   UNL     1     -34.642  26.074  30.294  1.00  0.00     0.016 C 
ENDROOT
BRANCH   1   3
ATOM      3  C   UNL     1     -32.497  24.821  30.525  1.00  0.00     0.135 C 
ATOM      4  O   UNL     1     -31.695  25.683  30.855  1.00  0.00    -0.299 OA
BRANCH   3   5
ATOM      5  C   UNL     1     -32.034  23.680  29.659  1.00  0.00     0.072 C 
ATOM      6  C   UNL     1     -31.989  22.381  30.455  1.00  0.00     0.012 C 
ENDBRANCH   3   5
ENDBRANCH   1   3
BRANCH   1   7
ATOM      7  C   UNL     1     -34.013  25.077  32.531  1.00  0.00     0.038 C 
BRANCH   7   8
ATOM      8  C   UNL     1     -34.749  23.935  33.184  1.00  0.00    -0.034 C 
ATOM      9  C   UNL     1     -35.672  23.222  32.531  1.00  0.00     0.004 C 
ENDBRANCH   7   8
ENDBRANCH   1   7
TORSDOF 4
ENDMDL
MODEL 6
REMARK VINA RESULT:    -3.313     12.280     13.931
REMARK INTER + INTRA:          -4.599
REMARK INTER:                  -4.250
REMARK INTRA:                  -0.348
REMARK UNBOUND:                -0.511
REMARK SMILES C=CC[C@@H](C)C(=O)CC
REMARK SMILES IDX 4 1 5 2 6 3 7 4 8 5 9 6 3 7 2 8 1 9
REMARK H PARENT
REMARK Flexibility Score: inf
ROOT
ATOM      1  C   UNL     1     -31.379  24.074  31.335  1.00  0.00     0.057 C 
ATOM      2  C   UNL     1     -31.654  23.998  32.842  1.00  0.00     0.016 C 
ENDROOT
BRANCH   1   3
ATOM      3  C   UNL     1     -31.773  22.768  30.675  1.00  0.00     0.135 C 
ATOM      4  O   UNL     1     -32.131  21.825  31.365  1.00  0.00    -0.299 OA
BRANCH   3   5
ATOM      5  C   UNL     1     -31.742  22.613  29.178  1.00  0.00     0.072 C 
ATOM      6  C   UNL     1     -30.324  22.785  28.645  1.00  0.00     0.012 C 
ENDBRANCH   3   5
ENDBRANCH   1   3
BRANCH   1   7
ATOM      7  C   UNL     1     -32.122  25.271  30.707  1.00  0.00     0.038 C 
BRANCH   7   8
ATOM      8  C   UNL     1     -33.559  25.339  31.152  1.00  0.00    -0.034 C 
ATOM      9  C   UNL     1     -34.541  25.711  30.324  1.00  0.00     0.004 C 
ENDBRANCH   7   8
ENDBRANCH   1   7
TORSDOF 4
ENDMDL
MODEL 7
REMARK VINA RESULT:    -3.268     11.771     12.937
REMARK INTER + INTRA:          -4.543
REMARK INTER:                  -4.047
REMARK INTRA:                  -0.495
REMARK UNBOUND:                -0.511
REMARK SMILES C=CC[C@@H](C)C(=O)CC
REMARK SMILES IDX 4 1 5 2 6 3 7 4 8 5 9 6 3 7 2 8 1 9
REMARK H PARENT
REMARK Flexibility Score: inf
ROOT
ATOM      1  C   UNL     1     -34.578  24.732  32.308  1.00  0.00     0.057 C 
ATOM      2  C   UNL     1     -33.766  25.242  33.505  1.00  0.00     0.016 C 
ENDROOT
BRANCH   1   3
ATOM      3  C   UNL     1     -33.959  25.233  31.018  1.00  0.00     0.135 C 
ATOM      4  O   UNL     1     -34.679  25.655  30.125  1.00  0.00    -0.299 OA
BRANCH   3   5
ATOM      5  C   UNL     1     -32.467  25.228  30.819  1.00  0.00     0.072 C 
ATOM      6  C   UNL     1     -32.063  24.199  29.770  1.00  0.00     0.012 C 
ENDBRANCH   3   5
ENDBRANCH   1   3
BRANCH   1   7
ATOM      7  C   UNL     1     -34.670  23.193  32.330  1.00  0.00     0.038 C 
BRANCH   7   8
ATOM      8  C   UNL     1     -33.572  22.574  33.154  1.00  0.00    -0.034 C 
ATOM      9  C   UNL     1     -32.665  21.749  32.622  1.00  0.00     0.004 C 
ENDBRANCH   7   8
ENDBRANCH   1   7
TORSDOF 4
ENDMDL
MODEL 8
REMARK VINA RESULT:    -3.209     11.786     13.425
REMARK INTER + INTRA:          -4.470
REMARK INTER:                  -3.982
REMARK INTRA:                  -0.489
REMARK UNBOUND:                -0.511
REMARK SMILES C=CC[C@@H](C)C(=O)CC
REMARK SMILES IDX 4 1 5 2 6 3 7 4 8 5 9 6 3 7 2 8 1 9
REMARK H PARENT
REMARK Flexibility Score: inf
ROOT
ATOM      1  C   UNL     1     -32.040  25.029  31.057  1.00  0.00     0.057 C 
ATOM      2  C   UNL     1     -31.631  24.446  29.699  1.00  0.00     0.016 C 
ENDROOT
BRANCH   1   3
ATOM      3  C   UNL     1     -33.544  25.208  31.106  1.00  0.00     0.135 C 
ATOM      4  O   UNL     1     -34.154  25.495  30.086  1.00  0.00    -0.299 OA
BRANCH   3   5
ATOM      5  C   UNL     1     -34.307  25.028  32.391  1.00  0.00     0.072 C 
ATOM      6  C   UNL     1     -35.334  23.909  32.260  1.00  0.00     0.012 C 
ENDBRANCH   3   5
ENDBRANCH   1   3
BRANCH   1   7
ATOM      7  C   UNL     1     -31.541  24.130  32.207  1.00  0.00     0.038 C 
BRANCH   7   8
ATOM      8  C   UNL     1     -31.427  22.688  31.786  1.00  0.00    -0.034 C 
ATOM      9  C   UNL     1     -32.250  21.745  32.255  1.00  0.00     0.004 C 
ENDBRANCH   7   8
ENDBRANCH   1   7
TORSDOF 4
ENDMDL
MODEL 9
REMARK VINA RESULT:    -3.200     11.830     13.113
REMARK INTER + INTRA:          -4.460
REMARK INTER:                  -4.001
REMARK INTRA:                  -0.459
REMARK UNBOUND:                -0.511
REMARK SMILES C=CC[C@@H](C)C(=O)CC
REMARK SMILES IDX 4 1 5 2 6 3 7 4 8 5 9 6 3 7 2 8 1 9
REMARK H PARENT
REMARK Flexibility Score: inf
ROOT
ATOM      1  C   UNL     1     -33.883  24.655  32.703  1.00  0.00     0.057 C 
ATOM      2  C   UNL     1     -34.247  25.563  33.884  1.00  0.00     0.016 C 
ENDROOT
BRANCH   1   3
ATOM      3  C   UNL     1     -34.664  23.359  32.793  1.00  0.00     0.135 C 
ATOM      4  O   UNL     1     -35.832  23.330  32.431  1.00  0.00    -0.299 OA
BRANCH   3   5
ATOM      5  C   UNL     1     -34.024  22.099  33.312  1.00  0.00     0.072 C 
ATOM      6  C   UNL     1     -32.699  21.835  32.606  1.00  0.00     0.012 C 
ENDBRANCH   3   5
ENDBRANCH   1   3
BRANCH   1   7
ATOM      7  C   UNL     1     -34.138  25.377  31.364  1.00  0.00     0.038 C 
BRANCH   7   8
ATOM      8  C   UNL     1     -33.127  24.994  30.316  1.00  0.00    -0.034 C 
ATOM      9  C   UNL     1     -31.812  25.028  30.554  1.00  0.00     0.004 C 
ENDBRANCH   7   8
ENDBRANCH   1   7
TORSDOF 4
ENDMDL
