MODEL 1
REMARK VINA RESULT:    -4.619      0.000      0.000
REMARK INTER + INTRA:          -5.727
REMARK INTER:                  -5.565
REMARK INTRA:                  -0.163
REMARK UNBOUND:                -0.163
REMARK SMILES [NH3+][C@@H](Cc1cnc[nH]1)C(=O)[O-]
REMARK SMILES IDX 3 1 2 2 1 3 9 7 10 8 11 9 4 10 5 11 8 12 6 13 7 14
REMARK H PARENT 1 4 1 5 1 6 8 15
REMARK Flexibility Score: inf
ROOT
ATOM      1  C   UNL     1     -28.512 -23.942 100.851  1.00  0.00     0.127 C 
ENDROOT
BRANCH   1   2
ATOM      2  C   UNL     1     -28.126 -25.432 100.744  1.00  0.00     0.233 C 
BRANCH   2   3
ATOM      3  N   UNL     1     -28.263 -25.927  99.367  1.00  0.00    -0.350 N 
ATOM      4  H   UNL     1     -28.610 -26.914  99.360  1.00  0.00     0.345 HD
ATOM      5  H   UNL     1     -28.933 -25.325  98.835  1.00  0.00     0.345 HD
ATOM      6  H   UNL     1     -27.339 -25.885  98.881  1.00  0.00     0.345 HD
ENDBRANCH   2   3
BRANCH   2   7
ATOM      7  C   UNL     1     -28.979 -26.248 101.679  1.00  0.00     0.099 C 
ATOM      8  O   UNL     1     -28.789 -27.487 101.800  1.00  0.00    -0.544 OA
ATOM      9  O   UNL     1     -29.994 -25.637 102.404  1.00  0.00    -0.544 OA
ENDBRANCH   2   7
ENDBRANCH   1   2
BRANCH   1  10
ATOM     10  C   UNL     1     -27.373 -23.109 101.358  1.00  0.00     0.041 A 
ATOM     11  C   UNL     1     -26.101 -23.550 101.645  1.00  0.00     0.134 A 
ATOM     12  N   UNL     1     -27.418 -21.780 101.536  1.00  0.00    -0.348 N 
ATOM     13  N   UNL     1     -25.344 -22.499 102.018  1.00  0.00    -0.245 NA
ATOM     14  C   UNL     1     -26.180 -21.440 101.940  1.00  0.00     0.196 A 
ATOM     15  H   UNL     1     -28.231 -21.143 101.384  1.00  0.00     0.167 HD
ENDBRANCH   1  10
TORSDOF 4
ENDMDL
MODEL 2
REMARK VINA RESULT:    -4.387      3.597      4.291
REMARK INTER + INTRA:          -5.447
REMARK INTER:                  -5.274
REMARK INTRA:                  -0.173
REMARK UNBOUND:                -0.163
REMARK SMILES [NH3+][C@@H](Cc1cnc[nH]1)C(=O)[O-]
REMARK SMILES IDX 3 1 2 2 1 3 9 7 10 8 11 9 4 10 5 11 8 12 6 13 7 14
REMARK H PARENT 1 4 1 5 1 6 8 15
REMARK Flexibility Score: inf
ROOT
ATOM      1  C   UNL     1     -29.250 -26.144 102.453  1.00  0.00     0.127 C 
ENDROOT
BRANCH   1   2
ATOM      2  C   UNL     1     -30.348 -25.120 102.806  1.00  0.00     0.233 C 
BRANCH   2   3
ATOM      3  N   UNL     1     -31.672 -25.574 102.359  1.00  0.00    -0.350 N 
ATOM      4  H   UNL     1     -32.363 -25.535 103.144  1.00  0.00     0.345 HD
ATOM      5  H   UNL     1     -32.011 -24.972 101.574  1.00  0.00     0.345 HD
ATOM      6  H   UNL     1     -31.609 -26.556 102.005  1.00  0.00     0.345 HD
ENDBRANCH   2   3
BRANCH   2   7
ATOM      7  C   UNL     1     -30.018 -23.786 102.191  1.00  0.00     0.099 C 
ATOM      8  O   UNL     1     -29.261 -23.715 101.187  1.00  0.00    -0.544 OA
ATOM      9  O   UNL     1     -30.536 -22.621 102.742  1.00  0.00    -0.544 OA
ENDBRANCH   2   7
ENDBRANCH   1   2
BRANCH   1  10
ATOM     10  C   UNL     1     -28.284 -26.335 103.585  1.00  0.00     0.041 A 
ATOM     11  C   UNL     1     -27.120 -25.631 103.794  1.00  0.00     0.134 A 
ATOM     12  N   UNL     1     -28.462 -27.185 104.606  1.00  0.00    -0.348 N 
ATOM     13  N   UNL     1     -26.555 -26.047 104.946  1.00  0.00    -0.245 NA
ATOM     14  C   UNL     1     -27.401 -26.994 105.410  1.00  0.00     0.196 A 
ATOM     15  H   UNL     1     -29.257 -27.847 104.754  1.00  0.00     0.167 HD
ENDBRANCH   1  10
TORSDOF 4
ENDMDL
MODEL 3
REMARK VINA RESULT:    -4.341      3.006      3.871
REMARK INTER + INTRA:          -5.392
REMARK INTER:                  -5.189
REMARK INTRA:                  -0.203
REMARK UNBOUND:                -0.163
REMARK SMILES [NH3+][C@@H](Cc1cnc[nH]1)C(=O)[O-]
REMARK SMILES IDX 3 1 2 2 1 3 9 7 10 8 11 9 4 10 5 11 8 12 6 13 7 14
REMARK H PARENT 1 4 1 5 1 6 8 15
REMARK Flexibility Score: inf
ROOT
ATOM      1  C   UNL     1     -28.703 -26.188 101.823  1.00  0.00     0.127 C 
ENDROOT
BRANCH   1   2
ATOM      2  C   UNL     1     -28.462 -25.242 100.629  1.00  0.00     0.233 C 
BRANCH   2   3
ATOM      3  N   UNL     1     -28.212 -25.991  99.390  1.00  0.00    -0.350 N 
ATOM      4  H   UNL     1     -27.208 -25.914  99.105  1.00  0.00     0.345 HD
ATOM      5  H   UNL     1     -28.454 -27.000  99.526  1.00  0.00     0.345 HD
ATOM      6  H   UNL     1     -28.816 -25.619  98.622  1.00  0.00     0.345 HD
ENDBRANCH   2   3
BRANCH   2   7
ATOM      7  C   UNL     1     -27.304 -24.328 100.929  1.00  0.00     0.099 C 
ATOM      8  O   UNL     1     -27.297 -23.143 100.499  1.00  0.00    -0.544 OA
ATOM      9  O   UNL     1     -26.224 -24.794 101.668  1.00  0.00    -0.544 OA
ENDBRANCH   2   7
ENDBRANCH   1   2
BRANCH   1  10
ATOM     10  C   UNL     1     -29.039 -25.430 103.073  1.00  0.00     0.041 A 
ATOM     11  C   UNL     1     -30.194 -24.722 103.315  1.00  0.00     0.134 A 
ATOM     12  N   UNL     1     -28.276 -25.397 104.176  1.00  0.00    -0.348 N 
ATOM     13  N   UNL     1     -30.155 -24.230 104.569  1.00  0.00    -0.245 NA
ATOM     14  C   UNL     1     -28.972 -24.661 105.061  1.00  0.00     0.196 A 
ATOM     15  H   UNL     1     -27.347 -25.852 104.323  1.00  0.00     0.167 HD
ENDBRANCH   1  10
TORSDOF 4
ENDMDL
MODEL 4
REMARK VINA RESULT:    -4.276      3.079      3.670
REMARK INTER + INTRA:          -5.313
REMARK INTER:                  -5.037
REMARK INTRA:                  -0.276
REMARK UNBOUND:                -0.163
REMARK SMILES [NH3+][C@@H](Cc1cnc[nH]1)C(=O)[O-]
REMARK SMILES IDX 3 1 2 2 1 3 9 7 10 8 11 9 4 10 5 11 8 12 6 13 7 14
REMARK H PARENT 1 4 1 5 1 6 8 15
REMARK Flexibility Score: inf
ROOT
ATOM      1  C   UNL     1     -29.880 -23.739 101.953  1.00  0.00     0.127 C 
ENDROOT
BRANCH   1   2
ATOM      2  C   UNL     1     -28.486 -23.959 101.330  1.00  0.00     0.233 C 
BRANCH   2   3
ATOM      3  N   UNL     1     -28.252 -23.051 100.198  1.00  0.00    -0.350 N 
ATOM      4  H   UNL     1     -27.503 -23.425  99.571  1.00  0.00     0.345 HD
ATOM      5  H   UNL     1     -29.133 -22.932  99.647  1.00  0.00     0.345 HD
ATOM      6  H   UNL     1     -27.966 -22.110 100.552  1.00  0.00     0.345 HD
ENDBRANCH   2   3
BRANCH   2   7
ATOM      7  C   UNL     1     -28.345 -25.391 100.888  1.00  0.00     0.099 C 
ATOM      8  O   UNL     1     -27.950 -25.665  99.723  1.00  0.00    -0.544 OA
ATOM      9  O   UNL     1     -28.668 -26.422 101.761  1.00  0.00    -0.544 OA
ENDBRANCH   2   7
ENDBRANCH   1   2
BRANCH   1  10
ATOM     10  C   UNL     1     -29.822 -23.724 103.452  1.00  0.00     0.041 A 
ATOM     11  C   UNL     1     -29.595 -22.626 104.250  1.00  0.00     0.134 A 
ATOM     12  N   UNL     1     -30.060 -24.785 104.236  1.00  0.00    -0.348 N 
ATOM     13  N   UNL     1     -29.677 -22.998 105.543  1.00  0.00    -0.245 NA
ATOM     14  C   UNL     1     -29.961 -24.319 105.494  1.00  0.00     0.196 A 
ATOM     15  H   UNL     1     -30.285 -25.761 103.940  1.00  0.00     0.167 HD
ENDBRANCH   1  10
TORSDOF 4
ENDMDL
MODEL 5
REMARK VINA RESULT:    -4.255      2.999      4.223
REMARK INTER + INTRA:          -5.289
REMARK INTER:                  -5.005
REMARK INTRA:                  -0.284
REMARK UNBOUND:                -0.163
REMARK SMILES [NH3+][C@@H](Cc1cnc[nH]1)C(=O)[O-]
REMARK SMILES IDX 3 1 2 2 1 3 9 7 10 8 11 9 4 10 5 11 8 12 6 13 7 14
REMARK H PARENT 1 4 1 5 1 6 8 15
REMARK Flexibility Score: inf
ROOT
ATOM      1  C   UNL     1     -30.206 -26.012 103.016  1.00  0.00     0.127 C 
ENDROOT
BRANCH   1   2
ATOM      2  C   UNL     1     -29.557 -25.807 104.400  1.00  0.00     0.233 C 
BRANCH   2   3
ATOM      3  N   UNL     1     -29.937 -26.873 105.337  1.00  0.00    -0.350 N 
ATOM      4  H   UNL     1     -30.911 -27.205 105.147  1.00  0.00     0.345 HD
ATOM      5  H   UNL     1     -29.277 -27.679 105.250  1.00  0.00     0.345 HD
ATOM      6  H   UNL     1     -29.881 -26.519 106.319  1.00  0.00     0.345 HD
ENDBRANCH   2   3
BRANCH   2   7
ATOM      7  C   UNL     1     -29.948 -24.462 104.952  1.00  0.00     0.099 C 
ATOM      8  O   UNL     1     -30.044 -24.285 106.196  1.00  0.00    -0.544 OA
ATOM      9  O   UNL     1     -30.225 -23.410 104.088  1.00  0.00    -0.544 OA
ENDBRANCH   2   7
ENDBRANCH   1   2
BRANCH   1  10
ATOM     10  C   UNL     1     -29.241 -25.732 101.903  1.00  0.00     0.041 A 
ATOM     11  C   UNL     1     -28.683 -26.659 101.051  1.00  0.00     0.134 A 
ATOM     12  N   UNL     1     -28.837 -24.509 101.531  1.00  0.00    -0.348 N 
ATOM     13  N   UNL     1     -27.915 -26.020 100.147  1.00  0.00    -0.245 NA
ATOM     14  C   UNL     1     -28.033 -24.713 100.472  1.00  0.00     0.196 A 
ATOM     15  H   UNL     1     -29.096 -23.593 101.961  1.00  0.00     0.167 HD
ENDBRANCH   1  10
TORSDOF 4
ENDMDL
MODEL 6
REMARK VINA RESULT:    -4.244      3.120      4.509
REMARK INTER + INTRA:          -5.275
REMARK INTER:                  -5.136
REMARK INTRA:                  -0.139
REMARK UNBOUND:                -0.163
REMARK SMILES [NH3+][C@@H](Cc1cnc[nH]1)C(=O)[O-]
REMARK SMILES IDX 3 1 2 2 1 3 9 7 10 8 11 9 4 10 5 11 8 12 6 13 7 14
REMARK H PARENT 1 4 1 5 1 6 8 15
REMARK Flexibility Score: inf
ROOT
ATOM      1  C   UNL     1     -27.462 -24.924 101.409  1.00  0.00     0.127 C 
ENDROOT
BRANCH   1   2
ATOM      2  C   UNL     1     -27.453 -23.382 101.440  1.00  0.00     0.233 C 
BRANCH   2   3
ATOM      3  N   UNL     1     -28.019 -22.815 100.207  1.00  0.00    -0.350 N 
ATOM      4  H   UNL     1     -27.366 -22.116  99.785  1.00  0.00     0.345 HD
ATOM      5  H   UNL     1     -28.202 -23.577  99.514  1.00  0.00     0.345 HD
ATOM      6  H   UNL     1     -28.931 -22.349 100.418  1.00  0.00     0.345 HD
ENDBRANCH   2   3
BRANCH   2   7
ATOM      7  C   UNL     1     -26.047 -22.884 101.645  1.00  0.00     0.099 C 
ATOM      8  O   UNL     1     -25.099 -23.697 101.812  1.00  0.00    -0.544 OA
ATOM      9  O   UNL     1     -25.790 -21.519 101.669  1.00  0.00    -0.544 OA
ENDBRANCH   2   7
ENDBRANCH   1   2
BRANCH   1  10
ATOM     10  C   UNL     1     -28.624 -25.487 102.173  1.00  0.00     0.041 A 
ATOM     11  C   UNL     1     -28.579 -26.075 103.417  1.00  0.00     0.134 A 
ATOM     12  N   UNL     1     -29.902 -25.430 101.770  1.00  0.00    -0.348 N 
ATOM     13  N   UNL     1     -29.831 -26.400 103.795  1.00  0.00    -0.245 NA
ATOM     14  C   UNL     1     -30.608 -25.993 102.768  1.00  0.00     0.196 A 
ATOM     15  H   UNL     1     -30.275 -25.026 100.882  1.00  0.00     0.167 HD
ENDBRANCH   1  10
TORSDOF 4
ENDMDL
MODEL 7
REMARK VINA RESULT:    -4.210      2.474      2.744
REMARK INTER + INTRA:          -5.235
REMARK INTER:                  -5.087
REMARK INTRA:                  -0.147
REMARK UNBOUND:                -0.163
REMARK SMILES [NH3+][C@@H](Cc1cnc[nH]1)C(=O)[O-]
REMARK SMILES IDX 3 1 2 2 1 3 9 7 10 8 11 9 4 10 5 11 8 12 6 13 7 14
REMARK H PARENT 1 4 1 5 1 6 8 15
REMARK Flexibility Score: inf
ROOT
ATOM      1  C   UNL     1     -30.276 -23.742 102.325  1.00  0.00     0.127 C 
ENDROOT
BRANCH   1   2
ATOM      2  C   UNL     1     -29.065 -24.605 101.917  1.00  0.00     0.233 C 
BRANCH   2   3
ATOM      3  N   UNL     1     -28.748 -24.449 100.490  1.00  0.00    -0.350 N 
ATOM      4  H   UNL     1     -29.424 -23.796 100.029  1.00  0.00     0.345 HD
ATOM      5  H   UNL     1     -27.778 -24.075 100.377  1.00  0.00     0.345 HD
ATOM      6  H   UNL     1     -28.791 -25.378 100.013  1.00  0.00     0.345 HD
ENDBRANCH   2   3
BRANCH   2   7
ATOM      7  C   UNL     1     -29.339 -26.051 102.235  1.00  0.00     0.099 C 
ATOM      8  O   UNL     1     -28.771 -26.968 101.582  1.00  0.00    -0.544 OA
ATOM      9  O   UNL     1     -30.235 -26.383 103.243  1.00  0.00    -0.544 OA
ENDBRANCH   2   7
ENDBRANCH   1   2
BRANCH   1  10
ATOM     10  C   UNL     1     -29.850 -22.467 102.991  1.00  0.00     0.041 A 
ATOM     11  C   UNL     1     -28.557 -22.072 103.250  1.00  0.00     0.134 A 
ATOM     12  N   UNL     1     -30.683 -21.487 103.368  1.00  0.00    -0.348 N 
ATOM     13  N   UNL     1     -28.575 -20.843 103.803  1.00  0.00    -0.245 NA
ATOM     14  C   UNL     1     -29.886 -20.521 103.860  1.00  0.00     0.196 A 
ATOM     15  H   UNL     1     -31.725 -21.468 103.289  1.00  0.00     0.167 HD
ENDBRANCH   1  10
TORSDOF 4
ENDMDL
MODEL 8
REMARK VINA RESULT:    -4.206      3.522      4.478
REMARK INTER + INTRA:          -5.230
REMARK INTER:                  -4.962
REMARK INTRA:                  -0.267
REMARK UNBOUND:                -0.163
REMARK SMILES [NH3+][C@@H](Cc1cnc[nH]1)C(=O)[O-]
REMARK SMILES IDX 3 1 2 2 1 3 9 7 10 8 11 9 4 10 5 11 8 12 6 13 7 14
REMARK H PARENT 1 4 1 5 1 6 8 15
REMARK Flexibility Score: inf
ROOT
ATOM      1  C   UNL     1     -30.070 -25.716 103.031  1.00  0.00     0.127 C 
ENDROOT
BRANCH   1   2
ATOM      2  C   UNL     1     -29.032 -25.183 102.022  1.00  0.00     0.233 C 
BRANCH   2   3
ATOM      3  N   UNL     1     -29.558 -24.040 101.261  1.00  0.00    -0.350 N 
ATOM      4  H   UNL     1     -28.845 -23.277 101.197  1.00  0.00     0.345 HD
ATOM      5  H   UNL     1     -29.824 -24.344 100.297  1.00  0.00     0.345 HD
ATOM      6  H   UNL     1     -30.416 -23.668 101.728  1.00  0.00     0.345 HD
ENDBRANCH   2   3
BRANCH   2   7
ATOM      7  C   UNL     1     -28.617 -26.286 101.086  1.00  0.00     0.099 C 
ATOM      8  O   UNL     1     -28.799 -27.493 101.400  1.00  0.00    -0.544 OA
ATOM      9  O   UNL     1     -28.012 -25.978  99.874  1.00  0.00    -0.544 OA
ENDBRANCH   2   7
ENDBRANCH   1   2
BRANCH   1  10
ATOM     10  C   UNL     1     -29.447 -26.012 104.363  1.00  0.00     0.041 A 
ATOM     11  C   UNL     1     -29.560 -25.253 105.506  1.00  0.00     0.134 A 
ATOM     12  N   UNL     1     -28.741 -27.116 104.648  1.00  0.00    -0.348 N 
ATOM     13  N   UNL     1     -28.913 -25.874 106.512  1.00  0.00    -0.245 NA
ATOM     14  C   UNL     1     -28.427 -27.003 105.951  1.00  0.00     0.196 A 
ATOM     15  H   UNL     1     -28.496 -27.901 104.004  1.00  0.00     0.167 HD
ENDBRANCH   1  10
TORSDOF 4
ENDMDL
MODEL 9
REMARK VINA RESULT:    -4.202      2.310      3.064
REMARK INTER + INTRA:          -5.225
REMARK INTER:                  -5.212
REMARK INTRA:                  -0.013
REMARK UNBOUND:                -0.163
REMARK SMILES [NH3+][C@@H](Cc1cnc[nH]1)C(=O)[O-]
REMARK SMILES IDX 3 1 2 2 1 3 9 7 10 8 11 9 4 10 5 11 8 12 6 13 7 14
REMARK H PARENT 1 4 1 5 1 6 8 15
REMARK Flexibility Score: inf
ROOT
ATOM      1  C   UNL     1     -29.128 -26.402 102.011  1.00  0.00     0.127 C 
ENDROOT
BRANCH   1   2
ATOM      2  C   UNL     1     -30.237 -26.148 103.052  1.00  0.00     0.233 C 
BRANCH   2   3
ATOM      3  N   UNL     1     -31.481 -25.694 102.415  1.00  0.00    -0.350 N 
ATOM      4  H   UNL     1     -32.152 -25.329 103.129  1.00  0.00     0.345 HD
ATOM      5  H   UNL     1     -31.273 -24.939 101.722  1.00  0.00     0.345 HD
ATOM      6  H   UNL     1     -31.926 -26.488 101.900  1.00  0.00     0.345 HD
ENDBRANCH   2   3
BRANCH   2   7
ATOM      7  C   UNL     1     -29.767 -25.135 104.061  1.00  0.00     0.099 C 
ATOM      8  O   UNL     1     -30.249 -23.971 104.070  1.00  0.00    -0.544 OA
ATOM      9  O   UNL     1     -28.783 -25.475 104.980  1.00  0.00    -0.544 OA
ENDBRANCH   2   7
ENDBRANCH   1   2
BRANCH   1  10
ATOM     10  C   UNL     1     -28.487 -25.123 101.560  1.00  0.00     0.041 A 
ATOM     11  C   UNL     1     -27.145 -24.821 101.601  1.00  0.00     0.134 A 
ATOM     12  N   UNL     1     -29.139 -24.107 100.976  1.00  0.00    -0.348 N 
ATOM     13  N   UNL     1     -26.950 -23.605 101.053  1.00  0.00    -0.245 NA
ATOM     14  C   UNL     1     -28.186 -23.202 100.685  1.00  0.00     0.196 A 
ATOM     15  H   UNL     1     -30.161 -24.034 100.777  1.00  0.00     0.167 HD
ENDBRANCH   1  10
TORSDOF 4
ENDMDL
