MODEL 1
REMARK VINA RESULT:    -7.784      0.000      0.000
REMARK INTER + INTRA:          -9.323
REMARK INTER:                  -8.694
REMARK INTRA:                  -0.629
REMARK UNBOUND:                -0.629
REMARK SMILES C=C(C)[C@@H]1CC[C@@]2(C(=O)[O-])CC[C@@]3(C)[C@@H](CC[C@H]4[C@]5(C)CCC(=O)C(C)(C)[C@H]5CC[C@@]43C)[C@@H]12
REMARK SMILES IDX 7 1 6 2 33 3 11 4 5 5 15 6 4 7 12 8 16 9 13 10 17 11 31 12
REMARK SMILES IDX 14 13 18 14 30 15 32 16 19 17 29 18 21 19 20 20 28 21 22 22
REMARK SMILES IDX 25 23 23 24 26 25 27 26 24 27 8 28 9 29 10 30 2 31 3 32 1 33
REMARK H PARENT
REMARK Flexibility Score: inf
ROOT
ATOM      1  C   UNL     1      99.038  83.725  83.342  1.00  0.00     0.014 C 
ATOM      2  C   UNL     1      99.698  82.376  82.984  1.00  0.00     0.014 C 
ATOM      3  C   UNL     1      98.344  84.188  82.021  1.00  0.00     0.012 C 
ATOM      4  C   UNL     1     100.075  84.751  83.873  1.00  0.00     0.014 C 
ATOM      5  C   UNL     1      98.839  81.770  81.891  1.00  0.00     0.009 C 
ATOM      6  C   UNL     1      98.948  85.503  81.424  1.00  0.00     0.000 C 
ATOM      7  C   UNL     1      98.300  82.953  81.080  1.00  0.00     0.018 C 
ATOM      8  C   UNL     1     101.111  85.219  82.835  1.00  0.00     0.008 C 
ATOM      9  C   UNL     1      98.316  85.882  80.069  1.00  0.00     0.005 C 
ATOM     10  C   UNL     1     100.523  85.650  81.429  1.00  0.00    -0.024 C 
ATOM     11  C   UNL     1      98.665  87.319  79.676  1.00  0.00     0.005 C 
ATOM     12  C   UNL     1     100.868  87.199  81.084  1.00  0.00    -0.024 C 
ATOM     13  C   UNL     1     101.162  84.666  80.389  1.00  0.00     0.012 C 
ATOM     14  C   UNL     1     100.200  87.594  79.698  1.00  0.00     0.002 C 
ATOM     15  C   UNL     1     102.416  87.412  80.942  1.00  0.00     0.008 C 
ATOM     16  C   UNL     1     100.341  88.128  82.245  1.00  0.00     0.012 C 
ATOM     17  C   UNL     1     100.607  89.007  79.085  1.00  0.00    -0.025 C 
ATOM     18  C   UNL     1     102.812  88.801  80.432  1.00  0.00     0.006 C 
ATOM     19  C   UNL     1     100.074  89.081  77.603  1.00  0.00     0.015 C 
ATOM     20  C   UNL     1      99.966  90.191  79.867  1.00  0.00     0.012 C 
ATOM     21  C   UNL     1     102.181  89.117  79.057  1.00  0.00     0.008 C 
ATOM     22  C   UNL     1     100.896  89.952  76.630  1.00  0.00     0.077 C 
ATOM     23  C   UNL     1     102.746  90.447  78.403  1.00  0.00     0.027 C 
ATOM     24  C   UNL     1     101.772  90.938  77.344  1.00  0.00     0.138 C 
ATOM     25  C   UNL     1     104.083  90.146  77.686  1.00  0.00     0.020 C 
ATOM     26  C   UNL     1     103.018  91.576  79.438  1.00  0.00     0.020 C 
ATOM     27  O   UNL     1     101.693  92.125  77.058  1.00  0.00    -0.299 OA
ENDROOT
BRANCH   1  28
ATOM     28  C   UNL     1      98.006  83.524  84.451  1.00  0.00     0.048 C 
ATOM     29  O   UNL     1      98.368  83.130  85.594  1.00  0.00    -0.550 OA
ATOM     30  O   UNL     1      96.642  83.654  84.196  1.00  0.00    -0.550 OA
ENDBRANCH   1  28
BRANCH   7  31
ATOM     31  C   UNL     1      96.909  82.664  80.522  1.00  0.00    -0.077 C 
ATOM     32  C   UNL     1      96.688  81.617  79.457  1.00  0.00     0.039 C 
ATOM     33  C   UNL     1      95.848  83.353  80.973  1.00  0.00     0.008 C 
ENDBRANCH   7  31
TORSDOF 2
ENDMDL
MODEL 2
REMARK VINA RESULT:    -7.505      4.108      8.906
REMARK INTER + INTRA:          -9.011
REMARK INTER:                  -8.307
REMARK INTRA:                  -0.704
REMARK UNBOUND:                -0.629
REMARK SMILES C=C(C)[C@@H]1CC[C@@]2(C(=O)[O-])CC[C@@]3(C)[C@@H](CC[C@H]4[C@]5(C)CCC(=O)C(C)(C)[C@H]5CC[C@@]43C)[C@@H]12
REMARK SMILES IDX 7 1 6 2 33 3 11 4 5 5 15 6 4 7 12 8 16 9 13 10 17 11 31 12
REMARK SMILES IDX 14 13 18 14 30 15 32 16 19 17 29 18 21 19 20 20 28 21 22 22
REMARK SMILES IDX 25 23 23 24 26 25 27 26 24 27 8 28 9 29 10 30 2 31 3 32 1 33
REMARK H PARENT
REMARK Flexibility Score: inf
ROOT
ATOM      1  C   UNL     1      98.821  84.906  80.386  1.00  0.00     0.014 C 
ATOM      2  C   UNL     1      99.496  83.547  80.104  1.00  0.00     0.014 C 
ATOM      3  C   UNL     1      97.973  84.667  81.676  1.00  0.00     0.012 C 
ATOM      4  C   UNL     1      97.968  85.386  79.182  1.00  0.00     0.014 C 
ATOM      5  C   UNL     1      99.665  82.879  81.455  1.00  0.00     0.009 C 
ATOM      6  C   UNL     1      96.431  84.803  81.447  1.00  0.00     0.000 C 
ATOM      7  C   UNL     1      98.469  83.332  82.298  1.00  0.00     0.018 C 
ATOM      8  C   UNL     1      96.729  84.522  78.881  1.00  0.00     0.008 C 
ATOM      9  C   UNL     1      95.613  84.461  82.709  1.00  0.00     0.005 C 
ATOM     10  C   UNL     1      95.830  84.159  80.133  1.00  0.00    -0.024 C 
ATOM     11  C   UNL     1      94.160  84.922  82.571  1.00  0.00     0.005 C 
ATOM     12  C   UNL     1      94.315  84.720  79.965  1.00  0.00    -0.024 C 
ATOM     13  C   UNL     1      95.862  82.595  80.232  1.00  0.00     0.012 C 
ATOM     14  C   UNL     1      93.479  84.386  81.274  1.00  0.00     0.002 C 
ATOM     15  C   UNL     1      93.592  84.035  78.753  1.00  0.00     0.008 C 
ATOM     16  C   UNL     1      94.354  86.276  79.709  1.00  0.00     0.012 C 
ATOM     17  C   UNL     1      91.911  84.663  81.213  1.00  0.00    -0.025 C 
ATOM     18  C   UNL     1      92.101  84.370  78.644  1.00  0.00     0.006 C 
ATOM     19  C   UNL     1      91.237  84.008  82.478  1.00  0.00     0.015 C 
ATOM     20  C   UNL     1      91.585  86.186  81.250  1.00  0.00     0.012 C 
ATOM     21  C   UNL     1      91.323  83.976  79.919  1.00  0.00     0.008 C 
ATOM     22  C   UNL     1      89.781  83.530  82.300  1.00  0.00     0.077 C 
ATOM     23  C   UNL     1      89.750  84.104  79.753  1.00  0.00     0.027 C 
ATOM     24  C   UNL     1      89.105  84.179  81.129  1.00  0.00     0.138 C 
ATOM     25  C   UNL     1      89.196  82.836  79.061  1.00  0.00     0.020 C 
ATOM     26  C   UNL     1      89.317  85.327  78.896  1.00  0.00     0.020 C 
ATOM     27  O   UNL     1      88.039  84.756  81.296  1.00  0.00    -0.299 OA
ENDROOT
BRANCH   1  28
ATOM     28  C   UNL     1      99.884  85.977  80.631  1.00  0.00     0.048 C 
ATOM     29  O   UNL     1      99.836  86.697  81.667  1.00  0.00    -0.550 OA
ATOM     30  O   UNL     1     100.853  86.261  79.671  1.00  0.00    -0.550 OA
ENDBRANCH   1  28
BRANCH   7  31
ATOM     31  C   UNL     1      98.835  83.449  83.775  1.00  0.00    -0.077 C 
ATOM     32  C   UNL     1      98.886  84.787  84.472  1.00  0.00     0.039 C 
ATOM     33  C   UNL     1      99.130  82.347  84.482  1.00  0.00     0.008 C 
ENDBRANCH   7  31
TORSDOF 2
ENDMDL
MODEL 3
REMARK VINA RESULT:    -6.810      4.657      8.079
REMARK INTER + INTRA:          -8.235
REMARK INTER:                  -7.514
REMARK INTRA:                  -0.722
REMARK UNBOUND:                -0.629
REMARK SMILES C=C(C)[C@@H]1CC[C@@]2(C(=O)[O-])CC[C@@]3(C)[C@@H](CC[C@H]4[C@]5(C)CCC(=O)C(C)(C)[C@H]5CC[C@@]43C)[C@@H]12
REMARK SMILES IDX 7 1 6 2 33 3 11 4 5 5 15 6 4 7 12 8 16 9 13 10 17 11 31 12
REMARK SMILES IDX 14 13 18 14 30 15 32 16 19 17 29 18 21 19 20 20 28 21 22 22
REMARK SMILES IDX 25 23 23 24 26 25 27 26 24 27 8 28 9 29 10 30 2 31 3 32 1 33
REMARK H PARENT
REMARK Flexibility Score: inf
ROOT
ATOM      1  C   UNL     1      90.782  86.487  82.913  1.00  0.00     0.014 C 
ATOM      2  C   UNL     1      89.857  85.510  83.671  1.00  0.00     0.014 C 
ATOM      3  C   UNL     1      91.258  85.686  81.659  1.00  0.00     0.012 C 
ATOM      4  C   UNL     1      91.957  86.975  83.801  1.00  0.00     0.014 C 
ATOM      5  C   UNL     1      89.251  84.607  82.615  1.00  0.00     0.009 C 
ATOM      6  C   UNL     1      92.798  85.404  81.643  1.00  0.00     0.000 C 
ATOM      7  C   UNL     1      90.324  84.451  81.533  1.00  0.00     0.018 C 
ATOM      8  C   UNL     1      92.971  85.883  84.191  1.00  0.00     0.008 C 
ATOM      9  C   UNL     1      93.225  84.526  80.450  1.00  0.00     0.005 C 
ATOM     10  C   UNL     1      93.472  84.963  83.004  1.00  0.00    -0.024 C 
ATOM     11  C   UNL     1      94.744  84.547  80.261  1.00  0.00     0.005 C 
ATOM     12  C   UNL     1      95.081  85.065  82.805  1.00  0.00    -0.024 C 
ATOM     13  C   UNL     1      93.024  83.509  83.384  1.00  0.00     0.012 C 
ATOM     14  C   UNL     1      95.518  84.175  81.563  1.00  0.00     0.002 C 
ATOM     15  C   UNL     1      95.839  84.523  84.067  1.00  0.00     0.008 C 
ATOM     16  C   UNL     1      95.491  86.572  82.585  1.00  0.00     0.012 C 
ATOM     17  C   UNL     1      97.083  83.974  81.343  1.00  0.00    -0.025 C 
ATOM     18  C   UNL     1      97.356  84.409  83.884  1.00  0.00     0.006 C 
ATOM     19  C   UNL     1      97.295  82.850  80.259  1.00  0.00     0.015 C 
ATOM     20  C   UNL     1      97.770  85.267  80.810  1.00  0.00     0.012 C 
ATOM     21  C   UNL     1      97.731  83.491  82.699  1.00  0.00     0.008 C 
ATOM     22  C   UNL     1      98.587  82.017  80.389  1.00  0.00     0.077 C 
ATOM     23  C   UNL     1      99.284  83.177  82.622  1.00  0.00     0.027 C 
ATOM     24  C   UNL     1      99.631  82.705  81.218  1.00  0.00     0.138 C 
ATOM     25  C   UNL     1      99.628  82.019  83.588  1.00  0.00     0.020 C 
ATOM     26  C   UNL     1     100.179  84.388  83.011  1.00  0.00     0.020 C 
ATOM     27  O   UNL     1     100.750  82.873  80.754  1.00  0.00    -0.299 OA
ENDROOT
BRANCH   1  28
ATOM     28  C   UNL     1      89.998  87.729  82.493  1.00  0.00     0.048 C 
ATOM     29  O   UNL     1      89.180  88.266  83.291  1.00  0.00    -0.550 OA
ATOM     30  O   UNL     1      90.077  88.225  81.192  1.00  0.00    -0.550 OA
ENDBRANCH   1  28
BRANCH   7  31
ATOM     31  C   UNL     1      89.704  84.296  80.147  1.00  0.00    -0.077 C 
ATOM     32  C   UNL     1      90.051  83.129  79.254  1.00  0.00     0.039 C 
ATOM     33  C   UNL     1      88.837  85.215  79.693  1.00  0.00     0.008 C 
ENDBRANCH   7  31
TORSDOF 2
ENDMDL
MODEL 4
REMARK VINA RESULT:    -6.613      1.761      3.792
REMARK INTER + INTRA:          -8.016
REMARK INTER:                  -7.305
REMARK INTRA:                  -0.711
REMARK UNBOUND:                -0.629
REMARK SMILES C=C(C)[C@@H]1CC[C@@]2(C(=O)[O-])CC[C@@]3(C)[C@@H](CC[C@H]4[C@]5(C)CCC(=O)C(C)(C)[C@H]5CC[C@@]43C)[C@@H]12
REMARK SMILES IDX 7 1 6 2 33 3 11 4 5 5 15 6 4 7 12 8 16 9 13 10 17 11 31 12
REMARK SMILES IDX 14 13 18 14 30 15 32 16 19 17 29 18 21 19 20 20 28 21 22 22
REMARK SMILES IDX 25 23 23 24 26 25 27 26 24 27 8 28 9 29 10 30 2 31 3 32 1 33
REMARK H PARENT
REMARK Flexibility Score: inf
ROOT
ATOM      1  C   UNL     1      99.043  83.988  83.387  1.00  0.00     0.014 C 
ATOM      2  C   UNL     1      97.513  84.129  83.533  1.00  0.00     0.014 C 
ATOM      3  C   UNL     1      99.623  85.291  84.022  1.00  0.00     0.012 C 
ATOM      4  C   UNL     1      99.465  83.797  81.906  1.00  0.00     0.014 C 
ATOM      5  C   UNL     1      97.290  84.973  84.773  1.00  0.00     0.009 C 
ATOM      6  C   UNL     1     100.369  86.210  82.998  1.00  0.00     0.000 C 
ATOM      7  C   UNL     1      98.471  85.946  84.834  1.00  0.00     0.018 C 
ATOM      8  C   UNL     1      99.214  85.016  80.999  1.00  0.00     0.008 C 
ATOM      9  C   UNL     1     100.841  87.536  83.628  1.00  0.00     0.005 C 
ATOM     10  C   UNL     1      99.703  86.408  81.577  1.00  0.00    -0.024 C 
ATOM     11  C   UNL     1     101.845  88.254  82.723  1.00  0.00     0.005 C 
ATOM     12  C   UNL     1     100.810  87.101  80.613  1.00  0.00    -0.024 C 
ATOM     13  C   UNL     1      98.410  87.286  81.702  1.00  0.00     0.012 C 
ATOM     14  C   UNL     1     101.311  88.457  81.272  1.00  0.00     0.002 C 
ATOM     15  C   UNL     1     100.196  87.453  79.213  1.00  0.00     0.008 C 
ATOM     16  C   UNL     1     102.015  86.107  80.393  1.00  0.00     0.012 C 
ATOM     17  C   UNL     1     102.237  89.391  80.372  1.00  0.00    -0.025 C 
ATOM     18  C   UNL     1     101.121  88.280  78.314  1.00  0.00     0.006 C 
ATOM     19  C   UNL     1     102.384  90.788  81.087  1.00  0.00     0.015 C 
ATOM     20  C   UNL     1     103.671  88.804  80.204  1.00  0.00     0.012 C 
ATOM     21  C   UNL     1     101.536  89.612  78.976  1.00  0.00     0.008 C 
ATOM     22  C   UNL     1     102.593  92.005  80.161  1.00  0.00     0.077 C 
ATOM     23  C   UNL     1     102.308  90.585  77.989  1.00  0.00     0.027 C 
ATOM     24  C   UNL     1     103.085  91.610  78.800  1.00  0.00     0.138 C 
ATOM     25  C   UNL     1     101.288  91.367  77.127  1.00  0.00     0.020 C 
ATOM     26  C   UNL     1     103.266  89.842  77.014  1.00  0.00     0.020 C 
ATOM     27  O   UNL     1     104.104  92.125  78.360  1.00  0.00    -0.299 OA
ENDROOT
BRANCH   1  28
ATOM     28  C   UNL     1      99.529  82.755  84.148  1.00  0.00     0.048 C 
ATOM     29  O   UNL     1     100.443  82.860  85.013  1.00  0.00    -0.550 OA
ATOM     30  O   UNL     1      99.064  81.481  83.826  1.00  0.00    -0.550 OA
ENDBRANCH   1  28
BRANCH   7  31
ATOM     31  C   UNL     1      98.854  86.276  86.274  1.00  0.00    -0.077 C 
ATOM     32  C   UNL     1      98.780  87.687  86.807  1.00  0.00     0.039 C 
ATOM     33  C   UNL     1      99.276  85.302  87.096  1.00  0.00     0.008 C 
ENDBRANCH   7  31
TORSDOF 2
ENDMDL
MODEL 5
REMARK VINA RESULT:    -6.603      3.711      6.603
REMARK INTER + INTRA:          -8.004
REMARK INTER:                  -7.702
REMARK INTRA:                  -0.302
REMARK UNBOUND:                -0.629
REMARK SMILES C=C(C)[C@@H]1CC[C@@]2(C(=O)[O-])CC[C@@]3(C)[C@@H](CC[C@H]4[C@]5(C)CCC(=O)C(C)(C)[C@H]5CC[C@@]43C)[C@@H]12
REMARK SMILES IDX 7 1 6 2 33 3 11 4 5 5 15 6 4 7 12 8 16 9 13 10 17 11 31 12
REMARK SMILES IDX 14 13 18 14 30 15 32 16 19 17 29 18 21 19 20 20 28 21 22 22
REMARK SMILES IDX 25 23 23 24 26 25 27 26 24 27 8 28 9 29 10 30 2 31 3 32 1 33
REMARK H PARENT
REMARK Flexibility Score: inf
ROOT
ATOM      1  C   UNL     1      92.250  84.647  79.431  1.00  0.00     0.014 C 
ATOM      2  C   UNL     1      91.367  85.865  79.780  1.00  0.00     0.014 C 
ATOM      3  C   UNL     1      92.937  84.258  80.778  1.00  0.00     0.012 C 
ATOM      4  C   UNL     1      93.267  84.977  78.306  1.00  0.00     0.014 C 
ATOM      5  C   UNL     1      90.975  85.690  81.234  1.00  0.00     0.009 C 
ATOM      6  C   UNL     1      94.492  84.436  80.763  1.00  0.00     0.000 C 
ATOM      7  C   UNL     1      92.163  84.995  81.906  1.00  0.00     0.018 C 
ATOM      8  C   UNL     1      94.351  86.000  78.694  1.00  0.00     0.008 C 
ATOM      9  C   UNL     1      95.133  84.143  82.135  1.00  0.00     0.005 C 
ATOM     10  C   UNL     1      95.070  85.740  80.081  1.00  0.00    -0.024 C 
ATOM     11  C   UNL     1      96.651  83.990  82.017  1.00  0.00     0.005 C 
ATOM     12  C   UNL     1      96.669  85.525  79.896  1.00  0.00    -0.024 C 
ATOM     13  C   UNL     1      94.750  86.999  80.960  1.00  0.00     0.012 C 
ATOM     14  C   UNL     1      97.326  85.204  81.307  1.00  0.00     0.002 C 
ATOM     15  C   UNL     1      97.350  86.824  79.340  1.00  0.00     0.008 C 
ATOM     16  C   UNL     1      96.929  84.350  78.877  1.00  0.00     0.012 C 
ATOM     17  C   UNL     1      98.918  85.178  81.365  1.00  0.00    -0.025 C 
ATOM     18  C   UNL     1      98.881  86.766  79.317  1.00  0.00     0.006 C 
ATOM     19  C   UNL     1      99.363  85.131  82.876  1.00  0.00     0.015 C 
ATOM     20  C   UNL     1      99.508  83.914  80.670  1.00  0.00     0.012 C 
ATOM     21  C   UNL     1      99.474  86.506  80.720  1.00  0.00     0.008 C 
ATOM     22  C   UNL     1     100.719  85.788  83.205  1.00  0.00     0.077 C 
ATOM     23  C   UNL     1     101.053  86.661  80.768  1.00  0.00     0.027 C 
ATOM     24  C   UNL     1     101.590  85.939  81.993  1.00  0.00     0.138 C 
ATOM     25  C   UNL     1     101.423  88.155  80.921  1.00  0.00     0.020 C 
ATOM     26  C   UNL     1     101.763  86.135  79.488  1.00  0.00     0.020 C 
ATOM     27  O   UNL     1     102.725  85.483  82.011  1.00  0.00    -0.299 OA
ENDROOT
BRANCH   1  28
ATOM     28  C   UNL     1      91.380  83.501  78.918  1.00  0.00     0.048 C 
ATOM     29  O   UNL     1      91.858  82.644  78.123  1.00  0.00    -0.550 OA
ATOM     30  O   UNL     1      90.020  83.439  79.219  1.00  0.00    -0.550 OA
ENDBRANCH   1  28
BRANCH   7  31
ATOM     31  C   UNL     1      91.709  84.072  83.034  1.00  0.00    -0.077 C 
ATOM     32  C   UNL     1      92.596  83.780  84.220  1.00  0.00     0.039 C 
ATOM     33  C   UNL     1      90.499  83.493  82.981  1.00  0.00     0.008 C 
ENDBRANCH   7  31
TORSDOF 2
ENDMDL
MODEL 6
REMARK VINA RESULT:    -6.590      2.764      4.037
REMARK INTER + INTRA:          -7.989
REMARK INTER:                  -7.279
REMARK INTRA:                  -0.710
REMARK UNBOUND:                -0.629
REMARK SMILES C=C(C)[C@@H]1CC[C@@]2(C(=O)[O-])CC[C@@]3(C)[C@@H](CC[C@H]4[C@]5(C)CCC(=O)C(C)(C)[C@H]5CC[C@@]43C)[C@@H]12
REMARK SMILES IDX 7 1 6 2 33 3 11 4 5 5 15 6 4 7 12 8 16 9 13 10 17 11 31 12
REMARK SMILES IDX 14 13 18 14 30 15 32 16 19 17 29 18 21 19 20 20 28 21 22 22
REMARK SMILES IDX 25 23 23 24 26 25 27 26 24 27 8 28 9 29 10 30 2 31 3 32 1 33
REMARK H PARENT
REMARK Flexibility Score: inf
ROOT
ATOM      1  C   UNL     1     100.222  84.248  84.230  1.00  0.00     0.014 C 
ATOM      2  C   UNL     1     100.050  82.744  83.924  1.00  0.00     0.014 C 
ATOM      3  C   UNL     1      98.768  84.820  84.224  1.00  0.00     0.012 C 
ATOM      4  C   UNL     1     101.150  84.943  83.198  1.00  0.00     0.014 C 
ATOM      5  C   UNL     1      98.687  82.362  84.468  1.00  0.00     0.009 C 
ATOM      6  C   UNL     1      98.507  85.855  83.079  1.00  0.00     0.000 C 
ATOM      7  C   UNL     1      97.806  83.603  84.294  1.00  0.00     0.018 C 
ATOM      8  C   UNL     1     100.587  85.016  81.767  1.00  0.00     0.008 C 
ATOM      9  C   UNL     1      97.039  86.326  83.032  1.00  0.00     0.005 C 
ATOM     10  C   UNL     1      99.091  85.521  81.647  1.00  0.00    -0.024 C 
ATOM     11  C   UNL     1      96.883  87.566  82.149  1.00  0.00     0.005 C 
ATOM     12  C   UNL     1      98.984  86.871  80.751  1.00  0.00    -0.024 C 
ATOM     13  C   UNL     1      98.298  84.331  81.003  1.00  0.00     0.012 C 
ATOM     14  C   UNL     1      97.475  87.367  80.719  1.00  0.00     0.002 C 
ATOM     15  C   UNL     1      99.425  86.599  79.270  1.00  0.00     0.008 C 
ATOM     16  C   UNL     1      99.926  87.982  81.356  1.00  0.00     0.012 C 
ATOM     17  C   UNL     1      97.133  88.553  79.713  1.00  0.00    -0.025 C 
ATOM     18  C   UNL     1      99.173  87.772  78.318  1.00  0.00     0.006 C 
ATOM     19  C   UNL     1      95.566  88.698  79.624  1.00  0.00     0.015 C 
ATOM     20  C   UNL     1      97.697  89.920  80.205  1.00  0.00     0.012 C 
ATOM     21  C   UNL     1      97.684  88.182  78.281  1.00  0.00     0.008 C 
ATOM     22  C   UNL     1      95.008  89.222  78.284  1.00  0.00     0.077 C 
ATOM     23  C   UNL     1      97.357  89.240  77.145  1.00  0.00     0.027 C 
ATOM     24  C   UNL     1      96.046  89.939  77.473  1.00  0.00     0.138 C 
ATOM     25  C   UNL     1      97.157  88.509  75.796  1.00  0.00     0.020 C 
ATOM     26  C   UNL     1      98.483  90.294  76.940  1.00  0.00     0.020 C 
ATOM     27  O   UNL     1      95.820  91.075  77.081  1.00  0.00    -0.299 OA
ENDROOT
BRANCH   1  28
ATOM     28  C   UNL     1     100.868  84.432  85.602  1.00  0.00     0.048 C 
ATOM     29  O   UNL     1     101.656  83.557  86.058  1.00  0.00    -0.550 OA
ATOM     30  O   UNL     1     100.515  85.499  86.426  1.00  0.00    -0.550 OA
ENDBRANCH   1  28
BRANCH   7  31
ATOM     31  C   UNL     1      96.766  83.713  85.407  1.00  0.00    -0.077 C 
ATOM     32  C   UNL     1      95.289  83.773  85.102  1.00  0.00     0.039 C 
ATOM     33  C   UNL     1      97.159  83.768  86.689  1.00  0.00     0.008 C 
ENDBRANCH   7  31
TORSDOF 2
ENDMDL
MODEL 7
REMARK VINA RESULT:    -6.461      4.924      9.359
REMARK INTER + INTRA:          -7.845
REMARK INTER:                  -7.152
REMARK INTRA:                  -0.693
REMARK UNBOUND:                -0.629
REMARK SMILES C=C(C)[C@@H]1CC[C@@]2(C(=O)[O-])CC[C@@]3(C)[C@@H](CC[C@H]4[C@]5(C)CCC(=O)C(C)(C)[C@H]5CC[C@@]43C)[C@@H]12
REMARK SMILES IDX 7 1 6 2 33 3 11 4 5 5 15 6 4 7 12 8 16 9 13 10 17 11 31 12
REMARK SMILES IDX 14 13 18 14 30 15 32 16 19 17 29 18 21 19 20 20 28 21 22 22
REMARK SMILES IDX 25 23 23 24 26 25 27 26 24 27 8 28 9 29 10 30 2 31 3 32 1 33
REMARK H PARENT
REMARK Flexibility Score: inf
ROOT
ATOM      1  C   UNL     1      97.885  83.857  82.072  1.00  0.00     0.014 C 
ATOM      2  C   UNL     1      98.818  85.085  82.150  1.00  0.00     0.014 C 
ATOM      3  C   UNL     1      96.739  84.294  81.105  1.00  0.00     0.012 C 
ATOM      4  C   UNL     1      97.368  83.437  83.474  1.00  0.00     0.014 C 
ATOM      5  C   UNL     1      98.678  85.799  80.820  1.00  0.00     0.009 C 
ATOM      6  C   UNL     1      95.335  84.371  81.792  1.00  0.00     0.000 C 
ATOM      7  C   UNL     1      97.229  85.576  80.377  1.00  0.00     0.018 C 
ATOM      8  C   UNL     1      96.428  84.454  84.148  1.00  0.00     0.008 C 
ATOM      9  C   UNL     1      94.241  84.901  80.843  1.00  0.00     0.005 C 
ATOM     10  C   UNL     1      95.264  85.017  83.234  1.00  0.00    -0.024 C 
ATOM     11  C   UNL     1      92.843  84.651  81.413  1.00  0.00     0.005 C 
ATOM     12  C   UNL     1      93.801  84.674  83.849  1.00  0.00    -0.024 C 
ATOM     13  C   UNL     1      95.510  86.563  83.148  1.00  0.00     0.012 C 
ATOM     14  C   UNL     1      92.674  85.204  82.862  1.00  0.00     0.002 C 
ATOM     15  C   UNL     1      93.591  85.385  85.232  1.00  0.00     0.008 C 
ATOM     16  C   UNL     1      93.670  83.117  84.064  1.00  0.00     0.012 C 
ATOM     17  C   UNL     1      91.174  85.155  83.395  1.00  0.00    -0.025 C 
ATOM     18  C   UNL     1      92.168  85.266  85.787  1.00  0.00     0.006 C 
ATOM     19  C   UNL     1      90.263  85.974  82.404  1.00  0.00     0.015 C 
ATOM     20  C   UNL     1      90.616  83.701  83.442  1.00  0.00     0.012 C 
ATOM     21  C   UNL     1      91.115  85.843  84.814  1.00  0.00     0.008 C 
ATOM     22  C   UNL     1      89.021  86.648  83.023  1.00  0.00     0.077 C 
ATOM     23  C   UNL     1      89.664  85.937  85.451  1.00  0.00     0.027 C 
ATOM     24  C   UNL     1      88.634  86.037  84.337  1.00  0.00     0.138 C 
ATOM     25  C   UNL     1      89.550  87.229  86.293  1.00  0.00     0.020 C 
ATOM     26  C   UNL     1      89.322  84.741  86.385  1.00  0.00     0.020 C 
ATOM     27  O   UNL     1      87.490  85.633  84.496  1.00  0.00    -0.299 OA
ENDROOT
BRANCH   1  28
ATOM     28  C   UNL     1      98.645  82.660  81.503  1.00  0.00     0.048 C 
ATOM     29  O   UNL     1      99.766  82.331  81.980  1.00  0.00    -0.550 OA
ATOM     30  O   UNL     1      98.179  81.981  80.378  1.00  0.00    -0.550 OA
ENDBRANCH   1  28
BRANCH   7  31
ATOM     31  C   UNL     1      97.113  85.493  78.857  1.00  0.00    -0.077 C 
ATOM     32  C   UNL     1      96.703  84.216  78.165  1.00  0.00     0.039 C 
ATOM     33  C   UNL     1      97.386  86.571  78.104  1.00  0.00     0.008 C 
ENDBRANCH   7  31
TORSDOF 2
ENDMDL
MODEL 8
REMARK VINA RESULT:    -6.275      4.602      8.639
REMARK INTER + INTRA:          -7.637
REMARK INTER:                  -6.985
REMARK INTRA:                  -0.652
REMARK UNBOUND:                -0.629
REMARK SMILES C=C(C)[C@@H]1CC[C@@]2(C(=O)[O-])CC[C@@]3(C)[C@@H](CC[C@H]4[C@]5(C)CCC(=O)C(C)(C)[C@H]5CC[C@@]43C)[C@@H]12
REMARK SMILES IDX 7 1 6 2 33 3 11 4 5 5 15 6 4 7 12 8 16 9 13 10 17 11 31 12
REMARK SMILES IDX 14 13 18 14 30 15 32 16 19 17 29 18 21 19 20 20 28 21 22 22
REMARK SMILES IDX 25 23 23 24 26 25 27 26 24 27 8 28 9 29 10 30 2 31 3 32 1 33
REMARK H PARENT
REMARK Flexibility Score: inf
ROOT
ATOM      1  C   UNL     1      99.006  84.013  83.898  1.00  0.00     0.014 C 
ATOM      2  C   UNL     1      99.855  85.110  83.221  1.00  0.00     0.014 C 
ATOM      3  C   UNL     1      97.969  83.588  82.810  1.00  0.00     0.012 C 
ATOM      4  C   UNL     1      98.339  84.524  85.203  1.00  0.00     0.014 C 
ATOM      5  C   UNL     1      99.845  84.788  81.739  1.00  0.00     0.009 C 
ATOM      6  C   UNL     1      96.487  83.914  83.195  1.00  0.00     0.000 C 
ATOM      7  C   UNL     1      98.477  84.159  81.457  1.00  0.00     0.018 C 
ATOM      8  C   UNL     1      97.269  85.612  85.000  1.00  0.00     0.008 C 
ATOM      9  C   UNL     1      95.495  83.580  82.063  1.00  0.00     0.005 C 
ATOM     10  C   UNL     1      96.201  85.316  83.869  1.00  0.00    -0.024 C 
ATOM     11  C   UNL     1      94.051  83.582  82.572  1.00  0.00     0.005 C 
ATOM     12  C   UNL     1      94.692  85.269  84.467  1.00  0.00    -0.024 C 
ATOM     13  C   UNL     1      96.374  86.468  82.818  1.00  0.00     0.012 C 
ATOM     14  C   UNL     1      93.672  84.905  83.305  1.00  0.00     0.002 C 
ATOM     15  C   UNL     1      94.273  86.666  85.046  1.00  0.00     0.008 C 
ATOM     16  C   UNL     1      94.618  84.206  85.630  1.00  0.00     0.012 C 
ATOM     17  C   UNL     1      92.122  85.026  83.649  1.00  0.00    -0.025 C 
ATOM     18  C   UNL     1      92.799  86.756  85.456  1.00  0.00     0.006 C 
ATOM     19  C   UNL     1      91.300  84.906  82.309  1.00  0.00     0.015 C 
ATOM     20  C   UNL     1      91.641  83.882  84.591  1.00  0.00     0.012 C 
ATOM     21  C   UNL     1      91.848  86.447  84.279  1.00  0.00     0.008 C 
ATOM     22  C   UNL     1      89.956  85.662  82.267  1.00  0.00     0.077 C 
ATOM     23  C   UNL     1      90.326  86.747  84.612  1.00  0.00     0.027 C 
ATOM     24  C   UNL     1      89.440  85.988  83.637  1.00  0.00     0.138 C 
ATOM     25  C   UNL     1      90.038  88.254  84.410  1.00  0.00     0.020 C 
ATOM     26  C   UNL     1      89.933  86.392  86.075  1.00  0.00     0.020 C 
ATOM     27  O   UNL     1      88.308  85.642  83.948  1.00  0.00    -0.299 OA
ENDROOT
BRANCH   1  28
ATOM     28  C   UNL     1      99.893  82.831  84.286  1.00  0.00     0.048 C 
ATOM     29  O   UNL     1      99.709  81.697  83.763  1.00  0.00    -0.550 OA
ATOM     30  O   UNL     1     100.840  82.946  85.303  1.00  0.00    -0.550 OA
ENDBRANCH   1  28
BRANCH   7  31
ATOM     31  C   UNL     1      98.558  83.114  80.348  1.00  0.00    -0.077 C 
ATOM     32  C   UNL     1      97.529  83.053  79.245  1.00  0.00     0.039 C 
ATOM     33  C   UNL     1      99.556  82.216  80.344  1.00  0.00     0.008 C 
ENDBRANCH   7  31
TORSDOF 2
ENDMDL
MODEL 9
REMARK VINA RESULT:    -6.177      1.681      2.183
REMARK INTER + INTRA:          -7.528
REMARK INTER:                  -6.801
REMARK INTRA:                  -0.727
REMARK UNBOUND:                -0.629
REMARK SMILES C=C(C)[C@@H]1CC[C@@]2(C(=O)[O-])CC[C@@]3(C)[C@@H](CC[C@H]4[C@]5(C)CCC(=O)C(C)(C)[C@H]5CC[C@@]43C)[C@@H]12
REMARK SMILES IDX 7 1 6 2 33 3 11 4 5 5 15 6 4 7 12 8 16 9 13 10 17 11 31 12
REMARK SMILES IDX 14 13 18 14 30 15 32 16 19 17 29 18 21 19 20 20 28 21 22 22
REMARK SMILES IDX 25 23 23 24 26 25 27 26 24 27 8 28 9 29 10 30 2 31 3 32 1 33
REMARK H PARENT
REMARK Flexibility Score: inf
ROOT
ATOM      1  C   UNL     1      98.972  84.504  84.322  1.00  0.00     0.014 C 
ATOM      2  C   UNL     1      98.510  83.171  83.696  1.00  0.00     0.014 C 
ATOM      3  C   UNL     1      98.117  85.595  83.602  1.00  0.00     0.012 C 
ATOM      4  C   UNL     1     100.499  84.722  84.152  1.00  0.00     0.014 C 
ATOM      5  C   UNL     1      97.065  83.381  83.288  1.00  0.00     0.009 C 
ATOM      6  C   UNL     1      98.964  86.582  82.731  1.00  0.00     0.000 C 
ATOM      7  C   UNL     1      96.956  84.855  82.884  1.00  0.00     0.018 C 
ATOM      8  C   UNL     1     100.966  84.925  82.699  1.00  0.00     0.008 C 
ATOM      9  C   UNL     1      98.088  87.583  81.952  1.00  0.00     0.005 C 
ATOM     10  C   UNL     1     100.124  85.964  81.850  1.00  0.00    -0.024 C 
ATOM     11  C   UNL     1      98.927  88.733  81.389  1.00  0.00     0.005 C 
ATOM     12  C   UNL     1     101.044  87.195  81.326  1.00  0.00    -0.024 C 
ATOM     13  C   UNL     1      99.520  85.142  80.660  1.00  0.00     0.012 C 
ATOM     14  C   UNL     1     100.138  88.237  80.540  1.00  0.00     0.002 C 
ATOM     15  C   UNL     1     102.151  86.688  80.337  1.00  0.00     0.008 C 
ATOM     16  C   UNL     1     101.752  87.886  82.555  1.00  0.00     0.012 C 
ATOM     17  C   UNL     1     100.896  89.402  79.763  1.00  0.00    -0.025 C 
ATOM     18  C   UNL     1     102.938  87.810  79.651  1.00  0.00     0.006 C 
ATOM     19  C   UNL     1      99.861  90.139  78.831  1.00  0.00     0.015 C 
ATOM     20  C   UNL     1     101.485  90.468  80.735  1.00  0.00     0.012 C 
ATOM     21  C   UNL     1     102.020  88.763  78.856  1.00  0.00     0.008 C 
ATOM     22  C   UNL     1     100.432  90.760  77.539  1.00  0.00     0.077 C 
ATOM     23  C   UNL     1     102.822  89.798  77.959  1.00  0.00     0.027 C 
ATOM     24  C   UNL     1     101.915  90.969  77.612  1.00  0.00     0.138 C 
ATOM     25  C   UNL     1     103.226  89.125  76.626  1.00  0.00     0.020 C 
ATOM     26  C   UNL     1     104.125  90.316  78.632  1.00  0.00     0.020 C 
ATOM     27  O   UNL     1     102.376  92.079  77.385  1.00  0.00    -0.299 OA
ENDROOT
BRANCH   1  28
ATOM     28  C   UNL     1      98.689  84.502  85.824  1.00  0.00     0.048 C 
ATOM     29  O   UNL     1      98.179  85.516  86.378  1.00  0.00    -0.550 OA
ATOM     30  O   UNL     1      99.091  83.439  86.630  1.00  0.00    -0.550 OA
ENDBRANCH   1  28
BRANCH   7  31
ATOM     31  C   UNL     1      95.577  85.425  83.208  1.00  0.00    -0.077 C 
ATOM     32  C   UNL     1      95.114  85.606  84.634  1.00  0.00     0.039 C 
ATOM     33  C   UNL     1      94.743  85.771  82.215  1.00  0.00     0.008 C 
ENDBRANCH   7  31
TORSDOF 2
ENDMDL
