MODEL 1
REMARK VINA RESULT:    -4.917      0.000      0.000
REMARK INTER + INTRA:          -5.296
REMARK INTER:                  -5.205
REMARK INTRA:                  -0.091
REMARK UNBOUND:                -0.091
REMARK SMILES C=C(C)[C@H]1CC=C(C)C(=O)C1
REMARK SMILES IDX 8 1 7 2 6 3 5 4 4 5 11 6 9 7 10 8 2 9 1 10 3 11
REMARK H PARENT
REMARK Flexibility Score: inf
ROOT
ATOM      1  C   UNL     1       7.024 -17.722  18.846  1.00  0.00     0.048 C 
ATOM      2  C   UNL     1       8.480 -18.000  19.099  1.00  0.00    -0.012 C 
ATOM      3  C   UNL     1       9.269 -18.410  18.091  1.00  0.00    -0.019 C 
ATOM      4  C   UNL     1      10.728 -18.719  18.293  1.00  0.00     0.036 C 
ATOM      5  C   UNL     1      11.340 -17.819  19.384  1.00  0.00     0.025 C 
ATOM      6  C   UNL     1      10.531 -17.938  20.690  1.00  0.00     0.089 C 
ATOM      7  C   UNL     1       9.069 -17.703  20.429  1.00  0.00     0.158 C 
ATOM      8  O   UNL     1       8.338 -17.284  21.367  1.00  0.00    -0.295 OA
ENDROOT
BRANCH   5   9
ATOM      9  C   UNL     1      12.815 -18.128  19.606  1.00  0.00    -0.077 C 
ATOM     10  C   UNL     1      13.742 -17.817  18.684  1.00  0.00     0.008 C 
ATOM     11  C   UNL     1      13.264 -18.795  20.882  1.00  0.00     0.039 C 
ENDBRANCH   5   9
TORSDOF 1
ENDMDL
MODEL 2
REMARK VINA RESULT:    -4.814      1.862      4.538
REMARK INTER + INTRA:          -5.187
REMARK INTER:                  -5.092
REMARK INTRA:                  -0.095
REMARK UNBOUND:                -0.091
REMARK SMILES C=C(C)[C@H]1CC=C(C)C(=O)C1
REMARK SMILES IDX 8 1 7 2 6 3 5 4 4 5 11 6 9 7 10 8 2 9 1 10 3 11
REMARK H PARENT
REMARK Flexibility Score: inf
ROOT
ATOM      1  C   UNL     1      15.279 -18.672  21.512  1.00  0.00     0.048 C 
ATOM      2  C   UNL     1      13.926 -18.312  20.962  1.00  0.00    -0.012 C 
ATOM      3  C   UNL     1      13.730 -18.280  19.633  1.00  0.00    -0.019 C 
ATOM      4  C   UNL     1      12.402 -17.909  19.030  1.00  0.00     0.036 C 
ATOM      5  C   UNL     1      11.237 -18.360  19.932  1.00  0.00     0.025 C 
ATOM      6  C   UNL     1      11.413 -17.793  21.354  1.00  0.00     0.089 C 
ATOM      7  C   UNL     1      12.782 -18.116  21.887  1.00  0.00     0.158 C 
ATOM      8  O   UNL     1      12.955 -18.181  23.133  1.00  0.00    -0.295 OA
ENDROOT
BRANCH   5   9
ATOM      9  C   UNL     1       9.886 -17.982  19.339  1.00  0.00    -0.077 C 
ATOM     10  C   UNL     1       9.706 -17.891  18.010  1.00  0.00     0.008 C 
ATOM     11  C   UNL     1       8.715 -17.702  20.246  1.00  0.00     0.039 C 
ENDBRANCH   5   9
TORSDOF 1
ENDMDL
MODEL 3
REMARK VINA RESULT:    -4.801      2.073      4.770
REMARK INTER + INTRA:          -5.173
REMARK INTER:                  -5.076
REMARK INTRA:                  -0.097
REMARK UNBOUND:                -0.091
REMARK SMILES C=C(C)[C@H]1CC=C(C)C(=O)C1
REMARK SMILES IDX 8 1 7 2 6 3 5 4 4 5 11 6 9 7 10 8 2 9 1 10 3 11
REMARK H PARENT
REMARK Flexibility Score: inf
ROOT
ATOM      1  C   UNL     1      14.755 -18.619  21.114  1.00  0.00     0.048 C 
ATOM      2  C   UNL     1      13.313 -18.590  20.690  1.00  0.00    -0.012 C 
ATOM      3  C   UNL     1      12.347 -18.866  21.583  1.00  0.00    -0.019 C 
ATOM      4  C   UNL     1      10.889 -18.869  21.207  1.00  0.00     0.036 C 
ATOM      5  C   UNL     1      10.597 -17.828  20.109  1.00  0.00     0.025 C 
ATOM      6  C   UNL     1      11.514 -18.065  18.893  1.00  0.00     0.089 C 
ATOM      7  C   UNL     1      12.954 -18.137  19.323  1.00  0.00     0.158 C 
ATOM      8  O   UNL     1      13.857 -17.843  18.494  1.00  0.00    -0.295 OA
ENDROOT
BRANCH   5   9
ATOM      9  C   UNL     1       9.127 -17.827  19.711  1.00  0.00    -0.077 C 
ATOM     10  C   UNL     1       8.747 -17.990  18.432  1.00  0.00     0.008 C 
ATOM     11  C   UNL     1       8.061 -17.640  20.761  1.00  0.00     0.039 C 
ENDBRANCH   5   9
TORSDOF 1
ENDMDL
MODEL 4
REMARK VINA RESULT:    -4.800      1.458      2.185
REMARK INTER + INTRA:          -5.171
REMARK INTER:                  -5.075
REMARK INTRA:                  -0.097
REMARK UNBOUND:                -0.091
REMARK SMILES C=C(C)[C@H]1CC=C(C)C(=O)C1
REMARK SMILES IDX 8 1 7 2 6 3 5 4 4 5 11 6 9 7 10 8 2 9 1 10 3 11
REMARK H PARENT
REMARK Flexibility Score: inf
ROOT
ATOM      1  C   UNL     1       7.713 -17.910  21.147  1.00  0.00     0.048 C 
ATOM      2  C   UNL     1       9.173 -17.805  20.801  1.00  0.00    -0.012 C 
ATOM      3  C   UNL     1      10.094 -17.781  21.780  1.00  0.00    -0.019 C 
ATOM      4  C   UNL     1      11.566 -17.658  21.490  1.00  0.00     0.036 C 
ATOM      5  C   UNL     1      11.928 -18.346  20.159  1.00  0.00     0.025 C 
ATOM      6  C   UNL     1      11.059 -17.787  19.017  1.00  0.00     0.089 C 
ATOM      7  C   UNL     1       9.601 -17.852  19.380  1.00  0.00     0.158 C 
ATOM      8  O   UNL     1       8.741 -17.911  18.461  1.00  0.00    -0.295 OA
ENDROOT
BRANCH   5   9
ATOM      9  C   UNL     1      13.413 -18.221  19.848  1.00  0.00    -0.077 C 
ATOM     10  C   UNL     1      13.843 -17.780  18.653  1.00  0.00     0.008 C 
ATOM     11  C   UNL     1      14.438 -18.595  20.888  1.00  0.00     0.039 C 
ENDBRANCH   5   9
TORSDOF 1
ENDMDL
MODEL 5
REMARK VINA RESULT:    -4.703      2.165      4.537
REMARK INTER + INTRA:          -5.069
REMARK INTER:                  -4.974
REMARK INTRA:                  -0.095
REMARK UNBOUND:                -0.091
REMARK SMILES C=C(C)[C@H]1CC=C(C)C(=O)C1
REMARK SMILES IDX 8 1 7 2 6 3 5 4 4 5 11 6 9 7 10 8 2 9 1 10 3 11
REMARK H PARENT
REMARK Flexibility Score: inf
ROOT
ATOM      1  C   UNL     1      13.327 -17.543  23.031  1.00  0.00     0.048 C 
ATOM      2  C   UNL     1      12.360 -17.885  21.931  1.00  0.00    -0.012 C 
ATOM      3  C   UNL     1      11.060 -17.567  22.059  1.00  0.00    -0.019 C 
ATOM      4  C   UNL     1      10.047 -17.903  20.997  1.00  0.00     0.036 C 
ATOM      5  C   UNL     1      10.680 -17.856  19.593  1.00  0.00     0.025 C 
ATOM      6  C   UNL     1      11.915 -18.774  19.533  1.00  0.00     0.089 C 
ATOM      7  C   UNL     1      12.863 -18.460  20.658  1.00  0.00     0.158 C 
ATOM      8  O   UNL     1      14.087 -18.726  20.522  1.00  0.00    -0.295 OA
ENDROOT
BRANCH   5   9
ATOM      9  C   UNL     1       9.668 -18.203  18.508  1.00  0.00    -0.077 C 
ATOM     10  C   UNL     1       8.384 -17.816  18.599  1.00  0.00     0.008 C 
ATOM     11  C   UNL     1      10.098 -18.997  17.301  1.00  0.00     0.039 C 
ENDBRANCH   5   9
TORSDOF 1
ENDMDL
MODEL 6
REMARK VINA RESULT:    -4.699      2.917      3.827
REMARK INTER + INTRA:          -5.065
REMARK INTER:                  -4.970
REMARK INTRA:                  -0.095
REMARK UNBOUND:                -0.091
REMARK SMILES C=C(C)[C@H]1CC=C(C)C(=O)C1
REMARK SMILES IDX 8 1 7 2 6 3 5 4 4 5 11 6 9 7 10 8 2 9 1 10 3 11
REMARK H PARENT
REMARK Flexibility Score: inf
ROOT
ATOM      1  C   UNL     1       9.597 -22.897  22.585  1.00  0.00     0.048 C 
ATOM      2  C   UNL     1       9.907 -21.650  21.803  1.00  0.00    -0.012 C 
ATOM      3  C   UNL     1      11.161 -21.419  21.379  1.00  0.00    -0.019 C 
ATOM      4  C   UNL     1      11.529 -20.179  20.609  1.00  0.00     0.036 C 
ATOM      5  C   UNL     1      10.358 -19.707  19.726  1.00  0.00     0.025 C 
ATOM      6  C   UNL     1       9.091 -19.510  20.581  1.00  0.00     0.089 C 
ATOM      7  C   UNL     1       8.806 -20.741  21.396  1.00  0.00     0.158 C 
ATOM      8  O   UNL     1       7.623 -20.975  21.761  1.00  0.00    -0.295 OA
ENDROOT
BRANCH   5   9
ATOM      9  C   UNL     1      10.712 -18.447  18.948  1.00  0.00    -0.077 C 
ATOM     10  C   UNL     1       9.878 -17.936  18.026  1.00  0.00     0.008 C 
ATOM     11  C   UNL     1      12.021 -17.743  19.203  1.00  0.00     0.039 C 
ENDBRANCH   5   9
TORSDOF 1
ENDMDL
MODEL 7
REMARK VINA RESULT:    -4.688     12.451     13.982
REMARK INTER + INTRA:          -5.053
REMARK INTER:                  -4.958
REMARK INTRA:                  -0.095
REMARK UNBOUND:                -0.091
REMARK SMILES C=C(C)[C@H]1CC=C(C)C(=O)C1
REMARK SMILES IDX 8 1 7 2 6 3 5 4 4 5 11 6 9 7 10 8 2 9 1 10 3 11
REMARK H PARENT
REMARK Flexibility Score: inf
ROOT
ATOM      1  C   UNL     1      23.125 -11.542  25.249  1.00  0.00     0.048 C 
ATOM      2  C   UNL     1      21.707 -11.077  25.435  1.00  0.00    -0.012 C 
ATOM      3  C   UNL     1      21.409  -9.772  25.314  1.00  0.00    -0.019 C 
ATOM      4  C   UNL     1      20.010  -9.251  25.508  1.00  0.00     0.036 C 
ATOM      5  C   UNL     1      18.964 -10.287  25.056  1.00  0.00     0.025 C 
ATOM      6  C   UNL     1      19.193 -11.628  25.780  1.00  0.00     0.089 C 
ATOM      7  C   UNL     1      20.623 -12.072  25.630  1.00  0.00     0.158 C 
ATOM      8  O   UNL     1      20.895 -13.300  25.708  1.00  0.00    -0.295 OA
ENDROOT
BRANCH   5   9
ATOM      9  C   UNL     1      17.543  -9.777  25.256  1.00  0.00    -0.077 C 
ATOM     10  C   UNL     1      16.825 -10.113  26.341  1.00  0.00     0.008 C 
ATOM     11  C   UNL     1      16.912  -8.875  24.226  1.00  0.00     0.039 C 
ENDBRANCH   5   9
TORSDOF 1
ENDMDL
MODEL 8
REMARK VINA RESULT:    -4.653      1.580      4.371
REMARK INTER + INTRA:          -5.016
REMARK INTER:                  -4.918
REMARK INTRA:                  -0.098
REMARK UNBOUND:                -0.091
REMARK SMILES C=C(C)[C@H]1CC=C(C)C(=O)C1
REMARK SMILES IDX 8 1 7 2 6 3 5 4 4 5 11 6 9 7 10 8 2 9 1 10 3 11
REMARK H PARENT
REMARK Flexibility Score: inf
ROOT
ATOM      1  C   UNL     1      13.451 -17.991  19.061  1.00  0.00     0.048 C 
ATOM      2  C   UNL     1      11.977 -17.896  19.343  1.00  0.00    -0.012 C 
ATOM      3  C   UNL     1      11.095 -17.969  18.331  1.00  0.00    -0.019 C 
ATOM      4  C   UNL     1       9.611 -17.861  18.555  1.00  0.00     0.036 C 
ATOM      5  C   UNL     1       9.212 -18.454  19.920  1.00  0.00     0.025 C 
ATOM      6  C   UNL     1      10.022 -17.790  21.048  1.00  0.00     0.089 C 
ATOM      7  C   UNL     1      11.495 -17.846  20.746  1.00  0.00     0.158 C 
ATOM      8  O   UNL     1      12.319 -17.814  21.699  1.00  0.00    -0.295 OA
ENDROOT
BRANCH   5   9
ATOM      9  C   UNL     1       7.712 -18.344  20.165  1.00  0.00    -0.077 C 
ATOM     10  C   UNL     1       7.208 -18.305  21.410  1.00  0.00     0.008 C 
ATOM     11  C   UNL     1       6.759 -18.273  18.999  1.00  0.00     0.039 C 
ENDBRANCH   5   9
TORSDOF 1
ENDMDL
MODEL 9
REMARK VINA RESULT:    -4.603      7.281      7.816
REMARK INTER + INTRA:          -4.963
REMARK INTER:                  -4.869
REMARK INTRA:                  -0.094
REMARK UNBOUND:                -0.091
REMARK SMILES C=C(C)[C@H]1CC=C(C)C(=O)C1
REMARK SMILES IDX 8 1 7 2 6 3 5 4 4 5 11 6 9 7 10 8 2 9 1 10 3 11
REMARK H PARENT
REMARK Flexibility Score: inf
ROOT
ATOM      1  C   UNL     1       5.295 -26.125  24.407  1.00  0.00     0.048 C 
ATOM      2  C   UNL     1       6.455 -25.218  24.105  1.00  0.00    -0.012 C 
ATOM      3  C   UNL     1       7.279 -25.502  23.082  1.00  0.00    -0.019 C 
ATOM      4  C   UNL     1       8.466 -24.639  22.747  1.00  0.00     0.036 C 
ATOM      5  C   UNL     1       8.184 -23.159  23.072  1.00  0.00     0.025 C 
ATOM      6  C   UNL     1       7.748 -23.009  24.542  1.00  0.00     0.089 C 
ATOM      7  C   UNL     1       6.615 -23.947  24.856  1.00  0.00     0.158 C 
ATOM      8  O   UNL     1       5.823 -23.661  25.793  1.00  0.00    -0.295 OA
ENDROOT
BRANCH   5   9
ATOM      9  C   UNL     1       9.380 -22.274  22.747  1.00  0.00    -0.077 C 
ATOM     10  C   UNL     1      10.306 -21.980  23.676  1.00  0.00     0.008 C 
ATOM     11  C   UNL     1       9.546 -21.706  21.361  1.00  0.00     0.039 C 
ENDBRANCH   5   9
TORSDOF 1
ENDMDL
