MODEL 1
REMARK VINA RESULT:    -2.694      0.000      0.000
REMARK INTER + INTRA:          -2.930
REMARK INTER:                  -2.930
REMARK INTRA:                   0.000
REMARK UNBOUND:                 0.000
REMARK SMILES [NH3+]CC(=O)[O-]
REMARK SMILES IDX 2 1 1 2 3 6 4 7 5 8
REMARK H PARENT 1 3 1 4 1 5
REMARK Flexibility Score: inf
ROOT
ATOM      1  C   UNL     1      22.550  39.702  24.602  1.00  0.00     0.312 C 
ENDROOT
BRANCH   1   2
ATOM      2  N   UNL     1      22.284  38.744  25.674  1.00  0.00    -0.353 N 
ATOM      3  H   UNL     1      21.417  39.017  26.192  1.00  0.00     0.344 HD
ATOM      4  H   UNL     1      22.146  37.795  25.257  1.00  0.00     0.344 HD
ATOM      5  H   UNL     1      23.095  38.711  26.334  1.00  0.00     0.344 HD
ENDBRANCH   1   2
BRANCH   1   6
ATOM      6  C   UNL     1      23.728  39.269  23.786  1.00  0.00     0.096 C 
ATOM      7  O   UNL     1      24.255  40.062  22.962  1.00  0.00    -0.544 OA
ATOM      8  O   UNL     1      24.213  37.972  23.899  1.00  0.00    -0.544 OA
ENDBRANCH   1   6
TORSDOF 2
ENDMDL
MODEL 2
REMARK VINA RESULT:    -2.679      0.098      1.451
REMARK INTER + INTRA:          -2.913
REMARK INTER:                  -2.913
REMARK INTRA:                   0.000
REMARK UNBOUND:                 0.000
REMARK SMILES [NH3+]CC(=O)[O-]
REMARK SMILES IDX 2 1 1 2 3 6 4 7 5 8
REMARK H PARENT 1 3 1 4 1 5
REMARK Flexibility Score: inf
ROOT
ATOM      1  C   UNL     1      22.465  39.669  24.571  1.00  0.00     0.312 C 
ENDROOT
BRANCH   1   2
ATOM      2  N   UNL     1      22.246  38.765  25.698  1.00  0.00    -0.353 N 
ATOM      3  H   UNL     1      23.162  38.490  26.121  1.00  0.00     0.344 HD
ATOM      4  H   UNL     1      21.671  39.254  26.422  1.00  0.00     0.344 HD
ATOM      5  H   UNL     1      21.734  37.910  25.378  1.00  0.00     0.344 HD
ENDBRANCH   1   2
BRANCH   1   6
ATOM      6  C   UNL     1      23.669  39.252  23.784  1.00  0.00     0.096 C 
ATOM      7  O   UNL     1      24.164  38.106  23.944  1.00  0.00    -0.544 OA
ATOM      8  O   UNL     1      24.274  40.148  22.912  1.00  0.00    -0.544 OA
ENDBRANCH   1   6
TORSDOF 2
ENDMDL
MODEL 3
REMARK VINA RESULT:    -2.425      1.820      2.072
REMARK INTER + INTRA:          -2.637
REMARK INTER:                  -2.637
REMARK INTRA:                   0.000
REMARK UNBOUND:                 0.000
REMARK SMILES [NH3+]CC(=O)[O-]
REMARK SMILES IDX 2 1 1 2 3 6 4 7 5 8
REMARK H PARENT 1 3 1 4 1 5
REMARK Flexibility Score: inf
ROOT
ATOM      1  C   UNL     1      22.853  38.020  23.864  1.00  0.00     0.312 C 
ENDROOT
BRANCH   1   2
ATOM      2  N   UNL     1      23.629  37.044  24.628  1.00  0.00    -0.353 N 
ATOM      3  H   UNL     1      23.420  36.077  24.292  1.00  0.00     0.344 HD
ATOM      4  H   UNL     1      24.648  37.237  24.495  1.00  0.00     0.344 HD
ATOM      5  H   UNL     1      23.399  37.122  25.646  1.00  0.00     0.344 HD
ENDBRANCH   1   2
BRANCH   1   6
ATOM      6  C   UNL     1      23.231  39.416  24.252  1.00  0.00     0.096 C 
ATOM      7  O   UNL     1      22.524  40.059  25.071  1.00  0.00    -0.544 OA
ATOM      8  O   UNL     1      24.334  40.025  23.668  1.00  0.00    -0.544 OA
ENDBRANCH   1   6
TORSDOF 2
ENDMDL
MODEL 4
REMARK VINA RESULT:    -2.406      2.419      2.794
REMARK INTER + INTRA:          -2.617
REMARK INTER:                  -2.617
REMARK INTRA:                   0.000
REMARK UNBOUND:                 0.000
REMARK SMILES [NH3+]CC(=O)[O-]
REMARK SMILES IDX 2 1 1 2 3 6 4 7 5 8
REMARK H PARENT 1 3 1 4 1 5
REMARK Flexibility Score: inf
ROOT
ATOM      1  C   UNL     1      24.410  38.439  23.320  1.00  0.00     0.312 C 
ENDROOT
BRANCH   1   2
ATOM      2  N   UNL     1      24.225  39.882  23.462  1.00  0.00    -0.353 N 
ATOM      3  H   UNL     1      23.666  40.253  22.660  1.00  0.00     0.344 HD
ATOM      4  H   UNL     1      23.711  40.075  24.352  1.00  0.00     0.344 HD
ATOM      5  H   UNL     1      25.155  40.361  23.496  1.00  0.00     0.344 HD
ENDBRANCH   1   2
BRANCH   1   6
ATOM      6  C   UNL     1      23.569  37.698  24.313  1.00  0.00     0.096 C 
ATOM      7  O   UNL     1      23.699  36.454  24.450  1.00  0.00    -0.544 OA
ATOM      8  O   UNL     1      22.603  38.374  25.048  1.00  0.00    -0.544 OA
ENDBRANCH   1   6
TORSDOF 2
ENDMDL
MODEL 5
REMARK VINA RESULT:    -2.336     10.758     11.143
REMARK INTER + INTRA:          -2.540
REMARK INTER:                  -2.540
REMARK INTRA:                   0.000
REMARK UNBOUND:                 0.000
REMARK SMILES [NH3+]CC(=O)[O-]
REMARK SMILES IDX 2 1 1 2 3 6 4 7 5 8
REMARK H PARENT 1 3 1 4 1 5
REMARK Flexibility Score: inf
ROOT
ATOM      1  C   UNL     1      24.339  41.881  14.550  1.00  0.00     0.312 C 
ENDROOT
BRANCH   1   2
ATOM      2  N   UNL     1      23.337  42.736  15.184  1.00  0.00    -0.353 N 
ATOM      3  H   UNL     1      22.379  42.465  14.864  1.00  0.00     0.344 HD
ATOM      4  H   UNL     1      23.394  42.620  16.222  1.00  0.00     0.344 HD
ATOM      5  H   UNL     1      23.518  43.739  14.945  1.00  0.00     0.344 HD
ENDBRANCH   1   2
BRANCH   1   6
ATOM      6  C   UNL     1      24.848  42.508  13.290  1.00  0.00     0.096 C 
ATOM      7  O   UNL     1      24.062  42.739  12.334  1.00  0.00    -0.544 OA
ATOM      8  O   UNL     1      26.202  42.790  13.151  1.00  0.00    -0.544 OA
ENDBRANCH   1   6
TORSDOF 2
ENDMDL
MODEL 6
REMARK VINA RESULT:    -2.300      2.352      2.429
REMARK INTER + INTRA:          -2.502
REMARK INTER:                  -2.502
REMARK INTRA:                   0.000
REMARK UNBOUND:                 0.000
REMARK SMILES [NH3+]CC(=O)[O-]
REMARK SMILES IDX 2 1 1 2 3 6 4 7 5 8
REMARK H PARENT 1 3 1 4 1 5
REMARK Flexibility Score: inf
ROOT
ATOM      1  C   UNL     1      22.666  39.419  22.723  1.00  0.00     0.312 C 
ENDROOT
BRANCH   1   2
ATOM      2  N   UNL     1      23.881  40.035  22.194  1.00  0.00    -0.353 N 
ATOM      3  H   UNL     1      24.649  39.327  22.140  1.00  0.00     0.344 HD
ATOM      4  H   UNL     1      23.689  40.401  21.233  1.00  0.00     0.344 HD
ATOM      5  H   UNL     1      24.176  40.831  22.807  1.00  0.00     0.344 HD
ENDBRANCH   1   2
BRANCH   1   6
ATOM      6  C   UNL     1      22.804  39.151  24.189  1.00  0.00     0.096 C 
ATOM      7  O   UNL     1      22.627  40.079  25.022  1.00  0.00    -0.544 OA
ATOM      8  O   UNL     1      23.180  37.890  24.634  1.00  0.00    -0.544 OA
ENDBRANCH   1   6
TORSDOF 2
ENDMDL
MODEL 7
REMARK VINA RESULT:    -2.217      1.766      1.883
REMARK INTER + INTRA:          -2.411
REMARK INTER:                  -2.411
REMARK INTRA:                   0.000
REMARK UNBOUND:                 0.000
REMARK SMILES [NH3+]CC(=O)[O-]
REMARK SMILES IDX 2 1 1 2 3 6 4 7 5 8
REMARK H PARENT 1 3 1 4 1 5
REMARK Flexibility Score: inf
ROOT
ATOM      1  C   UNL     1      23.600  37.125  24.273  1.00  0.00     0.312 C 
ENDROOT
BRANCH   1   2
ATOM      2  N   UNL     1      22.850  38.124  25.031  1.00  0.00    -0.353 N 
ATOM      3  H   UNL     1      23.485  38.622  25.696  1.00  0.00     0.344 HD
ATOM      4  H   UNL     1      22.440  38.821  24.367  1.00  0.00     0.344 HD
ATOM      5  H   UNL     1      22.074  37.664  25.561  1.00  0.00     0.344 HD
ENDBRANCH   1   2
BRANCH   1   6
ATOM      6  C   UNL     1      24.719  37.768  23.513  1.00  0.00     0.096 C 
ATOM      7  O   UNL     1      24.548  38.884  22.957  1.00  0.00    -0.544 OA
ATOM      8  O   UNL     1      25.934  37.109  23.375  1.00  0.00    -0.544 OA
ENDBRANCH   1   6
TORSDOF 2
ENDMDL
MODEL 8
REMARK VINA RESULT:    -2.179     11.197     11.371
REMARK INTER + INTRA:          -2.370
REMARK INTER:                  -2.370
REMARK INTRA:                   0.000
REMARK UNBOUND:                 0.000
REMARK SMILES [NH3+]CC(=O)[O-]
REMARK SMILES IDX 2 1 1 2 3 6 4 7 5 8
REMARK H PARENT 1 3 1 4 1 5
REMARK Flexibility Score: inf
ROOT
ATOM      1  C   UNL     1      24.274  42.670  13.677  1.00  0.00     0.312 C 
ENDROOT
BRANCH   1   2
ATOM      2  N   UNL     1      24.166  42.089  15.014  1.00  0.00    -0.353 N 
ATOM      3  H   UNL     1      24.818  41.277  15.107  1.00  0.00     0.344 HD
ATOM      4  H   UNL     1      24.422  42.813  15.724  1.00  0.00     0.344 HD
ATOM      5  H   UNL     1      23.183  41.774  15.190  1.00  0.00     0.344 HD
ENDBRANCH   1   2
BRANCH   1   6
ATOM      6  C   UNL     1      23.181  43.666  13.444  1.00  0.00     0.096 C 
ATOM      7  O   UNL     1      23.445  44.896  13.393  1.00  0.00    -0.544 OA
ATOM      8  O   UNL     1      21.863  43.241  13.335  1.00  0.00    -0.544 OA
ENDBRANCH   1   6
TORSDOF 2
ENDMDL
MODEL 9
REMARK VINA RESULT:    -2.113     13.905     14.384
REMARK INTER + INTRA:          -2.298
REMARK INTER:                  -2.298
REMARK INTRA:                   0.000
REMARK UNBOUND:                 0.000
REMARK SMILES [NH3+]CC(=O)[O-]
REMARK SMILES IDX 2 1 1 2 3 6 4 7 5 8
REMARK H PARENT 1 3 1 4 1 5
REMARK Flexibility Score: inf
ROOT
ATOM      1  C   UNL     1      19.675  53.395  25.086  1.00  0.00     0.312 C 
ENDROOT
BRANCH   1   2
ATOM      2  N   UNL     1      20.599  52.497  25.775  1.00  0.00    -0.353 N 
ATOM      3  H   UNL     1      21.586  52.738  25.528  1.00  0.00     0.344 HD
ATOM      4  H   UNL     1      20.472  52.603  26.808  1.00  0.00     0.344 HD
ATOM      5  H   UNL     1      20.401  51.504  25.509  1.00  0.00     0.344 HD
ENDBRANCH   1   2
BRANCH   1   6
ATOM      6  C   UNL     1      18.415  52.676  24.717  1.00  0.00     0.096 C 
ATOM      7  O   UNL     1      17.446  53.308  24.220  1.00  0.00    -0.544 OA
ATOM      8  O   UNL     1      18.291  51.315  24.971  1.00  0.00    -0.544 OA
ENDBRANCH   1   6
TORSDOF 2
ENDMDL
