MODEL 1
REMARK VINA RESULT:     1.608      0.000      0.000
REMARK INTER + INTRA:           1.584
REMARK INTER:                   1.890
REMARK INTRA:                  -0.306
REMARK UNBOUND:                -0.306
REMARK SMILES O=c1cc(-c2ccc(O)c(O)c2)oc2cc(O)cc(O)c12
REMARK SMILES IDX 4 1 3 2 2 3 1 4 21 5 19 6 18 7 16 8 15 9 14 10 13 11 5 12
REMARK SMILES IDX 6 13 7 14 8 15 12 16 10 17 9 18 11 20 20 22 17 24
REMARK H PARENT 9 19 11 21 20 23 17 25
REMARK Flexibility Score: inf
ROOT
ATOM      1  C   UNL     1      -9.500 -19.618  12.426  1.00  0.00     0.138 A 
ATOM      2  C   UNL     1      -8.495 -20.062  13.300  1.00  0.00     0.100 A 
ATOM      3  C   UNL     1      -8.788 -21.057  14.235  1.00  0.00     0.197 A 
ATOM      4  O   UNL     1      -7.879 -21.450  15.015  1.00  0.00    -0.289 OA
ATOM      5  C   UNL     1     -10.086 -21.602  14.285  1.00  0.00     0.107 A 
ATOM      6  C   UNL     1     -10.468 -22.611  15.201  1.00  0.00     0.134 A 
ATOM      7  C   UNL     1     -11.780 -23.107  15.183  1.00  0.00     0.093 A 
ATOM      8  C   UNL     1     -12.716 -22.615  14.269  1.00  0.00     0.123 A 
ATOM      9  C   UNL     1     -12.344 -21.617  13.361  1.00  0.00     0.094 A 
ATOM     10  C   UNL     1     -11.042 -21.110  13.364  1.00  0.00     0.146 A 
ATOM     11  O   UNL     1     -10.714 -20.161  12.493  1.00  0.00    -0.456 OA
ENDROOT
BRANCH   1  12
ATOM     12  C   UNL     1      -9.245 -18.564  11.412  1.00  0.00     0.021 A 
ATOM     13  C   UNL     1      -8.331 -17.521  11.643  1.00  0.00     0.016 A 
ATOM     14  C   UNL     1      -8.119 -16.538  10.674  1.00  0.00     0.051 A 
ATOM     15  C   UNL     1      -8.815 -16.567   9.461  1.00  0.00     0.157 A 
ATOM     16  C   UNL     1      -9.954 -18.584  10.198  1.00  0.00     0.062 A 
ATOM     17  C   UNL     1      -9.747 -17.603   9.221  1.00  0.00     0.158 A 
BRANCH  15  18
ATOM     18  O   UNL     1      -8.554 -15.554   8.535  1.00  0.00    -0.504 OA
ATOM     19  H   UNL     1      -9.107 -14.713   8.448  1.00  0.00     0.293 HD
ENDBRANCH  15  18
BRANCH  17  20
ATOM     20  O   UNL     1     -10.482 -17.695   8.038  1.00  0.00    -0.504 OA
ATOM     21  H   UNL     1     -10.203 -18.246   7.240  1.00  0.00     0.293 HD
ENDBRANCH  17  20
ENDBRANCH   1  12
BRANCH   6  22
ATOM     22  O   UNL     1      -9.556 -23.124  16.125  1.00  0.00    -0.507 OA
ATOM     23  H   UNL     1      -8.761 -23.681  15.836  1.00  0.00     0.293 HD
ENDBRANCH   6  22
BRANCH   8  24
ATOM     24  O   UNL     1     -14.011 -23.124  14.271  1.00  0.00    -0.508 OA
ATOM     25  H   UNL     1     -14.313 -23.803  14.962  1.00  0.00     0.293 HD
ENDBRANCH   8  24
TORSDOF 5
ENDMDL
MODEL 2
REMARK VINA RESULT:     1.654      3.193      4.514
REMARK INTER + INTRA:           1.638
REMARK INTER:                   1.923
REMARK INTRA:                  -0.285
REMARK UNBOUND:                -0.306
REMARK SMILES O=c1cc(-c2ccc(O)c(O)c2)oc2cc(O)cc(O)c12
REMARK SMILES IDX 4 1 3 2 2 3 1 4 21 5 19 6 18 7 16 8 15 9 14 10 13 11 5 12
REMARK SMILES IDX 6 13 7 14 8 15 12 16 10 17 9 18 11 20 20 22 17 24
REMARK H PARENT 9 19 11 21 20 23 17 25
REMARK Flexibility Score: inf
ROOT
ATOM      1  C   UNL     1      -9.150 -19.823  11.242  1.00  0.00     0.138 A 
ATOM      2  C   UNL     1      -9.784 -20.799  12.029  1.00  0.00     0.100 A 
ATOM      3  C   UNL     1     -10.082 -20.518  13.363  1.00  0.00     0.197 A 
ATOM      4  O   UNL     1     -10.652 -21.401  14.061  1.00  0.00    -0.289 OA
ATOM      5  C   UNL     1      -9.746 -19.260  13.901  1.00  0.00     0.107 A 
ATOM      6  C   UNL     1     -10.010 -18.895  15.242  1.00  0.00     0.134 A 
ATOM      7  C   UNL     1      -9.650 -17.619  15.699  1.00  0.00     0.093 A 
ATOM      8  C   UNL     1      -9.031 -16.703  14.844  1.00  0.00     0.123 A 
ATOM      9  C   UNL     1      -8.767 -17.059  13.517  1.00  0.00     0.094 A 
ATOM     10  C   UNL     1      -9.118 -18.326  13.043  1.00  0.00     0.146 A 
ATOM     11  O   UNL     1      -8.854 -18.640  11.778  1.00  0.00    -0.456 OA
ENDROOT
BRANCH   1  12
ATOM     12  C   UNL     1      -8.811 -20.066   9.818  1.00  0.00     0.021 A 
ATOM     13  C   UNL     1      -8.822 -19.030   8.868  1.00  0.00     0.016 A 
ATOM     14  C   UNL     1      -8.508 -19.291   7.533  1.00  0.00     0.051 A 
ATOM     15  C   UNL     1      -8.184 -20.585   7.113  1.00  0.00     0.157 A 
ATOM     16  C   UNL     1      -8.499 -21.369   9.393  1.00  0.00     0.062 A 
ATOM     17  C   UNL     1      -8.182 -21.639   8.056  1.00  0.00     0.158 A 
BRANCH  15  18
ATOM     18  O   UNL     1      -7.878 -20.776   5.763  1.00  0.00    -0.504 OA
ATOM     19  H   UNL     1      -8.553 -21.058   5.067  1.00  0.00     0.293 HD
ENDBRANCH  15  18
BRANCH  17  20
ATOM     20  O   UNL     1      -7.875 -22.956   7.711  1.00  0.00    -0.504 OA
ATOM     21  H   UNL     1      -8.139 -23.761   8.260  1.00  0.00     0.293 HD
ENDBRANCH  17  20
ENDBRANCH   1  12
BRANCH   6  22
ATOM     22  O   UNL     1     -10.627 -19.786  16.120  1.00  0.00    -0.507 OA
ATOM     23  H   UNL     1     -11.410 -20.362  15.833  1.00  0.00     0.293 HD
ENDBRANCH   6  22
BRANCH   8  24
ATOM     24  O   UNL     1      -8.684 -15.443  15.323  1.00  0.00    -0.508 OA
ATOM     25  H   UNL     1      -7.719 -15.193  15.507  1.00  0.00     0.293 HD
ENDBRANCH   8  24
TORSDOF 5
ENDMDL
MODEL 3
REMARK VINA RESULT:     3.398      9.891     14.643
REMARK INTER + INTRA:           3.688
REMARK INTER:                   4.006
REMARK INTRA:                  -0.319
REMARK UNBOUND:                -0.306
REMARK SMILES O=c1cc(-c2ccc(O)c(O)c2)oc2cc(O)cc(O)c12
REMARK SMILES IDX 4 1 3 2 2 3 1 4 21 5 19 6 18 7 16 8 15 9 14 10 13 11 5 12
REMARK SMILES IDX 6 13 7 14 8 15 12 16 10 17 9 18 11 20 20 22 17 24
REMARK H PARENT 9 19 11 21 20 23 17 25
REMARK Flexibility Score: inf
ROOT
ATOM      1  C   UNL     1      -8.138 -18.696  -0.090  1.00  0.00     0.138 A 
ATOM      2  C   UNL     1      -8.292 -18.940  -1.465  1.00  0.00     0.100 A 
ATOM      3  C   UNL     1      -8.356 -17.865  -2.351  1.00  0.00     0.197 A 
ATOM      4  O   UNL     1      -8.494 -18.094  -3.584  1.00  0.00    -0.289 OA
ATOM      5  C   UNL     1      -8.263 -16.549  -1.856  1.00  0.00     0.107 A 
ATOM      6  C   UNL     1      -8.321 -15.403  -2.684  1.00  0.00     0.134 A 
ATOM      7  C   UNL     1      -8.214 -14.126  -2.113  1.00  0.00     0.093 A 
ATOM      8  C   UNL     1      -8.051 -13.973  -0.733  1.00  0.00     0.123 A 
ATOM      9  C   UNL     1      -7.994 -15.103   0.090  1.00  0.00     0.094 A 
ATOM     10  C   UNL     1      -8.099 -16.383  -0.459  1.00  0.00     0.146 A 
ATOM     11  O   UNL     1      -8.043 -17.441   0.345  1.00  0.00    -0.456 OA
ENDROOT
BRANCH   1  12
ATOM     12  C   UNL     1      -8.062 -19.801   0.898  1.00  0.00     0.021 A 
ATOM     13  C   UNL     1      -8.079 -21.150   0.501  1.00  0.00     0.016 A 
ATOM     14  C   UNL     1      -8.017 -22.168   1.454  1.00  0.00     0.051 A 
ATOM     15  C   UNL     1      -7.944 -21.868   2.819  1.00  0.00     0.157 A 
ATOM     16  C   UNL     1      -8.004 -19.500   2.270  1.00  0.00     0.062 A 
ATOM     17  C   UNL     1      -7.940 -20.516   3.232  1.00  0.00     0.158 A 
BRANCH  15  18
ATOM     18  O   UNL     1      -7.882 -22.935   3.718  1.00  0.00    -0.504 OA
ATOM     19  H   UNL     1      -7.340 -22.922   4.571  1.00  0.00     0.293 HD
ENDBRANCH  15  18
BRANCH  17  20
ATOM     20  O   UNL     1      -7.875 -20.139   4.575  1.00  0.00    -0.504 OA
ATOM     21  H   UNL     1      -8.292 -20.663   5.330  1.00  0.00     0.293 HD
ENDBRANCH  17  20
ENDBRANCH   1  12
BRANCH   6  22
ATOM     22  O   UNL     1      -8.482 -15.522  -4.065  1.00  0.00    -0.507 OA
ATOM     23  H   UNL     1      -7.727 -15.319  -4.709  1.00  0.00     0.293 HD
ENDBRANCH   6  22
BRANCH   8  24
ATOM     24  O   UNL     1      -7.947 -12.695  -0.192  1.00  0.00    -0.508 OA
ATOM     25  H   UNL     1      -8.581 -12.372   0.530  1.00  0.00     0.293 HD
ENDBRANCH   8  24
TORSDOF 5
ENDMDL
MODEL 4
REMARK VINA RESULT:     4.205     13.458     16.155
REMARK INTER + INTRA:           4.636
REMARK INTER:                   4.926
REMARK INTRA:                  -0.290
REMARK UNBOUND:                -0.306
REMARK SMILES O=c1cc(-c2ccc(O)c(O)c2)oc2cc(O)cc(O)c12
REMARK SMILES IDX 4 1 3 2 2 3 1 4 21 5 19 6 18 7 16 8 15 9 14 10 13 11 5 12
REMARK SMILES IDX 6 13 7 14 8 15 12 16 10 17 9 18 11 20 20 22 17 24
REMARK H PARENT 9 19 11 21 20 23 17 25
REMARK Flexibility Score: inf
ROOT
ATOM      1  C   UNL     1      -9.179 -17.740  -1.924  1.00  0.00     0.138 A 
ATOM      2  C   UNL     1      -9.013 -17.483  -0.553  1.00  0.00     0.100 A 
ATOM      3  C   UNL     1      -8.647 -16.202  -0.135  1.00  0.00     0.197 A 
ATOM      4  O   UNL     1      -8.501 -15.980   1.098  1.00  0.00    -0.289 OA
ATOM      5  C   UNL     1      -8.454 -15.187  -1.092  1.00  0.00     0.107 A 
ATOM      6  C   UNL     1      -8.081 -13.864  -0.754  1.00  0.00     0.134 A 
ATOM      7  C   UNL     1      -7.914 -12.908  -1.767  1.00  0.00     0.093 A 
ATOM      8  C   UNL     1      -8.112 -13.248  -3.108  1.00  0.00     0.123 A 
ATOM      9  C   UNL     1      -8.479 -14.555  -3.447  1.00  0.00     0.094 A 
ATOM     10  C   UNL     1      -8.650 -15.521  -2.453  1.00  0.00     0.146 A 
ATOM     11  O   UNL     1      -8.998 -16.756  -2.802  1.00  0.00    -0.456 OA
ENDROOT
BRANCH   1  12
ATOM     12  C   UNL     1      -9.568 -19.082  -2.426  1.00  0.00     0.021 A 
ATOM     13  C   UNL     1     -10.189 -19.253  -3.675  1.00  0.00     0.016 A 
ATOM     14  C   UNL     1     -10.553 -20.526  -4.117  1.00  0.00     0.051 A 
ATOM     15  C   UNL     1     -10.315 -21.654  -3.324  1.00  0.00     0.157 A 
ATOM     16  C   UNL     1      -9.341 -20.214  -1.624  1.00  0.00     0.062 A 
ATOM     17  C   UNL     1      -9.703 -21.495  -2.059  1.00  0.00     0.158 A 
BRANCH  15  18
ATOM     18  O   UNL     1     -10.701 -22.898  -3.827  1.00  0.00    -0.504 OA
ATOM     19  H   UNL     1     -11.348 -23.020  -4.594  1.00  0.00     0.293 HD
ENDBRANCH  15  18
BRANCH  17  20
ATOM     20  O   UNL     1      -9.438 -22.572  -1.211  1.00  0.00    -0.504 OA
ATOM     21  H   UNL     1     -10.016 -23.396  -1.145  1.00  0.00     0.293 HD
ENDBRANCH  17  20
ENDBRANCH   1  12
BRANCH   6  22
ATOM     22  O   UNL     1      -7.878 -13.493   0.576  1.00  0.00    -0.507 OA
ATOM     23  H   UNL     1      -7.499 -14.140   1.258  1.00  0.00     0.293 HD
ENDBRANCH   6  22
BRANCH   8  24
ATOM     24  O   UNL     1      -7.940 -12.280  -4.094  1.00  0.00    -0.508 OA
ATOM     25  H   UNL     1      -8.453 -11.407  -4.074  1.00  0.00     0.293 HD
ENDBRANCH   8  24
TORSDOF 5
ENDMDL
