MODEL 1
REMARK VINA RESULT:    -5.041      0.000      0.000
REMARK INTER + INTRA:          -9.499
REMARK INTER:                  -7.988
REMARK INTRA:                  -1.510
REMARK UNBOUND:                -1.510
REMARK SMILES CCCCCCCCCCCC(=O)[O-]
REMARK SMILES IDX 7 1 8 2 9 3 10 4 11 5 12 6 13 7 14 8 6 9 5 10 4 11 3 12 2 13
REMARK SMILES IDX 1 14
REMARK H PARENT
REMARK Flexibility Score: inf
ROOT
ATOM      1  C   UNL     1      12.855 -13.562  36.946  1.00  0.00     0.000 C 
ENDROOT
BRANCH   1   2
ATOM      2  C   UNL     1      11.418 -14.087  37.105  1.00  0.00     0.000 C 
BRANCH   2   3
ATOM      3  C   UNL     1      10.525 -13.128  37.909  1.00  0.00     0.000 C 
BRANCH   3   4
ATOM      4  C   UNL     1       9.419 -12.487  37.051  1.00  0.00     0.006 C 
BRANCH   4   5
ATOM      5  C   UNL     1       9.347 -13.103  35.647  1.00  0.00     0.053 C 
BRANCH   5   6
ATOM      6  C   UNL     1       7.929 -13.295  35.201  1.00  0.00     0.041 C 
ATOM      7  O   UNL     1       6.997 -13.329  36.047  1.00  0.00    -0.550 OA
ATOM      8  O   UNL     1       7.642 -13.470  33.853  1.00  0.00    -0.550 OA
ENDBRANCH   5   6
ENDBRANCH   4   5
ENDBRANCH   3   4
ENDBRANCH   2   3
ENDBRANCH   1   2
BRANCH   1   9
ATOM      9  C   UNL     1      13.184 -13.173  35.496  1.00  0.00     0.000 C 
BRANCH   9  10
ATOM     10  C   UNL     1      12.945 -11.682  35.213  1.00  0.00    -0.000 C 
BRANCH  10  11
ATOM     11  C   UNL     1      13.635 -10.806  36.267  1.00  0.00    -0.000 C 
BRANCH  11  12
ATOM     12  C   UNL     1      12.771  -9.587  36.621  1.00  0.00    -0.000 C 
BRANCH  12  13
ATOM     13  C   UNL     1      12.072  -9.733  37.981  1.00  0.00    -0.003 C 
ATOM     14  C   UNL     1      12.941 -10.444  39.019  1.00  0.00     0.004 C 
ENDBRANCH  12  13
ENDBRANCH  11  12
ENDBRANCH  10  11
ENDBRANCH   9  10
ENDBRANCH   1   9
TORSDOF 10
ENDMDL
MODEL 2
REMARK VINA RESULT:    -5.024      2.630      5.276
REMARK INTER + INTRA:          -9.471
REMARK INTER:                  -8.413
REMARK INTRA:                  -1.058
REMARK UNBOUND:                -1.510
REMARK SMILES CCCCCCCCCCCC(=O)[O-]
REMARK SMILES IDX 7 1 8 2 9 3 10 4 11 5 12 6 13 7 14 8 6 9 5 10 4 11 3 12 2 13
REMARK SMILES IDX 1 14
REMARK H PARENT
REMARK Flexibility Score: inf
ROOT
ATOM      1  C   UNL     1      10.846 -14.971  36.945  1.00  0.00     0.000 C 
ENDROOT
BRANCH   1   2
ATOM      2  C   UNL     1      11.465 -13.755  36.235  1.00  0.00     0.000 C 
BRANCH   2   3
ATOM      3  C   UNL     1      12.729 -13.241  36.942  1.00  0.00     0.000 C 
BRANCH   3   4
ATOM      4  C   UNL     1      12.603 -11.774  37.392  1.00  0.00     0.006 C 
BRANCH   4   5
ATOM      5  C   UNL     1      13.561 -10.850  36.628  1.00  0.00     0.053 C 
BRANCH   5   6
ATOM      6  C   UNL     1      13.334 -10.920  35.148  1.00  0.00     0.041 C 
ATOM      7  O   UNL     1      14.286 -11.200  34.373  1.00  0.00    -0.550 OA
ATOM      8  O   UNL     1      12.078 -10.642  34.624  1.00  0.00    -0.550 OA
ENDBRANCH   5   6
ENDBRANCH   4   5
ENDBRANCH   3   4
ENDBRANCH   2   3
ENDBRANCH   1   2
BRANCH   1   9
ATOM      9  C   UNL     1       9.975 -14.572  38.147  1.00  0.00     0.000 C 
BRANCH   9  10
ATOM     10  C   UNL     1       9.118 -13.327  37.873  1.00  0.00    -0.000 C 
BRANCH  10  11
ATOM     11  C   UNL     1       7.693 -13.720  37.465  1.00  0.00    -0.000 C 
BRANCH  11  12
ATOM     12  C   UNL     1       7.263 -12.985  36.187  1.00  0.00    -0.000 C 
BRANCH  12  13
ATOM     13  C   UNL     1       7.983 -13.506  34.935  1.00  0.00    -0.003 C 
ATOM     14  C   UNL     1       8.541 -12.381  34.063  1.00  0.00     0.004 C 
ENDBRANCH  12  13
ENDBRANCH  11  12
ENDBRANCH  10  11
ENDBRANCH   9  10
ENDBRANCH   1   9
TORSDOF 10
ENDMDL
MODEL 3
REMARK VINA RESULT:    -5.015      1.073      1.723
REMARK INTER + INTRA:          -9.458
REMARK INTER:                  -8.134
REMARK INTRA:                  -1.323
REMARK UNBOUND:                -1.510
REMARK SMILES CCCCCCCCCCCC(=O)[O-]
REMARK SMILES IDX 7 1 8 2 9 3 10 4 11 5 12 6 13 7 14 8 6 9 5 10 4 11 3 12 2 13
REMARK SMILES IDX 1 14
REMARK H PARENT
REMARK Flexibility Score: inf
ROOT
ATOM      1  C   UNL     1      13.251 -13.344  35.750  1.00  0.00     0.000 C 
ENDROOT
BRANCH   1   2
ATOM      2  C   UNL     1      12.847 -13.690  37.194  1.00  0.00     0.000 C 
BRANCH   2   3
ATOM      3  C   UNL     1      11.519 -14.461  37.265  1.00  0.00     0.000 C 
BRANCH   3   4
ATOM      4  C   UNL     1      10.353 -13.592  37.770  1.00  0.00     0.006 C 
BRANCH   4   5
ATOM      5  C   UNL     1       9.301 -13.344  36.680  1.00  0.00     0.053 C 
BRANCH   5   6
ATOM      6  C   UNL     1       7.912 -13.583  37.188  1.00  0.00     0.041 C 
ATOM      7  O   UNL     1       6.921 -13.405  36.432  1.00  0.00    -0.550 OA
ATOM      8  O   UNL     1       7.711 -13.970  38.507  1.00  0.00    -0.550 OA
ENDBRANCH   5   6
ENDBRANCH   4   5
ENDBRANCH   3   4
ENDBRANCH   2   3
ENDBRANCH   1   2
BRANCH   1   9
ATOM      9  C   UNL     1      12.615 -12.034  35.258  1.00  0.00     0.000 C 
BRANCH   9  10
ATOM     10  C   UNL     1      13.599 -10.855  35.271  1.00  0.00    -0.000 C 
BRANCH  10  11
ATOM     11  C   UNL     1      13.568 -10.129  36.621  1.00  0.00    -0.000 C 
BRANCH  11  12
ATOM     12  C   UNL     1      12.126  -9.808  37.041  1.00  0.00    -0.000 C 
BRANCH  12  13
ATOM     13  C   UNL     1      11.830 -10.209  38.494  1.00  0.00    -0.003 C 
ATOM     14  C   UNL     1      13.098 -10.488  39.300  1.00  0.00     0.004 C 
ENDBRANCH  12  13
ENDBRANCH  11  12
ENDBRANCH  10  11
ENDBRANCH   9  10
ENDBRANCH   1   9
TORSDOF 10
ENDMDL
MODEL 4
REMARK VINA RESULT:    -4.956      1.201      2.153
REMARK INTER + INTRA:          -9.364
REMARK INTER:                  -8.200
REMARK INTRA:                  -1.164
REMARK UNBOUND:                -1.510
REMARK SMILES CCCCCCCCCCCC(=O)[O-]
REMARK SMILES IDX 7 1 8 2 9 3 10 4 11 5 12 6 13 7 14 8 6 9 5 10 4 11 3 12 2 13
REMARK SMILES IDX 1 14
REMARK H PARENT
REMARK Flexibility Score: inf
ROOT
ATOM      1  C   UNL     1      10.123 -14.621  37.657  1.00  0.00     0.000 C 
ENDROOT
BRANCH   1   2
ATOM      2  C   UNL     1       9.919 -13.172  38.131  1.00  0.00     0.000 C 
BRANCH   2   3
ATOM      3  C   UNL     1       8.441 -12.751  38.117  1.00  0.00     0.000 C 
BRANCH   3   4
ATOM      4  C   UNL     1       7.620 -13.498  37.051  1.00  0.00     0.006 C 
BRANCH   4   5
ATOM      5  C   UNL     1       7.224 -12.587  35.881  1.00  0.00     0.053 C 
BRANCH   5   6
ATOM      6  C   UNL     1       8.098 -12.812  34.685  1.00  0.00     0.041 C 
ATOM      7  O   UNL     1       9.273 -12.360  34.664  1.00  0.00    -0.550 OA
ATOM      8  O   UNL     1       7.603 -13.492  33.580  1.00  0.00    -0.550 OA
ENDBRANCH   5   6
ENDBRANCH   4   5
ENDBRANCH   3   4
ENDBRANCH   2   3
ENDBRANCH   1   2
BRANCH   1   9
ATOM      9  C   UNL     1      11.252 -14.750  36.622  1.00  0.00     0.000 C 
BRANCH   9  10
ATOM     10  C   UNL     1      12.461 -13.861  36.948  1.00  0.00    -0.000 C 
BRANCH  10  11
ATOM     11  C   UNL     1      12.787 -12.926  35.777  1.00  0.00    -0.000 C 
BRANCH  11  12
ATOM     12  C   UNL     1      12.979 -11.482  36.262  1.00  0.00    -0.000 C 
BRANCH  12  13
ATOM     13  C   UNL     1      13.186 -11.391  37.782  1.00  0.00    -0.003 C 
ATOM     14  C   UNL     1      12.439 -10.216  38.412  1.00  0.00     0.004 C 
ENDBRANCH  12  13
ENDBRANCH  11  12
ENDBRANCH  10  11
ENDBRANCH   9  10
ENDBRANCH   1   9
TORSDOF 10
ENDMDL
MODEL 5
REMARK VINA RESULT:    -4.953      2.909      5.152
REMARK INTER + INTRA:          -9.358
REMARK INTER:                  -7.821
REMARK INTRA:                  -1.537
REMARK UNBOUND:                -1.510
REMARK SMILES CCCCCCCCCCCC(=O)[O-]
REMARK SMILES IDX 7 1 8 2 9 3 10 4 11 5 12 6 13 7 14 8 6 9 5 10 4 11 3 12 2 13
REMARK SMILES IDX 1 14
REMARK H PARENT
REMARK Flexibility Score: inf
ROOT
ATOM      1  C   UNL     1      11.178 -14.760  36.633  1.00  0.00     0.000 C 
ENDROOT
BRANCH   1   2
ATOM      2  C   UNL     1      11.882 -13.403  36.803  1.00  0.00     0.000 C 
BRANCH   2   3
ATOM      3  C   UNL     1      12.222 -12.743  35.457  1.00  0.00     0.000 C 
BRANCH   3   4
ATOM      4  C   UNL     1      11.247 -11.611  35.088  1.00  0.00     0.006 C 
BRANCH   4   5
ATOM      5  C   UNL     1      10.930 -10.706  36.287  1.00  0.00     0.053 C 
BRANCH   5   6
ATOM      6  C   UNL     1      11.765  -9.462  36.276  1.00  0.00     0.041 C 
ATOM      7  O   UNL     1      11.232  -8.342  36.060  1.00  0.00    -0.550 OA
ATOM      8  O   UNL     1      13.138  -9.544  36.471  1.00  0.00    -0.550 OA
ENDBRANCH   5   6
ENDBRANCH   4   5
ENDBRANCH   3   4
ENDBRANCH   2   3
ENDBRANCH   1   2
BRANCH   1   9
ATOM      9  C   UNL     1       9.797 -14.796  37.308  1.00  0.00     0.000 C 
BRANCH   9  10
ATOM     10  C   UNL     1       9.502 -13.528  38.124  1.00  0.00    -0.000 C 
BRANCH  10  11
ATOM     11  C   UNL     1       8.137 -12.939  37.747  1.00  0.00    -0.000 C 
BRANCH  11  12
ATOM     12  C   UNL     1       7.600 -13.575  36.456  1.00  0.00    -0.000 C 
BRANCH  12  13
ATOM     13  C   UNL     1       7.576 -12.590  35.278  1.00  0.00    -0.003 C 
ATOM     14  C   UNL     1       7.944 -13.249  33.948  1.00  0.00     0.004 C 
ENDBRANCH  12  13
ENDBRANCH  11  12
ENDBRANCH  10  11
ENDBRANCH   9  10
ENDBRANCH   1   9
TORSDOF 10
ENDMDL
MODEL 6
REMARK VINA RESULT:    -4.880      2.695      5.236
REMARK INTER + INTRA:          -9.243
REMARK INTER:                  -8.217
REMARK INTRA:                  -1.026
REMARK UNBOUND:                -1.510
REMARK SMILES CCCCCCCCCCCC(=O)[O-]
REMARK SMILES IDX 7 1 8 2 9 3 10 4 11 5 12 6 13 7 14 8 6 9 5 10 4 11 3 12 2 13
REMARK SMILES IDX 1 14
REMARK H PARENT
REMARK Flexibility Score: inf
ROOT
ATOM      1  C   UNL     1      12.661 -13.418  35.655  1.00  0.00     0.000 C 
ENDROOT
BRANCH   1   2
ATOM      2  C   UNL     1      12.170 -11.973  35.464  1.00  0.00     0.000 C 
BRANCH   2   3
ATOM      3  C   UNL     1      13.328 -10.967  35.357  1.00  0.00     0.000 C 
BRANCH   3   4
ATOM      4  C   UNL     1      13.627 -10.262  36.692  1.00  0.00     0.006 C 
BRANCH   4   5
ATOM      5  C   UNL     1      12.351  -9.752  37.376  1.00  0.00     0.053 C 
BRANCH   5   6
ATOM      6  C   UNL     1      12.238 -10.255  38.782  1.00  0.00     0.041 C 
ATOM      7  O   UNL     1      13.216 -10.161  39.570  1.00  0.00    -0.550 OA
ATOM      8  O   UNL     1      11.064 -10.859  39.213  1.00  0.00    -0.550 OA
ENDBRANCH   5   6
ENDBRANCH   4   5
ENDBRANCH   3   4
ENDBRANCH   2   3
ENDBRANCH   1   2
BRANCH   1   9
ATOM      9  C   UNL     1      12.362 -13.962  37.061  1.00  0.00     0.000 C 
BRANCH   9  10
ATOM     10  C   UNL     1      11.126 -14.873  37.096  1.00  0.00    -0.000 C 
BRANCH  10  11
ATOM     11  C   UNL     1      10.028 -14.276  37.986  1.00  0.00    -0.000 C 
BRANCH  11  12
ATOM     12  C   UNL     1       9.103 -13.356  37.176  1.00  0.00    -0.000 C 
BRANCH  12  13
ATOM     13  C   UNL     1       8.823 -13.893  35.764  1.00  0.00    -0.003 C 
ATOM     14  C   UNL     1       7.669 -13.167  35.073  1.00  0.00     0.004 C 
ENDBRANCH  12  13
ENDBRANCH  11  12
ENDBRANCH  10  11
ENDBRANCH   9  10
ENDBRANCH   1   9
TORSDOF 10
ENDMDL
MODEL 7
REMARK VINA RESULT:    -4.841      2.595      5.499
REMARK INTER + INTRA:          -9.181
REMARK INTER:                  -8.433
REMARK INTRA:                  -0.749
REMARK UNBOUND:                -1.510
REMARK SMILES CCCCCCCCCCCC(=O)[O-]
REMARK SMILES IDX 7 1 8 2 9 3 10 4 11 5 12 6 13 7 14 8 6 9 5 10 4 11 3 12 2 13
REMARK SMILES IDX 1 14
REMARK H PARENT
REMARK Flexibility Score: inf
ROOT
ATOM      1  C   UNL     1      10.589 -11.940  38.143  1.00  0.00     0.000 C 
ENDROOT
BRANCH   1   2
ATOM      2  C   UNL     1      11.066 -10.717  38.945  1.00  0.00     0.000 C 
BRANCH   2   3
ATOM      3  C   UNL     1      12.573 -10.457  38.782  1.00  0.00     0.000 C 
BRANCH   3   4
ATOM      4  C   UNL     1      13.202 -11.300  37.658  1.00  0.00     0.006 C 
BRANCH   4   5
ATOM      5  C   UNL     1      13.582 -10.447  36.440  1.00  0.00     0.053 C 
BRANCH   5   6
ATOM      6  C   UNL     1      13.244 -11.138  35.154  1.00  0.00     0.041 C 
ATOM      7  O   UNL     1      12.179 -11.802  35.051  1.00  0.00    -0.550 OA
ATOM      8  O   UNL     1      14.122 -11.077  34.079  1.00  0.00    -0.550 OA
ENDBRANCH   5   6
ENDBRANCH   4   5
ENDBRANCH   3   4
ENDBRANCH   2   3
ENDBRANCH   1   2
BRANCH   1   9
ATOM      9  C   UNL     1       9.058 -12.074  38.128  1.00  0.00     0.000 C 
BRANCH   9  10
ATOM     10  C   UNL     1       8.589 -13.537  38.180  1.00  0.00    -0.000 C 
BRANCH  10  11
ATOM     11  C   UNL     1       7.337 -13.743  37.319  1.00  0.00    -0.000 C 
BRANCH  11  12
ATOM     12  C   UNL     1       7.271 -12.708  36.186  1.00  0.00    -0.000 C 
BRANCH  12  13
ATOM     13  C   UNL     1       7.702 -13.288  34.830  1.00  0.00    -0.003 C 
ATOM     14  C   UNL     1       8.612 -12.344  34.046  1.00  0.00     0.004 C 
ENDBRANCH  12  13
ENDBRANCH  11  12
ENDBRANCH  10  11
ENDBRANCH   9  10
ENDBRANCH   1   9
TORSDOF 10
ENDMDL
MODEL 8
REMARK VINA RESULT:    -4.786      3.030      5.310
REMARK INTER + INTRA:          -9.095
REMARK INTER:                  -7.711
REMARK INTRA:                  -1.384
REMARK UNBOUND:                -1.510
REMARK SMILES CCCCCCCCCCCC(=O)[O-]
REMARK SMILES IDX 7 1 8 2 9 3 10 4 11 5 12 6 13 7 14 8 6 9 5 10 4 11 3 12 2 13
REMARK SMILES IDX 1 14
REMARK H PARENT
REMARK Flexibility Score: inf
ROOT
ATOM      1  C   UNL     1       7.994 -12.193  36.009  1.00  0.00     0.000 C 
ENDROOT
BRANCH   1   2
ATOM      2  C   UNL     1       8.711 -12.382  34.661  1.00  0.00     0.000 C 
BRANCH   2   3
ATOM      3  C   UNL     1      10.207 -12.035  34.736  1.00  0.00     0.000 C 
BRANCH   3   4
ATOM      4  C   UNL     1      10.546 -11.122  35.928  1.00  0.00     0.006 C 
BRANCH   4   5
ATOM      5  C   UNL     1      11.656 -10.118  35.590  1.00  0.00     0.053 C 
BRANCH   5   6
ATOM      6  C   UNL     1      13.017 -10.727  35.742  1.00  0.00     0.041 C 
ATOM      7  O   UNL     1      13.533 -10.850  36.883  1.00  0.00    -0.550 OA
ATOM      8  O   UNL     1      13.729 -11.127  34.618  1.00  0.00    -0.550 OA
ENDBRANCH   5   6
ENDBRANCH   4   5
ENDBRANCH   3   4
ENDBRANCH   2   3
ENDBRANCH   1   2
BRANCH   1   9
ATOM      9  C   UNL     1       7.301 -13.476  36.494  1.00  0.00     0.000 C 
BRANCH   9  10
ATOM     10  C   UNL     1       7.653 -13.828  37.947  1.00  0.00    -0.000 C 
BRANCH  10  11
ATOM     11  C   UNL     1       9.141 -13.580  38.227  1.00  0.00    -0.000 C 
BRANCH  11  12
ATOM     12  C   UNL     1       9.933 -14.896  38.202  1.00  0.00    -0.000 C 
BRANCH  12  13
ATOM     13  C   UNL     1      10.792 -15.046  36.937  1.00  0.00    -0.003 C 
ATOM     14  C   UNL     1      12.127 -14.309  37.039  1.00  0.00     0.004 C 
ENDBRANCH  12  13
ENDBRANCH  11  12
ENDBRANCH  10  11
ENDBRANCH   9  10
ENDBRANCH   1   9
TORSDOF 10
ENDMDL
MODEL 9
REMARK VINA RESULT:    -4.784      1.566      2.500
REMARK INTER + INTRA:          -9.092
REMARK INTER:                  -8.120
REMARK INTRA:                  -0.972
REMARK UNBOUND:                -1.510
REMARK SMILES CCCCCCCCCCCC(=O)[O-]
REMARK SMILES IDX 7 1 8 2 9 3 10 4 11 5 12 6 13 7 14 8 6 9 5 10 4 11 3 12 2 13
REMARK SMILES IDX 1 14
REMARK H PARENT
REMARK Flexibility Score: inf
ROOT
ATOM      1  C   UNL     1      11.403 -14.256  36.360  1.00  0.00     0.000 C 
ENDROOT
BRANCH   1   2
ATOM      2  C   UNL     1      10.522 -15.353  36.983  1.00  0.00     0.000 C 
BRANCH   2   3
ATOM      3  C   UNL     1      10.034 -14.986  38.394  1.00  0.00     0.000 C 
BRANCH   3   4
ATOM      4  C   UNL     1       8.564 -14.531  38.414  1.00  0.00     0.006 C 
BRANCH   4   5
ATOM      5  C   UNL     1       8.430 -13.005  38.324  1.00  0.00     0.053 C 
BRANCH   5   6
ATOM      6  C   UNL     1       7.809 -12.579  37.028  1.00  0.00     0.041 C 
ATOM      7  O   UNL     1       7.259 -13.429  36.279  1.00  0.00    -0.550 OA
ATOM      8  O   UNL     1       7.869 -11.249  36.632  1.00  0.00    -0.550 OA
ENDBRANCH   5   6
ENDBRANCH   4   5
ENDBRANCH   3   4
ENDBRANCH   2   3
ENDBRANCH   1   2
BRANCH   1   9
ATOM      9  C   UNL     1      12.239 -13.505  37.409  1.00  0.00     0.000 C 
BRANCH   9  10
ATOM     10  C   UNL     1      11.920 -12.003  37.457  1.00  0.00    -0.000 C 
BRANCH  10  11
ATOM     11  C   UNL     1      13.144 -11.197  37.911  1.00  0.00    -0.000 C 
BRANCH  11  12
ATOM     12  C   UNL     1      13.647 -10.279  36.787  1.00  0.00    -0.000 C 
BRANCH  12  13
ATOM     13  C   UNL     1      13.145 -10.713  35.401  1.00  0.00    -0.003 C 
ATOM     14  C   UNL     1      14.263 -11.253  34.510  1.00  0.00     0.004 C 
ENDBRANCH  12  13
ENDBRANCH  11  12
ENDBRANCH  10  11
ENDBRANCH   9  10
ENDBRANCH   1   9
TORSDOF 10
ENDMDL
