MODEL 1
REMARK VINA RESULT:    -5.661      0.000      0.000
REMARK INTER + INTRA:          -6.944
REMARK INTER:                  -6.653
REMARK INTRA:                  -0.290
REMARK UNBOUND:                -0.290
REMARK SMILES O=c1c(O)c(-c2ccc(O)cc2)oc2cc(O)cc(O)c12
REMARK SMILES IDX 5 1 3 2 2 3 1 4 21 5 19 6 18 7 16 8 15 9 14 10 13 11 6 12
REMARK SMILES IDX 7 13 8 14 9 15 12 16 11 17 10 18 4 20 20 22 17 24
REMARK H PARENT 10 19 4 21 20 23 17 25
REMARK Flexibility Score: inf
ROOT
ATOM      1  C   UNL     1    -105.918  44.592  54.210  1.00  0.00     0.180 A 
ATOM      2  C   UNL     1    -107.003  43.764  54.551  1.00  0.00     0.208 A 
ATOM      3  C   UNL     1    -106.828  42.790  55.546  1.00  0.00     0.238 A 
ATOM      4  O   UNL     1    -107.817  42.088  55.884  1.00  0.00    -0.285 OA
ATOM      5  C   UNL     1    -105.569  42.644  56.177  1.00  0.00     0.111 A 
ATOM      6  C   UNL     1    -105.269  41.664  57.171  1.00  0.00     0.134 A 
ATOM      7  C   UNL     1    -104.029  41.697  57.820  1.00  0.00     0.093 A 
ATOM      8  C   UNL     1    -103.056  42.632  57.468  1.00  0.00     0.123 A 
ATOM      9  C   UNL     1    -103.317  43.557  56.457  1.00  0.00     0.094 A 
ATOM     10  C   UNL     1    -104.558  43.573  55.816  1.00  0.00     0.146 A 
ATOM     11  O   UNL     1    -104.771  44.476  54.866  1.00  0.00    -0.452 OA
ENDROOT
BRANCH   1  12
ATOM     12  C   UNL     1    -106.017  45.625  53.154  1.00  0.00     0.021 A 
ATOM     13  C   UNL     1    -106.439  46.922  53.491  1.00  0.00     0.016 A 
ATOM     14  C   UNL     1    -106.519  47.918  52.514  1.00  0.00     0.047 A 
ATOM     15  C   UNL     1    -106.161  47.635  51.189  1.00  0.00     0.115 A 
ATOM     16  C   UNL     1    -105.642  45.354  51.825  1.00  0.00     0.016 A 
ATOM     17  C   UNL     1    -105.720  46.352  50.850  1.00  0.00     0.047 A 
BRANCH  15  18
ATOM     18  O   UNL     1    -106.236  48.619  50.206  1.00  0.00    -0.508 OA
ATOM     19  H   UNL     1    -105.927  48.444  49.257  1.00  0.00     0.293 HD
ENDBRANCH  15  18
ENDBRANCH   1  12
BRANCH   2  20
ATOM     20  O   UNL     1    -108.242  43.939  53.930  1.00  0.00    -0.502 OA
ATOM     21  H   UNL     1    -108.967  43.231  53.954  1.00  0.00     0.293 HD
ENDBRANCH   2  20
BRANCH   6  22
ATOM     22  O   UNL     1    -106.136  40.629  57.533  1.00  0.00    -0.507 OA
ATOM     23  H   UNL     1    -106.348  39.829  56.954  1.00  0.00     0.293 HD
ENDBRANCH   6  22
BRANCH   8  24
ATOM     24  O   UNL     1    -101.827  42.625  58.125  1.00  0.00    -0.508 OA
ATOM     25  H   UNL     1    -101.102  41.959  57.885  1.00  0.00     0.293 HD
ENDBRANCH   8  24
TORSDOF 5
ENDMDL
MODEL 2
REMARK VINA RESULT:    -5.435      2.872      4.749
REMARK INTER + INTRA:          -6.678
REMARK INTER:                  -6.395
REMARK INTRA:                  -0.283
REMARK UNBOUND:                -0.290
REMARK SMILES O=c1c(O)c(-c2ccc(O)cc2)oc2cc(O)cc(O)c12
REMARK SMILES IDX 5 1 3 2 2 3 1 4 21 5 19 6 18 7 16 8 15 9 14 10 13 11 6 12
REMARK SMILES IDX 7 13 8 14 9 15 12 16 11 17 10 18 4 20 20 22 17 24
REMARK H PARENT 10 19 4 21 20 23 17 25
REMARK Flexibility Score: inf
ROOT
ATOM      1  C   UNL     1    -106.619  48.029  53.730  1.00  0.00     0.180 A 
ATOM      2  C   UNL     1    -106.218  47.541  52.474  1.00  0.00     0.208 A 
ATOM      3  C   UNL     1    -105.820  46.199  52.362  1.00  0.00     0.238 A 
ATOM      4  O   UNL     1    -105.514  45.754  51.225  1.00  0.00    -0.285 OA
ATOM      5  C   UNL     1    -105.811  45.368  53.507  1.00  0.00     0.111 A 
ATOM      6  C   UNL     1    -105.389  44.004  53.516  1.00  0.00     0.134 A 
ATOM      7  C   UNL     1    -105.547  43.241  54.678  1.00  0.00     0.093 A 
ATOM      8  C   UNL     1    -106.050  43.806  55.849  1.00  0.00     0.123 A 
ATOM      9  C   UNL     1    -106.411  45.153  55.869  1.00  0.00     0.094 A 
ATOM     10  C   UNL     1    -106.299  45.933  54.715  1.00  0.00     0.146 A 
ATOM     11  O   UNL     1    -106.663  47.208  54.772  1.00  0.00    -0.452 OA
ENDROOT
BRANCH   1  12
ATOM     12  C   UNL     1    -107.028  49.438  53.934  1.00  0.00     0.021 A 
ATOM     13  C   UNL     1    -106.048  50.419  54.154  1.00  0.00     0.016 A 
ATOM     14  C   UNL     1    -106.410  51.758  54.326  1.00  0.00     0.047 A 
ATOM     15  C   UNL     1    -107.759  52.135  54.264  1.00  0.00     0.115 A 
ATOM     16  C   UNL     1    -108.378  49.828  53.855  1.00  0.00     0.016 A 
ATOM     17  C   UNL     1    -108.738  51.167  54.026  1.00  0.00     0.047 A 
BRANCH  15  18
ATOM     18  O   UNL     1    -108.133  53.466  54.435  1.00  0.00    -0.508 OA
ATOM     19  H   UNL     1    -108.325  54.068  53.643  1.00  0.00     0.293 HD
ENDBRANCH  15  18
ENDBRANCH   1  12
BRANCH   2  20
ATOM     20  O   UNL     1    -106.254  48.373  51.352  1.00  0.00    -0.502 OA
ATOM     21  H   UNL     1    -107.114  48.580  50.856  1.00  0.00     0.293 HD
ENDBRANCH   2  20
BRANCH   6  22
ATOM     22  O   UNL     1    -104.787  43.367  52.427  1.00  0.00    -0.507 OA
ATOM     23  H   UNL     1    -104.983  43.575  51.459  1.00  0.00     0.293 HD
ENDBRANCH   6  22
BRANCH   8  24
ATOM     24  O   UNL     1    -106.178  43.020  56.992  1.00  0.00    -0.508 OA
ATOM     25  H   UNL     1    -106.031  43.403  57.919  1.00  0.00     0.293 HD
ENDBRANCH   8  24
TORSDOF 5
ENDMDL
MODEL 3
REMARK VINA RESULT:    -4.983      1.336      1.895
REMARK INTER + INTRA:          -6.147
REMARK INTER:                  -5.898
REMARK INTRA:                  -0.249
REMARK UNBOUND:                -0.290
REMARK SMILES O=c1c(O)c(-c2ccc(O)cc2)oc2cc(O)cc(O)c12
REMARK SMILES IDX 5 1 3 2 2 3 1 4 21 5 19 6 18 7 16 8 15 9 14 10 13 11 6 12
REMARK SMILES IDX 7 13 8 14 9 15 12 16 11 17 10 18 4 20 20 22 17 24
REMARK H PARENT 10 19 4 21 20 23 17 25
REMARK Flexibility Score: inf
ROOT
ATOM      1  C   UNL     1    -106.631  44.284  53.460  1.00  0.00     0.180 A 
ATOM      2  C   UNL     1    -107.717  43.413  53.259  1.00  0.00     0.208 A 
ATOM      3  C   UNL     1    -107.831  42.270  54.067  1.00  0.00     0.238 A 
ATOM      4  O   UNL     1    -108.834  41.524  53.919  1.00  0.00    -0.285 OA
ATOM      5  C   UNL     1    -106.851  42.004  55.053  1.00  0.00     0.111 A 
ATOM      6  C   UNL     1    -106.846  40.855  55.901  1.00  0.00     0.134 A 
ATOM      7  C   UNL     1    -105.901  40.760  56.929  1.00  0.00     0.093 A 
ATOM      8  C   UNL     1    -104.922  41.738  57.100  1.00  0.00     0.123 A 
ATOM      9  C   UNL     1    -104.881  42.836  56.240  1.00  0.00     0.094 A 
ATOM     10  C   UNL     1    -105.833  42.977  55.227  1.00  0.00     0.146 A 
ATOM     11  O   UNL     1    -105.766  44.042  54.437  1.00  0.00    -0.452 OA
ENDROOT
BRANCH   1  12
ATOM     12  C   UNL     1    -106.429  45.495  52.632  1.00  0.00     0.021 A 
ATOM     13  C   UNL     1    -105.512  45.462  51.570  1.00  0.00     0.016 A 
ATOM     14  C   UNL     1    -105.322  46.586  50.762  1.00  0.00     0.047 A 
ATOM     15  C   UNL     1    -106.059  47.755  50.997  1.00  0.00     0.115 A 
ATOM     16  C   UNL     1    -107.179  46.666  52.850  1.00  0.00     0.016 A 
ATOM     17  C   UNL     1    -106.989  47.788  52.040  1.00  0.00     0.047 A 
BRANCH  15  18
ATOM     18  O   UNL     1    -105.878  48.882  50.199  1.00  0.00    -0.508 OA
ATOM     19  H   UNL     1    -106.278  49.779  50.451  1.00  0.00     0.293 HD
ENDBRANCH  15  18
ENDBRANCH   1  12
BRANCH   2  20
ATOM     20  O   UNL     1    -108.684  43.707  52.295  1.00  0.00    -0.502 OA
ATOM     21  H   UNL     1    -109.600  43.273  52.293  1.00  0.00     0.293 HD
ENDBRANCH   2  20
BRANCH   6  22
ATOM     22  O   UNL     1    -107.723  39.776  55.758  1.00  0.00    -0.507 OA
ATOM     23  H   UNL     1    -108.566  39.790  55.204  1.00  0.00     0.293 HD
ENDBRANCH   6  22
BRANCH   8  24
ATOM     24  O   UNL     1    -103.987  41.603  58.124  1.00  0.00    -0.508 OA
ATOM     25  H   UNL     1    -103.054  41.992  58.045  1.00  0.00     0.293 HD
ENDBRANCH   8  24
TORSDOF 5
ENDMDL
MODEL 4
REMARK VINA RESULT:    -4.895      1.753      3.628
REMARK INTER + INTRA:          -6.044
REMARK INTER:                  -5.785
REMARK INTRA:                  -0.259
REMARK UNBOUND:                -0.290
REMARK SMILES O=c1c(O)c(-c2ccc(O)cc2)oc2cc(O)cc(O)c12
REMARK SMILES IDX 5 1 3 2 2 3 1 4 21 5 19 6 18 7 16 8 15 9 14 10 13 11 6 12
REMARK SMILES IDX 7 13 8 14 9 15 12 16 11 17 10 18 4 20 20 22 17 24
REMARK H PARENT 10 19 4 21 20 23 17 25
REMARK Flexibility Score: inf
ROOT
ATOM      1  C   UNL     1    -106.161  44.014  53.940  1.00  0.00     0.180 A 
ATOM      2  C   UNL     1    -105.263  43.784  54.998  1.00  0.00     0.208 A 
ATOM      3  C   UNL     1    -105.407  42.621  55.772  1.00  0.00     0.238 A 
ATOM      4  O   UNL     1    -104.569  42.395  56.682  1.00  0.00    -0.285 OA
ATOM      5  C   UNL     1    -106.455  41.712  55.489  1.00  0.00     0.111 A 
ATOM      6  C   UNL     1    -106.718  40.523  56.234  1.00  0.00     0.134 A 
ATOM      7  C   UNL     1    -107.698  39.631  55.785  1.00  0.00     0.093 A 
ATOM      8  C   UNL     1    -108.469  39.915  54.658  1.00  0.00     0.123 A 
ATOM      9  C   UNL     1    -108.260  41.103  53.957  1.00  0.00     0.094 A 
ATOM     10  C   UNL     1    -107.265  41.996  54.359  1.00  0.00     0.146 A 
ATOM     11  O   UNL     1    -107.091  43.110  53.659  1.00  0.00    -0.452 OA
ENDROOT
BRANCH   1  12
ATOM     12  C   UNL     1    -106.089  45.229  53.096  1.00  0.00     0.021 A 
ATOM     13  C   UNL     1    -105.587  45.133  51.787  1.00  0.00     0.016 A 
ATOM     14  C   UNL     1    -105.531  46.262  50.965  1.00  0.00     0.047 A 
ATOM     15  C   UNL     1    -105.992  47.499  51.436  1.00  0.00     0.115 A 
ATOM     16  C   UNL     1    -106.566  46.471  53.555  1.00  0.00     0.016 A 
ATOM     17  C   UNL     1    -106.511  47.598  52.730  1.00  0.00     0.047 A 
BRANCH  15  18
ATOM     18  O   UNL     1    -105.940  48.632  50.627  1.00  0.00    -0.508 OA
ATOM     19  H   UNL     1    -105.653  48.576  49.657  1.00  0.00     0.293 HD
ENDBRANCH  15  18
ENDBRANCH   1  12
BRANCH   2  20
ATOM     20  O   UNL     1    -104.224  44.684  55.246  1.00  0.00    -0.502 OA
ATOM     21  H   UNL     1    -103.449  44.465  55.861  1.00  0.00     0.293 HD
ENDBRANCH   2  20
BRANCH   6  22
ATOM     22  O   UNL     1    -106.069  40.189  57.426  1.00  0.00    -0.507 OA
ATOM     23  H   UNL     1    -105.947  39.247  57.769  1.00  0.00     0.293 HD
ENDBRANCH   6  22
BRANCH   8  24
ATOM     24  O   UNL     1    -109.448  39.011  54.249  1.00  0.00    -0.508 OA
ATOM     25  H   UNL     1    -110.223  39.299  53.663  1.00  0.00     0.293 HD
ENDBRANCH   8  24
TORSDOF 5
ENDMDL
MODEL 5
REMARK VINA RESULT:    -4.811      1.817      6.791
REMARK INTER + INTRA:          -5.945
REMARK INTER:                  -5.693
REMARK INTRA:                  -0.252
REMARK UNBOUND:                -0.290
REMARK SMILES O=c1c(O)c(-c2ccc(O)cc2)oc2cc(O)cc(O)c12
REMARK SMILES IDX 5 1 3 2 2 3 1 4 21 5 19 6 18 7 16 8 15 9 14 10 13 11 6 12
REMARK SMILES IDX 7 13 8 14 9 15 12 16 11 17 10 18 4 20 20 22 17 24
REMARK H PARENT 10 19 4 21 20 23 17 25
REMARK Flexibility Score: inf
ROOT
ATOM      1  C   UNL     1    -105.722  44.631  54.528  1.00  0.00     0.180 A 
ATOM      2  C   UNL     1    -105.430  44.580  53.153  1.00  0.00     0.208 A 
ATOM      3  C   UNL     1    -105.634  45.729  52.372  1.00  0.00     0.238 A 
ATOM      4  O   UNL     1    -105.320  45.693  51.153  1.00  0.00    -0.285 OA
ATOM      5  C   UNL     1    -106.141  46.908  52.969  1.00  0.00     0.111 A 
ATOM      6  C   UNL     1    -106.423  48.117  52.265  1.00  0.00     0.134 A 
ATOM      7  C   UNL     1    -106.797  49.260  52.980  1.00  0.00     0.093 A 
ATOM      8  C   UNL     1    -106.963  49.223  54.364  1.00  0.00     0.123 A 
ATOM      9  C   UNL     1    -106.748  48.031  55.055  1.00  0.00     0.094 A 
ATOM     10  C   UNL     1    -106.338  46.882  54.375  1.00  0.00     0.146 A 
ATOM     11  O   UNL     1    -106.133  45.770  55.071  1.00  0.00    -0.452 OA
ENDROOT
BRANCH   1  12
ATOM     12  C   UNL     1    -105.558  43.455  55.412  1.00  0.00     0.021 A 
ATOM     13  C   UNL     1    -104.490  43.419  56.325  1.00  0.00     0.016 A 
ATOM     14  C   UNL     1    -104.329  42.329  57.184  1.00  0.00     0.047 A 
ATOM     15  C   UNL     1    -105.243  41.267  57.154  1.00  0.00     0.115 A 
ATOM     16  C   UNL     1    -106.482  42.394  55.401  1.00  0.00     0.016 A 
ATOM     17  C   UNL     1    -106.319  41.306  56.263  1.00  0.00     0.047 A 
BRANCH  15  18
ATOM     18  O   UNL     1    -105.092  40.175  58.005  1.00  0.00    -0.508 OA
ATOM     19  H   UNL     1    -105.211  40.265  59.008  1.00  0.00     0.293 HD
ENDBRANCH  15  18
ENDBRANCH   1  12
BRANCH   2  20
ATOM     20  O   UNL     1    -104.911  43.413  52.588  1.00  0.00    -0.502 OA
ATOM     21  H   UNL     1    -105.180  43.088  51.667  1.00  0.00     0.293 HD
ENDBRANCH   2  20
BRANCH   6  22
ATOM     22  O   UNL     1    -106.378  48.238  50.873  1.00  0.00    -0.507 OA
ATOM     23  H   UNL     1    -106.664  49.057  50.358  1.00  0.00     0.293 HD
ENDBRANCH   6  22
BRANCH   8  24
ATOM     24  O   UNL     1    -107.353  50.377  55.041  1.00  0.00    -0.508 OA
ATOM     25  H   UNL     1    -107.898  50.332  55.894  1.00  0.00     0.293 HD
ENDBRANCH   8  24
TORSDOF 5
ENDMDL
MODEL 6
REMARK VINA RESULT:    -4.727      1.487      6.571
REMARK INTER + INTRA:          -5.846
REMARK INTER:                  -6.317
REMARK INTRA:                   0.471
REMARK UNBOUND:                -0.290
REMARK SMILES O=c1c(O)c(-c2ccc(O)cc2)oc2cc(O)cc(O)c12
REMARK SMILES IDX 5 1 3 2 2 3 1 4 21 5 19 6 18 7 16 8 15 9 14 10 13 11 6 12
REMARK SMILES IDX 7 13 8 14 9 15 12 16 11 17 10 18 4 20 20 22 17 24
REMARK H PARENT 10 19 4 21 20 23 17 25
REMARK Flexibility Score: inf
ROOT
ATOM      1  C   UNL     1    -106.239  44.527  54.602  1.00  0.00     0.180 A 
ATOM      2  C   UNL     1    -107.609  44.212  54.569  1.00  0.00     0.208 A 
ATOM      3  C   UNL     1    -108.444  44.900  53.674  1.00  0.00     0.238 A 
ATOM      4  O   UNL     1    -109.658  44.576  53.612  1.00  0.00    -0.285 OA
ATOM      5  C   UNL     1    -107.903  45.905  52.836  1.00  0.00     0.111 A 
ATOM      6  C   UNL     1    -108.664  46.692  51.920  1.00  0.00     0.134 A 
ATOM      7  C   UNL     1    -108.005  47.565  51.048  1.00  0.00     0.093 A 
ATOM      8  C   UNL     1    -106.621  47.728  51.101  1.00  0.00     0.123 A 
ATOM      9  C   UNL     1    -105.873  47.007  52.032  1.00  0.00     0.094 A 
ATOM     10  C   UNL     1    -106.498  46.101  52.892  1.00  0.00     0.146 A 
ATOM     11  O   UNL     1    -105.750  45.427  53.757  1.00  0.00    -0.452 OA
ENDROOT
BRANCH   1  12
ATOM     12  C   UNL     1    -105.299  43.863  55.535  1.00  0.00     0.021 A 
ATOM     13  C   UNL     1    -105.636  42.616  56.085  1.00  0.00     0.016 A 
ATOM     14  C   UNL     1    -104.755  41.961  56.950  1.00  0.00     0.047 A 
ATOM     15  C   UNL     1    -103.518  42.539  57.264  1.00  0.00     0.115 A 
ATOM     16  C   UNL     1    -104.047  44.428  55.840  1.00  0.00     0.016 A 
ATOM     17  C   UNL     1    -103.167  43.771  56.704  1.00  0.00     0.047 A 
BRANCH  15  18
ATOM     18  O   UNL     1    -102.631  41.896  58.125  1.00  0.00    -0.508 OA
ATOM     19  H   UNL     1    -101.664  42.189  58.204  1.00  0.00     0.293 HD
ENDBRANCH  15  18
ENDBRANCH   1  12
BRANCH   2  20
ATOM     20  O   UNL     1    -108.117  43.203  55.390  1.00  0.00    -0.502 OA
ATOM     21  H   UNL     1    -108.460  42.323  55.022  1.00  0.00     0.293 HD
ENDBRANCH   2  20
BRANCH   6  22
ATOM     22  O   UNL     1    -110.060  46.674  51.849  1.00  0.00    -0.507 OA
ATOM     23  H   UNL     1    -110.677  46.903  52.614  1.00  0.00     0.293 HD
ENDBRANCH   6  22
BRANCH   8  24
ATOM     24  O   UNL     1    -105.999  48.619  50.227  1.00  0.00    -0.508 OA
ATOM     25  H   UNL     1    -106.459  48.942  49.384  1.00  0.00     0.293 HD
ENDBRANCH   8  24
TORSDOF 5
ENDMDL
MODEL 7
REMARK VINA RESULT:    -4.597      2.939      6.459
REMARK INTER + INTRA:          -5.693
REMARK INTER:                  -5.393
REMARK INTRA:                  -0.300
REMARK UNBOUND:                -0.290
REMARK SMILES O=c1c(O)c(-c2ccc(O)cc2)oc2cc(O)cc(O)c12
REMARK SMILES IDX 5 1 3 2 2 3 1 4 21 5 19 6 18 7 16 8 15 9 14 10 13 11 6 12
REMARK SMILES IDX 7 13 8 14 9 15 12 16 11 17 10 18 4 20 20 22 17 24
REMARK H PARENT 10 19 4 21 20 23 17 25
REMARK Flexibility Score: inf
ROOT
ATOM      1  C   UNL     1    -106.827  45.597  53.753  1.00  0.00     0.180 A 
ATOM      2  C   UNL     1    -106.585  46.270  52.543  1.00  0.00     0.208 A 
ATOM      3  C   UNL     1    -106.327  47.650  52.572  1.00  0.00     0.238 A 
ATOM      4  O   UNL     1    -106.058  48.237  51.491  1.00  0.00    -0.285 OA
ATOM      5  C   UNL     1    -106.330  48.342  53.807  1.00  0.00     0.111 A 
ATOM      6  C   UNL     1    -106.120  49.747  53.949  1.00  0.00     0.134 A 
ATOM      7  C   UNL     1    -106.015  50.302  55.229  1.00  0.00     0.093 A 
ATOM      8  C   UNL     1    -106.176  49.518  56.371  1.00  0.00     0.123 A 
ATOM      9  C   UNL     1    -106.440  48.154  56.243  1.00  0.00     0.094 A 
ATOM     10  C   UNL     1    -106.515  47.563  54.979  1.00  0.00     0.146 A 
ATOM     11  O   UNL     1    -106.757  46.260  54.900  1.00  0.00    -0.452 OA
ENDROOT
BRANCH   1  12
ATOM     12  C   UNL     1    -107.130  44.148  53.802  1.00  0.00     0.021 A 
ATOM     13  C   UNL     1    -106.089  43.229  54.012  1.00  0.00     0.016 A 
ATOM     14  C   UNL     1    -106.356  41.859  54.084  1.00  0.00     0.047 A 
ATOM     15  C   UNL     1    -107.671  41.391  53.962  1.00  0.00     0.115 A 
ATOM     16  C   UNL     1    -108.451  43.671  53.699  1.00  0.00     0.016 A 
ATOM     17  C   UNL     1    -108.716  42.301  53.773  1.00  0.00     0.047 A 
BRANCH  15  18
ATOM     18  O   UNL     1    -107.950  40.028  54.031  1.00  0.00    -0.508 OA
ATOM     19  H   UNL     1    -108.695  39.669  54.618  1.00  0.00     0.293 HD
ENDBRANCH  15  18
ENDBRANCH   1  12
BRANCH   2  20
ATOM     20  O   UNL     1    -106.565  45.564  51.337  1.00  0.00    -0.502 OA
ATOM     21  H   UNL     1    -106.249  45.979  50.468  1.00  0.00     0.293 HD
ENDBRANCH   2  20
BRANCH   6  22
ATOM     22  O   UNL     1    -106.039  50.636  52.874  1.00  0.00    -0.507 OA
ATOM     23  H   UNL     1    -106.511  50.515  51.990  1.00  0.00     0.293 HD
ENDBRANCH   6  22
BRANCH   8  24
ATOM     24  O   UNL     1    -106.080  50.108  57.630  1.00  0.00    -0.508 OA
ATOM     25  H   UNL     1    -105.468  50.897  57.800  1.00  0.00     0.293 HD
ENDBRANCH   8  24
TORSDOF 5
ENDMDL
MODEL 8
REMARK VINA RESULT:    -4.465      2.293      6.860
REMARK INTER + INTRA:          -5.538
REMARK INTER:                  -5.238
REMARK INTRA:                  -0.300
REMARK UNBOUND:                -0.290
REMARK SMILES O=c1c(O)c(-c2ccc(O)cc2)oc2cc(O)cc(O)c12
REMARK SMILES IDX 5 1 3 2 2 3 1 4 21 5 19 6 18 7 16 8 15 9 14 10 13 11 6 12
REMARK SMILES IDX 7 13 8 14 9 15 12 16 11 17 10 18 4 20 20 22 17 24
REMARK H PARENT 10 19 4 21 20 23 17 25
REMARK Flexibility Score: inf
ROOT
ATOM      1  C   UNL     1    -107.480  44.100  53.873  1.00  0.00     0.180 A 
ATOM      2  C   UNL     1    -108.789  44.560  53.642  1.00  0.00     0.208 A 
ATOM      3  C   UNL     1    -108.985  45.649  52.779  1.00  0.00     0.238 A 
ATOM      4  O   UNL     1    -110.162  46.022  52.534  1.00  0.00    -0.285 OA
ATOM      5  C   UNL     1    -107.871  46.275  52.170  1.00  0.00     0.111 A 
ATOM      6  C   UNL     1    -107.950  47.412  51.309  1.00  0.00     0.134 A 
ATOM      7  C   UNL     1    -106.797  47.867  50.660  1.00  0.00     0.093 A 
ATOM      8  C   UNL     1    -105.558  47.270  50.888  1.00  0.00     0.123 A 
ATOM      9  C   UNL     1    -105.459  46.196  51.773  1.00  0.00     0.094 A 
ATOM     10  C   UNL     1    -106.598  45.695  52.409  1.00  0.00     0.146 A 
ATOM     11  O   UNL     1    -106.463  44.665  53.236  1.00  0.00    -0.452 OA
ENDROOT
BRANCH   1  12
ATOM     12  C   UNL     1    -107.191  42.973  54.789  1.00  0.00     0.021 A 
ATOM     13  C   UNL     1    -107.087  41.671  54.272  1.00  0.00     0.016 A 
ATOM     14  C   UNL     1    -106.792  40.595  55.115  1.00  0.00     0.047 A 
ATOM     15  C   UNL     1    -106.582  40.811  56.484  1.00  0.00     0.115 A 
ATOM     16  C   UNL     1    -106.961  43.183  56.161  1.00  0.00     0.016 A 
ATOM     17  C   UNL     1    -106.664  42.107  57.002  1.00  0.00     0.047 A 
BRANCH  15  18
ATOM     18  O   UNL     1    -106.289  39.747  57.334  1.00  0.00    -0.508 OA
ATOM     19  H   UNL     1    -105.720  39.873  58.163  1.00  0.00     0.293 HD
ENDBRANCH  15  18
ENDBRANCH   1  12
BRANCH   2  20
ATOM     20  O   UNL     1    -109.876  43.913  54.237  1.00  0.00    -0.502 OA
ATOM     21  H   UNL     1    -110.563  43.398  53.699  1.00  0.00     0.293 HD
ENDBRANCH   2  20
BRANCH   6  22
ATOM     22  O   UNL     1    -109.122  48.140  51.084  1.00  0.00    -0.507 OA
ATOM     23  H   UNL     1    -109.815  48.346  51.788  1.00  0.00     0.293 HD
ENDBRANCH   6  22
BRANCH   8  24
ATOM     24  O   UNL     1    -104.428  47.760  50.236  1.00  0.00    -0.508 OA
ATOM     25  H   UNL     1    -103.674  47.147  49.950  1.00  0.00     0.293 HD
ENDBRANCH   8  24
TORSDOF 5
ENDMDL
MODEL 9
REMARK VINA RESULT:    -4.408      2.898      5.217
REMARK INTER + INTRA:          -5.471
REMARK INTER:                  -5.174
REMARK INTRA:                  -0.296
REMARK UNBOUND:                -0.290
REMARK SMILES O=c1c(O)c(-c2ccc(O)cc2)oc2cc(O)cc(O)c12
REMARK SMILES IDX 5 1 3 2 2 3 1 4 21 5 19 6 18 7 16 8 15 9 14 10 13 11 6 12
REMARK SMILES IDX 7 13 8 14 9 15 12 16 11 17 10 18 4 20 20 22 17 24
REMARK H PARENT 10 19 4 21 20 23 17 25
REMARK Flexibility Score: inf
ROOT
ATOM      1  C   UNL     1    -107.525  44.530  53.280  1.00  0.00     0.180 A 
ATOM      2  C   UNL     1    -106.752  43.539  53.912  1.00  0.00     0.208 A 
ATOM      3  C   UNL     1    -107.213  42.213  53.909  1.00  0.00     0.238 A 
ATOM      4  O   UNL     1    -106.492  41.323  54.430  1.00  0.00    -0.285 OA
ATOM      5  C   UNL     1    -108.446  41.896  53.290  1.00  0.00     0.111 A 
ATOM      6  C   UNL     1    -109.027  40.593  53.262  1.00  0.00     0.134 A 
ATOM      7  C   UNL     1    -110.185  40.370  52.508  1.00  0.00     0.093 A 
ATOM      8  C   UNL     1    -110.818  41.413  51.835  1.00  0.00     0.123 A 
ATOM      9  C   UNL     1    -110.292  42.703  51.903  1.00  0.00     0.094 A 
ATOM     10  C   UNL     1    -109.117  42.951  52.618  1.00  0.00     0.146 A 
ATOM     11  O   UNL     1    -108.642  44.190  52.650  1.00  0.00    -0.452 OA
ENDROOT
BRANCH   1  12
ATOM     12  C   UNL     1    -107.118  45.954  53.261  1.00  0.00     0.021 A 
ATOM     13  C   UNL     1    -106.444  46.467  52.141  1.00  0.00     0.016 A 
ATOM     14  C   UNL     1    -106.071  47.813  52.093  1.00  0.00     0.047 A 
ATOM     15  C   UNL     1    -106.382  48.668  53.159  1.00  0.00     0.115 A 
ATOM     16  C   UNL     1    -107.444  46.823  54.319  1.00  0.00     0.016 A 
ATOM     17  C   UNL     1    -107.071  48.169  54.268  1.00  0.00     0.047 A 
BRANCH  15  18
ATOM     18  O   UNL     1    -106.015  50.011  53.124  1.00  0.00    -0.508 OA
ATOM     19  H   UNL     1    -105.042  50.295  53.135  1.00  0.00     0.293 HD
ENDBRANCH  15  18
ENDBRANCH   1  12
BRANCH   2  20
ATOM     20  O   UNL     1    -105.529  43.871  54.499  1.00  0.00    -0.502 OA
ATOM     21  H   UNL     1    -104.921  43.177  54.920  1.00  0.00     0.293 HD
ENDBRANCH   2  20
BRANCH   6  22
ATOM     22  O   UNL     1    -108.526  39.499  53.975  1.00  0.00    -0.507 OA
ATOM     23  H   UNL     1    -107.672  39.010  53.752  1.00  0.00     0.293 HD
ENDBRANCH   6  22
BRANCH   8  24
ATOM     24  O   UNL     1    -111.979  41.157  51.107  1.00  0.00    -0.508 OA
ATOM     25  H   UNL     1    -112.589  40.382  51.338  1.00  0.00     0.293 HD
ENDBRANCH   8  24
TORSDOF 5
ENDMDL
