MODEL 1
REMARK VINA RESULT:    -3.044      0.000      0.000
REMARK INTER + INTRA:          -3.558
REMARK INTER:                  -3.489
REMARK INTRA:                  -0.069
REMARK UNBOUND:                -0.069
REMARK SMILES CC(C)[C@@H]([NH3+])C(=O)[O-]
REMARK SMILES IDX 4 1 5 2 6 6 7 7 8 8 2 9 1 10 3 11
REMARK H PARENT 5 3 5 4 5 5
REMARK Flexibility Score: inf
ROOT
ATOM      1  C   UNL     1      42.227  30.675  87.618  1.00  0.00     0.230 C 
ENDROOT
BRANCH   1   2
ATOM      2  N   UNL     1      41.936  31.839  86.767  1.00  0.00    -0.350 N 
ATOM      3  H   UNL     1      40.944  31.834  86.438  1.00  0.00     0.345 HD
ATOM      4  H   UNL     1      42.099  32.717  87.312  1.00  0.00     0.345 HD
ATOM      5  H   UNL     1      42.576  31.858  85.942  1.00  0.00     0.345 HD
ENDBRANCH   1   2
BRANCH   1   6
ATOM      6  C   UNL     1      43.625  30.761  88.182  1.00  0.00     0.099 C 
ATOM      7  O   UNL     1      43.869  31.547  89.136  1.00  0.00    -0.544 OA
ATOM      8  O   UNL     1      44.662  30.017  87.630  1.00  0.00    -0.544 OA
ENDBRANCH   1   6
BRANCH   1   9
ATOM      9  C   UNL     1      41.181  30.472  88.755  1.00  0.00     0.047 C 
ATOM     10  C   UNL     1      41.301  29.086  89.404  1.00  0.00     0.014 C 
ATOM     11  C   UNL     1      39.731  30.726  88.310  1.00  0.00     0.014 C 
ENDBRANCH   1   9
TORSDOF 3
ENDMDL
MODEL 2
REMARK VINA RESULT:    -3.035      8.303      9.207
REMARK INTER + INTRA:          -3.548
REMARK INTER:                  -3.482
REMARK INTRA:                  -0.066
REMARK UNBOUND:                -0.069
REMARK SMILES CC(C)[C@@H]([NH3+])C(=O)[O-]
REMARK SMILES IDX 4 1 5 2 6 6 7 7 8 8 2 9 1 10 3 11
REMARK H PARENT 5 3 5 4 5 5
REMARK Flexibility Score: inf
ROOT
ATOM      1  C   UNL     1      49.381  34.582  84.858  1.00  0.00     0.230 C 
ENDROOT
BRANCH   1   2
ATOM      2  N   UNL     1      48.560  35.610  84.200  1.00  0.00    -0.350 N 
ATOM      3  H   UNL     1      48.415  35.393  83.188  1.00  0.00     0.345 HD
ATOM      4  H   UNL     1      47.625  35.658  84.666  1.00  0.00     0.345 HD
ATOM      5  H   UNL     1      49.007  36.550  84.294  1.00  0.00     0.345 HD
ENDBRANCH   1   2
BRANCH   1   6
ATOM      6  C   UNL     1      50.778  34.566  84.285  1.00  0.00     0.099 C 
ATOM      7  O   UNL     1      51.773  34.619  85.054  1.00  0.00    -0.544 OA
ATOM      8  O   UNL     1      50.980  34.540  82.909  1.00  0.00    -0.544 OA
ENDBRANCH   1   6
BRANCH   1   9
ATOM      9  C   UNL     1      49.420  34.733  86.409  1.00  0.00     0.047 C 
ATOM     10  C   UNL     1      48.609  33.634  87.112  1.00  0.00     0.014 C 
ATOM     11  C   UNL     1      48.976  36.118  86.905  1.00  0.00     0.014 C 
ENDBRANCH   1   9
TORSDOF 3
ENDMDL
MODEL 3
REMARK VINA RESULT:    -2.994     15.708     16.319
REMARK INTER + INTRA:          -3.501
REMARK INTER:                  -3.435
REMARK INTRA:                  -0.066
REMARK UNBOUND:                -0.069
REMARK SMILES CC(C)[C@@H]([NH3+])C(=O)[O-]
REMARK SMILES IDX 4 1 5 2 6 6 7 7 8 8 2 9 1 10 3 11
REMARK H PARENT 5 3 5 4 5 5
REMARK Flexibility Score: inf
ROOT
ATOM      1  C   UNL     1      47.333  19.603  78.126  1.00  0.00     0.230 C 
ENDROOT
BRANCH   1   2
ATOM      2  N   UNL     1      47.878  18.381  78.739  1.00  0.00    -0.350 N 
ATOM      3  H   UNL     1      48.192  18.553  79.721  1.00  0.00     0.345 HD
ATOM      4  H   UNL     1      47.139  17.641  78.753  1.00  0.00     0.345 HD
ATOM      5  H   UNL     1      48.679  18.016  78.177  1.00  0.00     0.345 HD
ENDBRANCH   1   2
BRANCH   1   6
ATOM      6  C   UNL     1      48.410  20.348  77.373  1.00  0.00     0.099 C 
ATOM      7  O   UNL     1      48.174  20.793  76.219  1.00  0.00    -0.544 OA
ATOM      8  O   UNL     1      49.678  20.508  77.920  1.00  0.00    -0.544 OA
ENDBRANCH   1   6
BRANCH   1   9
ATOM      9  C   UNL     1      46.102  19.329  77.210  1.00  0.00     0.047 C 
ATOM     10  C   UNL     1      44.789  19.782  77.864  1.00  0.00     0.014 C 
ATOM     11  C   UNL     1      45.989  17.867  76.750  1.00  0.00     0.014 C 
ENDBRANCH   1   9
TORSDOF 3
ENDMDL
MODEL 4
REMARK VINA RESULT:    -2.968      9.677     10.620
REMARK INTER + INTRA:          -3.471
REMARK INTER:                  -3.429
REMARK INTRA:                  -0.042
REMARK UNBOUND:                -0.069
REMARK SMILES CC(C)[C@@H]([NH3+])C(=O)[O-]
REMARK SMILES IDX 4 1 5 2 6 6 7 7 8 8 2 9 1 10 3 11
REMARK H PARENT 5 3 5 4 5 5
REMARK Flexibility Score: inf
ROOT
ATOM      1  C   UNL     1      43.782  34.143  79.391  1.00  0.00     0.230 C 
ENDROOT
BRANCH   1   2
ATOM      2  N   UNL     1      43.047  35.281  79.965  1.00  0.00    -0.350 N 
ATOM      3  H   UNL     1      42.206  35.522  79.393  1.00  0.00     0.345 HD
ATOM      4  H   UNL     1      42.730  35.038  80.932  1.00  0.00     0.345 HD
ATOM      5  H   UNL     1      43.669  36.117  80.039  1.00  0.00     0.345 HD
ENDBRANCH   1   2
BRANCH   1   6
ATOM      6  C   UNL     1      42.855  32.976  79.149  1.00  0.00     0.099 C 
ATOM      7  O   UNL     1      43.325  31.812  79.052  1.00  0.00    -0.544 OA
ATOM      8  O   UNL     1      41.489  33.176  78.985  1.00  0.00    -0.544 OA
ENDBRANCH   1   6
BRANCH   1   9
ATOM      9  C   UNL     1      44.559  34.513  78.092  1.00  0.00     0.047 C 
ATOM     10  C   UNL     1      45.983  33.937  78.093  1.00  0.00     0.014 C 
ATOM     11  C   UNL     1      44.598  36.023  77.805  1.00  0.00     0.014 C 
ENDBRANCH   1   9
TORSDOF 3
ENDMDL
MODEL 5
REMARK VINA RESULT:    -2.893     17.418     18.212
REMARK INTER + INTRA:          -3.385
REMARK INTER:                  -3.329
REMARK INTRA:                  -0.056
REMARK UNBOUND:                -0.069
REMARK SMILES CC(C)[C@@H]([NH3+])C(=O)[O-]
REMARK SMILES IDX 4 1 5 2 6 6 7 7 8 8 2 9 1 10 3 11
REMARK H PARENT 5 3 5 4 5 5
REMARK Flexibility Score: inf
ROOT
ATOM      1  C   UNL     1      55.134  18.321  85.545  1.00  0.00     0.230 C 
ENDROOT
BRANCH   1   2
ATOM      2  N   UNL     1      54.608  18.068  86.895  1.00  0.00    -0.350 N 
ATOM      3  H   UNL     1      53.652  17.645  86.860  1.00  0.00     0.345 HD
ATOM      4  H   UNL     1      55.243  17.406  87.397  1.00  0.00     0.345 HD
ATOM      5  H   UNL     1      54.576  18.954  87.447  1.00  0.00     0.345 HD
ENDBRANCH   1   2
BRANCH   1   6
ATOM      6  C   UNL     1      55.828  17.095  85.003  1.00  0.00     0.099 C 
ATOM      7  O   UNL     1      56.125  17.030  83.781  1.00  0.00    -0.544 OA
ATOM      8  O   UNL     1      56.103  16.011  85.829  1.00  0.00    -0.544 OA
ENDBRANCH   1   6
BRANCH   1   9
ATOM      9  C   UNL     1      54.045  18.827  84.551  1.00  0.00     0.047 C 
ATOM     10  C   UNL     1      54.120  20.347  84.343  1.00  0.00     0.014 C 
ATOM     11  C   UNL     1      52.616  18.416  84.941  1.00  0.00     0.014 C 
ENDBRANCH   1   9
TORSDOF 3
ENDMDL
MODEL 6
REMARK VINA RESULT:    -2.880     17.088     17.688
REMARK INTER + INTRA:          -3.371
REMARK INTER:                  -3.334
REMARK INTRA:                  -0.037
REMARK UNBOUND:                -0.069
REMARK SMILES CC(C)[C@@H]([NH3+])C(=O)[O-]
REMARK SMILES IDX 4 1 5 2 6 6 7 7 8 8 2 9 1 10 3 11
REMARK H PARENT 5 3 5 4 5 5
REMARK Flexibility Score: inf
ROOT
ATOM      1  C   UNL     1      46.481  19.180  75.121  1.00  0.00     0.230 C 
ENDROOT
BRANCH   1   2
ATOM      2  N   UNL     1      46.539  18.201  74.025  1.00  0.00    -0.350 N 
ATOM      3  H   UNL     1      45.582  17.904  73.726  1.00  0.00     0.345 HD
ATOM      4  H   UNL     1      47.024  18.628  73.203  1.00  0.00     0.345 HD
ATOM      5  H   UNL     1      47.090  17.361  74.314  1.00  0.00     0.345 HD
ENDBRANCH   1   2
BRANCH   1   6
ATOM      6  C   UNL     1      45.633  20.368  74.733  1.00  0.00     0.099 C 
ATOM      7  O   UNL     1      44.610  20.655  75.408  1.00  0.00    -0.544 OA
ATOM      8  O   UNL     1      45.942  21.123  73.607  1.00  0.00    -0.544 OA
ENDBRANCH   1   6
BRANCH   1   9
ATOM      9  C   UNL     1      45.990  18.563  76.465  1.00  0.00     0.047 C 
ATOM     10  C   UNL     1      46.736  19.151  77.672  1.00  0.00     0.014 C 
ATOM     11  C   UNL     1      46.057  17.028  76.499  1.00  0.00     0.014 C 
ENDBRANCH   1   9
TORSDOF 3
ENDMDL
MODEL 7
REMARK VINA RESULT:    -2.871     15.855     16.483
REMARK INTER + INTRA:          -3.360
REMARK INTER:                  -3.308
REMARK INTRA:                  -0.052
REMARK UNBOUND:                -0.069
REMARK SMILES CC(C)[C@@H]([NH3+])C(=O)[O-]
REMARK SMILES IDX 4 1 5 2 6 6 7 7 8 8 2 9 1 10 3 11
REMARK H PARENT 5 3 5 4 5 5
REMARK Flexibility Score: inf
ROOT
ATOM      1  C   UNL     1      46.884  19.297  77.315  1.00  0.00     0.230 C 
ENDROOT
BRANCH   1   2
ATOM      2  N   UNL     1      47.355  18.506  78.463  1.00  0.00    -0.350 N 
ATOM      3  H   UNL     1      46.987  17.528  78.431  1.00  0.00     0.345 HD
ATOM      4  H   UNL     1      48.400  18.467  78.453  1.00  0.00     0.345 HD
ATOM      5  H   UNL     1      47.066  18.957  79.360  1.00  0.00     0.345 HD
ENDBRANCH   1   2
BRANCH   1   6
ATOM      6  C   UNL     1      46.234  18.406  76.284  1.00  0.00     0.099 C 
ATOM      7  O   UNL     1      45.913  17.227  76.586  1.00  0.00    -0.544 OA
ATOM      8  O   UNL     1      46.027  18.857  74.985  1.00  0.00    -0.544 OA
ENDBRANCH   1   6
BRANCH   1   9
ATOM      9  C   UNL     1      45.931  20.460  77.724  1.00  0.00     0.047 C 
ATOM     10  C   UNL     1      46.503  21.289  78.883  1.00  0.00     0.014 C 
ATOM     11  C   UNL     1      44.503  19.997  78.058  1.00  0.00     0.014 C 
ENDBRANCH   1   9
TORSDOF 3
ENDMDL
MODEL 8
REMARK VINA RESULT:    -2.859      2.398      3.075
REMARK INTER + INTRA:          -3.346
REMARK INTER:                  -3.297
REMARK INTRA:                  -0.049
REMARK UNBOUND:                -0.069
REMARK SMILES CC(C)[C@@H]([NH3+])C(=O)[O-]
REMARK SMILES IDX 4 1 5 2 6 6 7 7 8 8 2 9 1 10 3 11
REMARK H PARENT 5 3 5 4 5 5
REMARK Flexibility Score: inf
ROOT
ATOM      1  C   UNL     1      41.700  31.118  87.962  1.00  0.00     0.230 C 
ENDROOT
BRANCH   1   2
ATOM      2  N   UNL     1      42.143  31.567  86.633  1.00  0.00    -0.350 N 
ATOM      3  H   UNL     1      42.892  30.947  86.249  1.00  0.00     0.345 HD
ATOM      4  H   UNL     1      41.332  31.554  85.973  1.00  0.00     0.345 HD
ATOM      5  H   UNL     1      42.496  32.550  86.678  1.00  0.00     0.345 HD
ENDBRANCH   1   2
BRANCH   1   6
ATOM      6  C   UNL     1      40.444  30.287  87.853  1.00  0.00     0.099 C 
ATOM      7  O   UNL     1      39.367  30.710  88.350  1.00  0.00    -0.544 OA
ATOM      8  O   UNL     1      40.472  29.034  87.251  1.00  0.00    -0.544 OA
ENDBRANCH   1   6
BRANCH   1   9
ATOM      9  C   UNL     1      42.807  30.351  88.747  1.00  0.00     0.047 C 
ATOM     10  C   UNL     1      42.287  29.807  90.085  1.00  0.00     0.014 C 
ATOM     11  C   UNL     1      44.086  31.175  88.971  1.00  0.00     0.014 C 
ENDBRANCH   1   9
TORSDOF 3
ENDMDL
MODEL 9
REMARK VINA RESULT:    -2.749     16.946     17.857
REMARK INTER + INTRA:          -3.220
REMARK INTER:                  -3.163
REMARK INTRA:                  -0.056
REMARK UNBOUND:                -0.069
REMARK SMILES CC(C)[C@@H]([NH3+])C(=O)[O-]
REMARK SMILES IDX 4 1 5 2 6 6 7 7 8 8 2 9 1 10 3 11
REMARK H PARENT 5 3 5 4 5 5
REMARK Flexibility Score: inf
ROOT
ATOM      1  C   UNL     1      54.987  18.152  84.688  1.00  0.00     0.230 C 
ENDROOT
BRANCH   1   2
ATOM      2  N   UNL     1      56.125  18.891  84.119  1.00  0.00    -0.350 N 
ATOM      3  H   UNL     1      55.856  19.867  83.860  1.00  0.00     0.345 HD
ATOM      4  H   UNL     1      56.897  18.936  84.824  1.00  0.00     0.345 HD
ATOM      5  H   UNL     1      56.496  18.397  83.277  1.00  0.00     0.345 HD
ENDBRANCH   1   2
BRANCH   1   6
ATOM      6  C   UNL     1      55.390  17.448  85.962  1.00  0.00     0.099 C 
ATOM      7  O   UNL     1      55.391  18.077  87.053  1.00  0.00    -0.544 OA
ATOM      8  O   UNL     1      55.807  16.122  85.939  1.00  0.00    -0.544 OA
ENDBRANCH   1   6
BRANCH   1   9
ATOM      9  C   UNL     1      53.733  19.047  84.921  1.00  0.00     0.047 C 
ATOM     10  C   UNL     1      52.432  18.318  84.555  1.00  0.00     0.014 C 
ATOM     11  C   UNL     1      53.801  20.403  84.199  1.00  0.00     0.014 C 
ENDBRANCH   1   9
TORSDOF 3
ENDMDL
