MODEL 1
REMARK VINA RESULT:    -4.837      0.000      0.000
REMARK INTER + INTRA:          -7.635
REMARK INTER:                  -7.382
REMARK INTRA:                  -0.254
REMARK UNBOUND:                -0.254
REMARK SMILES CC1=CCC[C@@H](C)C(=O)C[C@H](C(C)C)C(=O)C1
REMARK SMILES IDX 8 1 9 2 6 3 7 4 5 5 4 6 3 7 2 8 1 9 10 11 11 12 15 13 16 14
REMARK SMILES IDX 17 15 12 17 13 18 14 19
REMARK H PARENT
REMARK Flexibility Score: 70.00
ROOT
ATOM      1  C   UNL     1     118.932 176.656 128.819  1.00  0.00     0.136 C 
ATOM      2  O   UNL     1     119.886 176.205 129.434  1.00  0.00    -0.299 OA
ENDROOT
BRANCH   1   3
ATOM      3  C   UNL     1     117.629 175.871 128.848  1.00  0.00     0.053 C 
ATOM      4  C   UNL     1     117.204 175.431 130.259  1.00  0.00     0.016 C 
BRANCH   3   5
ATOM      5  C   UNL     1     117.579 174.764 127.758  1.00  0.00     0.015 C 
BRANCH   5   6
ATOM      6  C   UNL     1     117.257 175.172 126.306  1.00  0.00     0.028 C 
BRANCH   6   7
ATOM      7  C   UNL     1     116.165 176.195 126.100  1.00  0.00    -0.028 C 
ATOM      8  C   UNL     1     116.307 177.413 125.531  1.00  0.00    -0.070 CG0
ATOM      9  C   UNL     1     115.150 178.377 125.633  1.00  0.00     0.039 C 
ATOM     10  G   UNL     1     117.548 177.840 124.773  1.00  0.00     0.000 G0
ENDBRANCH   6   7
ENDBRANCH   5   6
ENDBRANCH   3   5
ENDBRANCH   1   3
BRANCH   1  11
ATOM     11  C   UNL     1     119.107 177.962 128.065  1.00  0.00     0.087 C 
BRANCH  11  12
ATOM     12  C   UNL     1     119.507 177.814 126.565  1.00  0.00     0.066 C 
BRANCH  12  13
ATOM     13  C   UNL     1     118.554 178.554 125.631  1.00  0.00     0.140 C 
ATOM     14  O   UNL     1     118.619 179.770 125.543  1.00  0.00    -0.299 OA
BRANCH  13  15
ATOM     15  C   UNL     1     117.543 177.825 124.771  1.00  0.00     0.106 CG0
ATOM     16  G   UNL     1     116.307 177.412 125.543  1.00  0.00     0.000 G0
ENDBRANCH  13  15
ENDBRANCH  12  13
BRANCH  12  17
ATOM     17  C   UNL     1     121.014 178.076 126.232  1.00  0.00    -0.006 C 
ATOM     18  C   UNL     1     121.803 178.788 127.341  1.00  0.00     0.008 C 
ATOM     19  C   UNL     1     121.740 176.779 125.835  1.00  0.00     0.008 C 
ENDBRANCH  12  17
ENDBRANCH  11  12
ENDBRANCH   1  11
TORSDOF 1
ENDMDL
MODEL 2
REMARK VINA RESULT:    -4.826      1.961      3.774
REMARK INTER + INTRA:          -7.619
REMARK INTER:                  -7.464
REMARK INTRA:                  -0.155
REMARK UNBOUND:                -0.254
REMARK SMILES CC1=CCC[C@@H](C)C(=O)C[C@H](C(C)C)C(=O)C1
REMARK SMILES IDX 8 1 9 2 6 3 7 4 5 5 4 6 3 7 2 8 1 9 10 11 11 12 15 13 16 14
REMARK SMILES IDX 17 15 12 17 13 18 14 19
REMARK H PARENT
REMARK Flexibility Score: 70.00
ROOT
ATOM      1  C   UNL     1     117.127 178.448 126.242  1.00  0.00     0.136 C 
ATOM      2  O   UNL     1     116.707 178.598 127.379  1.00  0.00    -0.299 OA
ENDROOT
BRANCH   1   3
ATOM      3  C   UNL     1     116.370 177.500 125.323  1.00  0.00     0.053 C 
ATOM      4  C   UNL     1     115.300 178.194 124.466  1.00  0.00     0.016 C 
BRANCH   3   5
ATOM      5  C   UNL     1     115.910 176.208 126.054  1.00  0.00     0.015 C 
BRANCH   5   6
ATOM      6  C   UNL     1     116.948 175.099 126.320  1.00  0.00     0.028 C 
BRANCH   6   7
ATOM      7  C   UNL     1     117.658 175.121 127.653  1.00  0.00    -0.028 C 
ATOM      8  C   UNL     1     118.968 175.386 127.858  1.00  0.00    -0.070 CG0
ATOM      9  C   UNL     1     119.532 175.126 129.233  1.00  0.00     0.039 C 
ATOM     10  G   UNL     1     119.879 175.959 126.791  1.00  0.00     0.000 G0
ENDBRANCH   6   7
ENDBRANCH   5   6
ENDBRANCH   3   5
ENDBRANCH   1   3
BRANCH   1  11
ATOM     11  C   UNL     1     118.371 179.208 125.821  1.00  0.00     0.087 C 
BRANCH  11  12
ATOM     12  C   UNL     1     119.643 178.332 125.604  1.00  0.00     0.066 C 
BRANCH  12  13
ATOM     13  C   UNL     1     119.978 177.477 126.823  1.00  0.00     0.140 C 
ATOM     14  O   UNL     1     120.292 178.018 127.872  1.00  0.00    -0.299 OA
BRANCH  13  15
ATOM     15  C   UNL     1     119.898 175.965 126.792  1.00  0.00     0.106 CG0
ATOM     16  G   UNL     1     118.964 175.407 127.847  1.00  0.00     0.000 G0
ENDBRANCH  13  15
ENDBRANCH  12  13
BRANCH  12  17
ATOM     17  C   UNL     1     119.697 177.528 124.262  1.00  0.00    -0.006 C 
ATOM     18  C   UNL     1     119.073 178.248 123.057  1.00  0.00     0.008 C 
ATOM     19  C   UNL     1     121.134 177.098 123.917  1.00  0.00     0.008 C 
ENDBRANCH  12  17
ENDBRANCH  11  12
ENDBRANCH   1  11
TORSDOF 1
ENDMDL
MODEL 3
REMARK VINA RESULT:    -4.482      2.151      5.238
REMARK INTER + INTRA:          -7.094
REMARK INTER:                  -6.761
REMARK INTRA:                  -0.333
REMARK UNBOUND:                -0.254
REMARK SMILES CC1=CCC[C@@H](C)C(=O)C[C@H](C(C)C)C(=O)C1
REMARK SMILES IDX 8 1 9 2 6 3 7 4 5 5 4 6 3 7 2 8 1 9 10 11 11 12 15 13 16 14
REMARK SMILES IDX 17 15 12 17 13 18 14 19
REMARK H PARENT
REMARK Flexibility Score: 70.00
ROOT
ATOM      1  C   UNL     1     118.153 178.000 124.668  1.00  0.00     0.136 C 
ATOM      2  O   UNL     1     117.138 177.826 124.012  1.00  0.00    -0.299 OA
ENDROOT
BRANCH   1   3
ATOM      3  C   UNL     1     119.486 177.978 123.935  1.00  0.00     0.053 C 
ATOM      4  C   UNL     1     119.453 178.686 122.571  1.00  0.00     0.016 C 
BRANCH   3   5
ATOM      5  C   UNL     1     120.145 176.570 123.944  1.00  0.00     0.015 C 
BRANCH   5   6
ATOM      6  C   UNL     1     121.319 176.309 124.909  1.00  0.00     0.028 C 
BRANCH   6   7
ATOM      7  C   UNL     1     121.831 177.484 125.710  1.00  0.00    -0.028 C 
ATOM      8  C   UNL     1     121.511 177.780 126.989  1.00  0.00    -0.070 CG0
ATOM      9  C   UNL     1     121.941 179.122 127.530  1.00  0.00     0.039 C 
ATOM     10  G   UNL     1     120.779 176.823 127.909  1.00  0.00     0.000 G0
ENDBRANCH   6   7
ENDBRANCH   5   6
ENDBRANCH   3   5
ENDBRANCH   1   3
BRANCH   1  11
ATOM     11  C   UNL     1     118.022 178.223 126.163  1.00  0.00     0.087 C 
BRANCH  11  12
ATOM     12  C   UNL     1     118.266 176.961 127.047  1.00  0.00     0.066 C 
BRANCH  12  13
ATOM     13  C   UNL     1     119.320 177.197 128.124  1.00  0.00     0.140 C 
ATOM     14  O   UNL     1     118.988 177.670 129.200  1.00  0.00    -0.299 OA
BRANCH  13  15
ATOM     15  C   UNL     1     120.774 176.827 127.921  1.00  0.00     0.106 CG0
ATOM     16  G   UNL     1     121.495 177.779 126.988  1.00  0.00     0.000 G0
ENDBRANCH  13  15
ENDBRANCH  12  13
BRANCH  12  17
ATOM     17  C   UNL     1     116.981 176.253 127.595  1.00  0.00    -0.006 C 
ATOM     18  C   UNL     1     115.658 176.815 127.053  1.00  0.00     0.008 C 
ATOM     19  C   UNL     1     117.029 174.733 127.362  1.00  0.00     0.008 C 
ENDBRANCH  12  17
ENDBRANCH  11  12
ENDBRANCH   1  11
TORSDOF 1
ENDMDL
MODEL 4
REMARK VINA RESULT:    -4.458      1.814      2.565
REMARK INTER + INTRA:          -7.058
REMARK INTER:                  -6.700
REMARK INTRA:                  -0.358
REMARK UNBOUND:                -0.254
REMARK SMILES CC1=CCC[C@@H](C)C(=O)C[C@H](C(C)C)C(=O)C1
REMARK SMILES IDX 8 1 9 2 6 3 7 4 5 5 4 6 3 7 2 8 1 9 10 11 11 12 15 13 16 14
REMARK SMILES IDX 17 15 12 17 13 18 14 19
REMARK H PARENT
REMARK Flexibility Score: 70.00
ROOT
ATOM      1  C   UNL     1     120.825 177.881 128.644  1.00  0.00     0.136 C 
ATOM      2  O   UNL     1     121.919 178.220 129.069  1.00  0.00    -0.299 OA
ENDROOT
BRANCH   1   3
ATOM      3  C   UNL     1     119.892 177.141 129.589  1.00  0.00     0.053 C 
ATOM      4  C   UNL     1     119.784 177.784 130.981  1.00  0.00     0.016 C 
BRANCH   3   5
ATOM      5  C   UNL     1     120.131 175.605 129.577  1.00  0.00     0.015 C 
BRANCH   5   6
ATOM      6  C   UNL     1     119.079 174.698 128.907  1.00  0.00     0.028 C 
BRANCH   6   7
ATOM      7  C   UNL     1     117.724 175.302 128.624  1.00  0.00    -0.028 C 
ATOM      8  C   UNL     1     117.304 175.809 127.443  1.00  0.00    -0.070 CG0
ATOM      9  C   UNL     1     116.005 176.577 127.429  1.00  0.00     0.039 C 
ATOM     10  G   UNL     1     118.050 175.612 126.139  1.00  0.00     0.000 G0
ENDBRANCH   6   7
ENDBRANCH   5   6
ENDBRANCH   3   5
ENDBRANCH   1   3
BRANCH   1  11
ATOM     11  C   UNL     1     120.470 178.215 127.206  1.00  0.00     0.087 C 
BRANCH  11  12
ATOM     12  C   UNL     1     120.321 176.987 126.257  1.00  0.00     0.066 C 
BRANCH  12  13
ATOM     13  C   UNL     1     118.894 176.815 125.745  1.00  0.00     0.140 C 
ATOM     14  O   UNL     1     118.422 177.644 124.983  1.00  0.00    -0.299 OA
BRANCH  13  15
ATOM     15  C   UNL     1     118.043 175.620 126.121  1.00  0.00     0.106 CG0
ATOM     16  G   UNL     1     117.306 175.816 127.431  1.00  0.00     0.000 G0
ENDBRANCH  13  15
ENDBRANCH  12  13
BRANCH  12  17
ATOM     17  C   UNL     1     121.394 176.866 125.123  1.00  0.00    -0.006 C 
ATOM     18  C   UNL     1     122.832 177.177 125.564  1.00  0.00     0.008 C 
ATOM     19  C   UNL     1     121.350 175.484 124.447  1.00  0.00     0.008 C 
ENDBRANCH  12  17
ENDBRANCH  11  12
ENDBRANCH   1  11
TORSDOF 1
ENDMDL
MODEL 5
REMARK VINA RESULT:    -4.268      1.961      4.251
REMARK INTER + INTRA:          -6.767
REMARK INTER:                  -6.604
REMARK INTRA:                  -0.164
REMARK UNBOUND:                -0.254
REMARK SMILES CC1=CCC[C@@H](C)C(=O)C[C@H](C(C)C)C(=O)C1
REMARK SMILES IDX 8 1 9 2 6 3 7 4 5 5 4 6 3 7 2 8 1 9 10 11 11 12 15 13 16 14
REMARK SMILES IDX 17 15 12 17 13 18 14 19
REMARK H PARENT
REMARK Flexibility Score: 70.00
ROOT
ATOM      1  C   UNL     1     116.905 176.683 126.827  1.00  0.00     0.136 C 
ATOM      2  O   UNL     1     116.562 175.548 126.531  1.00  0.00    -0.299 OA
ENDROOT
BRANCH   1   3
ATOM      3  C   UNL     1     116.635 177.792 125.823  1.00  0.00     0.053 C 
ATOM      4  C   UNL     1     115.163 178.233 125.768  1.00  0.00     0.016 C 
BRANCH   3   5
ATOM      5  C   UNL     1     117.305 177.522 124.446  1.00  0.00     0.015 C 
BRANCH   5   6
ATOM      6  C   UNL     1     118.633 178.234 124.118  1.00  0.00     0.028 C 
BRANCH   6   7
ATOM      7  C   UNL     1     119.910 177.536 124.520  1.00  0.00    -0.028 C 
ATOM      8  C   UNL     1     120.616 177.750 125.653  1.00  0.00    -0.070 CG0
ATOM      9  C   UNL     1     121.986 177.124 125.758  1.00  0.00     0.039 C 
ATOM     10  G   UNL     1     120.088 178.551 126.826  1.00  0.00     0.000 G0
ENDBRANCH   6   7
ENDBRANCH   5   6
ENDBRANCH   3   5
ENDBRANCH   1   3
BRANCH   1  11
ATOM     11  C   UNL     1     117.577 176.911 128.169  1.00  0.00     0.087 C 
BRANCH  11  12
ATOM     12  C   UNL     1     119.084 176.517 128.232  1.00  0.00     0.066 C 
BRANCH  12  13
ATOM     13  C   UNL     1     120.009 177.725 128.112  1.00  0.00     0.140 C 
ATOM     14  O   UNL     1     120.735 178.024 129.048  1.00  0.00    -0.299 OA
BRANCH  13  15
ATOM     15  C   UNL     1     120.089 178.555 126.848  1.00  0.00     0.106 CG0
ATOM     16  G   UNL     1     120.606 177.766 125.662  1.00  0.00     0.000 G0
ENDBRANCH  13  15
ENDBRANCH  12  13
BRANCH  12  17
ATOM     17  C   UNL     1     119.489 175.551 129.396  1.00  0.00    -0.006 C 
ATOM     18  C   UNL     1     118.582 175.621 130.633  1.00  0.00     0.008 C 
ATOM     19  C   UNL     1     119.592 174.094 128.912  1.00  0.00     0.008 C 
ENDBRANCH  12  17
ENDBRANCH  11  12
ENDBRANCH   1  11
TORSDOF 1
ENDMDL
MODEL 6
REMARK VINA RESULT:    -4.225     12.883     14.891
REMARK INTER + INTRA:          -6.701
REMARK INTER:                  -6.569
REMARK INTRA:                  -0.132
REMARK UNBOUND:                -0.254
REMARK SMILES CC1=CCC[C@@H](C)C(=O)C[C@H](C(C)C)C(=O)C1
REMARK SMILES IDX 8 1 9 2 6 3 7 4 5 5 4 6 3 7 2 8 1 9 10 11 11 12 15 13 16 14
REMARK SMILES IDX 17 15 12 17 13 18 14 19
REMARK H PARENT
REMARK Flexibility Score: 70.00
ROOT
ATOM      1  C   UNL     1     123.066 165.060 126.229  1.00  0.00     0.136 C 
ATOM      2  O   UNL     1     122.474 164.005 126.057  1.00  0.00    -0.299 OA
ENDROOT
BRANCH   1   3
ATOM      3  C   UNL     1     123.299 165.951 125.018  1.00  0.00     0.053 C 
ATOM      4  C   UNL     1     122.012 166.570 124.450  1.00  0.00     0.016 C 
BRANCH   3   5
ATOM      5  C   UNL     1     124.246 165.296 123.974  1.00  0.00     0.015 C 
BRANCH   5   6
ATOM      6  C   UNL     1     125.394 164.398 124.477  1.00  0.00     0.028 C 
BRANCH   6   7
ATOM      7  C   UNL     1     126.604 165.085 125.064  1.00  0.00    -0.028 C 
ATOM      8  C   UNL     1     127.069 164.946 126.325  1.00  0.00    -0.070 CG0
ATOM      9  C   UNL     1     128.148 165.896 126.786  1.00  0.00     0.039 C 
ATOM     10  G   UNL     1     126.589 163.870 127.278  1.00  0.00     0.000 G0
ENDBRANCH   6   7
ENDBRANCH   5   6
ENDBRANCH   3   5
ENDBRANCH   1   3
BRANCH   1  11
ATOM     11  C   UNL     1     123.533 165.410 127.630  1.00  0.00     0.087 C 
BRANCH  11  12
ATOM     12  C   UNL     1     124.229 164.251 128.407  1.00  0.00     0.066 C 
BRANCH  12  13
ATOM     13  C   UNL     1     125.749 164.381 128.411  1.00  0.00     0.140 C 
ATOM     14  O   UNL     1     126.308 164.894 129.368  1.00  0.00    -0.299 OA
BRANCH  13  15
ATOM     15  C   UNL     1     126.604 163.856 127.277  1.00  0.00     0.106 CG0
ATOM     16  G   UNL     1     127.055 164.950 126.330  1.00  0.00     0.000 G0
ENDBRANCH  13  15
ENDBRANCH  12  13
BRANCH  12  17
ATOM     17  C   UNL     1     123.640 163.928 129.821  1.00  0.00    -0.006 C 
ATOM     18  C   UNL     1     122.216 164.452 130.060  1.00  0.00     0.008 C 
ATOM     19  C   UNL     1     123.691 162.420 130.125  1.00  0.00     0.008 C 
ENDBRANCH  12  17
ENDBRANCH  11  12
ENDBRANCH   1  11
TORSDOF 1
ENDMDL
MODEL 7
REMARK VINA RESULT:    -4.202      2.081      4.273
REMARK INTER + INTRA:          -6.666
REMARK INTER:                  -6.688
REMARK INTRA:                   0.022
REMARK UNBOUND:                -0.254
REMARK SMILES CC1=CCC[C@@H](C)C(=O)C[C@H](C(C)C)C(=O)C1
REMARK SMILES IDX 8 1 9 2 6 3 7 4 5 5 4 6 3 7 2 8 1 9 10 11 11 12 15 13 16 14
REMARK SMILES IDX 17 15 12 17 13 18 14 19
REMARK H PARENT
REMARK Flexibility Score: 70.00
ROOT
ATOM      1  C   UNL     1     119.603 177.359 128.531  1.00  0.00     0.136 C 
ATOM      2  O   UNL     1     119.627 176.807 129.620  1.00  0.00    -0.299 OA
ENDROOT
BRANCH   1   3
ATOM      3  C   UNL     1     120.797 177.166 127.608  1.00  0.00     0.053 C 
ATOM      4  C   UNL     1     121.996 178.063 127.954  1.00  0.00     0.016 C 
BRANCH   3   5
ATOM      5  C   UNL     1     120.389 177.140 126.109  1.00  0.00     0.015 C 
BRANCH   5   6
ATOM      6  C   UNL     1     120.144 175.776 125.433  1.00  0.00     0.028 C 
BRANCH   6   7
ATOM      7  C   UNL     1     119.918 174.586 126.336  1.00  0.00    -0.028 C 
ATOM      8  C   UNL     1     118.765 174.269 126.967  1.00  0.00    -0.070 CG0
ATOM      9  C   UNL     1     118.811 173.177 128.009  1.00  0.00     0.039 C 
ATOM     10  G   UNL     1     117.436 174.925 126.656  1.00  0.00     0.000 G0
ENDBRANCH   6   7
ENDBRANCH   5   6
ENDBRANCH   3   5
ENDBRANCH   1   3
BRANCH   1  11
ATOM     11  C   UNL     1     118.393 178.202 128.172  1.00  0.00     0.087 C 
BRANCH  11  12
ATOM     12  C   UNL     1     117.376 177.525 127.203  1.00  0.00     0.066 C 
BRANCH  12  13
ATOM     13  C   UNL     1     117.087 176.075 127.581  1.00  0.00     0.140 C 
ATOM     14  O   UNL     1     116.531 175.827 128.640  1.00  0.00    -0.299 OA
BRANCH  13  15
ATOM     15  C   UNL     1     117.431 174.921 126.664  1.00  0.00     0.106 CG0
ATOM     16  G   UNL     1     118.766 174.286 126.999  1.00  0.00     0.000 G0
ENDBRANCH  13  15
ENDBRANCH  12  13
BRANCH  12  17
ATOM     17  C   UNL     1     116.079 178.345 126.892  1.00  0.00    -0.006 C 
ATOM     18  C   UNL     1     116.328 179.748 126.319  1.00  0.00     0.008 C 
ATOM     19  C   UNL     1     115.129 177.571 125.963  1.00  0.00     0.008 C 
ENDBRANCH  12  17
ENDBRANCH  11  12
ENDBRANCH   1  11
TORSDOF 1
ENDMDL
MODEL 8
REMARK VINA RESULT:    -4.190      2.319      4.583
REMARK INTER + INTRA:          -6.648
REMARK INTER:                  -6.790
REMARK INTRA:                   0.142
REMARK UNBOUND:                -0.254
REMARK SMILES CC1=CCC[C@@H](C)C(=O)C[C@H](C(C)C)C(=O)C1
REMARK SMILES IDX 8 1 9 2 6 3 7 4 5 5 4 6 3 7 2 8 1 9 10 11 11 12 15 13 16 14
REMARK SMILES IDX 17 15 12 17 13 18 14 19
REMARK H PARENT
REMARK Flexibility Score: 70.00
ROOT
ATOM      1  C   UNL     1     120.732 177.851 125.913  1.00  0.00     0.136 C 
ATOM      2  O   UNL     1     121.836 177.694 126.411  1.00  0.00    -0.299 OA
ENDROOT
BRANCH   1   3
ATOM      3  C   UNL     1     120.523 177.378 124.482  1.00  0.00     0.053 C 
ATOM      4  C   UNL     1     119.179 177.816 123.877  1.00  0.00     0.016 C 
BRANCH   3   5
ATOM      5  C   UNL     1     120.885 175.879 124.294  1.00  0.00     0.015 C 
BRANCH   5   6
ATOM      6  C   UNL     1     120.966 174.975 125.541  1.00  0.00     0.028 C 
BRANCH   6   7
ATOM      7  C   UNL     1     119.671 174.394 126.059  1.00  0.00    -0.028 C 
ATOM      8  C   UNL     1     119.191 174.507 127.317  1.00  0.00    -0.070 CG0
ATOM      9  C   UNL     1     118.001 173.658 127.695  1.00  0.00     0.039 C 
ATOM     10  G   UNL     1     119.762 175.462 128.345  1.00  0.00     0.000 G0
ENDBRANCH   6   7
ENDBRANCH   5   6
ENDBRANCH   3   5
ENDBRANCH   1   3
BRANCH   1  11
ATOM     11  C   UNL     1     119.647 178.507 126.746  1.00  0.00     0.087 C 
BRANCH  11  12
ATOM     12  C   UNL     1     118.514 177.553 127.233  1.00  0.00     0.066 C 
BRANCH  12  13
ATOM     13  C   UNL     1     118.921 176.739 128.457  1.00  0.00     0.140 C 
ATOM     14  O   UNL     1     118.551 177.092 129.567  1.00  0.00    -0.299 OA
BRANCH  13  15
ATOM     15  C   UNL     1     119.745 175.474 128.345  1.00  0.00     0.106 CG0
ATOM     16  G   UNL     1     119.189 174.502 127.325  1.00  0.00     0.000 G0
ENDBRANCH  13  15
ENDBRANCH  12  13
BRANCH  12  17
ATOM     17  C   UNL     1     117.093 178.196 127.372  1.00  0.00    -0.006 C 
ATOM     18  C   UNL     1     116.870 179.453 126.518  1.00  0.00     0.008 C 
ATOM     19  C   UNL     1     115.978 177.174 127.085  1.00  0.00     0.008 C 
ENDBRANCH  12  17
ENDBRANCH  11  12
ENDBRANCH   1  11
TORSDOF 1
ENDMDL
MODEL 9
REMARK VINA RESULT:    -4.109      7.061      9.877
REMARK INTER + INTRA:          -6.525
REMARK INTER:                  -6.753
REMARK INTRA:                   0.228
REMARK UNBOUND:                -0.254
REMARK SMILES CC1=CCC[C@@H](C)C(=O)C[C@H](C(C)C)C(=O)C1
REMARK SMILES IDX 8 1 9 2 6 3 7 4 5 5 4 6 3 7 2 8 1 9 10 11 11 12 15 13 16 14
REMARK SMILES IDX 17 15 12 17 13 18 14 19
REMARK H PARENT
REMARK Flexibility Score: 70.00
ROOT
ATOM      1  C   UNL     1     123.125 177.214 121.268  1.00  0.00     0.136 C 
ATOM      2  O   UNL     1     122.004 177.046 121.722  1.00  0.00    -0.299 OA
ENDROOT
BRANCH   1   3
ATOM      3  C   UNL     1     123.251 177.546 119.789  1.00  0.00     0.053 C 
ATOM      4  C   UNL     1     122.666 176.469 118.861  1.00  0.00     0.016 C 
BRANCH   3   5
ATOM      5  C   UNL     1     124.672 178.054 119.414  1.00  0.00     0.015 C 
BRANCH   5   6
ATOM      6  C   UNL     1     125.571 177.156 118.540  1.00  0.00     0.028 C 
BRANCH   6   7
ATOM      7  C   UNL     1     126.847 176.640 119.163  1.00  0.00    -0.028 C 
ATOM      8  C   UNL     1     126.940 175.721 120.150  1.00  0.00    -0.070 CG0
ATOM      9  C   UNL     1     128.289 175.516 120.795  1.00  0.00     0.039 C 
ATOM     10  G   UNL     1     125.774 174.871 120.611  1.00  0.00     0.000 G0
ENDBRANCH   6   7
ENDBRANCH   5   6
ENDBRANCH   3   5
ENDBRANCH   1   3
BRANCH   1  11
ATOM     11  C   UNL     1     124.315 177.077 122.200  1.00  0.00     0.087 C 
BRANCH  11  12
ATOM     12  C   UNL     1     124.511 175.660 122.823  1.00  0.00     0.066 C 
BRANCH  12  13
ATOM     13  C   UNL     1     125.610 174.864 122.127  1.00  0.00     0.140 C 
ATOM     14  O   UNL     1     126.375 174.182 122.793  1.00  0.00    -0.299 OA
BRANCH  13  15
ATOM     15  C   UNL     1     125.769 174.856 120.621  1.00  0.00     0.106 CG0
ATOM     16  G   UNL     1     126.922 175.719 120.150  1.00  0.00     0.000 G0
ENDBRANCH  13  15
ENDBRANCH  12  13
BRANCH  12  17
ATOM     17  C   UNL     1     124.615 175.609 124.384  1.00  0.00    -0.006 C 
ATOM     18  C   UNL     1     123.998 176.815 125.109  1.00  0.00     0.008 C 
ATOM     19  C   UNL     1     124.018 174.308 124.949  1.00  0.00     0.008 C 
ENDBRANCH  12  17
ENDBRANCH  11  12
ENDBRANCH   1  11
TORSDOF 1
ENDMDL
