MODEL 1
REMARK VINA RESULT:    -3.490      0.000      0.000
REMARK INTER + INTRA:          -5.103
REMARK INTER:                  -5.326
REMARK INTRA:                   0.223
REMARK UNBOUND:                 0.223
REMARK SMILES CC1=CCC[C@H](C)C(=O)C[C@@H](C(C)C)C(=O)C1
REMARK SMILES IDX 8 1 9 2 6 3 7 4 5 5 4 6 3 7 2 8 1 9 10 11 11 12 15 13 16 14
REMARK SMILES IDX 17 15 12 17 13 18 14 19
REMARK H PARENT
REMARK Flexibility Score: 70.00
ROOT
ATOM      1  C   UNL     1     151.265 160.171 202.308  1.00  0.00     0.136 C 
ATOM      2  O   UNL     1     150.045 160.251 202.341  1.00  0.00    -0.299 OA
ENDROOT
BRANCH   1   3
ATOM      3  C   UNL     1     152.025 161.324 201.668  1.00  0.00     0.053 C 
ATOM      4  C   UNL     1     152.221 162.504 202.631  1.00  0.00     0.016 C 
BRANCH   3   5
ATOM      5  C   UNL     1     153.347 160.875 201.013  1.00  0.00     0.015 C 
BRANCH   5   6
ATOM      6  C   UNL     1     153.230 160.752 199.475  1.00  0.00     0.028 C 
BRANCH   6   7
ATOM      7  C   UNL     1     153.854 159.489 198.939  1.00  0.00    -0.028 C 
ATOM      8  C   UNL     1     153.257 158.272 198.925  1.00  0.00    -0.070 CG0
ATOM      9  C   UNL     1     153.997 157.130 198.278  1.00  0.00     0.039 C 
ATOM     10  G   UNL     1     151.912 157.992 199.581  1.00  0.00     0.000 G0
ENDBRANCH   6   7
ENDBRANCH   5   6
ENDBRANCH   3   5
ENDBRANCH   1   3
BRANCH   1  11
ATOM     11  C   UNL     1     151.897 158.970 202.991  1.00  0.00     0.087 C 
BRANCH  11  12
ATOM     12  C   UNL     1     152.794 158.025 202.137  1.00  0.00     0.066 C 
BRANCH  12  13
ATOM     13  C   UNL     1     152.124 157.331 200.947  1.00  0.00     0.140 C 
ATOM     14  O   UNL     1     151.729 156.186 201.113  1.00  0.00    -0.299 OA
BRANCH  13  15
ATOM     15  C   UNL     1     151.905 157.949 199.583  1.00  0.00     0.106 CG0
ATOM     16  G   UNL     1     153.240 158.263 198.922  1.00  0.00     0.000 G0
ENDBRANCH  13  15
ENDBRANCH  12  13
BRANCH  12  17
ATOM     17  C   UNL     1     153.518 156.954 203.023  1.00  0.00    -0.006 C 
ATOM     18  C   UNL     1     155.042 156.938 202.812  1.00  0.00     0.008 C 
ATOM     19  C   UNL     1     153.187 157.080 204.520  1.00  0.00     0.008 C 
ENDBRANCH  12  17
ENDBRANCH  11  12
ENDBRANCH   1  11
TORSDOF 1
ENDMDL
MODEL 2
REMARK VINA RESULT:    -3.454      2.664      3.992
REMARK INTER + INTRA:          -5.048
REMARK INTER:                  -4.926
REMARK INTRA:                  -0.121
REMARK UNBOUND:                 0.223
REMARK SMILES CC1=CCC[C@H](C)C(=O)C[C@@H](C(C)C)C(=O)C1
REMARK SMILES IDX 8 1 9 2 6 3 7 4 5 5 4 6 3 7 2 8 1 9 10 11 11 12 15 13 16 14
REMARK SMILES IDX 17 15 12 17 13 18 14 19
REMARK H PARENT
REMARK Flexibility Score: 70.00
ROOT
ATOM      1  C   UNL     1     150.349 159.924 198.857  1.00  0.00     0.136 C 
ATOM      2  O   UNL     1     149.225 160.355 199.074  1.00  0.00    -0.299 OA
ENDROOT
BRANCH   1   3
ATOM      3  C   UNL     1     150.807 159.859 197.408  1.00  0.00     0.053 C 
ATOM      4  C   UNL     1     149.738 159.261 196.481  1.00  0.00     0.016 C 
BRANCH   3   5
ATOM      5  C   UNL     1     151.342 161.211 196.891  1.00  0.00     0.015 C 
BRANCH   5   6
ATOM      6  C   UNL     1     152.797 161.109 196.376  1.00  0.00     0.028 C 
BRANCH   6   7
ATOM      7  C   UNL     1     153.469 159.818 196.767  1.00  0.00    -0.028 C 
ATOM      8  C   UNL     1     154.124 159.606 197.934  1.00  0.00    -0.070 CG0
ATOM      9  C   UNL     1     154.672 158.226 198.195  1.00  0.00     0.039 C 
ATOM     10  G   UNL     1     154.386 160.700 198.958  1.00  0.00     0.000 G0
ENDBRANCH   6   7
ENDBRANCH   5   6
ENDBRANCH   3   5
ENDBRANCH   1   3
BRANCH   1  11
ATOM     11  C   UNL     1     151.203 159.584 200.067  1.00  0.00     0.087 C 
BRANCH  11  12
ATOM     12  C   UNL     1     152.217 160.652 200.577  1.00  0.00     0.066 C 
BRANCH  12  13
ATOM     13  C   UNL     1     153.696 160.393 200.277  1.00  0.00     0.140 C 
ATOM     14  O   UNL     1     154.369 159.886 201.163  1.00  0.00    -0.299 OA
BRANCH  13  15
ATOM     15  C   UNL     1     154.393 160.709 198.972  1.00  0.00     0.106 CG0
ATOM     16  G   UNL     1     154.114 159.622 197.944  1.00  0.00     0.000 G0
ENDBRANCH  13  15
ENDBRANCH  12  13
BRANCH  12  17
ATOM     17  C   UNL     1     152.038 160.939 202.107  1.00  0.00    -0.006 C 
ATOM     18  C   UNL     1     152.103 162.438 202.445  1.00  0.00     0.008 C 
ATOM     19  C   UNL     1     150.763 160.312 202.698  1.00  0.00     0.008 C 
ENDBRANCH  12  17
ENDBRANCH  11  12
ENDBRANCH   1  11
TORSDOF 1
ENDMDL
MODEL 3
REMARK VINA RESULT:    -3.324      2.077      2.679
REMARK INTER + INTRA:          -4.850
REMARK INTER:                  -4.732
REMARK INTRA:                  -0.118
REMARK UNBOUND:                 0.223
REMARK SMILES CC1=CCC[C@H](C)C(=O)C[C@@H](C(C)C)C(=O)C1
REMARK SMILES IDX 8 1 9 2 6 3 7 4 5 5 4 6 3 7 2 8 1 9 10 11 11 12 15 13 16 14
REMARK SMILES IDX 17 15 12 17 13 18 14 19
REMARK H PARENT
REMARK Flexibility Score: 70.00
ROOT
ATOM      1  C   UNL     1     151.791 159.149 201.932  1.00  0.00     0.136 C 
ATOM      2  O   UNL     1     151.003 159.122 202.867  1.00  0.00    -0.299 OA
ENDROOT
BRANCH   1   3
ATOM      3  C   UNL     1     151.816 160.404 201.073  1.00  0.00     0.053 C 
ATOM      4  C   UNL     1     152.153 161.664 201.883  1.00  0.00     0.016 C 
BRANCH   3   5
ATOM      5  C   UNL     1     152.709 160.254 199.824  1.00  0.00     0.015 C 
BRANCH   5   6
ATOM      6  C   UNL     1     154.173 160.673 200.093  1.00  0.00     0.028 C 
BRANCH   6   7
ATOM      7  C   UNL     1     155.176 159.718 199.495  1.00  0.00    -0.028 C 
ATOM      8  C   UNL     1     155.962 158.874 200.205  1.00  0.00    -0.070 CG0
ATOM      9  C   UNL     1     156.855 157.931 199.439  1.00  0.00     0.039 C 
ATOM     10  G   UNL     1     156.033 158.872 201.725  1.00  0.00     0.000 G0
ENDBRANCH   6   7
ENDBRANCH   5   6
ENDBRANCH   3   5
ENDBRANCH   1   3
BRANCH   1  11
ATOM     11  C   UNL     1     152.727 157.961 201.784  1.00  0.00     0.087 C 
BRANCH  11  12
ATOM     12  C   UNL     1     153.849 157.770 202.848  1.00  0.00     0.066 C 
BRANCH  12  13
ATOM     13  C   UNL     1     155.288 157.716 202.325  1.00  0.00     0.140 C 
ATOM     14  O   UNL     1     155.870 156.642 202.391  1.00  0.00    -0.299 OA
BRANCH  13  15
ATOM     15  C   UNL     1     156.048 158.881 201.730  1.00  0.00     0.106 CG0
ATOM     16  G   UNL     1     155.953 158.857 200.211  1.00  0.00     0.000 G0
ENDBRANCH  13  15
ENDBRANCH  12  13
BRANCH  12  17
ATOM     17  C   UNL     1     153.580 156.525 203.760  1.00  0.00    -0.006 C 
ATOM     18  C   UNL     1     153.142 156.913 205.183  1.00  0.00     0.008 C 
ATOM     19  C   UNL     1     152.582 155.527 203.147  1.00  0.00     0.008 C 
ENDBRANCH  12  17
ENDBRANCH  11  12
ENDBRANCH   1  11
TORSDOF 1
ENDMDL
MODEL 4
REMARK VINA RESULT:    -3.245      2.462      4.199
REMARK INTER + INTRA:          -4.729
REMARK INTER:                  -4.580
REMARK INTRA:                  -0.149
REMARK UNBOUND:                 0.223
REMARK SMILES CC1=CCC[C@H](C)C(=O)C[C@@H](C(C)C)C(=O)C1
REMARK SMILES IDX 8 1 9 2 6 3 7 4 5 5 4 6 3 7 2 8 1 9 10 11 11 12 15 13 16 14
REMARK SMILES IDX 17 15 12 17 13 18 14 19
REMARK H PARENT
REMARK Flexibility Score: 70.00
ROOT
ATOM      1  C   UNL     1     154.474 160.590 199.491  1.00  0.00     0.136 C 
ATOM      2  O   UNL     1     155.332 161.116 200.186  1.00  0.00    -0.299 OA
ENDROOT
BRANCH   1   3
ATOM      3  C   UNL     1     154.903 159.426 198.610  1.00  0.00     0.053 C 
ATOM      4  C   UNL     1     154.547 158.064 199.223  1.00  0.00     0.016 C 
BRANCH   3   5
ATOM      5  C   UNL     1     154.405 159.564 197.157  1.00  0.00     0.015 C 
BRANCH   5   6
ATOM      6  C   UNL     1     153.425 158.435 196.761  1.00  0.00     0.028 C 
BRANCH   6   7
ATOM      7  C   UNL     1     152.118 158.957 196.219  1.00  0.00    -0.028 C 
ATOM      8  C   UNL     1     150.975 159.081 196.935  1.00  0.00    -0.070 CG0
ATOM      9  C   UNL     1     149.778 159.695 196.254  1.00  0.00     0.039 C 
ATOM     10  G   UNL     1     150.822 158.578 198.364  1.00  0.00     0.000 G0
ENDBRANCH   6   7
ENDBRANCH   5   6
ENDBRANCH   3   5
ENDBRANCH   1   3
BRANCH   1  11
ATOM     11  C   UNL     1     153.050 161.097 199.650  1.00  0.00     0.087 C 
BRANCH  11  12
ATOM     12  C   UNL     1     151.990 160.137 200.266  1.00  0.00     0.066 C 
BRANCH  12  13
ATOM     13  C   UNL     1     150.815 159.741 199.366  1.00  0.00     0.140 C 
ATOM     14  O   UNL     1     149.800 160.421 199.435  1.00  0.00    -0.299 OA
BRANCH  13  15
ATOM     15  C   UNL     1     150.808 158.582 198.393  1.00  0.00     0.106 CG0
ATOM     16  G   UNL     1     150.988 159.084 196.967  1.00  0.00     0.000 G0
ENDBRANCH  13  15
ENDBRANCH  12  13
BRANCH  12  17
ATOM     17  C   UNL     1     151.441 160.675 201.631  1.00  0.00    -0.006 C 
ATOM     18  C   UNL     1     151.291 159.571 202.691  1.00  0.00     0.008 C 
ATOM     19  C   UNL     1     152.261 161.849 202.194  1.00  0.00     0.008 C 
ENDBRANCH  12  17
ENDBRANCH  11  12
ENDBRANCH   1  11
TORSDOF 1
ENDMDL
MODEL 5
REMARK VINA RESULT:    -3.191      2.023      3.981
REMARK INTER + INTRA:          -4.647
REMARK INTER:                  -4.661
REMARK INTRA:                   0.014
REMARK UNBOUND:                 0.223
REMARK SMILES CC1=CCC[C@H](C)C(=O)C[C@@H](C(C)C)C(=O)C1
REMARK SMILES IDX 8 1 9 2 6 3 7 4 5 5 4 6 3 7 2 8 1 9 10 11 11 12 15 13 16 14
REMARK SMILES IDX 17 15 12 17 13 18 14 19
REMARK H PARENT
REMARK Flexibility Score: 70.00
ROOT
ATOM      1  C   UNL     1     152.274 160.704 201.438  1.00  0.00     0.136 C 
ATOM      2  O   UNL     1     153.239 161.400 201.725  1.00  0.00    -0.299 OA
ENDROOT
BRANCH   1   3
ATOM      3  C   UNL     1     151.467 160.118 202.587  1.00  0.00     0.053 C 
ATOM      4  C   UNL     1     149.971 160.444 202.480  1.00  0.00     0.016 C 
BRANCH   3   5
ATOM      5  C   UNL     1     151.727 158.611 202.788  1.00  0.00     0.015 C 
BRANCH   5   6
ATOM      6  C   UNL     1     153.228 158.253 202.687  1.00  0.00     0.028 C 
BRANCH   6   7
ATOM      7  C   UNL     1     153.472 156.938 201.991  1.00  0.00    -0.028 C 
ATOM      8  C   UNL     1     153.741 156.796 200.671  1.00  0.00    -0.070 CG0
ATOM      9  C   UNL     1     154.036 155.411 200.155  1.00  0.00     0.039 C 
ATOM     10  G   UNL     1     153.699 157.950 199.679  1.00  0.00     0.000 G0
ENDBRANCH   6   7
ENDBRANCH   5   6
ENDBRANCH   3   5
ENDBRANCH   1   3
BRANCH   1  11
ATOM     11  C   UNL     1     151.932 160.574 199.963  1.00  0.00     0.087 C 
BRANCH  11  12
ATOM     12  C   UNL     1     151.328 159.228 199.463  1.00  0.00     0.066 C 
BRANCH  12  13
ATOM     13  C   UNL     1     152.323 158.127 199.084  1.00  0.00     0.140 C 
ATOM     14  O   UNL     1     151.969 157.316 198.240  1.00  0.00    -0.299 OA
BRANCH  13  15
ATOM     15  C   UNL     1     153.711 157.962 199.665  1.00  0.00     0.106 CG0
ATOM     16  G   UNL     1     153.742 156.797 200.643  1.00  0.00     0.000 G0
ENDBRANCH  13  15
ENDBRANCH  12  13
BRANCH  12  17
ATOM     17  C   UNL     1     150.319 159.446 198.285  1.00  0.00    -0.006 C 
ATOM     18  C   UNL     1     148.970 160.020 198.753  1.00  0.00     0.008 C 
ATOM     19  C   UNL     1     150.895 160.299 197.142  1.00  0.00     0.008 C 
ENDBRANCH  12  17
ENDBRANCH  11  12
ENDBRANCH   1  11
TORSDOF 1
ENDMDL
MODEL 6
REMARK VINA RESULT:    -3.155      2.287      3.575
REMARK INTER + INTRA:          -4.591
REMARK INTER:                  -4.823
REMARK INTRA:                   0.232
REMARK UNBOUND:                 0.223
REMARK SMILES CC1=CCC[C@H](C)C(=O)C[C@@H](C(C)C)C(=O)C1
REMARK SMILES IDX 8 1 9 2 6 3 7 4 5 5 4 6 3 7 2 8 1 9 10 11 11 12 15 13 16 14
REMARK SMILES IDX 17 15 12 17 13 18 14 19
REMARK H PARENT
REMARK Flexibility Score: 70.00
ROOT
ATOM      1  C   UNL     1     152.754 160.789 201.597  1.00  0.00     0.136 C 
ATOM      2  O   UNL     1     152.605 161.928 202.017  1.00  0.00    -0.299 OA
ENDROOT
BRANCH   1   3
ATOM      3  C   UNL     1     151.509 159.925 201.461  1.00  0.00     0.053 C 
ATOM      4  C   UNL     1     150.942 159.494 202.821  1.00  0.00     0.016 C 
BRANCH   3   5
ATOM      5  C   UNL     1     150.437 160.563 200.553  1.00  0.00     0.015 C 
BRANCH   5   6
ATOM      6  C   UNL     1     150.408 159.932 199.142  1.00  0.00     0.028 C 
BRANCH   6   7
ATOM      7  C   UNL     1     151.245 160.690 198.143  1.00  0.00    -0.028 C 
ATOM      8  C   UNL     1     152.325 160.191 197.496  1.00  0.00    -0.070 CG0
ATOM      9  C   UNL     1     153.000 161.065 196.469  1.00  0.00     0.039 C 
ATOM     10  G   UNL     1     152.923 158.824 197.796  1.00  0.00     0.000 G0
ENDBRANCH   6   7
ENDBRANCH   5   6
ENDBRANCH   3   5
ENDBRANCH   1   3
BRANCH   1  11
ATOM     11  C   UNL     1     154.156 160.389 201.169  1.00  0.00     0.087 C 
BRANCH  11  12
ATOM     12  C   UNL     1     154.412 160.103 199.659  1.00  0.00     0.066 C 
BRANCH  12  13
ATOM     13  C   UNL     1     153.727 158.867 199.068  1.00  0.00     0.140 C 
ATOM     14  O   UNL     1     153.820 157.820 199.694  1.00  0.00    -0.299 OA
BRANCH  13  15
ATOM     15  C   UNL     1     152.940 158.835 197.777  1.00  0.00     0.106 CG0
ATOM     16  G   UNL     1     152.320 160.197 197.499  1.00  0.00     0.000 G0
ENDBRANCH  13  15
ENDBRANCH  12  13
BRANCH  12  17
ATOM     17  C   UNL     1     155.943 160.058 199.328  1.00  0.00    -0.006 C 
ATOM     18  C   UNL     1     156.368 161.142 198.323  1.00  0.00     0.008 C 
ATOM     19  C   UNL     1     156.837 160.109 200.579  1.00  0.00     0.008 C 
ENDBRANCH  12  17
ENDBRANCH  11  12
ENDBRANCH   1  11
TORSDOF 1
ENDMDL
MODEL 7
REMARK VINA RESULT:    -3.132      2.459      4.435
REMARK INTER + INTRA:          -4.557
REMARK INTER:                  -4.826
REMARK INTRA:                   0.270
REMARK UNBOUND:                 0.223
REMARK SMILES CC1=CCC[C@H](C)C(=O)C[C@@H](C(C)C)C(=O)C1
REMARK SMILES IDX 8 1 9 2 6 3 7 4 5 5 4 6 3 7 2 8 1 9 10 11 11 12 15 13 16 14
REMARK SMILES IDX 17 15 12 17 13 18 14 19
REMARK H PARENT
REMARK Flexibility Score: 70.00
ROOT
ATOM      1  C   UNL     1     155.556 160.234 200.087  1.00  0.00     0.136 C 
ATOM      2  O   UNL     1     155.677 160.883 199.058  1.00  0.00    -0.299 OA
ENDROOT
BRANCH   1   3
ATOM      3  C   UNL     1     156.472 159.032 200.269  1.00  0.00     0.053 C 
ATOM      4  C   UNL     1     157.932 159.348 199.916  1.00  0.00     0.016 C 
BRANCH   3   5
ATOM      5  C   UNL     1     156.331 158.382 201.661  1.00  0.00     0.015 C 
BRANCH   5   6
ATOM      6  C   UNL     1     155.620 157.010 201.601  1.00  0.00     0.028 C 
BRANCH   6   7
ATOM      7  C   UNL     1     154.327 156.986 202.376  1.00  0.00    -0.028 C 
ATOM      8  C   UNL     1     153.094 157.147 201.837  1.00  0.00    -0.070 CG0
ATOM      9  C   UNL     1     151.902 157.016 202.750  1.00  0.00     0.039 C 
ATOM     10  G   UNL     1     152.860 157.513 200.378  1.00  0.00     0.000 G0
ENDBRANCH   6   7
ENDBRANCH   5   6
ENDBRANCH   3   5
ENDBRANCH   1   3
BRANCH   1  11
ATOM     11  C   UNL     1     154.565 160.751 201.116  1.00  0.00     0.087 C 
BRANCH  11  12
ATOM     12  C   UNL     1     153.180 160.046 201.224  1.00  0.00     0.066 C 
BRANCH  12  13
ATOM     13  C   UNL     1     152.855 159.002 200.152  1.00  0.00     0.140 C 
ATOM     14  O   UNL     1     152.597 159.412 199.028  1.00  0.00    -0.299 OA
BRANCH  13  15
ATOM     15  C   UNL     1     152.831 157.505 200.365  1.00  0.00     0.106 CG0
ATOM     16  G   UNL     1     153.077 157.173 201.830  1.00  0.00     0.000 G0
ENDBRANCH  13  15
ENDBRANCH  12  13
BRANCH  12  17
ATOM     17  C   UNL     1     152.007 161.081 201.317  1.00  0.00    -0.006 C 
ATOM     18  C   UNL     1     150.641 160.414 201.551  1.00  0.00     0.008 C 
ATOM     19  C   UNL     1     152.250 162.183 202.363  1.00  0.00     0.008 C 
ENDBRANCH  12  17
ENDBRANCH  11  12
ENDBRANCH   1  11
TORSDOF 1
ENDMDL
MODEL 8
REMARK VINA RESULT:    -2.998      1.861      5.043
REMARK INTER + INTRA:          -4.351
REMARK INTER:                  -4.112
REMARK INTRA:                  -0.239
REMARK UNBOUND:                 0.223
REMARK SMILES CC1=CCC[C@H](C)C(=O)C[C@@H](C(C)C)C(=O)C1
REMARK SMILES IDX 8 1 9 2 6 3 7 4 5 5 4 6 3 7 2 8 1 9 10 11 11 12 15 13 16 14
REMARK SMILES IDX 17 15 12 17 13 18 14 19
REMARK H PARENT
REMARK Flexibility Score: 70.00
ROOT
ATOM      1  C   UNL     1     152.125 156.729 199.735  1.00  0.00     0.136 C 
ATOM      2  O   UNL     1     152.566 155.803 199.068  1.00  0.00    -0.299 OA
ENDROOT
BRANCH   1   3
ATOM      3  C   UNL     1     151.931 156.488 201.225  1.00  0.00     0.053 C 
ATOM      4  C   UNL     1     151.267 155.136 201.519  1.00  0.00     0.016 C 
BRANCH   3   5
ATOM      5  C   UNL     1     153.228 156.695 202.035  1.00  0.00     0.015 C 
BRANCH   5   6
ATOM      6  C   UNL     1     153.211 158.011 202.847  1.00  0.00     0.028 C 
BRANCH   6   7
ATOM      7  C   UNL     1     151.843 158.642 202.913  1.00  0.00    -0.028 C 
ATOM      8  C   UNL     1     151.484 159.785 202.280  1.00  0.00    -0.070 CG0
ATOM      9  C   UNL     1     150.049 160.233 202.393  1.00  0.00     0.039 C 
ATOM     10  G   UNL     1     152.464 160.664 201.518  1.00  0.00     0.000 G0
ENDBRANCH   6   7
ENDBRANCH   5   6
ENDBRANCH   3   5
ENDBRANCH   1   3
BRANCH   1  11
ATOM     11  C   UNL     1     151.903 158.051 199.019  1.00  0.00     0.087 C 
BRANCH  11  12
ATOM     12  C   UNL     1     152.904 159.213 199.290  1.00  0.00     0.066 C 
BRANCH  12  13
ATOM     13  C   UNL     1     152.352 160.440 200.022  1.00  0.00     0.140 C 
ATOM     14  O   UNL     1     151.776 161.284 199.349  1.00  0.00    -0.299 OA
BRANCH  13  15
ATOM     15  C   UNL     1     152.455 160.692 201.510  1.00  0.00     0.106 CG0
ATOM     16  G   UNL     1     151.487 159.796 202.269  1.00  0.00     0.000 G0
ENDBRANCH  13  15
ENDBRANCH  12  13
BRANCH  12  17
ATOM     17  C   UNL     1     153.630 159.671 197.979  1.00  0.00    -0.006 C 
ATOM     18  C   UNL     1     154.906 160.484 198.257  1.00  0.00     0.008 C 
ATOM     19  C   UNL     1     153.935 158.511 197.016  1.00  0.00     0.008 C 
ENDBRANCH  12  17
ENDBRANCH  11  12
ENDBRANCH   1  11
TORSDOF 1
ENDMDL
MODEL 9
REMARK VINA RESULT:    -2.956      1.638      2.118
REMARK INTER + INTRA:          -4.287
REMARK INTER:                  -4.290
REMARK INTRA:                   0.002
REMARK UNBOUND:                 0.223
REMARK SMILES CC1=CCC[C@H](C)C(=O)C[C@@H](C(C)C)C(=O)C1
REMARK SMILES IDX 8 1 9 2 6 3 7 4 5 5 4 6 3 7 2 8 1 9 10 11 11 12 15 13 16 14
REMARK SMILES IDX 17 15 12 17 13 18 14 19
REMARK H PARENT
REMARK Flexibility Score: 70.00
ROOT
ATOM      1  C   UNL     1     151.670 159.100 201.882  1.00  0.00     0.136 C 
ATOM      2  O   UNL     1     151.507 158.789 203.054  1.00  0.00    -0.299 OA
ENDROOT
BRANCH   1   3
ATOM      3  C   UNL     1     151.327 160.528 201.482  1.00  0.00     0.053 C 
ATOM      4  C   UNL     1     152.259 161.559 202.134  1.00  0.00     0.016 C 
BRANCH   3   5
ATOM      5  C   UNL     1     151.226 160.710 199.954  1.00  0.00     0.015 C 
BRANCH   5   6
ATOM      6  C   UNL     1     152.608 160.931 199.295  1.00  0.00     0.028 C 
BRANCH   6   7
ATOM      7  C   UNL     1     152.819 160.075 198.072  1.00  0.00    -0.028 C 
ATOM      8  C   UNL     1     153.801 159.152 197.930  1.00  0.00    -0.070 CG0
ATOM      9  C   UNL     1     153.818 158.328 196.668  1.00  0.00     0.039 C 
ATOM     10  G   UNL     1     154.915 158.951 198.947  1.00  0.00     0.000 G0
ENDBRANCH   6   7
ENDBRANCH   5   6
ENDBRANCH   3   5
ENDBRANCH   1   3
BRANCH   1  11
ATOM     11  C   UNL     1     152.282 158.052 200.968  1.00  0.00     0.087 C 
BRANCH  11  12
ATOM     12  C   UNL     1     153.803 157.747 201.111  1.00  0.00     0.066 C 
BRANCH  12  13
ATOM     13  C   UNL     1     154.624 157.726 199.818  1.00  0.00     0.140 C 
ATOM     14  O   UNL     1     155.070 156.647 199.453  1.00  0.00    -0.299 OA
BRANCH  13  15
ATOM     15  C   UNL     1     154.925 158.930 198.952  1.00  0.00     0.106 CG0
ATOM     16  G   UNL     1     153.810 159.148 197.939  1.00  0.00     0.000 G0
ENDBRANCH  13  15
ENDBRANCH  12  13
BRANCH  12  17
ATOM     17  C   UNL     1     154.059 156.426 201.912  1.00  0.00    -0.006 C 
ATOM     18  C   UNL     1     154.760 156.670 203.259  1.00  0.00     0.008 C 
ATOM     19  C   UNL     1     152.787 155.584 202.116  1.00  0.00     0.008 C 
ENDBRANCH  12  17
ENDBRANCH  11  12
ENDBRANCH   1  11
TORSDOF 1
ENDMDL
