MODEL 1
REMARK VINA RESULT:    -3.942      0.000      0.000
REMARK INTER + INTRA:          -4.648
REMARK INTER:                  -4.633
REMARK INTRA:                  -0.015
REMARK UNBOUND:                -0.015
REMARK SMILES O=C([O-])CCC(=O)[O-]
REMARK SMILES IDX 4 1 2 2 1 3 3 4 5 5 6 6 7 7 8 8
REMARK H PARENT
REMARK Flexibility Score: inf
ROOT
ATOM      1  C   UNL     1      24.897 -22.020 -25.766  1.00  0.00     0.059 C 
ENDROOT
BRANCH   1   2
ATOM      2  C   UNL     1      26.096 -21.952 -26.661  1.00  0.00     0.042 C 
ATOM      3  O   UNL     1      25.970 -22.125 -27.902  1.00  0.00    -0.550 OA
ATOM      4  O   UNL     1      27.358 -21.740 -26.120  1.00  0.00    -0.550 OA
ENDBRANCH   1   2
BRANCH   1   5
ATOM      5  C   UNL     1      24.452 -20.627 -25.309  1.00  0.00     0.059 C 
BRANCH   5   6
ATOM      6  C   UNL     1      24.476 -19.641 -26.437  1.00  0.00     0.042 C 
ATOM      7  O   UNL     1      23.597 -19.689 -27.337  1.00  0.00    -0.550 OA
ATOM      8  O   UNL     1      25.492 -18.696 -26.515  1.00  0.00    -0.550 OA
ENDBRANCH   5   6
ENDBRANCH   1   5
TORSDOF 3
ENDMDL
MODEL 2
REMARK VINA RESULT:    -3.860      0.187      3.151
REMARK INTER + INTRA:          -4.551
REMARK INTER:                  -4.499
REMARK INTRA:                  -0.052
REMARK UNBOUND:                -0.015
REMARK SMILES O=C([O-])CCC(=O)[O-]
REMARK SMILES IDX 4 1 2 2 1 3 3 4 5 5 6 6 7 7 8 8
REMARK H PARENT
REMARK Flexibility Score: inf
ROOT
ATOM      1  C   UNL     1      24.388 -20.658 -25.254  1.00  0.00     0.059 C 
ENDROOT
BRANCH   1   2
ATOM      2  C   UNL     1      24.386 -19.678 -26.386  1.00  0.00     0.042 C 
ATOM      3  O   UNL     1      23.477 -19.718 -27.257  1.00  0.00    -0.550 OA
ATOM      4  O   UNL     1      25.410 -18.746 -26.503  1.00  0.00    -0.550 OA
ENDBRANCH   1   2
BRANCH   1   5
ATOM      5  C   UNL     1      24.740 -22.071 -25.729  1.00  0.00     0.059 C 
BRANCH   5   6
ATOM      6  C   UNL     1      25.949 -22.071 -26.614  1.00  0.00     0.042 C 
ATOM      7  O   UNL     1      27.101 -21.985 -26.112  1.00  0.00    -0.550 OA
ATOM      8  O   UNL     1      25.801 -22.125 -27.995  1.00  0.00    -0.550 OA
ENDBRANCH   5   6
ENDBRANCH   1   5
TORSDOF 3
ENDMDL
MODEL 3
REMARK VINA RESULT:    -3.724      1.886      3.244
REMARK INTER + INTRA:          -4.392
REMARK INTER:                  -4.358
REMARK INTRA:                  -0.034
REMARK UNBOUND:                -0.015
REMARK SMILES O=C([O-])CCC(=O)[O-]
REMARK SMILES IDX 4 1 2 2 1 3 3 4 5 5 6 6 7 7 8 8
REMARK H PARENT
REMARK Flexibility Score: inf
ROOT
ATOM      1  C   UNL     1      25.201 -19.155 -26.503  1.00  0.00     0.059 C 
ENDROOT
BRANCH   1   2
ATOM      2  C   UNL     1      26.570 -18.762 -26.967  1.00  0.00     0.042 C 
ATOM      3  O   UNL     1      27.360 -19.632 -27.418  1.00  0.00    -0.550 OA
ATOM      4  O   UNL     1      26.988 -17.441 -26.863  1.00  0.00    -0.550 OA
ENDBRANCH   1   2
BRANCH   1   5
ATOM      5  C   UNL     1      24.784 -20.518 -27.063  1.00  0.00     0.059 C 
BRANCH   5   6
ATOM      6  C   UNL     1      24.972 -21.611 -26.056  1.00  0.00     0.042 C 
ATOM      7  O   UNL     1      26.109 -22.125 -25.885  1.00  0.00    -0.550 OA
ATOM      8  O   UNL     1      23.884 -22.091 -25.336  1.00  0.00    -0.550 OA
ENDBRANCH   5   6
ENDBRANCH   1   5
TORSDOF 3
ENDMDL
MODEL 4
REMARK VINA RESULT:    -3.144     14.824     16.222
REMARK INTER + INTRA:          -3.710
REMARK INTER:                  -3.647
REMARK INTRA:                  -0.063
REMARK UNBOUND:                -0.015
REMARK SMILES O=C([O-])CCC(=O)[O-]
REMARK SMILES IDX 4 1 2 2 1 3 3 4 5 5 6 6 7 7 8 8
REMARK H PARENT
REMARK Flexibility Score: inf
ROOT
ATOM      1  C   UNL     1      14.677  -8.896 -29.804  1.00  0.00     0.059 C 
ENDROOT
BRANCH   1   2
ATOM      2  C   UNL     1      15.484  -7.644 -29.957  1.00  0.00     0.042 C 
ATOM      3  O   UNL     1      16.727  -7.711 -30.149  1.00  0.00    -0.550 OA
ATOM      4  O   UNL     1      14.872  -6.402 -29.845  1.00  0.00    -0.550 OA
ENDBRANCH   1   2
BRANCH   1   5
ATOM      5  C   UNL     1      15.338  -9.881 -28.835  1.00  0.00     0.059 C 
BRANCH   5   6
ATOM      6  C   UNL     1      14.483 -10.130 -27.630  1.00  0.00     0.042 C 
ATOM      7  O   UNL     1      13.301  -9.696 -27.592  1.00  0.00    -0.550 OA
ATOM      8  O   UNL     1      15.005 -10.804 -26.532  1.00  0.00    -0.550 OA
ENDBRANCH   5   6
ENDBRANCH   1   5
TORSDOF 3
ENDMDL
MODEL 5
REMARK VINA RESULT:    -3.133     14.806     16.058
REMARK INTER + INTRA:          -3.697
REMARK INTER:                  -3.643
REMARK INTRA:                  -0.054
REMARK UNBOUND:                -0.015
REMARK SMILES O=C([O-])CCC(=O)[O-]
REMARK SMILES IDX 4 1 2 2 1 3 3 4 5 5 6 6 7 7 8 8
REMARK H PARENT
REMARK Flexibility Score: inf
ROOT
ATOM      1  C   UNL     1      15.364  -9.814 -28.794  1.00  0.00     0.059 C 
ENDROOT
BRANCH   1   2
ATOM      2  C   UNL     1      14.513 -10.162 -27.612  1.00  0.00     0.042 C 
ATOM      3  O   UNL     1      13.303  -9.816 -27.578  1.00  0.00    -0.550 OA
ATOM      4  O   UNL     1      15.067 -10.832 -26.528  1.00  0.00    -0.550 OA
ENDBRANCH   1   2
BRANCH   1   5
ATOM      5  C   UNL     1      14.622  -8.902 -29.776  1.00  0.00     0.059 C 
BRANCH   5   6
ATOM      6  C   UNL     1      15.512  -7.820 -30.307  1.00  0.00     0.042 C 
ATOM      7  O   UNL     1      16.734  -7.802 -30.006  1.00  0.00    -0.550 OA
ATOM      8  O   UNL     1      14.982  -6.808 -31.099  1.00  0.00    -0.550 OA
ENDBRANCH   5   6
ENDBRANCH   1   5
TORSDOF 3
ENDMDL
MODEL 6
REMARK VINA RESULT:    -3.107      1.683      3.102
REMARK INTER + INTRA:          -3.667
REMARK INTER:                  -3.808
REMARK INTRA:                   0.141
REMARK UNBOUND:                -0.015
REMARK SMILES O=C([O-])CCC(=O)[O-]
REMARK SMILES IDX 4 1 2 2 1 3 3 4 5 5 6 6 7 7 8 8
REMARK H PARENT
REMARK Flexibility Score: inf
ROOT
ATOM      1  C   UNL     1      25.312 -21.802 -26.904  1.00  0.00     0.059 C 
ENDROOT
BRANCH   1   2
ATOM      2  C   UNL     1      24.358 -20.890 -26.195  1.00  0.00     0.042 C 
ATOM      3  O   UNL     1      24.283 -20.906 -24.938  1.00  0.00    -0.550 OA
ATOM      4  O   UNL     1      23.523 -20.053 -26.924  1.00  0.00    -0.550 OA
ENDBRANCH   1   2
BRANCH   1   5
ATOM      5  C   UNL     1      26.767 -21.501 -26.531  1.00  0.00     0.059 C 
BRANCH   5   6
ATOM      6  C   UNL     1      27.246 -20.227 -27.157  1.00  0.00     0.042 C 
ATOM      7  O   UNL     1      28.226 -20.241 -27.948  1.00  0.00    -0.550 OA
ATOM      8  O   UNL     1      26.637 -19.020 -26.835  1.00  0.00    -0.550 OA
ENDBRANCH   5   6
ENDBRANCH   1   5
TORSDOF 3
ENDMDL
MODEL 7
REMARK VINA RESULT:    -3.045     15.703     16.633
REMARK INTER + INTRA:          -3.594
REMARK INTER:                  -3.493
REMARK INTRA:                  -0.101
REMARK UNBOUND:                -0.015
REMARK SMILES O=C([O-])CCC(=O)[O-]
REMARK SMILES IDX 4 1 2 2 1 3 3 4 5 5 6 6 7 7 8 8
REMARK H PARENT
REMARK Flexibility Score: inf
ROOT
ATOM      1  C   UNL     1      15.261  -9.327 -29.470  1.00  0.00     0.059 C 
ENDROOT
BRANCH   1   2
ATOM      2  C   UNL     1      14.088  -9.143 -28.559  1.00  0.00     0.042 C 
ATOM      3  O   UNL     1      13.643 -10.115 -27.893  1.00  0.00    -0.550 OA
ATOM      4  O   UNL     1      13.458  -7.907 -28.474  1.00  0.00    -0.550 OA
ENDBRANCH   1   2
BRANCH   1   5
ATOM      5  C   UNL     1      15.377  -8.183 -30.483  1.00  0.00     0.059 C 
BRANCH   5   6
ATOM      6  C   UNL     1      16.447  -7.208 -30.095  1.00  0.00     0.042 C 
ATOM      7  O   UNL     1      17.661  -7.530 -30.192  1.00  0.00    -0.550 OA
ATOM      8  O   UNL     1      16.102  -5.961 -29.588  1.00  0.00    -0.550 OA
ENDBRANCH   5   6
ENDBRANCH   1   5
TORSDOF 3
ENDMDL
MODEL 8
REMARK VINA RESULT:    -3.019     15.717     16.596
REMARK INTER + INTRA:          -3.563
REMARK INTER:                  -3.450
REMARK INTRA:                  -0.113
REMARK UNBOUND:                -0.015
REMARK SMILES O=C([O-])CCC(=O)[O-]
REMARK SMILES IDX 4 1 2 2 1 3 3 4 5 5 6 6 7 7 8 8
REMARK H PARENT
REMARK Flexibility Score: inf
ROOT
ATOM      1  C   UNL     1      15.464  -8.167 -30.534  1.00  0.00     0.059 C 
ENDROOT
BRANCH   1   2
ATOM      2  C   UNL     1      16.574  -7.215 -30.210  1.00  0.00     0.042 C 
ATOM      3  O   UNL     1      17.764  -7.507 -30.503  1.00  0.00    -0.550 OA
ATOM      4  O   UNL     1      16.301  -6.025 -29.548  1.00  0.00    -0.550 OA
ENDBRANCH   1   2
BRANCH   1   5
ATOM      5  C   UNL     1      15.341  -9.272 -29.481  1.00  0.00     0.059 C 
BRANCH   5   6
ATOM      6  C   UNL     1      14.111  -9.103 -28.642  1.00  0.00     0.042 C 
ATOM      7  O   UNL     1      13.628 -10.086 -28.021  1.00  0.00    -0.550 OA
ATOM      8  O   UNL     1      13.476  -7.868 -28.579  1.00  0.00    -0.550 OA
ENDBRANCH   5   6
ENDBRANCH   1   5
TORSDOF 3
ENDMDL
