MODEL 1
REMARK VINA RESULT:    -1.859      0.000      0.000
REMARK INTER + INTRA:          -1.859
REMARK INTER:                  -1.859
REMARK INTRA:                   0.000
REMARK UNBOUND:                 0.000
REMARK SMILES CC(=O)[O-]
REMARK SMILES IDX 1 1 2 2 3 3 4 4
REMARK H PARENT
REMARK Flexibility Score: inf
ROOT
ATOM      1  C   UNL     1      63.709  35.994  61.700  1.00  0.00     0.063 C 
ATOM      2  C   UNL     1      64.952  35.941  62.522  1.00  0.00     0.038 C 
ATOM      3  O   UNL     1      64.895  36.125  63.766  1.00  0.00    -0.550 OA
ATOM      4  O   UNL     1      66.168  35.633  61.925  1.00  0.00    -0.550 OA
ENDROOT
TORSDOF 0
ENDMDL
MODEL 2
REMARK VINA RESULT:    -1.756      1.606      2.130
REMARK INTER + INTRA:          -1.756
REMARK INTER:                  -1.756
REMARK INTRA:                   0.000
REMARK UNBOUND:                 0.000
REMARK SMILES CC(=O)[O-]
REMARK SMILES IDX 1 1 2 2 3 3 4 4
REMARK H PARENT
REMARK Flexibility Score: inf
ROOT
ATOM      1  C   UNL     1      63.577  35.390  61.010  1.00  0.00     0.063 C 
ATOM      2  C   UNL     1      64.851  34.713  61.387  1.00  0.00     0.038 C 
ATOM      3  O   UNL     1      65.066  33.527  61.025  1.00  0.00    -0.550 OA
ATOM      4  O   UNL     1      65.825  35.407  62.091  1.00  0.00    -0.550 OA
ENDROOT
TORSDOF 0
ENDMDL
MODEL 3
REMARK VINA RESULT:    -1.753     19.210     19.723
REMARK INTER + INTRA:          -1.753
REMARK INTER:                  -1.753
REMARK INTRA:                   0.000
REMARK UNBOUND:                 0.000
REMARK SMILES CC(=O)[O-]
REMARK SMILES IDX 1 1 2 2 3 3 4 4
REMARK H PARENT
REMARK Flexibility Score: inf
ROOT
ATOM      1  C   UNL     1      54.017  27.329  49.442  1.00  0.00     0.063 C 
ATOM      2  C   UNL     1      54.526  25.993  49.017  1.00  0.00     0.038 C 
ATOM      3  O   UNL     1      53.931  25.349  48.114  1.00  0.00    -0.550 OA
ATOM      4  O   UNL     1      55.688  25.481  49.578  1.00  0.00    -0.550 OA
ENDROOT
TORSDOF 0
ENDMDL
MODEL 4
REMARK VINA RESULT:    -1.743      9.848     10.364
REMARK INTER + INTRA:          -1.743
REMARK INTER:                  -1.743
REMARK INTRA:                   0.000
REMARK UNBOUND:                 0.000
REMARK SMILES CC(=O)[O-]
REMARK SMILES IDX 1 1 2 2 3 3 4 4
REMARK H PARENT
REMARK Flexibility Score: inf
ROOT
ATOM      1  C   UNL     1      74.125  30.214  62.958  1.00  0.00     0.063 C 
ATOM      2  C   UNL     1      73.343  30.394  61.700  1.00  0.00     0.038 C 
ATOM      3  O   UNL     1      73.874  30.946  60.701  1.00  0.00    -0.550 OA
ATOM      4  O   UNL     1      72.047  29.905  61.611  1.00  0.00    -0.550 OA
ENDROOT
TORSDOF 0
ENDMDL
MODEL 5
REMARK VINA RESULT:    -1.729     10.040     10.335
REMARK INTER + INTRA:          -1.729
REMARK INTER:                  -1.729
REMARK INTRA:                   0.000
REMARK UNBOUND:                 0.000
REMARK SMILES CC(=O)[O-]
REMARK SMILES IDX 1 1 2 2 3 3 4 4
REMARK H PARENT
REMARK Flexibility Score: inf
ROOT
ATOM      1  C   UNL     1      72.100  29.888  61.513  1.00  0.00     0.063 C 
ATOM      2  C   UNL     1      73.504  30.375  61.639  1.00  0.00     0.038 C 
ATOM      3  O   UNL     1      74.116  30.807  60.627  1.00  0.00    -0.550 OA
ATOM      4  O   UNL     1      74.121  30.406  62.883  1.00  0.00    -0.550 OA
ENDROOT
TORSDOF 0
ENDMDL
MODEL 6
REMARK VINA RESULT:    -1.714      9.720     10.182
REMARK INTER + INTRA:          -1.714
REMARK INTER:                  -1.714
REMARK INTRA:                   0.000
REMARK UNBOUND:                 0.000
REMARK SMILES CC(=O)[O-]
REMARK SMILES IDX 1 1 2 2 3 3 4 4
REMARK H PARENT
REMARK Flexibility Score: inf
ROOT
ATOM      1  C   UNL     1      73.787  30.498  60.287  1.00  0.00     0.063 C 
ATOM      2  C   UNL     1      73.171  30.288  61.629  1.00  0.00     0.038 C 
ATOM      3  O   UNL     1      71.942  30.040  61.727  1.00  0.00    -0.550 OA
ATOM      4  O   UNL     1      73.964  30.311  62.769  1.00  0.00    -0.550 OA
ENDROOT
TORSDOF 0
ENDMDL
MODEL 7
REMARK VINA RESULT:    -1.680      8.774      9.442
REMARK INTER + INTRA:          -1.680
REMARK INTER:                  -1.680
REMARK INTRA:                   0.000
REMARK UNBOUND:                 0.000
REMARK SMILES CC(=O)[O-]
REMARK SMILES IDX 1 1 2 2 3 3 4 4
REMARK H PARENT
REMARK Flexibility Score: inf
ROOT
ATOM      1  C   UNL     1      72.387  32.612  60.416  1.00  0.00     0.063 C 
ATOM      2  C   UNL     1      72.822  31.244  60.819  1.00  0.00     0.038 C 
ATOM      3  O   UNL     1      74.015  30.883  60.642  1.00  0.00    -0.550 OA
ATOM      4  O   UNL     1      71.926  30.385  61.442  1.00  0.00    -0.550 OA
ENDROOT
TORSDOF 0
ENDMDL
MODEL 8
REMARK VINA RESULT:    -1.666     23.866     24.327
REMARK INTER + INTRA:          -1.666
REMARK INTER:                  -1.666
REMARK INTRA:                   0.000
REMARK UNBOUND:                 0.000
REMARK SMILES CC(=O)[O-]
REMARK SMILES IDX 1 1 2 2 3 3 4 4
REMARK H PARENT
REMARK Flexibility Score: inf
ROOT
ATOM      1  C   UNL     1      57.650  17.392  49.985  1.00  0.00     0.063 C 
ATOM      2  C   UNL     1      58.606  16.543  49.218  1.00  0.00     0.038 C 
ATOM      3  O   UNL     1      58.331  16.189  48.042  1.00  0.00    -0.550 OA
ATOM      4  O   UNL     1      59.825  16.186  49.780  1.00  0.00    -0.550 OA
ENDROOT
TORSDOF 0
ENDMDL
MODEL 9
REMARK VINA RESULT:    -1.659      8.931      9.574
REMARK INTER + INTRA:          -1.659
REMARK INTER:                  -1.659
REMARK INTRA:                   0.000
REMARK UNBOUND:                 0.000
REMARK SMILES CC(=O)[O-]
REMARK SMILES IDX 1 1 2 2 3 3 4 4
REMARK H PARENT
REMARK Flexibility Score: inf
ROOT
ATOM      1  C   UNL     1      71.945  30.144  61.411  1.00  0.00     0.063 C 
ATOM      2  C   UNL     1      72.919  31.141  60.881  1.00  0.00     0.038 C 
ATOM      3  O   UNL     1      74.077  30.777  60.550  1.00  0.00    -0.550 OA
ATOM      4  O   UNL     1      72.532  32.462  60.699  1.00  0.00    -0.550 OA
ENDROOT
TORSDOF 0
ENDMDL
