MODEL 1
REMARK VINA RESULT:    -4.350      0.000      0.000
REMARK INTER + INTRA:          -4.951
REMARK INTER:                  -4.732
REMARK INTRA:                  -0.219
REMARK UNBOUND:                -0.219
REMARK SMILES O=C([O-])c1ccccc1O
REMARK SMILES IDX 4 1 9 2 5 3 8 4 6 5 7 6 2 7 1 8 3 9 10 10
REMARK H PARENT 10 11
REMARK Flexibility Score: inf
ROOT
ATOM      1  C   UNL     1     -20.110  32.426  -3.205  1.00  0.00     0.039 A 
ATOM      2  C   UNL     1     -19.194  32.896  -4.176  1.00  0.00     0.124 A 
ATOM      3  C   UNL     1     -19.622  31.675  -2.119  1.00  0.00     0.014 A 
ATOM      4  C   UNL     1     -17.827  32.610  -4.043  1.00  0.00     0.047 A 
ATOM      5  C   UNL     1     -18.258  31.398  -1.998  1.00  0.00     0.001 A 
ATOM      6  C   UNL     1     -17.362  31.865  -2.959  1.00  0.00     0.004 A 
ENDROOT
BRANCH   1   7
ATOM      7  C   UNL     1     -21.566  32.702  -3.300  1.00  0.00     0.075 C 
ATOM      8  O   UNL     1     -22.256  32.239  -4.246  1.00  0.00    -0.545 OA
ATOM      9  O   UNL     1     -22.196  33.483  -2.336  1.00  0.00    -0.545 OA
ENDBRANCH   1   7
BRANCH   2  10
ATOM     10  O   UNL     1     -19.633  33.644  -5.269  1.00  0.00    -0.507 OA
ATOM     11  H   UNL     1     -20.184  33.229  -6.011  1.00  0.00     0.293 HD
ENDBRANCH   2  10
TORSDOF 2
ENDMDL
MODEL 2
REMARK VINA RESULT:    -4.317      2.877      3.637
REMARK INTER + INTRA:          -4.915
REMARK INTER:                  -4.664
REMARK INTRA:                  -0.250
REMARK UNBOUND:                -0.219
REMARK SMILES O=C([O-])c1ccccc1O
REMARK SMILES IDX 4 1 9 2 5 3 8 4 6 5 7 6 2 7 1 8 3 9 10 10
REMARK H PARENT 10 11
REMARK Flexibility Score: inf
ROOT
ATOM      1  C   UNL     1     -22.434  32.419  -1.722  1.00  0.00     0.039 A 
ATOM      2  C   UNL     1     -22.091  31.055  -1.561  1.00  0.00     0.124 A 
ATOM      3  C   UNL     1     -21.475  33.301  -2.254  1.00  0.00     0.014 A 
ATOM      4  C   UNL     1     -20.814  30.607  -1.930  1.00  0.00     0.047 A 
ATOM      5  C   UNL     1     -20.206  32.843  -2.617  1.00  0.00     0.001 A 
ATOM      6  C   UNL     1     -19.877  31.497  -2.455  1.00  0.00     0.004 A 
ENDROOT
BRANCH   1   7
ATOM      7  C   UNL     1     -23.773  32.942  -1.348  1.00  0.00     0.075 C 
ATOM      8  O   UNL     1     -24.827  32.376  -1.741  1.00  0.00    -0.545 OA
ATOM      9  O   UNL     1     -23.884  34.075  -0.549  1.00  0.00    -0.545 OA
ENDBRANCH   1   7
BRANCH   2  10
ATOM     10  O   UNL     1     -23.010  30.145  -1.039  1.00  0.00    -0.507 OA
ATOM     11  H   UNL     1     -23.797  29.810  -1.583  1.00  0.00     0.293 HD
ENDBRANCH   2  10
TORSDOF 2
ENDMDL
MODEL 3
REMARK VINA RESULT:    -4.222      1.349      1.766
REMARK INTER + INTRA:          -4.812
REMARK INTER:                  -4.560
REMARK INTRA:                  -0.251
REMARK UNBOUND:                -0.219
REMARK SMILES O=C([O-])c1ccccc1O
REMARK SMILES IDX 4 1 9 2 5 3 8 4 6 5 7 6 2 7 1 8 3 9 10 10
REMARK H PARENT 10 11
REMARK Flexibility Score: inf
ROOT
ATOM      1  C   UNL     1     -20.734  32.038  -2.502  1.00  0.00     0.039 A 
ATOM      2  C   UNL     1     -20.685  32.829  -3.675  1.00  0.00     0.124 A 
ATOM      3  C   UNL     1     -19.544  31.457  -2.026  1.00  0.00     0.014 A 
ATOM      4  C   UNL     1     -19.465  33.019  -4.339  1.00  0.00     0.047 A 
ATOM      5  C   UNL     1     -18.334  31.654  -2.697  1.00  0.00     0.001 A 
ATOM      6  C   UNL     1     -18.295  32.435  -3.853  1.00  0.00     0.004 A 
ENDROOT
BRANCH   1   7
ATOM      7  C   UNL     1     -22.001  31.807  -1.762  1.00  0.00     0.075 C 
ATOM      8  O   UNL     1     -22.282  30.673  -1.292  1.00  0.00    -0.545 OA
ATOM      9  O   UNL     1     -22.904  32.848  -1.574  1.00  0.00    -0.545 OA
ENDBRANCH   1   7
BRANCH   2  10
ATOM     10  O   UNL     1     -21.841  33.425  -4.183  1.00  0.00    -0.507 OA
ATOM     11  H   UNL     1     -22.094  34.378  -3.950  1.00  0.00     0.293 HD
ENDBRANCH   2  10
TORSDOF 2
ENDMDL
MODEL 4
REMARK VINA RESULT:    -4.096      1.672      3.416
REMARK INTER + INTRA:          -4.674
REMARK INTER:                  -4.442
REMARK INTRA:                  -0.232
REMARK UNBOUND:                -0.219
REMARK SMILES O=C([O-])c1ccccc1O
REMARK SMILES IDX 4 1 9 2 5 3 8 4 6 5 7 6 2 7 1 8 3 9 10 10
REMARK H PARENT 10 11
REMARK Flexibility Score: inf
ROOT
ATOM      1  C   UNL     1     -20.308  31.844  -3.020  1.00  0.00     0.039 A 
ATOM      2  C   UNL     1     -21.601  32.411  -3.117  1.00  0.00     0.124 A 
ATOM      3  C   UNL     1     -20.085  30.820  -2.080  1.00  0.00     0.014 A 
ATOM      4  C   UNL     1     -22.631  31.951  -2.283  1.00  0.00     0.047 A 
ATOM      5  C   UNL     1     -21.120  30.370  -1.256  1.00  0.00     0.001 A 
ATOM      6  C   UNL     1     -22.391  30.935  -1.357  1.00  0.00     0.004 A 
ENDROOT
BRANCH   1   7
ATOM      7  C   UNL     1     -19.185  32.296  -3.880  1.00  0.00     0.075 C 
ATOM      8  O   UNL     1     -19.387  32.702  -5.055  1.00  0.00    -0.545 OA
ATOM      9  O   UNL     1     -17.881  32.279  -3.397  1.00  0.00    -0.545 OA
ENDBRANCH   1   7
BRANCH   2  10
ATOM     10  O   UNL     1     -21.867  33.428  -4.035  1.00  0.00    -0.507 OA
ATOM     11  H   UNL     1     -22.458  33.274  -4.844  1.00  0.00     0.293 HD
ENDBRANCH   2  10
TORSDOF 2
ENDMDL
MODEL 5
REMARK VINA RESULT:    -3.989      2.282      4.167
REMARK INTER + INTRA:          -4.558
REMARK INTER:                  -4.311
REMARK INTRA:                  -0.246
REMARK UNBOUND:                -0.219
REMARK SMILES O=C([O-])c1ccccc1O
REMARK SMILES IDX 4 1 9 2 5 3 8 4 6 5 7 6 2 7 1 8 3 9 10 10
REMARK H PARENT 10 11
REMARK Flexibility Score: inf
ROOT
ATOM      1  C   UNL     1     -20.613  32.336  -2.420  1.00  0.00     0.039 A 
ATOM      2  C   UNL     1     -21.378  31.208  -2.039  1.00  0.00     0.124 A 
ATOM      3  C   UNL     1     -21.137  33.622  -2.186  1.00  0.00     0.014 A 
ATOM      4  C   UNL     1     -22.634  31.385  -1.440  1.00  0.00     0.047 A 
ATOM      5  C   UNL     1     -22.389  33.784  -1.588  1.00  0.00     0.001 A 
ATOM      6  C   UNL     1     -23.137  32.667  -1.215  1.00  0.00     0.004 A 
ENDROOT
BRANCH   1   7
ATOM      7  C   UNL     1     -19.278  32.202  -3.057  1.00  0.00     0.075 C 
ATOM      8  O   UNL     1     -18.363  31.528  -2.515  1.00  0.00    -0.545 OA
ATOM      9  O   UNL     1     -19.016  32.824  -4.273  1.00  0.00    -0.545 OA
ENDBRANCH   1   7
BRANCH   2  10
ATOM     10  O   UNL     1     -20.898  29.915  -2.252  1.00  0.00    -0.507 OA
ATOM     11  H   UNL     1     -21.216  29.351  -3.032  1.00  0.00     0.293 HD
ENDBRANCH   2  10
TORSDOF 2
ENDMDL
MODEL 6
REMARK VINA RESULT:    -3.982      3.059      4.374
REMARK INTER + INTRA:          -4.551
REMARK INTER:                  -4.302
REMARK INTRA:                  -0.248
REMARK UNBOUND:                -0.219
REMARK SMILES O=C([O-])c1ccccc1O
REMARK SMILES IDX 4 1 9 2 5 3 8 4 6 5 7 6 2 7 1 8 3 9 10 10
REMARK H PARENT 10 11
REMARK Flexibility Score: inf
ROOT
ATOM      1  C   UNL     1     -17.144  31.736  -4.058  1.00  0.00     0.039 A 
ATOM      2  C   UNL     1     -16.448  30.783  -3.277  1.00  0.00     0.124 A 
ATOM      3  C   UNL     1     -18.320  32.310  -3.539  1.00  0.00     0.014 A 
ATOM      4  C   UNL     1     -16.934  30.427  -2.010  1.00  0.00     0.047 A 
ATOM      5  C   UNL     1     -18.793  31.947  -2.275  1.00  0.00     0.001 A 
ATOM      6  C   UNL     1     -18.101  31.007  -1.512  1.00  0.00     0.004 A 
ENDROOT
BRANCH   1   7
ATOM      7  C   UNL     1     -16.670  32.146  -5.404  1.00  0.00     0.075 C 
ATOM      8  O   UNL     1     -15.491  32.550  -5.584  1.00  0.00    -0.545 OA
ATOM      9  O   UNL     1     -17.528  32.089  -6.497  1.00  0.00    -0.545 OA
ENDBRANCH   1   7
BRANCH   2  10
ATOM     10  O   UNL     1     -15.278  30.188  -3.752  1.00  0.00    -0.507 OA
ATOM     11  H   UNL     1     -14.498  29.983  -3.138  1.00  0.00     0.293 HD
ENDBRANCH   2  10
TORSDOF 2
ENDMDL
MODEL 7
REMARK VINA RESULT:    -3.971      2.339      4.475
REMARK INTER + INTRA:          -4.539
REMARK INTER:                  -4.356
REMARK INTRA:                  -0.182
REMARK UNBOUND:                -0.219
REMARK SMILES O=C([O-])c1ccccc1O
REMARK SMILES IDX 4 1 9 2 5 3 8 4 6 5 7 6 2 7 1 8 3 9 10 10
REMARK H PARENT 10 11
REMARK Flexibility Score: inf
ROOT
ATOM      1  C   UNL     1     -21.840  32.499  -2.388  1.00  0.00     0.039 A 
ATOM      2  C   UNL     1     -22.445  33.530  -1.630  1.00  0.00     0.124 A 
ATOM      3  C   UNL     1     -22.609  31.370  -2.732  1.00  0.00     0.014 A 
ATOM      4  C   UNL     1     -23.786  33.414  -1.236  1.00  0.00     0.047 A 
ATOM      5  C   UNL     1     -23.944  31.267  -2.333  1.00  0.00     0.001 A 
ATOM      6  C   UNL     1     -24.531  32.288  -1.586  1.00  0.00     0.004 A 
ENDROOT
BRANCH   1   7
ATOM      7  C   UNL     1     -20.424  32.574  -2.830  1.00  0.00     0.075 C 
ATOM      8  O   UNL     1     -20.066  33.377  -3.732  1.00  0.00    -0.545 OA
ATOM      9  O   UNL     1     -19.464  31.753  -2.249  1.00  0.00    -0.545 OA
ENDBRANCH   1   7
BRANCH   2  10
ATOM     10  O   UNL     1     -21.721  34.667  -1.268  1.00  0.00    -0.507 OA
ATOM     11  H   UNL     1     -21.407  34.817  -0.316  1.00  0.00     0.293 HD
ENDBRANCH   2  10
TORSDOF 2
ENDMDL
MODEL 8
REMARK VINA RESULT:    -3.949      1.873      3.764
REMARK INTER + INTRA:          -4.515
REMARK INTER:                  -4.264
REMARK INTRA:                  -0.251
REMARK UNBOUND:                -0.219
REMARK SMILES O=C([O-])c1ccccc1O
REMARK SMILES IDX 4 1 9 2 5 3 8 4 6 5 7 6 2 7 1 8 3 9 10 10
REMARK H PARENT 10 11
REMARK Flexibility Score: inf
ROOT
ATOM      1  C   UNL     1     -17.620  32.118  -4.474  1.00  0.00     0.039 A 
ATOM      2  C   UNL     1     -18.910  32.692  -4.381  1.00  0.00     0.124 A 
ATOM      3  C   UNL     1     -17.121  31.389  -3.377  1.00  0.00     0.014 A 
ATOM      4  C   UNL     1     -19.665  32.530  -3.210  1.00  0.00     0.047 A 
ATOM      5  C   UNL     1     -17.884  31.235  -2.217  1.00  0.00     0.001 A 
ATOM      6  C   UNL     1     -19.154  31.804  -2.134  1.00  0.00     0.004 A 
ENDROOT
BRANCH   1   7
ATOM      7  C   UNL     1     -16.781  32.261  -5.691  1.00  0.00     0.075 C 
ATOM      8  O   UNL     1     -17.253  32.037  -6.837  1.00  0.00    -0.545 OA
ATOM      9  O   UNL     1     -15.450  32.648  -5.584  1.00  0.00    -0.545 OA
ENDBRANCH   1   7
BRANCH   2  10
ATOM     10  O   UNL     1     -19.444  33.422  -5.443  1.00  0.00    -0.507 OA
ATOM     11  H   UNL     1     -20.319  33.926  -5.356  1.00  0.00     0.293 HD
ENDBRANCH   2  10
TORSDOF 2
ENDMDL
MODEL 9
REMARK VINA RESULT:    -3.926      3.209      4.307
REMARK INTER + INTRA:          -4.489
REMARK INTER:                  -4.263
REMARK INTRA:                  -0.226
REMARK UNBOUND:                -0.219
REMARK SMILES O=C([O-])c1ccccc1O
REMARK SMILES IDX 4 1 9 2 5 3 8 4 6 5 7 6 2 7 1 8 3 9 10 10
REMARK H PARENT 10 11
REMARK Flexibility Score: inf
ROOT
ATOM      1  C   UNL     1     -22.518  31.163  -1.851  1.00  0.00     0.039 A 
ATOM      2  C   UNL     1     -23.183  32.365  -1.513  1.00  0.00     0.124 A 
ATOM      3  C   UNL     1     -21.185  31.228  -2.300  1.00  0.00     0.014 A 
ATOM      4  C   UNL     1     -22.512  33.591  -1.629  1.00  0.00     0.047 A 
ATOM      5  C   UNL     1     -20.528  32.456  -2.410  1.00  0.00     0.001 A 
ATOM      6  C   UNL     1     -21.191  33.636  -2.075  1.00  0.00     0.004 A 
ENDROOT
BRANCH   1   7
ATOM      7  C   UNL     1     -23.185  29.839  -1.746  1.00  0.00     0.075 C 
ATOM      8  O   UNL     1     -24.428  29.722  -1.910  1.00  0.00    -0.545 OA
ATOM      9  O   UNL     1     -22.439  28.700  -1.465  1.00  0.00    -0.545 OA
ENDBRANCH   1   7
BRANCH   2  10
ATOM     10  O   UNL     1     -24.504  32.349  -1.064  1.00  0.00    -0.507 OA
ATOM     11  H   UNL     1     -25.282  32.218  -1.702  1.00  0.00     0.293 HD
ENDBRANCH   2  10
TORSDOF 2
ENDMDL
