MODEL 1
REMARK VINA RESULT:    -6.656      0.000      0.000
REMARK INTER + INTRA:          -8.100
REMARK INTER:                  -7.823
REMARK INTRA:                  -0.277
REMARK UNBOUND:                -0.277
REMARK SMILES O=c1cc(-c2ccc(O)c(O)c2)oc2cc(O)cc(O)c12
REMARK SMILES IDX 4 1 3 2 2 3 1 4 21 5 19 6 18 7 16 8 15 9 14 10 13 11 5 12
REMARK SMILES IDX 6 13 7 14 8 15 12 16 10 17 9 18 11 20 20 22 17 24
REMARK H PARENT 9 19 11 21 20 23 17 25
REMARK Flexibility Score: inf
ROOT
ATOM      1  C   UNL     1       6.131  27.495  59.362  1.00  0.00     0.138 A 
ATOM      2  C   UNL     1       5.659  26.867  60.523  1.00  0.00     0.100 A 
ATOM      3  C   UNL     1       6.532  26.104  61.299  1.00  0.00     0.197 A 
ATOM      4  O   UNL     1       6.094  25.604  62.367  1.00  0.00    -0.289 OA
ATOM      5  C   UNL     1       7.879  25.945  60.893  1.00  0.00     0.107 A 
ATOM      6  C   UNL     1       8.848  25.158  61.583  1.00  0.00     0.134 A 
ATOM      7  C   UNL     1      10.180  25.170  61.152  1.00  0.00     0.093 A 
ATOM      8  C   UNL     1      10.565  25.892  60.019  1.00  0.00     0.123 A 
ATOM      9  C   UNL     1       9.615  26.620  59.306  1.00  0.00     0.094 A 
ATOM     10  C   UNL     1       8.285  26.656  59.732  1.00  0.00     0.146 A 
ATOM     11  O   UNL     1       7.413  27.374  59.032  1.00  0.00    -0.456 OA
ENDROOT
BRANCH   1  12
ATOM     12  C   UNL     1       5.245  28.316  58.499  1.00  0.00     0.021 A 
ATOM     13  C   UNL     1       5.658  29.560  57.985  1.00  0.00     0.016 A 
ATOM     14  C   UNL     1       4.800  30.317  57.184  1.00  0.00     0.051 A 
ATOM     15  C   UNL     1       3.513  29.850  56.887  1.00  0.00     0.157 A 
ATOM     16  C   UNL     1       3.946  27.861  58.207  1.00  0.00     0.062 A 
ATOM     17  C   UNL     1       3.085  28.616  57.403  1.00  0.00     0.158 A 
BRANCH  15  18
ATOM     18  O   UNL     1       2.660  30.606  56.085  1.00  0.00    -0.504 OA
ATOM     19  H   UNL     1       1.669  30.405  56.026  1.00  0.00     0.293 HD
ENDBRANCH  15  18
BRANCH  17  20
ATOM     20  O   UNL     1       1.810  28.124  57.129  1.00  0.00    -0.504 OA
ATOM     21  H   UNL     1       1.410  28.153  56.199  1.00  0.00     0.293 HD
ENDBRANCH  17  20
ENDBRANCH   1  12
BRANCH   6  22
ATOM     22  O   UNL     1       8.553  24.335  62.675  1.00  0.00    -0.507 OA
ATOM     23  H   UNL     1       9.197  23.684  63.096  1.00  0.00     0.293 HD
ENDBRANCH   6  22
BRANCH   8  24
ATOM     24  O   UNL     1      11.889  25.884  59.588  1.00  0.00    -0.508 OA
ATOM     25  H   UNL     1      12.588  26.486  60.009  1.00  0.00     0.293 HD
ENDBRANCH   8  24
TORSDOF 5
ENDMDL
MODEL 2
REMARK VINA RESULT:    -6.289      1.337      6.849
REMARK INTER + INTRA:          -7.670
REMARK INTER:                  -7.380
REMARK INTRA:                  -0.290
REMARK UNBOUND:                -0.277
REMARK SMILES O=c1cc(-c2ccc(O)c(O)c2)oc2cc(O)cc(O)c12
REMARK SMILES IDX 4 1 3 2 2 3 1 4 21 5 19 6 18 7 16 8 15 9 14 10 13 11 5 12
REMARK SMILES IDX 6 13 7 14 8 15 12 16 10 17 9 18 11 20 20 22 17 24
REMARK H PARENT 9 19 11 21 20 23 17 25
REMARK Flexibility Score: inf
ROOT
ATOM      1  C   UNL     1       7.163  26.589  59.995  1.00  0.00     0.138 A 
ATOM      2  C   UNL     1       6.119  25.934  60.661  1.00  0.00     0.100 A 
ATOM      3  C   UNL     1       4.801  26.342  60.448  1.00  0.00     0.197 A 
ATOM      4  O   UNL     1       3.881  25.694  61.011  1.00  0.00    -0.289 OA
ATOM      5  C   UNL     1       4.532  27.432  59.587  1.00  0.00     0.107 A 
ATOM      6  C   UNL     1       3.233  27.961  59.327  1.00  0.00     0.134 A 
ATOM      7  C   UNL     1       3.078  28.968  58.366  1.00  0.00     0.093 A 
ATOM      8  C   UNL     1       4.182  29.506  57.701  1.00  0.00     0.123 A 
ATOM      9  C   UNL     1       5.461  29.034  57.988  1.00  0.00     0.094 A 
ATOM     10  C   UNL     1       5.645  28.007  58.916  1.00  0.00     0.146 A 
ATOM     11  O   UNL     1       6.880  27.576  59.150  1.00  0.00    -0.456 OA
ENDROOT
BRANCH   1  12
ATOM     12  C   UNL     1       8.583  26.197  60.185  1.00  0.00     0.021 A 
ATOM     13  C   UNL     1       9.567  26.490  59.223  1.00  0.00     0.016 A 
ATOM     14  C   UNL     1      10.894  26.101  59.423  1.00  0.00     0.051 A 
ATOM     15  C   UNL     1      11.260  25.406  60.583  1.00  0.00     0.157 A 
ATOM     16  C   UNL     1       8.957  25.486  61.341  1.00  0.00     0.062 A 
ATOM     17  C   UNL     1      10.285  25.096  61.545  1.00  0.00     0.158 A 
BRANCH  15  18
ATOM     18  O   UNL     1      12.585  25.020  60.781  1.00  0.00    -0.504 OA
ATOM     19  H   UNL     1      12.920  24.719  61.688  1.00  0.00     0.293 HD
ENDBRANCH  15  18
BRANCH  17  20
ATOM     20  O   UNL     1      10.615  24.403  62.708  1.00  0.00    -0.504 OA
ATOM     21  H   UNL     1      11.559  24.089  62.898  1.00  0.00     0.293 HD
ENDBRANCH  17  20
ENDBRANCH   1  12
BRANCH   6  22
ATOM     22  O   UNL     1       2.075  27.554  59.997  1.00  0.00    -0.507 OA
ATOM     23  H   UNL     1       1.181  27.398  59.558  1.00  0.00     0.293 HD
ENDBRANCH   6  22
BRANCH   8  24
ATOM     24  O   UNL     1       4.019  30.519  56.758  1.00  0.00    -0.508 OA
ATOM     25  H   UNL     1       3.171  30.603  56.210  1.00  0.00     0.293 HD
ENDBRANCH   8  24
TORSDOF 5
ENDMDL
MODEL 3
REMARK VINA RESULT:    -6.257      1.411      3.041
REMARK INTER + INTRA:          -7.631
REMARK INTER:                  -7.333
REMARK INTRA:                  -0.298
REMARK UNBOUND:                -0.277
REMARK SMILES O=c1cc(-c2ccc(O)c(O)c2)oc2cc(O)cc(O)c12
REMARK SMILES IDX 4 1 3 2 2 3 1 4 21 5 19 6 18 7 16 8 15 9 14 10 13 11 5 12
REMARK SMILES IDX 6 13 7 14 8 15 12 16 10 17 9 18 11 20 20 22 17 24
REMARK H PARENT 9 19 11 21 20 23 17 25
REMARK Flexibility Score: inf
ROOT
ATOM      1  C   UNL     1       5.934  27.232  59.401  1.00  0.00     0.138 A 
ATOM      2  C   UNL     1       7.303  27.023  59.186  1.00  0.00     0.100 A 
ATOM      3  C   UNL     1       8.008  26.153  60.019  1.00  0.00     0.197 A 
ATOM      4  O   UNL     1       9.221  25.938  59.763  1.00  0.00    -0.289 OA
ATOM      5  C   UNL     1       7.343  25.512  61.091  1.00  0.00     0.107 A 
ATOM      6  C   UNL     1       7.969  24.637  62.028  1.00  0.00     0.134 A 
ATOM      7  C   UNL     1       7.185  23.969  62.978  1.00  0.00     0.093 A 
ATOM      8  C   UNL     1       5.809  24.192  63.062  1.00  0.00     0.123 A 
ATOM      9  C   UNL     1       5.197  25.087  62.187  1.00  0.00     0.094 A 
ATOM     10  C   UNL     1       5.946  25.742  61.206  1.00  0.00     0.146 A 
ATOM     11  O   UNL     1       5.322  26.576  60.383  1.00  0.00    -0.456 OA
ENDROOT
BRANCH   1  12
ATOM     12  C   UNL     1       5.137  28.148  58.547  1.00  0.00     0.021 A 
ATOM     13  C   UNL     1       5.644  29.389  58.118  1.00  0.00     0.016 A 
ATOM     14  C   UNL     1       4.868  30.237  57.324  1.00  0.00     0.051 A 
ATOM     15  C   UNL     1       3.571  29.864  56.950  1.00  0.00     0.157 A 
ATOM     16  C   UNL     1       3.828  27.789  58.179  1.00  0.00     0.062 A 
ATOM     17  C   UNL     1       3.049  28.635  57.382  1.00  0.00     0.158 A 
BRANCH  15  18
ATOM     18  O   UNL     1       2.800  30.711  56.155  1.00  0.00    -0.504 OA
ATOM     19  H   UNL     1       3.088  30.968  55.218  1.00  0.00     0.293 HD
ENDBRANCH  15  18
BRANCH  17  20
ATOM     20  O   UNL     1       1.760  28.236  57.030  1.00  0.00    -0.504 OA
ATOM     21  H   UNL     1       1.141  28.830  56.492  1.00  0.00     0.293 HD
ENDBRANCH  17  20
ENDBRANCH   1  12
BRANCH   6  22
ATOM     22  O   UNL     1       9.347  24.408  62.085  1.00  0.00    -0.507 OA
ATOM     23  H   UNL     1       9.782  23.499  62.061  1.00  0.00     0.293 HD
ENDBRANCH   6  22
BRANCH   8  24
ATOM     24  O   UNL     1       5.040  23.535  64.021  1.00  0.00    -0.508 OA
ATOM     25  H   UNL     1       4.617  22.634  63.835  1.00  0.00     0.293 HD
ENDBRANCH   8  24
TORSDOF 5
ENDMDL
MODEL 4
REMARK VINA RESULT:    -5.957      0.944      1.597
REMARK INTER + INTRA:          -7.279
REMARK INTER:                  -6.979
REMARK INTRA:                  -0.300
REMARK UNBOUND:                -0.277
REMARK SMILES O=c1cc(-c2ccc(O)c(O)c2)oc2cc(O)cc(O)c12
REMARK SMILES IDX 4 1 3 2 2 3 1 4 21 5 19 6 18 7 16 8 15 9 14 10 13 11 5 12
REMARK SMILES IDX 6 13 7 14 8 15 12 16 10 17 9 18 11 20 20 22 17 24
REMARK H PARENT 9 19 11 21 20 23 17 25
REMARK Flexibility Score: inf
ROOT
ATOM      1  C   UNL     1       6.492  27.121  59.783  1.00  0.00     0.138 A 
ATOM      2  C   UNL     1       6.239  26.664  61.083  1.00  0.00     0.100 A 
ATOM      3  C   UNL     1       7.250  26.021  61.798  1.00  0.00     0.197 A 
ATOM      4  O   UNL     1       7.012  25.678  62.985  1.00  0.00    -0.289 OA
ATOM      5  C   UNL     1       8.512  25.808  61.195  1.00  0.00     0.107 A 
ATOM      6  C   UNL     1       9.604  25.129  61.813  1.00  0.00     0.134 A 
ATOM      7  C   UNL     1      10.844  25.080  61.163  1.00  0.00     0.093 A 
ATOM      8  C   UNL     1      11.013  25.634  59.891  1.00  0.00     0.123 A 
ATOM      9  C   UNL     1       9.938  26.251  59.256  1.00  0.00     0.094 A 
ATOM     10  C   UNL     1       8.698  26.346  59.893  1.00  0.00     0.146 A 
ATOM     11  O   UNL     1       7.703  26.956  59.259  1.00  0.00    -0.456 OA
ENDROOT
BRANCH   1  12
ATOM     12  C   UNL     1       5.452  27.809  58.977  1.00  0.00     0.021 A 
ATOM     13  C   UNL     1       4.105  27.402  59.004  1.00  0.00     0.016 A 
ATOM     14  C   UNL     1       3.149  28.061  58.227  1.00  0.00     0.051 A 
ATOM     15  C   UNL     1       3.521  29.133  57.406  1.00  0.00     0.157 A 
ATOM     16  C   UNL     1       5.819  28.877  58.139  1.00  0.00     0.062 A 
ATOM     17  C   UNL     1       4.864  29.541  57.361  1.00  0.00     0.158 A 
BRANCH  15  18
ATOM     18  O   UNL     1       2.564  29.790  56.634  1.00  0.00    -0.504 OA
ATOM     19  H   UNL     1       1.879  29.278  56.089  1.00  0.00     0.293 HD
ENDBRANCH  15  18
BRANCH  17  20
ATOM     20  O   UNL     1       5.268  30.601  56.551  1.00  0.00    -0.504 OA
ATOM     21  H   UNL     1       5.332  31.550  56.900  1.00  0.00     0.293 HD
ENDBRANCH  17  20
ENDBRANCH   1  12
BRANCH   6  22
ATOM     22  O   UNL     1       9.519  24.469  63.043  1.00  0.00    -0.507 OA
ATOM     23  H   UNL     1      10.003  23.616  63.273  1.00  0.00     0.293 HD
ENDBRANCH   6  22
BRANCH   8  24
ATOM     24  O   UNL     1      12.245  25.567  59.245  1.00  0.00    -0.508 OA
ATOM     25  H   UNL     1      12.462  24.824  58.591  1.00  0.00     0.293 HD
ENDBRANCH   8  24
TORSDOF 5
ENDMDL
MODEL 5
REMARK VINA RESULT:    -5.728      1.471      1.902
REMARK INTER + INTRA:          -7.009
REMARK INTER:                  -6.726
REMARK INTRA:                  -0.284
REMARK UNBOUND:                -0.277
REMARK SMILES O=c1cc(-c2ccc(O)c(O)c2)oc2cc(O)cc(O)c12
REMARK SMILES IDX 4 1 3 2 2 3 1 4 21 5 19 6 18 7 16 8 15 9 14 10 13 11 5 12
REMARK SMILES IDX 6 13 7 14 8 15 12 16 10 17 9 18 11 20 20 22 17 24
REMARK H PARENT 9 19 11 21 20 23 17 25
REMARK Flexibility Score: inf
ROOT
ATOM      1  C   UNL     1       7.035  26.971  60.223  1.00  0.00     0.138 A 
ATOM      2  C   UNL     1       7.085  26.984  61.623  1.00  0.00     0.100 A 
ATOM      3  C   UNL     1       8.257  26.596  62.275  1.00  0.00     0.197 A 
ATOM      4  O   UNL     1       8.292  26.678  63.530  1.00  0.00    -0.289 OA
ATOM      5  C   UNL     1       9.373  26.164  61.520  1.00  0.00     0.107 A 
ATOM      6  C   UNL     1      10.604  25.708  62.078  1.00  0.00     0.134 A 
ATOM      7  C   UNL     1      11.679  25.415  61.230  1.00  0.00     0.093 A 
ATOM      8  C   UNL     1      11.548  25.505  59.842  1.00  0.00     0.123 A 
ATOM      9  C   UNL     1      10.333  25.897  59.286  1.00  0.00     0.094 A 
ATOM     10  C   UNL     1       9.252  26.229  60.106  1.00  0.00     0.146 A 
ATOM     11  O   UNL     1       8.115  26.612  59.535  1.00  0.00    -0.456 OA
ENDROOT
BRANCH   1  12
ATOM     12  C   UNL     1       5.814  27.371  59.478  1.00  0.00     0.021 A 
ATOM     13  C   UNL     1       5.888  28.028  58.234  1.00  0.00     0.016 A 
ATOM     14  C   UNL     1       4.724  28.403  57.560  1.00  0.00     0.051 A 
ATOM     15  C   UNL     1       3.467  28.136  58.117  1.00  0.00     0.157 A 
ATOM     16  C   UNL     1       4.548  27.120  60.036  1.00  0.00     0.062 A 
ATOM     17  C   UNL     1       3.380  27.493  59.362  1.00  0.00     0.158 A 
BRANCH  15  18
ATOM     18  O   UNL     1       2.306  28.509  57.440  1.00  0.00    -0.504 OA
ATOM     19  H   UNL     1       1.894  29.427  57.560  1.00  0.00     0.293 HD
ENDBRANCH  15  18
BRANCH  17  20
ATOM     20  O   UNL     1       2.144  27.215  59.946  1.00  0.00    -0.504 OA
ATOM     21  H   UNL     1       1.404  26.745  59.440  1.00  0.00     0.293 HD
ENDBRANCH  17  20
ENDBRANCH   1  12
BRANCH   6  22
ATOM     22  O   UNL     1      10.814  25.503  63.446  1.00  0.00    -0.507 OA
ATOM     23  H   UNL     1      11.493  24.868  63.835  1.00  0.00     0.293 HD
ENDBRANCH   6  22
BRANCH   8  24
ATOM     24  O   UNL     1      12.619  25.197  59.006  1.00  0.00    -0.508 OA
ATOM     25  H   UNL     1      13.473  25.741  59.016  1.00  0.00     0.293 HD
ENDBRANCH   8  24
TORSDOF 5
ENDMDL
MODEL 6
REMARK VINA RESULT:    -5.714      2.097      3.934
REMARK INTER + INTRA:          -6.994
REMARK INTER:                  -6.699
REMARK INTRA:                  -0.294
REMARK UNBOUND:                -0.277
REMARK SMILES O=c1cc(-c2ccc(O)c(O)c2)oc2cc(O)cc(O)c12
REMARK SMILES IDX 4 1 3 2 2 3 1 4 21 5 19 6 18 7 16 8 15 9 14 10 13 11 5 12
REMARK SMILES IDX 6 13 7 14 8 15 12 16 10 17 9 18 11 20 20 22 17 24
REMARK H PARENT 9 19 11 21 20 23 17 25
REMARK Flexibility Score: inf
ROOT
ATOM      1  C   UNL     1       5.559  26.894  60.147  1.00  0.00     0.138 A 
ATOM      2  C   UNL     1       6.930  26.604  60.170  1.00  0.00     0.100 A 
ATOM      3  C   UNL     1       7.423  25.675  61.088  1.00  0.00     0.197 A 
ATOM      4  O   UNL     1       8.648  25.389  61.042  1.00  0.00    -0.289 OA
ATOM      5  C   UNL     1       6.542  25.058  62.008  1.00  0.00     0.107 A 
ATOM      6  C   UNL     1       6.939  24.128  63.014  1.00  0.00     0.134 A 
ATOM      7  C   UNL     1       5.961  23.494  63.791  1.00  0.00     0.093 A 
ATOM      8  C   UNL     1       4.607  23.803  63.639  1.00  0.00     0.123 A 
ATOM      9  C   UNL     1       4.215  24.750  62.697  1.00  0.00     0.094 A 
ATOM     10  C   UNL     1       5.163  25.374  61.882  1.00  0.00     0.146 A 
ATOM     11  O   UNL     1       4.745  26.261  60.986  1.00  0.00    -0.456 OA
ENDROOT
BRANCH   1  12
ATOM     12  C   UNL     1       4.982  27.875  59.193  1.00  0.00     0.021 A 
ATOM     13  C   UNL     1       3.591  28.054  59.068  1.00  0.00     0.016 A 
ATOM     14  C   UNL     1       3.074  28.976  58.154  1.00  0.00     0.051 A 
ATOM     15  C   UNL     1       3.935  29.730  57.346  1.00  0.00     0.157 A 
ATOM     16  C   UNL     1       5.838  28.626  58.367  1.00  0.00     0.062 A 
ATOM     17  C   UNL     1       5.323  29.552  57.453  1.00  0.00     0.158 A 
BRANCH  15  18
ATOM     18  O   UNL     1       3.415  30.651  56.437  1.00  0.00    -0.504 OA
ATOM     19  H   UNL     1       2.838  31.427  56.740  1.00  0.00     0.293 HD
ENDBRANCH  15  18
BRANCH  17  20
ATOM     20  O   UNL     1       6.207  30.284  56.661  1.00  0.00    -0.504 OA
ATOM     21  H   UNL     1       6.755  31.049  57.034  1.00  0.00     0.293 HD
ENDBRANCH  17  20
ENDBRANCH   1  12
BRANCH   6  22
ATOM     22  O   UNL     1       8.270  23.812  63.305  1.00  0.00    -0.507 OA
ATOM     23  H   UNL     1       8.720  22.942  63.066  1.00  0.00     0.293 HD
ENDBRANCH   6  22
BRANCH   8  24
ATOM     24  O   UNL     1       3.644  23.179  64.428  1.00  0.00    -0.508 OA
ATOM     25  H   UNL     1       3.294  22.254  64.207  1.00  0.00     0.293 HD
ENDBRANCH   8  24
TORSDOF 5
ENDMDL
MODEL 7
REMARK VINA RESULT:    -5.591      2.671      7.092
REMARK INTER + INTRA:          -6.849
REMARK INTER:                  -6.534
REMARK INTRA:                  -0.315
REMARK UNBOUND:                -0.277
REMARK SMILES O=c1cc(-c2ccc(O)c(O)c2)oc2cc(O)cc(O)c12
REMARK SMILES IDX 4 1 3 2 2 3 1 4 21 5 19 6 18 7 16 8 15 9 14 10 13 11 5 12
REMARK SMILES IDX 6 13 7 14 8 15 12 16 10 17 9 18 11 20 20 22 17 24
REMARK H PARENT 9 19 11 21 20 23 17 25
REMARK Flexibility Score: inf
ROOT
ATOM      1  C   UNL     1       4.972  26.005  61.596  1.00  0.00     0.138 A 
ATOM      2  C   UNL     1       3.686  26.475  61.891  1.00  0.00     0.100 A 
ATOM      3  C   UNL     1       3.161  27.548  61.170  1.00  0.00     0.197 A 
ATOM      4  O   UNL     1       1.980  27.908  61.416  1.00  0.00    -0.289 OA
ATOM      5  C   UNL     1       3.941  28.172  60.168  1.00  0.00     0.107 A 
ATOM      6  C   UNL     1       3.525  29.299  59.398  1.00  0.00     0.134 A 
ATOM      7  C   UNL     1       4.337  29.758  58.353  1.00  0.00     0.093 A 
ATOM      8  C   UNL     1       5.577  29.170  58.092  1.00  0.00     0.123 A 
ATOM      9  C   UNL     1       6.017  28.104  58.873  1.00  0.00     0.094 A 
ATOM     10  C   UNL     1       5.214  27.601  59.900  1.00  0.00     0.146 A 
ATOM     11  O   UNL     1       5.664  26.574  60.613  1.00  0.00    -0.456 OA
ENDROOT
BRANCH   1  12
ATOM     12  C   UNL     1       5.580  24.868  62.333  1.00  0.00     0.021 A 
ATOM     13  C   UNL     1       5.045  24.403  63.549  1.00  0.00     0.016 A 
ATOM     14  C   UNL     1       5.644  23.338  64.226  1.00  0.00     0.051 A 
ATOM     15  C   UNL     1       6.790  22.724  63.707  1.00  0.00     0.157 A 
ATOM     16  C   UNL     1       6.740  24.254  61.825  1.00  0.00     0.062 A 
ATOM     17  C   UNL     1       7.341  23.186  62.501  1.00  0.00     0.158 A 
BRANCH  15  18
ATOM     18  O   UNL     1       7.384  21.660  64.385  1.00  0.00    -0.504 OA
ATOM     19  H   UNL     1       6.873  21.117  65.071  1.00  0.00     0.293 HD
ENDBRANCH  15  18
BRANCH  17  20
ATOM     20  O   UNL     1       8.483  22.599  61.959  1.00  0.00    -0.504 OA
ATOM     21  H   UNL     1       9.022  21.905  62.463  1.00  0.00     0.293 HD
ENDBRANCH  17  20
ENDBRANCH   1  12
BRANCH   6  22
ATOM     22  O   UNL     1       2.345  30.012  59.631  1.00  0.00    -0.507 OA
ATOM     23  H   UNL     1       1.880  30.080  60.523  1.00  0.00     0.293 HD
ENDBRANCH   6  22
BRANCH   8  24
ATOM     24  O   UNL     1       6.385  29.644  57.061  1.00  0.00    -0.508 OA
ATOM     25  H   UNL     1       7.218  30.190  57.247  1.00  0.00     0.293 HD
ENDBRANCH   8  24
TORSDOF 5
ENDMDL
MODEL 8
REMARK VINA RESULT:    -5.458      5.178      6.861
REMARK INTER + INTRA:          -6.692
REMARK INTER:                  -6.402
REMARK INTRA:                  -0.290
REMARK UNBOUND:                -0.277
REMARK SMILES O=c1cc(-c2ccc(O)c(O)c2)oc2cc(O)cc(O)c12
REMARK SMILES IDX 4 1 3 2 2 3 1 4 21 5 19 6 18 7 16 8 15 9 14 10 13 11 5 12
REMARK SMILES IDX 6 13 7 14 8 15 12 16 10 17 9 18 11 20 20 22 17 24
REMARK H PARENT 9 19 11 21 20 23 17 25
REMARK Flexibility Score: inf
ROOT
ATOM      1  C   UNL     1       5.008  31.132  62.202  1.00  0.00     0.138 A 
ATOM      2  C   UNL     1       5.480  30.004  62.887  1.00  0.00     0.100 A 
ATOM      3  C   UNL     1       5.262  28.732  62.355  1.00  0.00     0.197 A 
ATOM      4  O   UNL     1       5.752  27.744  62.961  1.00  0.00    -0.289 OA
ATOM      5  C   UNL     1       4.540  28.589  61.147  1.00  0.00     0.107 A 
ATOM      6  C   UNL     1       4.223  27.340  60.533  1.00  0.00     0.134 A 
ATOM      7  C   UNL     1       3.604  27.327  59.276  1.00  0.00     0.093 A 
ATOM      8  C   UNL     1       3.237  28.516  58.641  1.00  0.00     0.123 A 
ATOM      9  C   UNL     1       3.494  29.738  59.257  1.00  0.00     0.094 A 
ATOM     10  C   UNL     1       4.141  29.786  60.494  1.00  0.00     0.146 A 
ATOM     11  O   UNL     1       4.379  30.973  61.041  1.00  0.00    -0.456 OA
ENDROOT
BRANCH   1  12
ATOM     12  C   UNL     1       5.210  32.508  62.723  1.00  0.00     0.021 A 
ATOM     13  C   UNL     1       4.892  32.850  64.051  1.00  0.00     0.016 A 
ATOM     14  C   UNL     1       5.083  34.155  64.511  1.00  0.00     0.051 A 
ATOM     15  C   UNL     1       5.586  35.142  63.654  1.00  0.00     0.157 A 
ATOM     16  C   UNL     1       5.702  33.508  61.865  1.00  0.00     0.062 A 
ATOM     17  C   UNL     1       5.896  34.815  62.324  1.00  0.00     0.158 A 
BRANCH  15  18
ATOM     18  O   UNL     1       5.777  36.443  64.118  1.00  0.00    -0.504 OA
ATOM     19  H   UNL     1       5.907  36.641  65.103  1.00  0.00     0.293 HD
ENDBRANCH  15  18
BRANCH  17  20
ATOM     20  O   UNL     1       6.396  35.774  61.444  1.00  0.00    -0.504 OA
ATOM     21  H   UNL     1       7.386  35.973  61.371  1.00  0.00     0.293 HD
ENDBRANCH  17  20
ENDBRANCH   1  12
BRANCH   6  22
ATOM     22  O   UNL     1       4.470  26.095  61.121  1.00  0.00    -0.507 OA
ATOM     23  H   UNL     1       4.403  25.210  60.643  1.00  0.00     0.293 HD
ENDBRANCH   6  22
BRANCH   8  24
ATOM     24  O   UNL     1       2.608  28.491  57.398  1.00  0.00    -0.508 OA
ATOM     25  H   UNL     1       1.599  28.488  57.314  1.00  0.00     0.293 HD
ENDBRANCH   8  24
TORSDOF 5
ENDMDL
MODEL 9
REMARK VINA RESULT:    -5.403      2.033      7.208
REMARK INTER + INTRA:          -6.628
REMARK INTER:                  -6.336
REMARK INTRA:                  -0.292
REMARK UNBOUND:                -0.277
REMARK SMILES O=c1cc(-c2ccc(O)c(O)c2)oc2cc(O)cc(O)c12
REMARK SMILES IDX 4 1 3 2 2 3 1 4 21 5 19 6 18 7 16 8 15 9 14 10 13 11 5 12
REMARK SMILES IDX 6 13 7 14 8 15 12 16 10 17 9 18 11 20 20 22 17 24
REMARK H PARENT 9 19 11 21 20 23 17 25
REMARK Flexibility Score: inf
ROOT
ATOM      1  C   UNL     1       7.100  26.889  60.260  1.00  0.00     0.138 A 
ATOM      2  C   UNL     1       6.740  27.339  58.983  1.00  0.00     0.100 A 
ATOM      3  C   UNL     1       5.510  27.971  58.795  1.00  0.00     0.197 A 
ATOM      4  O   UNL     1       5.242  28.420  57.650  1.00  0.00    -0.289 OA
ATOM      5  C   UNL     1       4.625  28.127  59.888  1.00  0.00     0.107 A 
ATOM      6  C   UNL     1       3.330  28.720  59.806  1.00  0.00     0.134 A 
ATOM      7  C   UNL     1       2.590  28.924  60.977  1.00  0.00     0.093 A 
ATOM      8  C   UNL     1       3.073  28.503  62.218  1.00  0.00     0.123 A 
ATOM      9  C   UNL     1       4.313  27.874  62.301  1.00  0.00     0.094 A 
ATOM     10  C   UNL     1       5.090  27.687  61.156  1.00  0.00     0.146 A 
ATOM     11  O   UNL     1       6.273  27.095  61.281  1.00  0.00    -0.456 OA
ENDROOT
BRANCH   1  12
ATOM     12  C   UNL     1       8.395  26.208  60.516  1.00  0.00     0.021 A 
ATOM     13  C   UNL     1       8.635  25.500  61.708  1.00  0.00     0.016 A 
ATOM     14  C   UNL     1       9.867  24.877  61.927  1.00  0.00     0.051 A 
ATOM     15  C   UNL     1      10.881  24.956  60.964  1.00  0.00     0.157 A 
ATOM     16  C   UNL     1       9.424  26.294  59.560  1.00  0.00     0.062 A 
ATOM     17  C   UNL     1      10.657  25.669  59.776  1.00  0.00     0.158 A 
BRANCH  15  18
ATOM     18  O   UNL     1      12.107  24.331  61.185  1.00  0.00    -0.504 OA
ATOM     19  H   UNL     1      12.266  23.744  61.996  1.00  0.00     0.293 HD
ENDBRANCH  15  18
BRANCH  17  20
ATOM     20  O   UNL     1      11.646  25.770  58.799  1.00  0.00    -0.504 OA
ATOM     21  H   UNL     1      12.274  26.563  58.748  1.00  0.00     0.293 HD
ENDBRANCH  17  20
ENDBRANCH   1  12
BRANCH   6  22
ATOM     22  O   UNL     1       2.718  29.099  58.607  1.00  0.00    -0.507 OA
ATOM     23  H   UNL     1       2.530  30.051  58.333  1.00  0.00     0.293 HD
ENDBRANCH   6  22
BRANCH   8  24
ATOM     24  O   UNL     1       2.322  28.697  63.376  1.00  0.00    -0.508 OA
ATOM     25  H   UNL     1       2.655  28.389  64.282  1.00  0.00     0.293 HD
ENDBRANCH   8  24
TORSDOF 5
ENDMDL
