MODEL 1
REMARK VINA RESULT:     1.048      0.000      0.000
REMARK INTER + INTRA:           1.331
REMARK INTER:                   1.660
REMARK INTRA:                  -0.330
REMARK UNBOUND:                -0.330
REMARK SMILES CCCCCCCCCCCC(=O)[O-]
REMARK SMILES IDX 7 1 8 2 9 3 10 4 11 5 12 6 13 7 14 8 6 9 5 10 4 11 3 12 2 13
REMARK SMILES IDX 1 14
REMARK H PARENT
REMARK Flexibility Score: inf
ROOT
ATOM      1  C   UNL     1     -18.367  17.398  16.777  1.00  0.00     0.000 C 
ENDROOT
BRANCH   1   2
ATOM      2  C   UNL     1     -19.125  17.810  15.503  1.00  0.00     0.000 C 
BRANCH   2   3
ATOM      3  C   UNL     1     -18.993  16.832  14.318  1.00  0.00     0.000 C 
BRANCH   3   4
ATOM      4  C   UNL     1     -18.841  17.496  12.938  1.00  0.00     0.006 C 
BRANCH   4   5
ATOM      5  C   UNL     1     -17.552  17.085  12.217  1.00  0.00     0.053 C 
BRANCH   5   6
ATOM      6  C   UNL     1     -17.810  16.889  10.756  1.00  0.00     0.041 C 
ATOM      7  O   UNL     1     -18.463  17.748  10.108  1.00  0.00    -0.550 OA
ATOM      8  O   UNL     1     -17.371  15.734  10.122  1.00  0.00    -0.550 OA
ENDBRANCH   5   6
ENDBRANCH   4   5
ENDBRANCH   3   4
ENDBRANCH   2   3
ENDBRANCH   1   2
BRANCH   1   9
ATOM      9  C   UNL     1     -19.125  16.355  17.612  1.00  0.00     0.000 C 
BRANCH   9  10
ATOM     10  C   UNL     1     -19.077  16.708  19.105  1.00  0.00    -0.000 C 
BRANCH  10  11
ATOM     11  C   UNL     1     -19.108  18.224  19.358  1.00  0.00    -0.000 C 
BRANCH  11  12
ATOM     12  C   UNL     1     -18.832  18.586  20.824  1.00  0.00    -0.000 C 
BRANCH  12  13
ATOM     13  C   UNL     1     -18.977  20.095  21.053  1.00  0.00    -0.003 C 
ATOM     14  C   UNL     1     -18.308  20.522  22.356  1.00  0.00     0.004 C 
ENDBRANCH  12  13
ENDBRANCH  11  12
ENDBRANCH  10  11
ENDBRANCH   9  10
ENDBRANCH   1   9
TORSDOF 10
ENDMDL
