MODEL 1
REMARK VINA RESULT:    -2.770      0.000      0.000
REMARK INTER + INTRA:          -3.101
REMARK INTER:                  -3.093
REMARK INTRA:                  -0.007
REMARK UNBOUND:                -0.007
REMARK SMILES CCCC(=O)[O-]
REMARK SMILES IDX 3 1 4 2 5 3 6 4 2 5 1 6
REMARK H PARENT
REMARK Flexibility Score: inf
ROOT
ATOM      1  C   UNL     1      58.683  36.713  54.529  1.00  0.00     0.052 C 
ENDROOT
BRANCH   1   2
ATOM      2  C   UNL     1      59.351  37.594  55.540  1.00  0.00     0.041 C 
ATOM      3  O   UNL     1      58.661  38.277  56.341  1.00  0.00    -0.550 OA
ATOM      4  O   UNL     1      60.737  37.684  55.576  1.00  0.00    -0.550 OA
ENDBRANCH   1   2
BRANCH   1   5
ATOM      5  C   UNL     1      57.460  37.394  53.903  1.00  0.00     0.003 C 
ATOM      6  C   UNL     1      57.119  36.826  52.526  1.00  0.00     0.004 C 
ENDBRANCH   1   5
TORSDOF 2
ENDMDL
MODEL 2
REMARK VINA RESULT:    -2.765      7.241      7.739
REMARK INTER + INTRA:          -3.095
REMARK INTER:                  -3.075
REMARK INTRA:                  -0.021
REMARK UNBOUND:                -0.007
REMARK SMILES CCCC(=O)[O-]
REMARK SMILES IDX 3 1 4 2 5 3 6 4 2 5 1 6
REMARK H PARENT
REMARK Flexibility Score: inf
ROOT
ATOM      1  C   UNL     1      61.641  36.184  48.356  1.00  0.00     0.052 C 
ENDROOT
BRANCH   1   2
ATOM      2  C   UNL     1      61.285  37.599  48.017  1.00  0.00     0.041 C 
ATOM      3  O   UNL     1      62.081  38.536  48.287  1.00  0.00    -0.550 OA
ATOM      4  O   UNL     1      60.058  37.885  47.430  1.00  0.00    -0.550 OA
ENDBRANCH   1   2
BRANCH   1   5
ATOM      5  C   UNL     1      62.759  36.117  49.404  1.00  0.00     0.003 C 
ATOM      6  C   UNL     1      63.721  34.957  49.154  1.00  0.00     0.004 C 
ENDBRANCH   1   5
TORSDOF 2
ENDMDL
MODEL 3
REMARK VINA RESULT:    -2.699     16.991     17.611
REMARK INTER + INTRA:          -3.022
REMARK INTER:                  -3.003
REMARK INTRA:                  -0.019
REMARK UNBOUND:                -0.007
REMARK SMILES CCCC(=O)[O-]
REMARK SMILES IDX 3 1 4 2 5 3 6 4 2 5 1 6
REMARK H PARENT
REMARK Flexibility Score: inf
ROOT
ATOM      1  C   UNL     1      63.524  46.406  39.939  1.00  0.00     0.052 C 
ENDROOT
BRANCH   1   2
ATOM      2  C   UNL     1      64.305  45.515  40.856  1.00  0.00     0.041 C 
ATOM      3  O   UNL     1      64.360  45.764  42.089  1.00  0.00    -0.550 OA
ATOM      4  O   UNL     1      64.997  44.425  40.343  1.00  0.00    -0.550 OA
ENDBRANCH   1   2
BRANCH   1   5
ATOM      5  C   UNL     1      63.435  47.838  40.481  1.00  0.00     0.003 C 
ATOM      6  C   UNL     1      62.114  48.516  40.121  1.00  0.00     0.004 C 
ENDBRANCH   1   5
TORSDOF 2
ENDMDL
MODEL 4
REMARK VINA RESULT:    -2.676      9.941     10.773
REMARK INTER + INTRA:          -2.996
REMARK INTER:                  -2.958
REMARK INTRA:                  -0.038
REMARK UNBOUND:                -0.007
REMARK SMILES CCCC(=O)[O-]
REMARK SMILES IDX 3 1 4 2 5 3 6 4 2 5 1 6
REMARK H PARENT
REMARK Flexibility Score: inf
ROOT
ATOM      1  C   UNL     1      65.406  44.481  57.653  1.00  0.00     0.052 C 
ENDROOT
BRANCH   1   2
ATOM      2  C   UNL     1      65.814  45.641  56.797  1.00  0.00     0.041 C 
ATOM      3  O   UNL     1      65.965  45.493  55.556  1.00  0.00    -0.550 OA
ATOM      4  O   UNL     1      66.060  46.880  57.377  1.00  0.00    -0.550 OA
ENDBRANCH   1   2
BRANCH   1   5
ATOM      5  C   UNL     1      65.473  43.157  56.882  1.00  0.00     0.003 C 
ATOM      6  C   UNL     1      66.698  42.326  57.260  1.00  0.00     0.004 C 
ENDBRANCH   1   5
TORSDOF 2
ENDMDL
MODEL 5
REMARK VINA RESULT:    -2.656     17.264     17.868
REMARK INTER + INTRA:          -2.973
REMARK INTER:                  -2.961
REMARK INTRA:                  -0.012
REMARK UNBOUND:                -0.007
REMARK SMILES CCCC(=O)[O-]
REMARK SMILES IDX 3 1 4 2 5 3 6 4 2 5 1 6
REMARK H PARENT
REMARK Flexibility Score: inf
ROOT
ATOM      1  C   UNL     1      68.882  51.501  49.771  1.00  0.00     0.052 C 
ENDROOT
BRANCH   1   2
ATOM      2  C   UNL     1      68.689  50.608  50.959  1.00  0.00     0.041 C 
ATOM      3  O   UNL     1      69.213  50.901  52.065  1.00  0.00    -0.550 OA
ATOM      4  O   UNL     1      67.955  49.435  50.834  1.00  0.00    -0.550 OA
ENDBRANCH   1   2
BRANCH   1   5
ATOM      5  C   UNL     1      68.749  52.982  50.147  1.00  0.00     0.003 C 
ATOM      6  C   UNL     1      67.682  53.699  49.322  1.00  0.00     0.004 C 
ENDBRANCH   1   5
TORSDOF 2
ENDMDL
MODEL 6
REMARK VINA RESULT:    -2.651     17.315     17.908
REMARK INTER + INTRA:          -2.969
REMARK INTER:                  -2.957
REMARK INTRA:                  -0.011
REMARK UNBOUND:                -0.007
REMARK SMILES CCCC(=O)[O-]
REMARK SMILES IDX 3 1 4 2 5 3 6 4 2 5 1 6
REMARK H PARENT
REMARK Flexibility Score: inf
ROOT
ATOM      1  C   UNL     1      68.933  51.530  49.770  1.00  0.00     0.052 C 
ENDROOT
BRANCH   1   2
ATOM      2  C   UNL     1      68.739  50.640  50.959  1.00  0.00     0.041 C 
ATOM      3  O   UNL     1      68.035  49.600  50.866  1.00  0.00    -0.550 OA
ATOM      4  O   UNL     1      69.311  50.977  52.180  1.00  0.00    -0.550 OA
ENDBRANCH   1   2
BRANCH   1   5
ATOM      5  C   UNL     1      68.731  53.008  50.129  1.00  0.00     0.003 C 
ATOM      6  C   UNL     1      67.638  53.667  49.290  1.00  0.00     0.004 C 
ENDBRANCH   1   5
TORSDOF 2
ENDMDL
MODEL 7
REMARK VINA RESULT:    -2.612     17.750     18.553
REMARK INTER + INTRA:          -2.925
REMARK INTER:                  -2.886
REMARK INTRA:                  -0.039
REMARK UNBOUND:                -0.007
REMARK SMILES CCCC(=O)[O-]
REMARK SMILES IDX 3 1 4 2 5 3 6 4 2 5 1 6
REMARK H PARENT
REMARK Flexibility Score: inf
ROOT
ATOM      1  C   UNL     1      70.388  51.705  50.478  1.00  0.00     0.052 C 
ENDROOT
BRANCH   1   2
ATOM      2  C   UNL     1      68.935  51.403  50.275  1.00  0.00     0.041 C 
ATOM      3  O   UNL     1      68.193  52.227  49.679  1.00  0.00    -0.550 OA
ATOM      4  O   UNL     1      68.395  50.224  50.774  1.00  0.00    -0.550 OA
ENDBRANCH   1   2
BRANCH   1   5
ATOM      5  C   UNL     1      70.656  52.295  51.868  1.00  0.00     0.003 C 
ATOM      6  C   UNL     1      71.228  51.262  52.838  1.00  0.00     0.004 C 
ENDBRANCH   1   5
TORSDOF 2
ENDMDL
MODEL 8
REMARK VINA RESULT:    -2.537      2.389      3.484
REMARK INTER + INTRA:          -2.841
REMARK INTER:                  -2.835
REMARK INTRA:                  -0.006
REMARK UNBOUND:                -0.007
REMARK SMILES CCCC(=O)[O-]
REMARK SMILES IDX 3 1 4 2 5 3 6 4 2 5 1 6
REMARK H PARENT
REMARK Flexibility Score: inf
ROOT
ATOM      1  C   UNL     1      59.004  36.764  54.788  1.00  0.00     0.052 C 
ENDROOT
BRANCH   1   2
ATOM      2  C   UNL     1      57.858  36.545  53.848  1.00  0.00     0.041 C 
ATOM      3  O   UNL     1      57.337  35.404  53.737  1.00  0.00    -0.550 OA
ATOM      4  O   UNL     1      57.387  37.595  53.069  1.00  0.00    -0.550 OA
ENDBRANCH   1   2
BRANCH   1   5
ATOM      5  C   UNL     1      58.770  37.980  55.692  1.00  0.00     0.003 C 
ATOM      6  C   UNL     1      59.430  37.824  57.061  1.00  0.00     0.004 C 
ENDBRANCH   1   5
TORSDOF 2
ENDMDL
MODEL 9
REMARK VINA RESULT:    -2.462     22.596     22.930
REMARK INTER + INTRA:          -2.758
REMARK INTER:                  -2.749
REMARK INTRA:                  -0.008
REMARK UNBOUND:                -0.007
REMARK SMILES CCCC(=O)[O-]
REMARK SMILES IDX 3 1 4 2 5 3 6 4 2 5 1 6
REMARK H PARENT
REMARK Flexibility Score: inf
ROOT
ATOM      1  C   UNL     1      70.976  49.902  40.365  1.00  0.00     0.052 C 
ENDROOT
BRANCH   1   2
ATOM      2  C   UNL     1      70.386  51.272  40.506  1.00  0.00     0.041 C 
ATOM      3  O   UNL     1      71.029  52.283  40.120  1.00  0.00    -0.550 OA
ATOM      4  O   UNL     1      69.138  51.434  41.096  1.00  0.00    -0.550 OA
ENDBRANCH   1   2
BRANCH   1   5
ATOM      5  C   UNL     1      70.647  49.281  39.002  1.00  0.00     0.003 C 
ATOM      6  C   UNL     1      70.340  47.788  39.101  1.00  0.00     0.004 C 
ENDBRANCH   1   5
TORSDOF 2
ENDMDL
