MODEL 1
REMARK VINA RESULT:    -3.990      0.000      0.000
REMARK INTER + INTRA:         -13.036
REMARK INTER:                  -9.123
REMARK INTRA:                  -3.913
REMARK UNBOUND:                -3.913
REMARK SMILES CCCCCCCCCCCCCCCCCCCCCCCC(=O)[O-]
REMARK SMILES IDX 13 1 14 2 15 3 16 4 17 5 18 6 19 7 20 8 21 9 22 10 23 11
REMARK SMILES IDX 24 12 25 13 26 14 12 15 11 16 10 17 9 18 8 19 7 20 6 21 5 22
REMARK SMILES IDX 4 23 3 24 2 25 1 26
REMARK H PARENT
REMARK Flexibility Score: inf
ROOT
ATOM      1  C   UNL     1      26.522 -18.170  25.011  1.00  0.00     0.000 C 
ENDROOT
BRANCH   1   2
ATOM      2  C   UNL     1      27.854 -18.522  24.321  1.00  0.00     0.000 C 
BRANCH   2   3
ATOM      3  C   UNL     1      28.889 -19.222  25.225  1.00  0.00     0.000 C 
BRANCH   3   4
ATOM      4  C   UNL     1      30.069 -18.338  25.678  1.00  0.00     0.000 C 
BRANCH   4   5
ATOM      5  C   UNL     1      30.564 -18.594  27.114  1.00  0.00     0.000 C 
BRANCH   5   6
ATOM      6  C   UNL     1      29.569 -19.418  27.949  1.00  0.00     0.000 C 
BRANCH   6   7
ATOM      7  C   UNL     1      29.458 -18.923  29.400  1.00  0.00     0.000 C 
BRANCH   7   8
ATOM      8  C   UNL     1      29.871 -17.448  29.559  1.00  0.00     0.000 C 
BRANCH   8   9
ATOM      9  C   UNL     1      28.750 -16.575  30.153  1.00  0.00     0.000 C 
BRANCH   9  10
ATOM     10  C   UNL     1      29.086 -15.901  31.500  1.00  0.00     0.006 C 
BRANCH  10  11
ATOM     11  C   UNL     1      28.398 -14.545  31.724  1.00  0.00     0.053 C 
BRANCH  11  12
ATOM     12  C   UNL     1      29.387 -13.423  31.814  1.00  0.00     0.041 C 
ATOM     13  O   UNL     1      29.054 -12.323  32.330  1.00  0.00    -0.550 OA
ATOM     14  O   UNL     1      30.664 -13.579  31.292  1.00  0.00    -0.550 OA
ENDBRANCH  11  12
ENDBRANCH  10  11
ENDBRANCH   9  10
ENDBRANCH   8   9
ENDBRANCH   7   8
ENDBRANCH   6   7
ENDBRANCH   5   6
ENDBRANCH   4   5
ENDBRANCH   3   4
ENDBRANCH   2   3
ENDBRANCH   1   2
BRANCH   1  15
ATOM     15  C   UNL     1      26.582 -16.839  25.772  1.00  0.00     0.000 C 
BRANCH  15  16
ATOM     16  C   UNL     1      26.391 -17.056  27.282  1.00  0.00     0.000 C 
BRANCH  16  17
ATOM     17  C   UNL     1      26.123 -18.528  27.630  1.00  0.00     0.000 C 
BRANCH  17  18
ATOM     18  C   UNL     1      25.726 -18.726  29.101  1.00  0.00    -0.000 C 
BRANCH  18  19
ATOM     19  C   UNL     1      24.275 -19.220  29.213  1.00  0.00    -0.000 C 
BRANCH  19  20
ATOM     20  C   UNL     1      23.755 -19.856  27.912  1.00  0.00    -0.000 C 
BRANCH  20  21
ATOM     21  C   UNL     1      22.544 -19.146  27.271  1.00  0.00    -0.000 C 
BRANCH  21  22
ATOM     22  C   UNL     1      22.839 -18.514  25.893  1.00  0.00    -0.000 C 
BRANCH  22  23
ATOM     23  C   UNL     1      22.584 -16.998  25.876  1.00  0.00    -0.000 C 
BRANCH  23  24
ATOM     24  C   UNL     1      22.456 -16.438  27.299  1.00  0.00    -0.000 C 
BRANCH  24  25
ATOM     25  C   UNL     1      22.651 -14.915  27.351  1.00  0.00    -0.003 C 
ATOM     26  C   UNL     1      23.843 -14.442  26.520  1.00  0.00     0.004 C 
ENDBRANCH  24  25
ENDBRANCH  23  24
ENDBRANCH  22  23
ENDBRANCH  21  22
ENDBRANCH  20  21
ENDBRANCH  19  20
ENDBRANCH  18  19
ENDBRANCH  17  18
ENDBRANCH  16  17
ENDBRANCH  15  16
ENDBRANCH   1  15
TORSDOF 22
ENDMDL
MODEL 2
REMARK VINA RESULT:    -3.960      2.648      6.611
REMARK INTER + INTRA:         -12.966
REMARK INTER:                  -9.446
REMARK INTRA:                  -3.520
REMARK UNBOUND:                -3.913
REMARK SMILES CCCCCCCCCCCCCCCCCCCCCCCC(=O)[O-]
REMARK SMILES IDX 13 1 14 2 15 3 16 4 17 5 18 6 19 7 20 8 21 9 22 10 23 11
REMARK SMILES IDX 24 12 25 13 26 14 12 15 11 16 10 17 9 18 8 19 7 20 6 21 5 22
REMARK SMILES IDX 4 23 3 24 2 25 1 26
REMARK H PARENT
REMARK Flexibility Score: inf
ROOT
ATOM      1  C   UNL     1      26.156 -17.809  25.027  1.00  0.00     0.000 C 
ENDROOT
BRANCH   1   2
ATOM      2  C   UNL     1      26.307 -16.532  25.876  1.00  0.00     0.000 C 
BRANCH   2   3
ATOM      3  C   UNL     1      26.183 -16.746  27.399  1.00  0.00     0.000 C 
BRANCH   3   4
ATOM      4  C   UNL     1      26.345 -18.204  27.873  1.00  0.00     0.000 C 
BRANCH   4   5
ATOM      5  C   UNL     1      25.414 -18.624  29.025  1.00  0.00     0.000 C 
BRANCH   5   6
ATOM      6  C   UNL     1      24.867 -20.053  28.858  1.00  0.00     0.000 C 
BRANCH   6   7
ATOM      7  C   UNL     1      23.602 -20.107  27.985  1.00  0.00     0.000 C 
BRANCH   7   8
ATOM      8  C   UNL     1      22.936 -18.729  27.817  1.00  0.00     0.000 C 
BRANCH   8   9
ATOM      9  C   UNL     1      22.353 -18.516  26.407  1.00  0.00     0.000 C 
BRANCH   9  10
ATOM     10  C   UNL     1      22.608 -17.124  25.792  1.00  0.00     0.006 C 
BRANCH  10  11
ATOM     11  C   UNL     1      22.606 -15.969  26.806  1.00  0.00     0.053 C 
BRANCH  11  12
ATOM     12  C   UNL     1      22.809 -14.641  26.142  1.00  0.00     0.041 C 
ATOM     13  O   UNL     1      23.820 -13.942  26.416  1.00  0.00    -0.550 OA
ATOM     14  O   UNL     1      21.860 -14.158  25.250  1.00  0.00    -0.550 OA
ENDBRANCH  11  12
ENDBRANCH  10  11
ENDBRANCH   9  10
ENDBRANCH   8   9
ENDBRANCH   7   8
ENDBRANCH   6   7
ENDBRANCH   5   6
ENDBRANCH   4   5
ENDBRANCH   3   4
ENDBRANCH   2   3
ENDBRANCH   1   2
BRANCH   1  15
ATOM     15  C   UNL     1      27.475 -18.249  24.377  1.00  0.00     0.000 C 
BRANCH  15  16
ATOM     16  C   UNL     1      27.824 -19.697  24.757  1.00  0.00     0.000 C 
BRANCH  16  17
ATOM     17  C   UNL     1      28.964 -19.772  25.785  1.00  0.00     0.000 C 
BRANCH  17  18
ATOM     18  C   UNL     1      29.769 -18.466  25.871  1.00  0.00    -0.000 C 
BRANCH  18  19
ATOM     19  C   UNL     1      30.450 -18.335  27.243  1.00  0.00    -0.000 C 
BRANCH  19  20
ATOM     20  C   UNL     1      29.568 -18.830  28.402  1.00  0.00    -0.000 C 
BRANCH  20  21
ATOM     21  C   UNL     1      30.030 -18.400  29.809  1.00  0.00    -0.000 C 
BRANCH  21  22
ATOM     22  C   UNL     1      29.915 -16.883  30.076  1.00  0.00    -0.000 C 
BRANCH  22  23
ATOM     23  C   UNL     1      28.495 -16.468  30.499  1.00  0.00    -0.000 C 
BRANCH  23  24
ATOM     24  C   UNL     1      28.346 -14.941  30.528  1.00  0.00    -0.000 C 
BRANCH  24  25
ATOM     25  C   UNL     1      28.891 -14.321  31.824  1.00  0.00    -0.003 C 
ATOM     26  C   UNL     1      29.625 -13.002  31.586  1.00  0.00     0.004 C 
ENDBRANCH  24  25
ENDBRANCH  23  24
ENDBRANCH  22  23
ENDBRANCH  21  22
ENDBRANCH  20  21
ENDBRANCH  19  20
ENDBRANCH  18  19
ENDBRANCH  17  18
ENDBRANCH  16  17
ENDBRANCH  15  16
ENDBRANCH   1  15
TORSDOF 22
ENDMDL
MODEL 3
REMARK VINA RESULT:    -3.939      4.300      7.741
REMARK INTER + INTRA:         -12.919
REMARK INTER:                  -9.885
REMARK INTRA:                  -3.034
REMARK UNBOUND:                -3.913
REMARK SMILES CCCCCCCCCCCCCCCCCCCCCCCC(=O)[O-]
REMARK SMILES IDX 13 1 14 2 15 3 16 4 17 5 18 6 19 7 20 8 21 9 22 10 23 11
REMARK SMILES IDX 24 12 25 13 26 14 12 15 11 16 10 17 9 18 8 19 7 20 6 21 5 22
REMARK SMILES IDX 4 23 3 24 2 25 1 26
REMARK H PARENT
REMARK Flexibility Score: inf
ROOT
ATOM      1  C   UNL     1      26.572 -16.308  25.522  1.00  0.00     0.000 C 
ENDROOT
BRANCH   1   2
ATOM      2  C   UNL     1      25.489 -16.163  26.608  1.00  0.00     0.000 C 
BRANCH   2   3
ATOM      3  C   UNL     1      24.660 -14.865  26.531  1.00  0.00     0.000 C 
BRANCH   3   4
ATOM      4  C   UNL     1      23.147 -15.065  26.310  1.00  0.00     0.000 C 
BRANCH   4   5
ATOM      5  C   UNL     1      22.689 -16.531  26.207  1.00  0.00     0.000 C 
BRANCH   5   6
ATOM      6  C   UNL     1      22.110 -17.069  27.527  1.00  0.00     0.000 C 
BRANCH   6   7
ATOM      7  C   UNL     1      21.686 -15.949  28.491  1.00  0.00     0.000 C 
BRANCH   7   8
ATOM      8  C   UNL     1      20.587 -16.392  29.473  1.00  0.00     0.000 C 
BRANCH   8   9
ATOM      9  C   UNL     1      19.460 -15.352  29.617  1.00  0.00     0.000 C 
BRANCH   9  10
ATOM     10  C   UNL     1      18.986 -15.092  31.063  1.00  0.00     0.006 C 
BRANCH  10  11
ATOM     11  C   UNL     1      19.145 -16.291  32.011  1.00  0.00     0.053 C 
BRANCH  11  12
ATOM     12  C   UNL     1      17.897 -17.118  32.082  1.00  0.00     0.041 C 
ATOM     13  O   UNL     1      17.960 -18.336  32.394  1.00  0.00    -0.550 OA
ATOM     14  O   UNL     1      16.670 -16.551  31.764  1.00  0.00    -0.550 OA
ENDBRANCH  11  12
ENDBRANCH  10  11
ENDBRANCH   9  10
ENDBRANCH   8   9
ENDBRANCH   7   8
ENDBRANCH   6   7
ENDBRANCH   5   6
ENDBRANCH   4   5
ENDBRANCH   3   4
ENDBRANCH   2   3
ENDBRANCH   1   2
BRANCH   1  15
ATOM     15  C   UNL     1      26.310 -17.489  24.577  1.00  0.00     0.000 C 
BRANCH  15  16
ATOM     16  C   UNL     1      26.214 -18.811  25.357  1.00  0.00     0.000 C 
BRANCH  16  17
ATOM     17  C   UNL     1      27.366 -19.771  25.019  1.00  0.00     0.000 C 
BRANCH  17  18
ATOM     18  C   UNL     1      28.417 -19.133  24.098  1.00  0.00    -0.000 C 
BRANCH  18  19
ATOM     19  C   UNL     1      29.675 -18.748  24.893  1.00  0.00    -0.000 C 
BRANCH  19  20
ATOM     20  C   UNL     1      29.833 -19.550  26.195  1.00  0.00    -0.000 C 
BRANCH  20  21
ATOM     21  C   UNL     1      29.956 -18.702  27.479  1.00  0.00    -0.000 C 
BRANCH  21  22
ATOM     22  C   UNL     1      28.857 -18.980  28.527  1.00  0.00    -0.000 C 
BRANCH  22  23
ATOM     23  C   UNL     1      28.029 -17.726  28.854  1.00  0.00    -0.000 C 
BRANCH  23  24
ATOM     24  C   UNL     1      26.687 -18.096  29.501  1.00  0.00    -0.000 C 
BRANCH  24  25
ATOM     25  C   UNL     1      26.038 -19.325  28.844  1.00  0.00    -0.003 C 
ATOM     26  C   UNL     1      24.511 -19.290  28.904  1.00  0.00     0.004 C 
ENDBRANCH  24  25
ENDBRANCH  23  24
ENDBRANCH  22  23
ENDBRANCH  21  22
ENDBRANCH  20  21
ENDBRANCH  19  20
ENDBRANCH  18  19
ENDBRANCH  17  18
ENDBRANCH  16  17
ENDBRANCH  15  16
ENDBRANCH   1  15
TORSDOF 22
ENDMDL
MODEL 4
REMARK VINA RESULT:    -3.806      3.880      7.020
REMARK INTER + INTRA:         -12.614
REMARK INTER:                  -9.466
REMARK INTRA:                  -3.147
REMARK UNBOUND:                -3.913
REMARK SMILES CCCCCCCCCCCCCCCCCCCCCCCC(=O)[O-]
REMARK SMILES IDX 13 1 14 2 15 3 16 4 17 5 18 6 19 7 20 8 21 9 22 10 23 11
REMARK SMILES IDX 24 12 25 13 26 14 12 15 11 16 10 17 9 18 8 19 7 20 6 21 5 22
REMARK SMILES IDX 4 23 3 24 2 25 1 26
REMARK H PARENT
REMARK Flexibility Score: inf
ROOT
ATOM      1  C   UNL     1      27.128 -18.570  24.740  1.00  0.00     0.000 C 
ENDROOT
BRANCH   1   2
ATOM      2  C   UNL     1      27.251 -17.414  25.751  1.00  0.00     0.000 C 
BRANCH   2   3
ATOM      3  C   UNL     1      26.261 -16.252  25.535  1.00  0.00     0.000 C 
BRANCH   3   4
ATOM      4  C   UNL     1      25.521 -15.775  26.801  1.00  0.00     0.000 C 
BRANCH   4   5
ATOM      5  C   UNL     1      24.550 -14.600  26.588  1.00  0.00     0.000 C 
BRANCH   5   6
ATOM      6  C   UNL     1      23.092 -15.057  26.402  1.00  0.00     0.000 C 
BRANCH   6   7
ATOM      7  C   UNL     1      22.266 -14.949  27.694  1.00  0.00     0.000 C 
BRANCH   7   8
ATOM      8  C   UNL     1      21.795 -16.318  28.215  1.00  0.00     0.000 C 
BRANCH   8   9
ATOM      9  C   UNL     1      20.968 -16.212  29.510  1.00  0.00     0.000 C 
BRANCH   9  10
ATOM     10  C   UNL     1      20.059 -14.968  29.610  1.00  0.00     0.006 C 
BRANCH  10  11
ATOM     11  C   UNL     1      19.082 -14.986  30.796  1.00  0.00     0.053 C 
BRANCH  11  12
ATOM     12  C   UNL     1      18.236 -16.223  30.806  1.00  0.00     0.041 C 
ATOM     13  O   UNL     1      18.147 -16.922  31.850  1.00  0.00    -0.550 OA
ATOM     14  O   UNL     1      17.579 -16.624  29.650  1.00  0.00    -0.550 OA
ENDBRANCH  11  12
ENDBRANCH  10  11
ENDBRANCH   9  10
ENDBRANCH   8   9
ENDBRANCH   7   8
ENDBRANCH   6   7
ENDBRANCH   5   6
ENDBRANCH   4   5
ENDBRANCH   3   4
ENDBRANCH   2   3
ENDBRANCH   1   2
BRANCH   1  15
ATOM     15  C   UNL     1      28.491 -19.106  24.283  1.00  0.00     0.000 C 
BRANCH  15  16
ATOM     16  C   UNL     1      29.637 -18.441  25.063  1.00  0.00     0.000 C 
BRANCH  16  17
ATOM     17  C   UNL     1      30.536 -19.470  25.767  1.00  0.00     0.000 C 
BRANCH  17  18
ATOM     18  C   UNL     1      30.106 -19.737  27.218  1.00  0.00    -0.000 C 
BRANCH  18  19
ATOM     19  C   UNL     1      29.937 -18.417  27.988  1.00  0.00    -0.000 C 
BRANCH  19  20
ATOM     20  C   UNL     1      29.075 -18.566  29.253  1.00  0.00    -0.000 C 
BRANCH  20  21
ATOM     21  C   UNL     1      27.795 -17.705  29.281  1.00  0.00    -0.000 C 
BRANCH  21  22
ATOM     22  C   UNL     1      26.581 -18.398  29.938  1.00  0.00    -0.000 C 
BRANCH  22  23
ATOM     23  C   UNL     1      25.887 -19.390  28.990  1.00  0.00    -0.000 C 
BRANCH  23  24
ATOM     24  C   UNL     1      24.632 -18.772  28.358  1.00  0.00    -0.000 C 
BRANCH  24  25
ATOM     25  C   UNL     1      24.107 -19.593  27.170  1.00  0.00    -0.003 C 
ATOM     26  C   UNL     1      23.426 -18.730  26.109  1.00  0.00     0.004 C 
ENDBRANCH  24  25
ENDBRANCH  23  24
ENDBRANCH  22  23
ENDBRANCH  21  22
ENDBRANCH  20  21
ENDBRANCH  19  20
ENDBRANCH  18  19
ENDBRANCH  17  18
ENDBRANCH  16  17
ENDBRANCH  15  16
ENDBRANCH   1  15
TORSDOF 22
ENDMDL
MODEL 5
REMARK VINA RESULT:    -3.746      6.185      9.905
REMARK INTER + INTRA:         -12.477
REMARK INTER:                 -10.040
REMARK INTRA:                  -2.437
REMARK UNBOUND:                -3.913
REMARK SMILES CCCCCCCCCCCCCCCCCCCCCCCC(=O)[O-]
REMARK SMILES IDX 13 1 14 2 15 3 16 4 17 5 18 6 19 7 20 8 21 9 22 10 23 11
REMARK SMILES IDX 24 12 25 13 26 14 12 15 11 16 10 17 9 18 8 19 7 20 6 21 5 22
REMARK SMILES IDX 4 23 3 24 2 25 1 26
REMARK H PARENT
REMARK Flexibility Score: inf
ROOT
ATOM      1  C   UNL     1      22.918 -15.374  26.577  1.00  0.00     0.000 C 
ENDROOT
BRANCH   1   2
ATOM      2  C   UNL     1      22.057 -15.237  27.848  1.00  0.00     0.000 C 
BRANCH   2   3
ATOM      3  C   UNL     1      21.714 -16.568  28.547  1.00  0.00     0.000 C 
BRANCH   3   4
ATOM      4  C   UNL     1      20.432 -16.547  29.404  1.00  0.00     0.000 C 
BRANCH   4   5
ATOM      5  C   UNL     1      19.936 -15.146  29.806  1.00  0.00     0.000 C 
BRANCH   5   6
ATOM      6  C   UNL     1      18.888 -15.185  30.932  1.00  0.00     0.000 C 
BRANCH   6   7
ATOM      7  C   UNL     1      19.301 -16.098  32.097  1.00  0.00     0.000 C 
BRANCH   7   8
ATOM      8  C   UNL     1      18.176 -17.057  32.528  1.00  0.00     0.000 C 
BRANCH   8   9
ATOM      9  C   UNL     1      17.214 -17.404  31.377  1.00  0.00     0.000 C 
BRANCH   9  10
ATOM     10  C   UNL     1      15.717 -17.187  31.682  1.00  0.00     0.006 C 
BRANCH  10  11
ATOM     11  C   UNL     1      14.820 -17.086  30.438  1.00  0.00     0.053 C 
BRANCH  11  12
ATOM     12  C   UNL     1      13.385 -16.853  30.800  1.00  0.00     0.041 C 
ATOM     13  O   UNL     1      12.470 -17.493  30.216  1.00  0.00    -0.550 OA
ATOM     14  O   UNL     1      13.055 -15.899  31.754  1.00  0.00    -0.550 OA
ENDBRANCH  11  12
ENDBRANCH  10  11
ENDBRANCH   9  10
ENDBRANCH   8   9
ENDBRANCH   7   8
ENDBRANCH   6   7
ENDBRANCH   5   6
ENDBRANCH   4   5
ENDBRANCH   3   4
ENDBRANCH   2   3
ENDBRANCH   1   2
BRANCH   1  15
ATOM     15  C   UNL     1      22.861 -16.782  25.971  1.00  0.00     0.000 C 
BRANCH  15  16
ATOM     16  C   UNL     1      24.261 -17.413  25.903  1.00  0.00     0.000 C 
BRANCH  16  17
ATOM     17  C   UNL     1      25.378 -16.372  26.076  1.00  0.00     0.000 C 
BRANCH  17  18
ATOM     18  C   UNL     1      26.644 -16.725  25.279  1.00  0.00    -0.000 C 
BRANCH  18  19
ATOM     19  C   UNL     1      26.635 -18.207  24.870  1.00  0.00    -0.000 C 
BRANCH  19  20
ATOM     20  C   UNL     1      27.997 -18.694  24.346  1.00  0.00    -0.000 C 
BRANCH  20  21
ATOM     21  C   UNL     1      29.135 -18.710  25.389  1.00  0.00    -0.000 C 
BRANCH  21  22
ATOM     22  C   UNL     1      29.252 -20.033  26.176  1.00  0.00    -0.000 C 
BRANCH  22  23
ATOM     23  C   UNL     1      28.799 -19.888  27.638  1.00  0.00    -0.000 C 
BRANCH  23  24
ATOM     24  C   UNL     1      28.626 -18.412  28.024  1.00  0.00    -0.000 C 
BRANCH  24  25
ATOM     25  C   UNL     1      27.424 -18.185  28.955  1.00  0.00    -0.003 C 
ATOM     26  C   UNL     1      26.211 -19.032  28.573  1.00  0.00     0.004 C 
ENDBRANCH  24  25
ENDBRANCH  23  24
ENDBRANCH  22  23
ENDBRANCH  21  22
ENDBRANCH  20  21
ENDBRANCH  19  20
ENDBRANCH  18  19
ENDBRANCH  17  18
ENDBRANCH  16  17
ENDBRANCH  15  16
ENDBRANCH   1  15
TORSDOF 22
ENDMDL
MODEL 6
REMARK VINA RESULT:    -3.729      4.971      6.861
REMARK INTER + INTRA:         -12.438
REMARK INTER:                 -10.229
REMARK INTRA:                  -2.210
REMARK UNBOUND:                -3.913
REMARK SMILES CCCCCCCCCCCCCCCCCCCCCCCC(=O)[O-]
REMARK SMILES IDX 13 1 14 2 15 3 16 4 17 5 18 6 19 7 20 8 21 9 22 10 23 11
REMARK SMILES IDX 24 12 25 13 26 14 12 15 11 16 10 17 9 18 8 19 7 20 6 21 5 22
REMARK SMILES IDX 4 23 3 24 2 25 1 26
REMARK H PARENT
REMARK Flexibility Score: inf
ROOT
ATOM      1  C   UNL     1      22.702 -15.240  26.498  1.00  0.00     0.000 C 
ENDROOT
BRANCH   1   2
ATOM      2  C   UNL     1      22.747 -16.684  25.963  1.00  0.00     0.000 C 
BRANCH   2   3
ATOM      3  C   UNL     1      24.163 -17.265  25.775  1.00  0.00     0.000 C 
BRANCH   3   4
ATOM      4  C   UNL     1      25.316 -16.342  26.219  1.00  0.00     0.000 C 
BRANCH   4   5
ATOM      5  C   UNL     1      26.635 -16.524  25.447  1.00  0.00     0.000 C 
BRANCH   5   6
ATOM      6  C   UNL     1      26.605 -17.731  24.493  1.00  0.00     0.000 C 
BRANCH   6   7
ATOM      7  C   UNL     1      27.780 -18.696  24.718  1.00  0.00     0.000 C 
BRANCH   7   8
ATOM      8  C   UNL     1      28.963 -18.033  25.447  1.00  0.00     0.000 C 
BRANCH   8   9
ATOM      9  C   UNL     1      29.630 -18.967  26.474  1.00  0.00     0.000 C 
BRANCH   9  10
ATOM     10  C   UNL     1      28.745 -20.123  26.985  1.00  0.00     0.006 C 
BRANCH  10  11
ATOM     11  C   UNL     1      28.152 -19.901  28.386  1.00  0.00     0.053 C 
BRANCH  11  12
ATOM     12  C   UNL     1      26.853 -19.155  28.332  1.00  0.00     0.041 C 
ATOM     13  O   UNL     1      25.893 -19.599  27.648  1.00  0.00    -0.550 OA
ATOM     14  O   UNL     1      26.718 -17.947  29.003  1.00  0.00    -0.550 OA
ENDBRANCH  11  12
ENDBRANCH  10  11
ENDBRANCH   9  10
ENDBRANCH   8   9
ENDBRANCH   7   8
ENDBRANCH   6   7
ENDBRANCH   5   6
ENDBRANCH   4   5
ENDBRANCH   3   4
ENDBRANCH   2   3
ENDBRANCH   1   2
BRANCH   1  15
ATOM     15  C   UNL     1      22.014 -15.136  27.866  1.00  0.00     0.000 C 
BRANCH  15  16
ATOM     16  C   UNL     1      21.754 -16.529  28.463  1.00  0.00     0.000 C 
BRANCH  16  17
ATOM     17  C   UNL     1      20.618 -16.517  29.497  1.00  0.00     0.000 C 
BRANCH  17  18
ATOM     18  C   UNL     1      20.078 -15.104  29.766  1.00  0.00    -0.000 C 
BRANCH  18  19
ATOM     19  C   UNL     1      19.029 -15.126  30.890  1.00  0.00    -0.000 C 
BRANCH  19  20
ATOM     20  C   UNL     1      19.169 -16.344  31.819  1.00  0.00    -0.000 C 
BRANCH  20  21
ATOM     21  C   UNL     1      17.841 -17.025  32.214  1.00  0.00    -0.000 C 
BRANCH  21  22
ATOM     22  C   UNL     1      16.603 -16.472  31.476  1.00  0.00    -0.000 C 
BRANCH  22  23
ATOM     23  C   UNL     1      15.953 -17.518  30.555  1.00  0.00    -0.000 C 
BRANCH  23  24
ATOM     24  C   UNL     1      14.452 -17.252  30.380  1.00  0.00    -0.000 C 
BRANCH  24  25
ATOM     25  C   UNL     1      13.820 -16.611  31.626  1.00  0.00    -0.003 C 
ATOM     26  C   UNL     1      12.482 -15.935  31.330  1.00  0.00     0.004 C 
ENDBRANCH  24  25
ENDBRANCH  23  24
ENDBRANCH  22  23
ENDBRANCH  21  22
ENDBRANCH  20  21
ENDBRANCH  19  20
ENDBRANCH  18  19
ENDBRANCH  17  18
ENDBRANCH  16  17
ENDBRANCH  15  16
ENDBRANCH   1  15
TORSDOF 22
ENDMDL
MODEL 7
REMARK VINA RESULT:    -3.722      5.245      8.803
REMARK INTER + INTRA:         -12.422
REMARK INTER:                  -9.647
REMARK INTRA:                  -2.775
REMARK UNBOUND:                -3.913
REMARK SMILES CCCCCCCCCCCCCCCCCCCCCCCC(=O)[O-]
REMARK SMILES IDX 13 1 14 2 15 3 16 4 17 5 18 6 19 7 20 8 21 9 22 10 23 11
REMARK SMILES IDX 24 12 25 13 26 14 12 15 11 16 10 17 9 18 8 19 7 20 6 21 5 22
REMARK SMILES IDX 4 23 3 24 2 25 1 26
REMARK H PARENT
REMARK Flexibility Score: inf
ROOT
ATOM      1  C   UNL     1      24.264 -17.363  25.639  1.00  0.00     0.000 C 
ENDROOT
BRANCH   1   2
ATOM      2  C   UNL     1      22.846 -16.905  26.033  1.00  0.00     0.000 C 
BRANCH   2   3
ATOM      3  C   UNL     1      22.656 -15.377  26.121  1.00  0.00     0.000 C 
BRANCH   3   4
ATOM      4  C   UNL     1      22.230 -14.846  27.504  1.00  0.00     0.000 C 
BRANCH   4   5
ATOM      5  C   UNL     1      21.740 -15.919  28.494  1.00  0.00     0.000 C 
BRANCH   5   6
ATOM      6  C   UNL     1      20.551 -15.444  29.347  1.00  0.00     0.000 C 
BRANCH   6   7
ATOM      7  C   UNL     1      20.595 -15.991  30.784  1.00  0.00     0.000 C 
BRANCH   7   8
ATOM      8  C   UNL     1      19.359 -15.591  31.610  1.00  0.00     0.000 C 
BRANCH   8   9
ATOM      9  C   UNL     1      18.533 -16.806  32.073  1.00  0.00     0.000 C 
BRANCH   9  10
ATOM     10  C   UNL     1      17.084 -16.857  31.544  1.00  0.00     0.006 C 
BRANCH  10  11
ATOM     11  C   UNL     1      16.964 -16.854  30.012  1.00  0.00     0.053 C 
BRANCH  11  12
ATOM     12  C   UNL     1      15.739 -17.580  29.545  1.00  0.00     0.041 C 
ATOM     13  O   UNL     1      14.688 -17.565  30.240  1.00  0.00    -0.550 OA
ATOM     14  O   UNL     1      15.771 -18.307  28.362  1.00  0.00    -0.550 OA
ENDBRANCH  11  12
ENDBRANCH  10  11
ENDBRANCH   9  10
ENDBRANCH   8   9
ENDBRANCH   7   8
ENDBRANCH   6   7
ENDBRANCH   5   6
ENDBRANCH   4   5
ENDBRANCH   3   4
ENDBRANCH   2   3
ENDBRANCH   1   2
BRANCH   1  15
ATOM     15  C   UNL     1      25.341 -16.330  25.997  1.00  0.00     0.000 C 
BRANCH  15  16
ATOM     16  C   UNL     1      26.662 -16.634  25.271  1.00  0.00     0.000 C 
BRANCH  16  17
ATOM     17  C   UNL     1      26.648 -18.010  24.588  1.00  0.00     0.000 C 
BRANCH  17  18
ATOM     18  C   UNL     1      28.052 -18.623  24.463  1.00  0.00    -0.000 C 
BRANCH  18  19
ATOM     19  C   UNL     1      28.134 -19.956  25.224  1.00  0.00    -0.000 C 
BRANCH  19  20
ATOM     20  C   UNL     1      29.315 -20.015  26.208  1.00  0.00    -0.000 C 
BRANCH  20  21
ATOM     21  C   UNL     1      29.859 -18.645  26.665  1.00  0.00    -0.000 C 
BRANCH  21  22
ATOM     22  C   UNL     1      30.060 -18.522  28.191  1.00  0.00    -0.000 C 
BRANCH  22  23
ATOM     23  C   UNL     1      28.764 -18.785  28.976  1.00  0.00    -0.000 C 
BRANCH  23  24
ATOM     24  C   UNL     1      27.712 -17.704  28.694  1.00  0.00    -0.000 C 
BRANCH  24  25
ATOM     25  C   UNL     1      26.275 -18.221  28.869  1.00  0.00    -0.003 C 
ATOM     26  C   UNL     1      26.037 -19.556  28.165  1.00  0.00     0.004 C 
ENDBRANCH  24  25
ENDBRANCH  23  24
ENDBRANCH  22  23
ENDBRANCH  21  22
ENDBRANCH  20  21
ENDBRANCH  19  20
ENDBRANCH  18  19
ENDBRANCH  17  18
ENDBRANCH  16  17
ENDBRANCH  15  16
ENDBRANCH   1  15
TORSDOF 22
ENDMDL
MODEL 8
REMARK VINA RESULT:    -3.720      4.460      7.965
REMARK INTER + INTRA:         -12.419
REMARK INTER:                 -10.599
REMARK INTRA:                  -1.820
REMARK UNBOUND:                -3.913
REMARK SMILES CCCCCCCCCCCCCCCCCCCCCCCC(=O)[O-]
REMARK SMILES IDX 13 1 14 2 15 3 16 4 17 5 18 6 19 7 20 8 21 9 22 10 23 11
REMARK SMILES IDX 24 12 25 13 26 14 12 15 11 16 10 17 9 18 8 19 7 20 6 21 5 22
REMARK SMILES IDX 4 23 3 24 2 25 1 26
REMARK H PARENT
REMARK Flexibility Score: inf
ROOT
ATOM      1  C   UNL     1      26.619 -16.486  25.321  1.00  0.00     0.000 C 
ENDROOT
BRANCH   1   2
ATOM      2  C   UNL     1      25.550 -16.083  26.355  1.00  0.00     0.000 C 
BRANCH   2   3
ATOM      3  C   UNL     1      24.483 -17.159  26.642  1.00  0.00     0.000 C 
BRANCH   3   4
ATOM      4  C   UNL     1      23.043 -16.777  26.248  1.00  0.00     0.000 C 
BRANCH   4   5
ATOM      5  C   UNL     1      22.765 -15.265  26.170  1.00  0.00     0.000 C 
BRANCH   5   6
ATOM      6  C   UNL     1      22.252 -14.684  27.499  1.00  0.00     0.000 C 
BRANCH   6   7
ATOM      7  C   UNL     1      21.732 -15.766  28.460  1.00  0.00     0.000 C 
BRANCH   7   8
ATOM      8  C   UNL     1      20.600 -15.258  29.371  1.00  0.00     0.000 C 
BRANCH   8   9
ATOM      9  C   UNL     1      20.222 -16.268  30.472  1.00  0.00     0.000 C 
BRANCH   9  10
ATOM     10  C   UNL     1      19.402 -15.687  31.643  1.00  0.00     0.006 C 
BRANCH  10  11
ATOM     11  C   UNL     1      18.760 -16.743  32.557  1.00  0.00     0.053 C 
BRANCH  11  12
ATOM     12  C   UNL     1      17.364 -17.079  32.129  1.00  0.00     0.041 C 
ATOM     13  O   UNL     1      16.703 -17.953  32.751  1.00  0.00    -0.550 OA
ATOM     14  O   UNL     1      16.808 -16.456  31.020  1.00  0.00    -0.550 OA
ENDBRANCH  11  12
ENDBRANCH  10  11
ENDBRANCH   9  10
ENDBRANCH   8   9
ENDBRANCH   7   8
ENDBRANCH   6   7
ENDBRANCH   5   6
ENDBRANCH   4   5
ENDBRANCH   3   4
ENDBRANCH   2   3
ENDBRANCH   1   2
BRANCH   1  15
ATOM     15  C   UNL     1      26.476 -17.942  24.858  1.00  0.00     0.000 C 
BRANCH  15  16
ATOM     16  C   UNL     1      27.782 -18.453  24.228  1.00  0.00     0.000 C 
BRANCH  16  17
ATOM     17  C   UNL     1      28.624 -19.273  25.218  1.00  0.00     0.000 C 
BRANCH  17  18
ATOM     18  C   UNL     1      29.689 -18.426  25.932  1.00  0.00    -0.000 C 
BRANCH  18  19
ATOM     19  C   UNL     1      30.087 -19.066  27.271  1.00  0.00    -0.000 C 
BRANCH  19  20
ATOM     20  C   UNL     1      29.651 -18.233  28.489  1.00  0.00    -0.000 C 
BRANCH  20  21
ATOM     21  C   UNL     1      28.137 -18.245  28.785  1.00  0.00    -0.000 C 
BRANCH  21  22
ATOM     22  C   UNL     1      27.605 -16.936  29.410  1.00  0.00    -0.000 C 
BRANCH  22  23
ATOM     23  C   UNL     1      28.559 -16.363  30.470  1.00  0.00    -0.000 C 
BRANCH  23  24
ATOM     24  C   UNL     1      28.447 -14.834  30.553  1.00  0.00    -0.000 C 
BRANCH  24  25
ATOM     25  C   UNL     1      29.706 -14.184  31.149  1.00  0.00    -0.003 C 
ATOM     26  C   UNL     1      29.387 -12.979  32.032  1.00  0.00     0.004 C 
ENDBRANCH  24  25
ENDBRANCH  23  24
ENDBRANCH  22  23
ENDBRANCH  21  22
ENDBRANCH  20  21
ENDBRANCH  19  20
ENDBRANCH  18  19
ENDBRANCH  17  18
ENDBRANCH  16  17
ENDBRANCH  15  16
ENDBRANCH   1  15
TORSDOF 22
ENDMDL
MODEL 9
REMARK VINA RESULT:    -3.674      4.397      7.665
REMARK INTER + INTRA:         -12.313
REMARK INTER:                  -8.869
REMARK INTRA:                  -3.444
REMARK UNBOUND:                -3.913
REMARK SMILES CCCCCCCCCCCCCCCCCCCCCCCC(=O)[O-]
REMARK SMILES IDX 13 1 14 2 15 3 16 4 17 5 18 6 19 7 20 8 21 9 22 10 23 11
REMARK SMILES IDX 24 12 25 13 26 14 12 15 11 16 10 17 9 18 8 19 7 20 6 21 5 22
REMARK SMILES IDX 4 23 3 24 2 25 1 26
REMARK H PARENT
REMARK Flexibility Score: inf
ROOT
ATOM      1  C   UNL     1      26.290 -16.677  25.650  1.00  0.00     0.000 C 
ENDROOT
BRANCH   1   2
ATOM      2  C   UNL     1      25.615 -15.837  26.751  1.00  0.00     0.000 C 
BRANCH   2   3
ATOM      3  C   UNL     1      25.339 -14.368  26.372  1.00  0.00     0.000 C 
BRANCH   3   4
ATOM      4  C   UNL     1      23.979 -13.813  26.841  1.00  0.00     0.000 C 
BRANCH   4   5
ATOM      5  C   UNL     1      22.767 -14.714  26.543  1.00  0.00     0.000 C 
BRANCH   5   6
ATOM      6  C   UNL     1      21.822 -14.861  27.748  1.00  0.00     0.000 C 
BRANCH   6   7
ATOM      7  C   UNL     1      21.769 -16.298  28.290  1.00  0.00     0.000 C 
BRANCH   7   8
ATOM      8  C   UNL     1      20.832 -16.442  29.503  1.00  0.00     0.000 C 
BRANCH   8   9
ATOM      9  C   UNL     1      20.247 -15.095  29.968  1.00  0.00     0.000 C 
BRANCH   9  10
ATOM     10  C   UNL     1      19.014 -15.196  30.891  1.00  0.00     0.006 C 
BRANCH  10  11
ATOM     11  C   UNL     1      18.777 -16.593  31.488  1.00  0.00     0.053 C 
BRANCH  11  12
ATOM     12  C   UNL     1      17.330 -16.830  31.799  1.00  0.00     0.041 C 
ATOM     13  O   UNL     1      16.978 -17.164  32.961  1.00  0.00    -0.550 OA
ATOM     14  O   UNL     1      16.377 -16.722  30.795  1.00  0.00    -0.550 OA
ENDBRANCH  11  12
ENDBRANCH  10  11
ENDBRANCH   9  10
ENDBRANCH   8   9
ENDBRANCH   7   8
ENDBRANCH   6   7
ENDBRANCH   5   6
ENDBRANCH   4   5
ENDBRANCH   3   4
ENDBRANCH   2   3
ENDBRANCH   1   2
BRANCH   1  15
ATOM     15  C   UNL     1      25.574 -18.011  25.400  1.00  0.00     0.000 C 
BRANCH  15  16
ATOM     16  C   UNL     1      24.061 -17.882  25.640  1.00  0.00     0.000 C 
BRANCH  16  17
ATOM     17  C   UNL     1      23.505 -19.037  26.488  1.00  0.00     0.000 C 
BRANCH  17  18
ATOM     18  C   UNL     1      24.543 -19.606  27.468  1.00  0.00    -0.000 C 
BRANCH  18  19
ATOM     19  C   UNL     1      24.569 -18.787  28.768  1.00  0.00    -0.000 C 
BRANCH  19  20
ATOM     20  C   UNL     1      25.334 -19.488  29.904  1.00  0.00    -0.000 C 
BRANCH  20  21
ATOM     21  C   UNL     1      26.870 -19.363  29.836  1.00  0.00    -0.000 C 
BRANCH  21  22
ATOM     22  C   UNL     1      27.371 -18.051  29.193  1.00  0.00    -0.000 C 
BRANCH  22  23
ATOM     23  C   UNL     1      28.410 -18.299  28.087  1.00  0.00    -0.000 C 
BRANCH  23  24
ATOM     24  C   UNL     1      28.244 -19.694  27.469  1.00  0.00    -0.000 C 
BRANCH  24  25
ATOM     25  C   UNL     1      28.977 -19.832  26.125  1.00  0.00    -0.003 C 
ATOM     26  C   UNL     1      29.545 -18.506  25.622  1.00  0.00     0.004 C 
ENDBRANCH  24  25
ENDBRANCH  23  24
ENDBRANCH  22  23
ENDBRANCH  21  22
ENDBRANCH  20  21
ENDBRANCH  19  20
ENDBRANCH  18  19
ENDBRANCH  17  18
ENDBRANCH  16  17
ENDBRANCH  15  16
ENDBRANCH   1  15
TORSDOF 22
ENDMDL
