MODEL 1
REMARK VINA RESULT:    -4.450      0.000      0.000
REMARK INTER + INTRA:          -4.580
REMARK INTER:                  -4.580
REMARK INTRA:                   0.000
REMARK UNBOUND:                 0.000
REMARK SMILES O=c1ccc2ccc(O)cc2o1
REMARK SMILES IDX 6 1 7 2 8 3 10 4 11 5 5 6 4 7 3 8 2 9 1 10 12 11 9 12
REMARK H PARENT 9 13
REMARK Flexibility Score: inf
ROOT
ATOM      1  C   UNL     1      32.113  31.755  25.772  1.00  0.00     0.016 A 
ATOM      2  C   UNL     1      31.172  32.375  24.944  1.00  0.00     0.047 A 
ATOM      3  C   UNL     1      29.833  31.959  24.957  1.00  0.00     0.119 A 
ATOM      4  C   UNL     1      29.435  30.916  25.802  1.00  0.00     0.094 A 
ATOM      5  C   UNL     1      30.369  30.288  26.633  1.00  0.00     0.142 A 
ATOM      6  C   UNL     1      31.716  30.710  26.618  1.00  0.00     0.018 A 
ATOM      7  C   UNL     1      32.627  30.064  27.461  1.00  0.00     0.019 A 
ATOM      8  C   UNL     1      32.181  29.030  28.285  1.00  0.00     0.094 A 
ATOM      9  C   UNL     1      30.831  28.666  28.246  1.00  0.00     0.336 A 
ATOM     10  O   UNL     1      30.410  27.735  28.982  1.00  0.00    -0.246 OA
ATOM     11  O   UNL     1      29.985  29.297  27.435  1.00  0.00    -0.423 OA
ENDROOT
BRANCH   3  12
ATOM     12  O   UNL     1      28.891  32.573  24.134  1.00  0.00    -0.508 OA
ATOM     13  H   UNL     1      28.774  33.580  24.123  1.00  0.00     0.293 HD
ENDBRANCH   3  12
TORSDOF 1
ENDMDL
MODEL 2
REMARK VINA RESULT:    -4.365     14.334     15.935
REMARK INTER + INTRA:          -4.493
REMARK INTER:                  -4.493
REMARK INTRA:                   0.000
REMARK UNBOUND:                 0.000
REMARK SMILES O=c1ccc2ccc(O)cc2o1
REMARK SMILES IDX 6 1 7 2 8 3 10 4 11 5 5 6 4 7 3 8 2 9 1 10 12 11 9 12
REMARK H PARENT 9 13
REMARK Flexibility Score: inf
ROOT
ATOM      1  C   UNL     1      44.525  28.830  28.726  1.00  0.00     0.016 A 
ATOM      2  C   UNL     1      45.375  28.019  29.486  1.00  0.00     0.047 A 
ATOM      3  C   UNL     1      46.735  27.914  29.158  1.00  0.00     0.119 A 
ATOM      4  C   UNL     1      47.244  28.622  28.062  1.00  0.00     0.094 A 
ATOM      5  C   UNL     1      46.403  29.435  27.296  1.00  0.00     0.142 A 
ATOM      6  C   UNL     1      45.034  29.539  27.629  1.00  0.00     0.018 A 
ATOM      7  C   UNL     1      44.217  30.359  26.844  1.00  0.00     0.019 A 
ATOM      8  C   UNL     1      44.773  31.045  25.763  1.00  0.00     0.094 A 
ATOM      9  C   UNL     1      46.136  30.893  25.493  1.00  0.00     0.336 A 
ATOM     10  O   UNL     1      46.656  31.503  24.521  1.00  0.00    -0.246 OA
ATOM     11  O   UNL     1      46.892  30.106  26.256  1.00  0.00    -0.423 OA
ENDROOT
BRANCH   3  12
ATOM     12  O   UNL     1      47.587  27.109  29.910  1.00  0.00    -0.508 OA
ATOM     13  H   UNL     1      47.306  26.185  30.218  1.00  0.00     0.293 HD
ENDBRANCH   3  12
TORSDOF 1
ENDMDL
MODEL 3
REMARK VINA RESULT:    -4.362     13.702     15.053
REMARK INTER + INTRA:          -4.489
REMARK INTER:                  -4.489
REMARK INTRA:                   0.000
REMARK UNBOUND:                 0.000
REMARK SMILES O=c1ccc2ccc(O)cc2o1
REMARK SMILES IDX 6 1 7 2 8 3 10 4 11 5 5 6 4 7 3 8 2 9 1 10 12 11 9 12
REMARK H PARENT 9 13
REMARK Flexibility Score: inf
ROOT
ATOM      1  C   UNL     1      44.896  30.123  29.505  1.00  0.00     0.016 A 
ATOM      2  C   UNL     1      43.559  30.222  29.107  1.00  0.00     0.047 A 
ATOM      3  C   UNL     1      43.117  29.580  27.941  1.00  0.00     0.119 A 
ATOM      4  C   UNL     1      44.019  28.836  27.170  1.00  0.00     0.094 A 
ATOM      5  C   UNL     1      45.359  28.732  27.560  1.00  0.00     0.142 A 
ATOM      6  C   UNL     1      45.800  29.379  28.735  1.00  0.00     0.018 A 
ATOM      7  C   UNL     1      47.145  29.256  29.099  1.00  0.00     0.019 A 
ATOM      8  C   UNL     1      48.004  28.504  28.298  1.00  0.00     0.094 A 
ATOM      9  C   UNL     1      47.496  27.890  27.148  1.00  0.00     0.336 A 
ATOM     10  O   UNL     1      48.257  27.208  26.412  1.00  0.00    -0.246 OA
ATOM     11  O   UNL     1      46.212  28.023  26.824  1.00  0.00    -0.423 OA
ENDROOT
BRANCH   3  12
ATOM     12  O   UNL     1      41.787  29.675  27.539  1.00  0.00    -0.508 OA
ATOM     13  H   UNL     1      41.393  30.551  27.216  1.00  0.00     0.293 HD
ENDBRANCH   3  12
TORSDOF 1
ENDMDL
MODEL 4
REMARK VINA RESULT:    -4.197     13.861     14.824
REMARK INTER + INTRA:          -4.320
REMARK INTER:                  -4.320
REMARK INTRA:                   0.000
REMARK UNBOUND:                 0.000
REMARK SMILES O=c1ccc2ccc(O)cc2o1
REMARK SMILES IDX 6 1 7 2 8 3 10 4 11 5 5 6 4 7 3 8 2 9 1 10 12 11 9 12
REMARK H PARENT 9 13
REMARK Flexibility Score: inf
ROOT
ATOM      1  C   UNL     1      44.048  30.492  26.495  1.00  0.00     0.016 A 
ATOM      2  C   UNL     1      44.988  31.036  25.614  1.00  0.00     0.047 A 
ATOM      3  C   UNL     1      46.332  30.642  25.679  1.00  0.00     0.119 A 
ATOM      4  C   UNL     1      46.737  29.700  26.633  1.00  0.00     0.094 A 
ATOM      5  C   UNL     1      45.805  29.151  27.519  1.00  0.00     0.142 A 
ATOM      6  C   UNL     1      44.452  29.549  27.451  1.00  0.00     0.018 A 
ATOM      7  C   UNL     1      43.543  28.982  28.350  1.00  0.00     0.019 A 
ATOM      8  C   UNL     1      43.996  28.047  29.281  1.00  0.00     0.094 A 
ATOM      9  C   UNL     1      45.351  27.701  29.291  1.00  0.00     0.336 A 
ATOM     10  O   UNL     1      45.778  26.859  30.125  1.00  0.00    -0.246 OA
ATOM     11  O   UNL     1      46.195  28.255  28.424  1.00  0.00    -0.423 OA
ENDROOT
BRANCH   3  12
ATOM     12  O   UNL     1      47.273  31.180  24.804  1.00  0.00    -0.508 OA
ATOM     13  H   UNL     1      47.387  32.183  24.701  1.00  0.00     0.293 HD
ENDBRANCH   3  12
TORSDOF 1
ENDMDL
MODEL 5
REMARK VINA RESULT:    -4.015     13.369     14.767
REMARK INTER + INTRA:          -4.132
REMARK INTER:                  -4.132
REMARK INTRA:                   0.000
REMARK UNBOUND:                 0.000
REMARK SMILES O=c1ccc2ccc(O)cc2o1
REMARK SMILES IDX 6 1 7 2 8 3 10 4 11 5 5 6 4 7 3 8 2 9 1 10 12 11 9 12
REMARK H PARENT 9 13
REMARK Flexibility Score: inf
ROOT
ATOM      1  C   UNL     1      47.036  28.202  29.072  1.00  0.00     0.016 A 
ATOM      2  C   UNL     1      47.456  29.168  28.150  1.00  0.00     0.047 A 
ATOM      3  C   UNL     1      46.531  29.772  27.286  1.00  0.00     0.119 A 
ATOM      4  C   UNL     1      45.180  29.407  27.344  1.00  0.00     0.094 A 
ATOM      5  C   UNL     1      44.751  28.442  28.261  1.00  0.00     0.142 A 
ATOM      6  C   UNL     1      45.684  27.836  29.130  1.00  0.00     0.018 A 
ATOM      7  C   UNL     1      45.224  26.875  30.037  1.00  0.00     0.019 A 
ATOM      8  C   UNL     1      43.869  26.546  30.057  1.00  0.00     0.094 A 
ATOM      9  C   UNL     1      43.003  27.188  29.166  1.00  0.00     0.336 A 
ATOM     10  O   UNL     1      41.776  26.904  29.168  1.00  0.00    -0.246 OA
ATOM     11  O   UNL     1      43.465  28.099  28.313  1.00  0.00    -0.423 OA
ENDROOT
BRANCH   3  12
ATOM     12  O   UNL     1      46.943  30.734  26.366  1.00  0.00    -0.508 OA
ATOM     13  H   UNL     1      47.437  30.478  25.519  1.00  0.00     0.293 HD
ENDBRANCH   3  12
TORSDOF 1
ENDMDL
MODEL 6
REMARK VINA RESULT:    -3.948     13.671     15.290
REMARK INTER + INTRA:          -4.063
REMARK INTER:                  -4.063
REMARK INTRA:                   0.000
REMARK UNBOUND:                 0.000
REMARK SMILES O=c1ccc2ccc(O)cc2o1
REMARK SMILES IDX 6 1 7 2 8 3 10 4 11 5 5 6 4 7 3 8 2 9 1 10 12 11 9 12
REMARK H PARENT 9 13
REMARK Flexibility Score: inf
ROOT
ATOM      1  C   UNL     1      46.782  29.448  29.340  1.00  0.00     0.016 A 
ATOM      2  C   UNL     1      47.854  28.691  28.856  1.00  0.00     0.047 A 
ATOM      3  C   UNL     1      47.687  27.858  27.739  1.00  0.00     0.119 A 
ATOM      4  C   UNL     1      46.440  27.782  27.107  1.00  0.00     0.094 A 
ATOM      5  C   UNL     1      45.362  28.535  27.583  1.00  0.00     0.142 A 
ATOM      6  C   UNL     1      45.533  29.373  28.707  1.00  0.00     0.018 A 
ATOM      7  C   UNL     1      44.437  30.113  29.160  1.00  0.00     0.019 A 
ATOM      8  C   UNL     1      43.215  30.003  28.495  1.00  0.00     0.094 A 
ATOM      9  C   UNL     1      43.120  29.153  27.389  1.00  0.00     0.336 A 
ATOM     10  O   UNL     1      42.025  29.040  26.776  1.00  0.00    -0.246 OA
ATOM     11  O   UNL     1      44.179  28.459  26.978  1.00  0.00    -0.423 OA
ENDROOT
BRANCH   3  12
ATOM     12  O   UNL     1      48.751  27.102  27.253  1.00  0.00    -0.508 OA
ATOM     13  H   UNL     1      49.692  27.223  27.608  1.00  0.00     0.293 HD
ENDBRANCH   3  12
TORSDOF 1
ENDMDL
MODEL 7
REMARK VINA RESULT:    -3.881      3.397      4.595
REMARK INTER + INTRA:          -3.995
REMARK INTER:                  -3.995
REMARK INTRA:                   0.000
REMARK UNBOUND:                 0.000
REMARK SMILES O=c1ccc2ccc(O)cc2o1
REMARK SMILES IDX 6 1 7 2 8 3 10 4 11 5 5 6 4 7 3 8 2 9 1 10 12 11 9 12
REMARK H PARENT 9 13
REMARK Flexibility Score: inf
ROOT
ATOM      1  C   UNL     1      31.716  32.214  24.326  1.00  0.00     0.016 A 
ATOM      2  C   UNL     1      30.648  32.076  25.219  1.00  0.00     0.047 A 
ATOM      3  C   UNL     1      30.878  32.067  26.603  1.00  0.00     0.119 A 
ATOM      4  C   UNL     1      32.183  32.193  27.094  1.00  0.00     0.094 A 
ATOM      5  C   UNL     1      33.258  32.331  26.210  1.00  0.00     0.142 A 
ATOM      6  C   UNL     1      33.023  32.341  24.817  1.00  0.00     0.018 A 
ATOM      7  C   UNL     1      34.118  32.481  23.958  1.00  0.00     0.019 A 
ATOM      8  C   UNL     1      35.399  32.605  24.496  1.00  0.00     0.094 A 
ATOM      9  C   UNL     1      35.555  32.586  25.886  1.00  0.00     0.336 A 
ATOM     10  O   UNL     1      36.704  32.696  26.391  1.00  0.00    -0.246 OA
ATOM     11  O   UNL     1      34.496  32.452  26.682  1.00  0.00    -0.423 OA
ENDROOT
BRANCH   3  12
ATOM     12  O   UNL     1      29.818  31.929  27.497  1.00  0.00    -0.508 OA
ATOM     13  H   UNL     1      28.921  32.369  27.325  1.00  0.00     0.293 HD
ENDBRANCH   3  12
TORSDOF 1
ENDMDL
MODEL 8
REMARK VINA RESULT:    -3.846      1.513      4.642
REMARK INTER + INTRA:          -3.958
REMARK INTER:                  -3.958
REMARK INTRA:                   0.000
REMARK UNBOUND:                 0.000
REMARK SMILES O=c1ccc2ccc(O)cc2o1
REMARK SMILES IDX 6 1 7 2 8 3 10 4 11 5 5 6 4 7 3 8 2 9 1 10 12 11 9 12
REMARK H PARENT 9 13
REMARK Flexibility Score: inf
ROOT
ATOM      1  C   UNL     1      32.799  27.901  28.597  1.00  0.00     0.016 A 
ATOM      2  C   UNL     1      32.112  26.773  29.058  1.00  0.00     0.047 A 
ATOM      3  C   UNL     1      30.721  26.680  28.908  1.00  0.00     0.119 A 
ATOM      4  C   UNL     1      30.015  27.723  28.296  1.00  0.00     0.094 A 
ATOM      5  C   UNL     1      30.692  28.855  27.832  1.00  0.00     0.142 A 
ATOM      6  C   UNL     1      32.093  28.945  27.984  1.00  0.00     0.018 A 
ATOM      7  C   UNL     1      32.743  30.090  27.510  1.00  0.00     0.019 A 
ATOM      8  C   UNL     1      31.995  31.101  26.906  1.00  0.00     0.094 A 
ATOM      9  C   UNL     1      30.610  30.942  26.791  1.00  0.00     0.336 A 
ATOM     10  O   UNL     1      29.918  31.845  26.250  1.00  0.00    -0.246 OA
ATOM     11  O   UNL     1      30.016  29.843  27.250  1.00  0.00    -0.423 OA
ENDROOT
BRANCH   3  12
ATOM     12  O   UNL     1      30.031  25.560  29.365  1.00  0.00    -0.508 OA
ATOM     13  H   UNL     1      30.516  24.773  29.782  1.00  0.00     0.293 HD
ENDBRANCH   3  12
TORSDOF 1
ENDMDL
MODEL 9
REMARK VINA RESULT:    -3.806      2.531      4.723
REMARK INTER + INTRA:          -3.917
REMARK INTER:                  -3.917
REMARK INTRA:                   0.000
REMARK UNBOUND:                 0.000
REMARK SMILES O=c1ccc2ccc(O)cc2o1
REMARK SMILES IDX 6 1 7 2 8 3 10 4 11 5 5 6 4 7 3 8 2 9 1 10 12 11 9 12
REMARK H PARENT 9 13
REMARK Flexibility Score: inf
ROOT
ATOM      1  C   UNL     1      29.784  31.798  24.733  1.00  0.00     0.016 A 
ATOM      2  C   UNL     1      29.427  31.079  25.878  1.00  0.00     0.047 A 
ATOM      3  C   UNL     1      30.408  30.677  26.797  1.00  0.00     0.119 A 
ATOM      4  C   UNL     1      31.752  30.994  26.565  1.00  0.00     0.094 A 
ATOM      5  C   UNL     1      32.119  31.712  25.422  1.00  0.00     0.142 A 
ATOM      6  C   UNL     1      31.130  32.116  24.500  1.00  0.00     0.018 A 
ATOM      7  C   UNL     1      31.527  32.833  23.366  1.00  0.00     0.019 A 
ATOM      8  C   UNL     1      32.879  33.125  23.181  1.00  0.00     0.094 A 
ATOM      9  C   UNL     1      33.803  32.692  24.137  1.00  0.00     0.336 A 
ATOM     10  O   UNL     1      35.028  32.945  23.986  1.00  0.00    -0.246 OA
ATOM     11  O   UNL     1      33.398  32.012  25.207  1.00  0.00    -0.423 OA
ENDROOT
BRANCH   3  12
ATOM     12  O   UNL     1      30.059  29.961  27.939  1.00  0.00    -0.508 OA
ATOM     13  H   UNL     1      30.159  28.953  27.983  1.00  0.00     0.293 HD
ENDBRANCH   3  12
TORSDOF 1
ENDMDL
