MODEL 1
REMARK VINA RESULT:    -3.641      0.000      0.000
REMARK INTER + INTRA:          -7.041
REMARK INTER:                  -5.769
REMARK INTRA:                  -1.272
REMARK UNBOUND:                -1.272
REMARK SMILES CCCCCCCCCCCC(=O)[O-]
REMARK SMILES IDX 7 1 8 2 9 3 10 4 11 5 12 6 13 7 14 8 6 9 5 10 4 11 3 12 2 13
REMARK SMILES IDX 1 14
REMARK H PARENT
REMARK Flexibility Score: inf
ROOT
ATOM      1  C   UNL     1       6.343  -7.862   6.351  1.00  0.00     0.000 C 
ENDROOT
BRANCH   1   2
ATOM      2  C   UNL     1       6.894  -9.290   6.436  1.00  0.00     0.000 C 
BRANCH   2   3
ATOM      3  C   UNL     1       5.768 -10.324   6.311  1.00  0.00     0.000 C 
BRANCH   3   4
ATOM      4  C   UNL     1       4.583  -9.753   5.524  1.00  0.00     0.006 C 
BRANCH   4   5
ATOM      5  C   UNL     1       4.458 -10.427   4.154  1.00  0.00     0.053 C 
BRANCH   5   6
ATOM      6  C   UNL     1       4.561  -9.412   3.060  1.00  0.00     0.041 C 
ATOM      7  O   UNL     1       5.538  -8.619   3.022  1.00  0.00    -0.550 OA
ATOM      8  O   UNL     1       3.553  -9.309   2.110  1.00  0.00    -0.550 OA
ENDBRANCH   5   6
ENDBRANCH   4   5
ENDBRANCH   3   4
ENDBRANCH   2   3
ENDBRANCH   1   2
BRANCH   1   9
ATOM      9  C   UNL     1       6.887  -6.993   7.490  1.00  0.00     0.000 C 
BRANCH   9  10
ATOM     10  C   UNL     1       6.625  -7.645   8.853  1.00  0.00    -0.000 C 
BRANCH  10  11
ATOM     11  C   UNL     1       5.221  -7.302   9.368  1.00  0.00    -0.000 C 
BRANCH  11  12
ATOM     12  C   UNL     1       4.300  -8.529   9.310  1.00  0.00    -0.000 C 
BRANCH  12  13
ATOM     13  C   UNL     1       3.021  -8.267   8.498  1.00  0.00    -0.003 C 
ATOM     14  C   UNL     1       2.188  -7.116   9.060  1.00  0.00     0.004 C 
ENDBRANCH  12  13
ENDBRANCH  11  12
ENDBRANCH  10  11
ENDBRANCH   9  10
ENDBRANCH   1   9
TORSDOF 10
ENDMDL
MODEL 2
REMARK VINA RESULT:    -3.505      1.769      3.367
REMARK INTER + INTRA:          -6.826
REMARK INTER:                  -5.869
REMARK INTRA:                  -0.958
REMARK UNBOUND:                -1.272
REMARK SMILES CCCCCCCCCCCC(=O)[O-]
REMARK SMILES IDX 7 1 8 2 9 3 10 4 11 5 12 6 13 7 14 8 6 9 5 10 4 11 3 12 2 13
REMARK SMILES IDX 1 14
REMARK H PARENT
REMARK Flexibility Score: inf
ROOT
ATOM      1  C   UNL     1       6.343  -7.758   6.483  1.00  0.00     0.000 C 
ENDROOT
BRANCH   1   2
ATOM      2  C   UNL     1       5.075  -8.538   6.853  1.00  0.00     0.000 C 
BRANCH   2   3
ATOM      3  C   UNL     1       5.111  -9.956   6.270  1.00  0.00     0.000 C 
BRANCH   3   4
ATOM      4  C   UNL     1       3.938 -10.185   5.310  1.00  0.00     0.006 C 
BRANCH   4   5
ATOM      5  C   UNL     1       4.439 -10.563   3.912  1.00  0.00     0.053 C 
BRANCH   5   6
ATOM      6  C   UNL     1       4.463  -9.361   3.022  1.00  0.00     0.041 C 
ATOM      7  O   UNL     1       3.556  -9.189   2.166  1.00  0.00    -0.550 OA
ATOM      8  O   UNL     1       5.512  -8.456   3.106  1.00  0.00    -0.550 OA
ENDBRANCH   5   6
ENDBRANCH   4   5
ENDBRANCH   3   4
ENDBRANCH   2   3
ENDBRANCH   1   2
BRANCH   1   9
ATOM      9  C   UNL     1       7.510  -8.709   6.198  1.00  0.00     0.000 C 
BRANCH   9  10
ATOM     10  C   UNL     1       8.561  -8.642   7.313  1.00  0.00    -0.000 C 
BRANCH  10  11
ATOM     11  C   UNL     1       8.260  -7.495   8.287  1.00  0.00    -0.000 C 
BRANCH  11  12
ATOM     12  C   UNL     1       9.542  -6.732   8.650  1.00  0.00    -0.000 C 
BRANCH  12  13
ATOM     13  C   UNL     1       9.374  -5.208   8.535  1.00  0.00    -0.003 C 
ATOM     14  C   UNL     1       7.947  -4.796   8.174  1.00  0.00     0.004 C 
ENDBRANCH  12  13
ENDBRANCH  11  12
ENDBRANCH  10  11
ENDBRANCH   9  10
ENDBRANCH   1   9
TORSDOF 10
ENDMDL
MODEL 3
REMARK VINA RESULT:    -3.482      1.272      3.178
REMARK INTER + INTRA:          -6.789
REMARK INTER:                  -5.516
REMARK INTRA:                  -1.273
REMARK UNBOUND:                -1.272
REMARK SMILES CCCCCCCCCCCC(=O)[O-]
REMARK SMILES IDX 7 1 8 2 9 3 10 4 11 5 12 6 13 7 14 8 6 9 5 10 4 11 3 12 2 13
REMARK SMILES IDX 1 14
REMARK H PARENT
REMARK Flexibility Score: inf
ROOT
ATOM      1  C   UNL     1       3.517  -9.392   7.446  1.00  0.00     0.000 C 
ENDROOT
BRANCH   1   2
ATOM      2  C   UNL     1       4.430 -10.609   7.258  1.00  0.00     0.000 C 
BRANCH   2   3
ATOM      3  C   UNL     1       4.776 -10.814   5.778  1.00  0.00     0.000 C 
BRANCH   3   4
ATOM      4  C   UNL     1       4.346  -9.606   4.939  1.00  0.00     0.006 C 
BRANCH   4   5
ATOM      5  C   UNL     1       4.794  -9.761   3.482  1.00  0.00     0.053 C 
BRANCH   5   6
ATOM      6  C   UNL     1       3.622  -9.645   2.559  1.00  0.00     0.041 C 
ATOM      7  O   UNL     1       3.422  -8.578   1.921  1.00  0.00    -0.550 OA
ATOM      8  O   UNL     1       2.724 -10.697   2.441  1.00  0.00    -0.550 OA
ENDBRANCH   5   6
ENDBRANCH   4   5
ENDBRANCH   3   4
ENDBRANCH   2   3
ENDBRANCH   1   2
BRANCH   1   9
ATOM      9  C   UNL     1       4.119  -8.400   8.447  1.00  0.00     0.000 C 
BRANCH   9  10
ATOM     10  C   UNL     1       5.625  -8.636   8.617  1.00  0.00    -0.000 C 
BRANCH  10  11
ATOM     11  C   UNL     1       6.426  -7.386   8.230  1.00  0.00    -0.000 C 
BRANCH  11  12
ATOM     12  C   UNL     1       6.900  -7.467   6.772  1.00  0.00    -0.000 C 
BRANCH  12  13
ATOM     13  C   UNL     1       7.682  -8.756   6.476  1.00  0.00    -0.003 C 
ATOM     14  C   UNL     1       9.028  -8.810   7.197  1.00  0.00     0.004 C 
ENDBRANCH  12  13
ENDBRANCH  11  12
ENDBRANCH  10  11
ENDBRANCH   9  10
ENDBRANCH   1   9
TORSDOF 10
ENDMDL
MODEL 4
REMARK VINA RESULT:    -3.454      1.932      3.041
REMARK INTER + INTRA:          -6.745
REMARK INTER:                  -5.910
REMARK INTRA:                  -0.835
REMARK UNBOUND:                -1.272
REMARK SMILES CCCCCCCCCCCC(=O)[O-]
REMARK SMILES IDX 7 1 8 2 9 3 10 4 11 5 12 6 13 7 14 8 6 9 5 10 4 11 3 12 2 13
REMARK SMILES IDX 1 14
REMARK H PARENT
REMARK Flexibility Score: inf
ROOT
ATOM      1  C   UNL     1       5.892 -10.731   6.985  1.00  0.00     0.000 C 
ENDROOT
BRANCH   1   2
ATOM      2  C   UNL     1       4.363 -10.614   7.026  1.00  0.00     0.000 C 
BRANCH   2   3
ATOM      3  C   UNL     1       3.817 -10.067   5.702  1.00  0.00     0.000 C 
BRANCH   3   4
ATOM      4  C   UNL     1       4.628 -10.592   4.513  1.00  0.00     0.006 C 
BRANCH   4   5
ATOM      5  C   UNL     1       4.810  -9.504   3.449  1.00  0.00     0.053 C 
BRANCH   5   6
ATOM      6  C   UNL     1       3.598  -9.418   2.576  1.00  0.00     0.041 C 
ATOM      7  O   UNL     1       2.870 -10.430   2.402  1.00  0.00    -0.550 OA
ATOM      8  O   UNL     1       3.300  -8.233   1.916  1.00  0.00    -0.550 OA
ENDBRANCH   5   6
ENDBRANCH   4   5
ENDBRANCH   3   4
ENDBRANCH   2   3
ENDBRANCH   1   2
BRANCH   1   9
ATOM      9  C   UNL     1       6.556  -9.487   7.585  1.00  0.00     0.000 C 
BRANCH   9  10
ATOM     10  C   UNL     1       7.047  -8.539   6.484  1.00  0.00    -0.000 C 
BRANCH  10  11
ATOM     11  C   UNL     1       7.263  -7.122   7.033  1.00  0.00    -0.000 C 
BRANCH  11  12
ATOM     12  C   UNL     1       6.541  -6.936   8.374  1.00  0.00    -0.000 C 
BRANCH  12  13
ATOM     13  C   UNL     1       6.823  -5.566   9.011  1.00  0.00    -0.003 C 
ATOM     14  C   UNL     1       7.867  -4.759   8.239  1.00  0.00     0.004 C 
ENDBRANCH  12  13
ENDBRANCH  11  12
ENDBRANCH  10  11
ENDBRANCH   9  10
ENDBRANCH   1   9
TORSDOF 10
ENDMDL
MODEL 5
REMARK VINA RESULT:    -3.433     21.998     23.470
REMARK INTER + INTRA:          -6.712
REMARK INTER:                  -5.410
REMARK INTRA:                  -1.302
REMARK UNBOUND:                -1.272
REMARK SMILES CCCCCCCCCCCC(=O)[O-]
REMARK SMILES IDX 7 1 8 2 9 3 10 4 11 5 12 6 13 7 14 8 6 9 5 10 4 11 3 12 2 13
REMARK SMILES IDX 1 14
REMARK H PARENT
REMARK Flexibility Score: inf
ROOT
ATOM      1  C   UNL     1      -5.250   3.104  -8.754  1.00  0.00     0.000 C 
ENDROOT
BRANCH   1   2
ATOM      2  C   UNL     1      -6.330   2.049  -9.025  1.00  0.00     0.000 C 
BRANCH   2   3
ATOM      3  C   UNL     1      -7.627   2.703  -9.518  1.00  0.00     0.000 C 
BRANCH   3   4
ATOM      4  C   UNL     1      -8.752   2.538  -8.489  1.00  0.00     0.006 C 
BRANCH   4   5
ATOM      5  C   UNL     1      -8.641   3.589  -7.380  1.00  0.00     0.053 C 
BRANCH   5   6
ATOM      6  C   UNL     1      -9.224   3.068  -6.105  1.00  0.00     0.041 C 
ATOM      7  O   UNL     1      -9.163   3.758  -5.053  1.00  0.00    -0.550 OA
ATOM      8  O   UNL     1      -9.792   1.802  -6.067  1.00  0.00    -0.550 OA
ENDBRANCH   5   6
ENDBRANCH   4   5
ENDBRANCH   3   4
ENDBRANCH   2   3
ENDBRANCH   1   2
BRANCH   1   9
ATOM      9  C   UNL     1      -4.915   3.888 -10.027  1.00  0.00     0.000 C 
BRANCH   9  10
ATOM     10  C   UNL     1      -4.990   5.399  -9.779  1.00  0.00    -0.000 C 
BRANCH  10  11
ATOM     11  C   UNL     1      -5.485   5.702  -8.359  1.00  0.00    -0.000 C 
BRANCH  11  12
ATOM     12  C   UNL     1      -6.754   6.566  -8.392  1.00  0.00    -0.000 C 
BRANCH  12  13
ATOM     13  C   UNL     1      -7.532   6.422  -9.709  1.00  0.00    -0.003 C 
ATOM     14  C   UNL     1      -8.514   7.569  -9.944  1.00  0.00     0.004 C 
ENDBRANCH  12  13
ENDBRANCH  11  12
ENDBRANCH  10  11
ENDBRANCH   9  10
ENDBRANCH   1   9
TORSDOF 10
ENDMDL
MODEL 6
REMARK VINA RESULT:    -3.337      1.069      2.911
REMARK INTER + INTRA:          -6.560
REMARK INTER:                  -5.059
REMARK INTRA:                  -1.501
REMARK UNBOUND:                -1.272
REMARK SMILES CCCCCCCCCCCC(=O)[O-]
REMARK SMILES IDX 7 1 8 2 9 3 10 4 11 5 12 6 13 7 14 8 6 9 5 10 4 11 3 12 2 13
REMARK SMILES IDX 1 14
REMARK H PARENT
REMARK Flexibility Score: inf
ROOT
ATOM      1  C   UNL     1       3.183  -8.935   7.655  1.00  0.00     0.000 C 
ENDROOT
BRANCH   1   2
ATOM      2  C   UNL     1       3.183 -10.468   7.698  1.00  0.00     0.000 C 
BRANCH   2   3
ATOM      3  C   UNL     1       3.425 -11.058   6.303  1.00  0.00     0.000 C 
BRANCH   3   4
ATOM      4  C   UNL     1       3.797  -9.961   5.299  1.00  0.00     0.006 C 
BRANCH   4   5
ATOM      5  C   UNL     1       4.081 -10.556   3.915  1.00  0.00     0.053 C 
BRANCH   5   6
ATOM      6  C   UNL     1       4.369  -9.470   2.928  1.00  0.00     0.041 C 
ATOM      7  O   UNL     1       5.420  -8.785   3.029  1.00  0.00    -0.550 OA
ATOM      8  O   UNL     1       3.452  -9.182   1.925  1.00  0.00    -0.550 OA
ENDBRANCH   5   6
ENDBRANCH   4   5
ENDBRANCH   3   4
ENDBRANCH   2   3
ENDBRANCH   1   2
BRANCH   1   9
ATOM      9  C   UNL     1       3.732  -8.348   8.960  1.00  0.00     0.000 C 
BRANCH   9  10
ATOM     10  C   UNL     1       4.985  -9.103   9.419  1.00  0.00    -0.000 C 
BRANCH  10  11
ATOM     11  C   UNL     1       6.242  -8.556   8.729  1.00  0.00    -0.000 C 
BRANCH  11  12
ATOM     12  C   UNL     1       6.866  -9.612   7.807  1.00  0.00    -0.000 C 
BRANCH  12  13
ATOM     13  C   UNL     1       7.106  -9.085   6.383  1.00  0.00    -0.003 C 
ATOM     14  C   UNL     1       6.596  -7.657   6.188  1.00  0.00     0.004 C 
ENDBRANCH  12  13
ENDBRANCH  11  12
ENDBRANCH  10  11
ENDBRANCH   9  10
ENDBRANCH   1   9
TORSDOF 10
ENDMDL
MODEL 7
REMARK VINA RESULT:    -3.311      1.514      2.180
REMARK INTER + INTRA:          -6.518
REMARK INTER:                  -5.538
REMARK INTRA:                  -0.980
REMARK UNBOUND:                -1.272
REMARK SMILES CCCCCCCCCCCC(=O)[O-]
REMARK SMILES IDX 7 1 8 2 9 3 10 4 11 5 12 6 13 7 14 8 6 9 5 10 4 11 3 12 2 13
REMARK SMILES IDX 1 14
REMARK H PARENT
REMARK Flexibility Score: inf
ROOT
ATOM      1  C   UNL     1       6.609  -7.427   7.042  1.00  0.00     0.000 C 
ENDROOT
BRANCH   1   2
ATOM      2  C   UNL     1       6.284  -8.450   5.947  1.00  0.00     0.000 C 
BRANCH   2   3
ATOM      3  C   UNL     1       6.731  -7.944   4.570  1.00  0.00     0.000 C 
BRANCH   3   4
ATOM      4  C   UNL     1       5.769  -8.414   3.472  1.00  0.00     0.006 C 
BRANCH   4   5
ATOM      5  C   UNL     1       4.910  -9.585   3.960  1.00  0.00     0.053 C 
BRANCH   5   6
ATOM      6  C   UNL     1       3.796  -9.852   2.998  1.00  0.00     0.041 C 
ATOM      7  O   UNL     1       2.958 -10.762   3.236  1.00  0.00    -0.550 OA
ATOM      8  O   UNL     1       3.710  -9.130   1.815  1.00  0.00    -0.550 OA
ENDBRANCH   5   6
ENDBRANCH   4   5
ENDBRANCH   3   4
ENDBRANCH   2   3
ENDBRANCH   1   2
BRANCH   1   9
ATOM      9  C   UNL     1       6.177  -7.940   8.420  1.00  0.00     0.000 C 
BRANCH   9  10
ATOM     10  C   UNL     1       4.666  -8.200   8.461  1.00  0.00    -0.000 C 
BRANCH  10  11
ATOM     11  C   UNL     1       4.365  -9.627   8.938  1.00  0.00    -0.000 C 
BRANCH  11  12
ATOM     12  C   UNL     1       3.816 -10.485   7.789  1.00  0.00    -0.000 C 
BRANCH  12  13
ATOM     13  C   UNL     1       2.832  -9.715   6.895  1.00  0.00    -0.003 C 
ATOM     14  C   UNL     1       1.397  -9.760   7.420  1.00  0.00     0.004 C 
ENDBRANCH  12  13
ENDBRANCH  11  12
ENDBRANCH  10  11
ENDBRANCH   9  10
ENDBRANCH   1   9
TORSDOF 10
ENDMDL
MODEL 8
REMARK VINA RESULT:    -3.274     16.185     18.389
REMARK INTER + INTRA:          -6.460
REMARK INTER:                  -5.407
REMARK INTRA:                  -1.054
REMARK UNBOUND:                -1.272
REMARK SMILES CCCCCCCCCCCC(=O)[O-]
REMARK SMILES IDX 7 1 8 2 9 3 10 4 11 5 12 6 13 7 14 8 6 9 5 10 4 11 3 12 2 13
REMARK SMILES IDX 1 14
REMARK H PARENT
REMARK Flexibility Score: inf
ROOT
ATOM      1  C   UNL     1      -8.741  -9.706  -5.392  1.00  0.00     0.000 C 
ENDROOT
BRANCH   1   2
ATOM      2  C   UNL     1      -9.207  -8.489  -6.201  1.00  0.00     0.000 C 
BRANCH   2   3
ATOM      3  C   UNL     1      -8.596  -8.496  -7.608  1.00  0.00     0.000 C 
BRANCH   3   4
ATOM      4  C   UNL     1      -9.101  -7.306  -8.433  1.00  0.00     0.006 C 
BRANCH   4   5
ATOM      5  C   UNL     1      -7.934  -6.437  -8.913  1.00  0.00     0.053 C 
BRANCH   5   6
ATOM      6  C   UNL     1      -7.529  -5.468  -7.848  1.00  0.00     0.041 C 
ATOM      7  O   UNL     1      -6.328  -5.400  -7.477  1.00  0.00    -0.550 OA
ATOM      8  O   UNL     1      -8.487  -4.675  -7.230  1.00  0.00    -0.550 OA
ENDBRANCH   5   6
ENDBRANCH   4   5
ENDBRANCH   3   4
ENDBRANCH   2   3
ENDBRANCH   1   2
BRANCH   1   9
ATOM      9  C   UNL     1      -7.785  -9.288  -4.270  1.00  0.00     0.000 C 
BRANCH   9  10
ATOM     10  C   UNL     1      -6.326  -9.352  -4.736  1.00  0.00    -0.000 C 
BRANCH  10  11
ATOM     11  C   UNL     1      -6.077 -10.596  -5.600  1.00  0.00    -0.000 C 
BRANCH  11  12
ATOM     12  C   UNL     1      -5.360 -10.223  -6.905  1.00  0.00    -0.000 C 
BRANCH  12  13
ATOM     13  C   UNL     1      -4.707  -8.834  -6.844  1.00  0.00    -0.003 C 
ATOM     14  C   UNL     1      -3.181  -8.893  -6.916  1.00  0.00     0.004 C 
ENDBRANCH  12  13
ENDBRANCH  11  12
ENDBRANCH  10  11
ENDBRANCH   9  10
ENDBRANCH   1   9
TORSDOF 10
ENDMDL
MODEL 9
REMARK VINA RESULT:    -3.265     15.849     17.992
REMARK INTER + INTRA:          -6.445
REMARK INTER:                  -5.426
REMARK INTRA:                  -1.020
REMARK UNBOUND:                -1.272
REMARK SMILES CCCCCCCCCCCC(=O)[O-]
REMARK SMILES IDX 7 1 8 2 9 3 10 4 11 5 12 6 13 7 14 8 6 9 5 10 4 11 3 12 2 13
REMARK SMILES IDX 1 14
REMARK H PARENT
REMARK Flexibility Score: inf
ROOT
ATOM      1  C   UNL     1      -7.000  -8.841  -6.413  1.00  0.00     0.000 C 
ENDROOT
BRANCH   1   2
ATOM      2  C   UNL     1      -8.354  -9.304  -6.965  1.00  0.00     0.000 C 
BRANCH   2   3
ATOM      3  C   UNL     1      -8.751  -8.492  -8.204  1.00  0.00     0.000 C 
BRANCH   3   4
ATOM      4  C   UNL     1      -7.553  -7.716  -8.761  1.00  0.00     0.006 C 
BRANCH   4   5
ATOM      5  C   UNL     1      -7.928  -6.258  -9.049  1.00  0.00     0.053 C 
BRANCH   5   6
ATOM      6  C   UNL     1      -7.604  -5.392  -7.874  1.00  0.00     0.041 C 
ATOM      7  O   UNL     1      -6.419  -5.313  -7.454  1.00  0.00    -0.550 OA
ATOM      8  O   UNL     1      -8.616  -4.710  -7.213  1.00  0.00    -0.550 OA
ENDBRANCH   5   6
ENDBRANCH   4   5
ENDBRANCH   3   4
ENDBRANCH   2   3
ENDBRANCH   1   2
BRANCH   1   9
ATOM      9  C   UNL     1      -6.159 -10.032  -5.945  1.00  0.00     0.000 C 
BRANCH   9  10
ATOM     10  C   UNL     1      -5.548  -9.767  -4.564  1.00  0.00    -0.000 C 
BRANCH  10  11
ATOM     11  C   UNL     1      -6.588  -9.176  -3.604  1.00  0.00    -0.000 C 
BRANCH  11  12
ATOM     12  C   UNL     1      -7.352 -10.287  -2.870  1.00  0.00    -0.000 C 
BRANCH  12  13
ATOM     13  C   UNL     1      -8.790  -9.878  -2.514  1.00  0.00    -0.003 C 
ATOM     14  C   UNL     1      -9.377  -8.864  -3.495  1.00  0.00     0.004 C 
ENDBRANCH  12  13
ENDBRANCH  11  12
ENDBRANCH  10  11
ENDBRANCH   9  10
ENDBRANCH   1   9
TORSDOF 10
ENDMDL
