MODEL 1
REMARK VINA RESULT:    -6.918      0.000      0.000
REMARK INTER + INTRA:         -11.942
REMARK INTER:                 -10.559
REMARK INTRA:                  -1.383
REMARK UNBOUND:                -1.383
REMARK SMILES OC[C@@H]1O[C@@](CO)(O[C@@H]2O[C@H](CO)[C@@H](O)[C@H](O)[C@H]2O)[C@@H](O)[C@H]1O
REMARK SMILES IDX 8 1 9 2 11 3 14 4 10 5 16 6 18 7 12 8 13 9 15 11 17 13 19 15
REMARK SMILES IDX 5 17 20 18 4 19 22 20 3 21 6 22 7 23 21 25 23 27 2 29 1 30
REMARK H PARENT 13 10 15 12 17 14 19 16 7 24 21 26 23 28 1 31
REMARK Flexibility Score: inf
ROOT
ATOM      1  O   UNL     1     -34.902  -3.714 -17.037  1.00  0.00    -0.313 OA
ENDROOT
BRANCH   1   2
ATOM      2  C   UNL     1     -35.270  -4.775 -16.165  1.00  0.00     0.285 C 
ATOM      3  C   UNL     1     -37.083  -6.101 -15.527  1.00  0.00     0.178 C 
ATOM      4  C   UNL     1     -36.893  -5.792 -14.021  1.00  0.00     0.177 C 
ATOM      5  O   UNL     1     -36.662  -4.994 -16.307  1.00  0.00    -0.341 OA
ATOM      6  C   UNL     1     -35.425  -5.418 -13.735  1.00  0.00     0.179 C 
ATOM      7  C   UNL     1     -34.954  -4.339 -14.723  1.00  0.00     0.202 C 
BRANCH   3   8
ATOM      8  C   UNL     1     -38.555  -6.385 -15.844  1.00  0.00     0.191 C 
BRANCH   8   9
ATOM      9  O   UNL     1     -38.839  -7.733 -15.585  1.00  0.00    -0.394 OA
ATOM     10  H   UNL     1     -38.422  -7.938 -14.709  1.00  0.00     0.210 HD
ENDBRANCH   8   9
ENDBRANCH   3   8
BRANCH   4  11
ATOM     11  O   UNL     1     -37.292  -6.880 -13.223  1.00  0.00    -0.387 OA
ATOM     12  H   UNL     1     -37.755  -6.514 -12.424  1.00  0.00     0.211 HD
ENDBRANCH   4  11
BRANCH   6  13
ATOM     13  O   UNL     1     -35.300  -4.933 -12.422  1.00  0.00    -0.387 OA
ATOM     14  H   UNL     1     -34.681  -5.547 -11.947  1.00  0.00     0.211 HD
ENDBRANCH   6  13
BRANCH   7  15
ATOM     15  O   UNL     1     -33.571  -4.137 -14.593  1.00  0.00    -0.385 OA
ATOM     16  H   UNL     1     -33.374  -4.109 -13.620  1.00  0.00     0.211 HD
ENDBRANCH   7  15
ENDBRANCH   1   2
BRANCH   1  17
ATOM     17  C   UNL     1     -33.796  -4.016 -17.886  1.00  0.00     0.224 C 
ATOM     18  C   UNL     1     -34.165  -3.638 -19.336  1.00  0.00     0.208 C 
ATOM     19  O   UNL     1     -32.657  -3.253 -17.516  1.00  0.00    -0.337 OA
ATOM     20  C   UNL     1     -32.853  -3.148 -19.889  1.00  0.00     0.180 C 
ATOM     21  C   UNL     1     -32.181  -2.567 -18.654  1.00  0.00     0.179 C 
BRANCH  17  22
ATOM     22  C   UNL     1     -33.440  -5.524 -17.808  1.00  0.00     0.225 C 
BRANCH  22  23
ATOM     23  O   UNL     1     -32.204  -5.720 -17.172  1.00  0.00    -0.391 OA
ATOM     24  H   UNL     1     -32.348  -5.558 -16.204  1.00  0.00     0.210 HD
ENDBRANCH  22  23
ENDBRANCH  17  22
BRANCH  18  25
ATOM     25  O   UNL     1     -35.113  -2.596 -19.359  1.00  0.00    -0.385 OA
ATOM     26  H   UNL     1     -35.460  -2.505 -18.433  1.00  0.00     0.211 HD
ENDBRANCH  18  25
BRANCH  20  27
ATOM     27  O   UNL     1     -33.023  -2.167 -20.880  1.00  0.00    -0.387 OA
ATOM     28  H   UNL     1     -33.973  -1.883 -20.832  1.00  0.00     0.211 HD
ENDBRANCH  20  27
BRANCH  21  29
ATOM     29  C   UNL     1     -30.651  -2.675 -18.715  1.00  0.00     0.191 C 
BRANCH  29  30
ATOM     30  O   UNL     1     -30.224  -3.947 -18.307  1.00  0.00    -0.394 OA
ATOM     31  H   UNL     1     -30.495  -4.580 -19.023  1.00  0.00     0.210 HD
ENDBRANCH  29  30
ENDBRANCH  21  29
ENDBRANCH   1  17
TORSDOF 13
ENDMDL
MODEL 2
REMARK VINA RESULT:    -6.808      2.293      7.032
REMARK INTER + INTRA:         -11.774
REMARK INTER:                 -10.204
REMARK INTRA:                  -1.570
REMARK UNBOUND:                -1.383
REMARK SMILES OC[C@@H]1O[C@@](CO)(O[C@@H]2O[C@H](CO)[C@@H](O)[C@H](O)[C@H]2O)[C@@H](O)[C@H]1O
REMARK SMILES IDX 8 1 9 2 11 3 14 4 10 5 16 6 18 7 12 8 13 9 15 11 17 13 19 15
REMARK SMILES IDX 5 17 20 18 4 19 22 20 3 21 6 22 7 23 21 25 23 27 2 29 1 30
REMARK H PARENT 13 10 15 12 17 14 19 16 7 24 21 26 23 28 1 31
REMARK Flexibility Score: inf
ROOT
ATOM      1  O   UNL     1     -37.213  -4.695 -15.101  1.00  0.00    -0.313 OA
ENDROOT
BRANCH   1   2
ATOM      2  C   UNL     1     -36.533  -5.282 -16.202  1.00  0.00     0.285 C 
ATOM      3  C   UNL     1     -34.398  -5.643 -17.079  1.00  0.00     0.178 C 
ATOM      4  C   UNL     1     -34.766  -5.043 -18.459  1.00  0.00     0.177 C 
ATOM      5  O   UNL     1     -35.150  -5.010 -16.057  1.00  0.00    -0.341 OA
ATOM      6  C   UNL     1     -36.284  -5.166 -18.706  1.00  0.00     0.179 C 
ATOM      7  C   UNL     1     -37.060  -4.630 -17.492  1.00  0.00     0.202 C 
BRANCH   3   8
ATOM      8  C   UNL     1     -32.909  -5.447 -16.778  1.00  0.00     0.191 C 
BRANCH   8   9
ATOM      9  O   UNL     1     -32.165  -6.448 -17.416  1.00  0.00    -0.394 OA
ATOM     10  H   UNL     1     -31.345  -6.570 -16.871  1.00  0.00     0.210 HD
ENDBRANCH   8   9
ENDBRANCH   3   8
BRANCH   4  11
ATOM     11  O   UNL     1     -34.043  -5.662 -19.494  1.00  0.00    -0.387 OA
ATOM     12  H   UNL     1     -34.454  -6.551 -19.658  1.00  0.00     0.211 HD
ENDBRANCH   4  11
BRANCH   6  13
ATOM     13  O   UNL     1     -36.644  -4.435 -19.850  1.00  0.00    -0.387 OA
ATOM     14  H   UNL     1     -37.475  -3.940 -19.625  1.00  0.00     0.211 HD
ENDBRANCH   6  13
BRANCH   7  15
ATOM     15  O   UNL     1     -38.428  -4.918 -17.631  1.00  0.00    -0.385 OA
ATOM     16  H   UNL     1     -38.516  -5.533 -18.405  1.00  0.00     0.211 HD
ENDBRANCH   7  15
ENDBRANCH   1   2
BRANCH   1  17
ATOM     17  C   UNL     1     -37.487  -5.603 -14.035  1.00  0.00     0.224 C 
ATOM     18  C   UNL     1     -38.987  -5.518 -13.683  1.00  0.00     0.208 C 
ATOM     19  O   UNL     1     -37.210  -6.939 -14.431  1.00  0.00    -0.337 OA
ATOM     20  C   UNL     1     -39.317  -6.941 -13.316  1.00  0.00     0.180 C 
ATOM     21  C   UNL     1     -38.355  -7.729 -14.193  1.00  0.00     0.179 C 
BRANCH  17  22
ATOM     22  C   UNL     1     -36.630  -5.260 -12.788  1.00  0.00     0.225 C 
BRANCH  22  23
ATOM     23  O   UNL     1     -35.283  -5.597 -12.991  1.00  0.00    -0.391 OA
ATOM     24  H   UNL     1     -34.770  -4.748 -12.990  1.00  0.00     0.210 HD
ENDBRANCH  22  23
ENDBRANCH  17  22
BRANCH  18  25
ATOM     25  O   UNL     1     -39.745  -5.124 -14.802  1.00  0.00    -0.385 OA
ATOM     26  H   UNL     1     -40.448  -4.508 -14.469  1.00  0.00     0.211 HD
ENDBRANCH  18  25
BRANCH  20  27
ATOM     27  O   UNL     1     -40.651  -7.272 -13.606  1.00  0.00    -0.387 OA
ATOM     28  H   UNL     1     -40.997  -7.760 -12.813  1.00  0.00     0.211 HD
ENDBRANCH  20  27
BRANCH  21  29
ATOM     29  C   UNL     1     -37.935  -9.059 -13.551  1.00  0.00     0.191 C 
BRANCH  29  30
ATOM     30  O   UNL     1     -39.047  -9.733 -13.026  1.00  0.00    -0.394 OA
ATOM     31  H   UNL     1     -39.095 -10.608 -13.494  1.00  0.00     0.210 HD
ENDBRANCH  29  30
ENDBRANCH  21  29
ENDBRANCH   1  17
TORSDOF 13
ENDMDL
MODEL 3
REMARK VINA RESULT:    -6.743      1.235      6.807
REMARK INTER + INTRA:         -11.675
REMARK INTER:                 -10.457
REMARK INTRA:                  -1.218
REMARK UNBOUND:                -1.383
REMARK SMILES OC[C@@H]1O[C@@](CO)(O[C@@H]2O[C@H](CO)[C@@H](O)[C@H](O)[C@H]2O)[C@@H](O)[C@H]1O
REMARK SMILES IDX 8 1 9 2 11 3 14 4 10 5 16 6 18 7 12 8 13 9 15 11 17 13 19 15
REMARK SMILES IDX 5 17 20 18 4 19 22 20 3 21 6 22 7 23 21 25 23 27 2 29 1 30
REMARK H PARENT 13 10 15 12 17 14 19 16 7 24 21 26 23 28 1 31
REMARK Flexibility Score: inf
ROOT
ATOM      1  O   UNL     1     -35.028  -3.401 -16.661  1.00  0.00    -0.313 OA
ENDROOT
BRANCH   1   2
ATOM      2  C   UNL     1     -34.017  -3.668 -17.624  1.00  0.00     0.285 C 
ATOM      3  C   UNL     1     -31.699  -3.767 -17.895  1.00  0.00     0.178 C 
ATOM      4  C   UNL     1     -31.713  -2.824 -19.124  1.00  0.00     0.177 C 
ATOM      5  O   UNL     1     -32.760  -3.434 -17.014  1.00  0.00    -0.341 OA
ATOM      6  C   UNL     1     -33.083  -2.889 -19.830  1.00  0.00     0.179 C 
ATOM      7  C   UNL     1     -34.213  -2.701 -18.804  1.00  0.00     0.202 C 
BRANCH   3   8
ATOM      8  C   UNL     1     -30.377  -3.646 -17.130  1.00  0.00     0.191 C 
BRANCH   8   9
ATOM      9  O   UNL     1     -29.368  -4.324 -17.825  1.00  0.00    -0.394 OA
ATOM     10  H   UNL     1     -29.767  -4.595 -18.693  1.00  0.00     0.210 HD
ENDBRANCH   8   9
ENDBRANCH   3   8
BRANCH   4  11
ATOM     11  O   UNL     1     -30.678  -3.140 -20.022  1.00  0.00    -0.387 OA
ATOM     12  H   UNL     1     -31.096  -3.422 -20.877  1.00  0.00     0.211 HD
ENDBRANCH   4  11
BRANCH   6  13
ATOM     13  O   UNL     1     -33.168  -1.882 -20.806  1.00  0.00    -0.387 OA
ATOM     14  H   UNL     1     -32.341  -1.338 -20.731  1.00  0.00     0.211 HD
ENDBRANCH   6  13
BRANCH   7  15
ATOM     15  O   UNL     1     -35.456  -2.952 -19.407  1.00  0.00    -0.385 OA
ATOM     16  H   UNL     1     -36.048  -2.189 -19.175  1.00  0.00     0.211 HD
ENDBRANCH   7  15
ENDBRANCH   1   2
BRANCH   1  17
ATOM     17  C   UNL     1     -35.643  -4.570 -16.123  1.00  0.00     0.224 C 
ATOM     18  C   UNL     1     -34.741  -5.135 -15.005  1.00  0.00     0.208 C 
ATOM     19  O   UNL     1     -36.901  -4.253 -15.545  1.00  0.00    -0.337 OA
ATOM     20  C   UNL     1     -35.744  -5.669 -14.016  1.00  0.00     0.180 C 
ATOM     21  C   UNL     1     -36.923  -4.729 -14.217  1.00  0.00     0.179 C 
BRANCH  17  22
ATOM     22  C   UNL     1     -35.850  -5.639 -17.227  1.00  0.00     0.225 C 
BRANCH  22  23
ATOM     23  O   UNL     1     -37.203  -5.742 -17.584  1.00  0.00    -0.391 OA
ATOM     24  H   UNL     1     -37.284  -6.529 -18.184  1.00  0.00     0.210 HD
ENDBRANCH  22  23
ENDBRANCH  17  22
BRANCH  18  25
ATOM     25  O   UNL     1     -33.978  -4.113 -14.409  1.00  0.00    -0.385 OA
ATOM     26  H   UNL     1     -34.068  -3.313 -14.989  1.00  0.00     0.211 HD
ENDBRANCH  18  25
BRANCH  20  27
ATOM     27  O   UNL     1     -35.272  -5.613 -12.694  1.00  0.00    -0.387 OA
ATOM     28  H   UNL     1     -35.453  -6.504 -12.295  1.00  0.00     0.211 HD
ENDBRANCH  20  27
BRANCH  21  29
ATOM     29  C   UNL     1     -38.269  -5.413 -13.939  1.00  0.00     0.191 C 
BRANCH  29  30
ATOM     30  O   UNL     1     -38.081  -6.635 -13.278  1.00  0.00    -0.394 OA
ATOM     31  H   UNL     1     -38.928  -6.830 -12.796  1.00  0.00     0.210 HD
ENDBRANCH  29  30
ENDBRANCH  21  29
ENDBRANCH   1  17
TORSDOF 13
ENDMDL
MODEL 4
REMARK VINA RESULT:    -6.515      2.201      7.373
REMARK INTER + INTRA:         -11.327
REMARK INTER:                 -10.082
REMARK INTRA:                  -1.245
REMARK UNBOUND:                -1.383
REMARK SMILES OC[C@@H]1O[C@@](CO)(O[C@@H]2O[C@H](CO)[C@@H](O)[C@H](O)[C@H]2O)[C@@H](O)[C@H]1O
REMARK SMILES IDX 8 1 9 2 11 3 14 4 10 5 16 6 18 7 12 8 13 9 15 11 17 13 19 15
REMARK SMILES IDX 5 17 20 18 4 19 22 20 3 21 6 22 7 23 21 25 23 27 2 29 1 30
REMARK H PARENT 13 10 15 12 17 14 19 16 7 24 21 26 23 28 1 31
REMARK Flexibility Score: inf
ROOT
ATOM      1  O   UNL     1     -36.369  -6.254 -14.257  1.00  0.00    -0.313 OA
ENDROOT
BRANCH   1   2
ATOM      2  C   UNL     1     -35.879  -5.530 -15.378  1.00  0.00     0.285 C 
ATOM      3  C   UNL     1     -33.934  -5.110 -16.602  1.00  0.00     0.178 C 
ATOM      4  C   UNL     1     -34.092  -3.572 -16.496  1.00  0.00     0.177 C 
ATOM      5  O   UNL     1     -34.479  -5.735 -15.451  1.00  0.00    -0.341 OA
ATOM      6  C   UNL     1     -35.576  -3.202 -16.293  1.00  0.00     0.179 C 
ATOM      7  C   UNL     1     -36.175  -4.037 -15.149  1.00  0.00     0.202 C 
BRANCH   3   8
ATOM      8  C   UNL     1     -32.456  -5.500 -16.712  1.00  0.00     0.191 C 
BRANCH   8   9
ATOM      9  O   UNL     1     -31.676  -4.596 -15.979  1.00  0.00    -0.394 OA
ATOM     10  H   UNL     1     -31.996  -3.691 -16.229  1.00  0.00     0.210 HD
ENDBRANCH   8   9
ENDBRANCH   3   8
BRANCH   4  11
ATOM     11  O   UNL     1     -33.571  -2.926 -17.631  1.00  0.00    -0.387 OA
ATOM     12  H   UNL     1     -34.176  -2.170 -17.852  1.00  0.00     0.211 HD
ENDBRANCH   4  11
BRANCH   6  13
ATOM     13  O   UNL     1     -35.692  -1.837 -15.984  1.00  0.00    -0.387 OA
ATOM     14  H   UNL     1     -35.099  -1.667 -15.206  1.00  0.00     0.211 HD
ENDBRANCH   6  13
BRANCH   7  15
ATOM     15  O   UNL     1     -37.565  -3.845 -15.091  1.00  0.00    -0.385 OA
ATOM     16  H   UNL     1     -37.923  -4.056 -15.993  1.00  0.00     0.211 HD
ENDBRANCH   7  15
ENDBRANCH   1   2
BRANCH   1  17
ATOM     17  C   UNL     1     -37.494  -7.081 -14.547  1.00  0.00     0.224 C 
ATOM     18  C   UNL     1     -37.163  -8.532 -14.138  1.00  0.00     0.208 C 
ATOM     19  O   UNL     1     -38.628  -6.668 -13.797  1.00  0.00    -0.337 OA
ATOM     20  C   UNL     1     -38.491  -9.043 -13.643  1.00  0.00     0.180 C 
ATOM     21  C   UNL     1     -39.134  -7.779 -13.090  1.00  0.00     0.179 C 
BRANCH  17  22
ATOM     22  C   UNL     1     -37.843  -7.024 -16.058  1.00  0.00     0.225 C 
BRANCH  22  23
ATOM     23  O   UNL     1     -39.017  -6.288 -16.280  1.00  0.00    -0.391 OA
ATOM     24  H   UNL     1     -39.148  -6.243 -17.262  1.00  0.00     0.210 HD
ENDBRANCH  22  23
ENDBRANCH  17  22
BRANCH  18  25
ATOM     25  O   UNL     1     -36.220  -8.556 -13.092  1.00  0.00    -0.385 OA
ATOM     26  H   UNL     1     -35.429  -8.047 -13.408  1.00  0.00     0.211 HD
ENDBRANCH  18  25
BRANCH  20  27
ATOM     27  O   UNL     1     -38.349 -10.017 -12.641  1.00  0.00    -0.387 OA
ATOM     28  H   UNL     1     -38.538 -10.891 -13.073  1.00  0.00     0.211 HD
ENDBRANCH  20  27
BRANCH  21  29
ATOM     29  C   UNL     1     -40.664  -7.805 -13.204  1.00  0.00     0.191 C 
BRANCH  29  30
ATOM     30  O   UNL     1     -41.100  -8.996 -13.802  1.00  0.00    -0.394 OA
ATOM     31  H   UNL     1     -40.551  -9.727 -13.412  1.00  0.00     0.210 HD
ENDBRANCH  29  30
ENDBRANCH  21  29
ENDBRANCH   1  17
TORSDOF 13
ENDMDL
MODEL 5
REMARK VINA RESULT:    -6.462      2.523      3.230
REMARK INTER + INTRA:         -11.245
REMARK INTER:                 -10.092
REMARK INTRA:                  -1.153
REMARK UNBOUND:                -1.383
REMARK SMILES OC[C@@H]1O[C@@](CO)(O[C@@H]2O[C@H](CO)[C@@H](O)[C@H](O)[C@H]2O)[C@@H](O)[C@H]1O
REMARK SMILES IDX 8 1 9 2 11 3 14 4 10 5 16 6 18 7 12 8 13 9 15 11 17 13 19 15
REMARK SMILES IDX 5 17 20 18 4 19 22 20 3 21 6 22 7 23 21 25 23 27 2 29 1 30
REMARK H PARENT 13 10 15 12 17 14 19 16 7 24 21 26 23 28 1 31
REMARK Flexibility Score: inf
ROOT
ATOM      1  O   UNL     1     -34.663  -2.614 -18.889  1.00  0.00    -0.313 OA
ENDROOT
BRANCH   1   2
ATOM      2  C   UNL     1     -35.804  -3.333 -18.439  1.00  0.00     0.285 C 
ATOM      3  C   UNL     1     -37.999  -3.874 -19.024  1.00  0.00     0.178 C 
ATOM      4  C   UNL     1     -38.575  -3.388 -17.670  1.00  0.00     0.177 C 
ATOM      5  O   UNL     1     -36.853  -3.113 -19.366  1.00  0.00    -0.341 OA
ATOM      6  C   UNL     1     -37.492  -3.463 -16.574  1.00  0.00     0.179 C 
ATOM      7  C   UNL     1     -36.203  -2.780 -17.059  1.00  0.00     0.202 C 
BRANCH   3   8
ATOM      8  C   UNL     1     -39.035  -3.719 -20.143  1.00  0.00     0.191 C 
BRANCH   8   9
ATOM      9  O   UNL     1     -40.085  -4.624 -19.938  1.00  0.00    -0.394 OA
ATOM     10  H   UNL     1     -40.796  -4.370 -20.582  1.00  0.00     0.210 HD
ENDBRANCH   8   9
ENDBRANCH   3   8
BRANCH   4  11
ATOM     11  O   UNL     1     -39.708  -4.135 -17.299  1.00  0.00    -0.387 OA
ATOM     12  H   UNL     1     -40.267  -4.256 -18.111  1.00  0.00     0.211 HD
ENDBRANCH   4  11
BRANCH   6  13
ATOM     13  O   UNL     1     -37.946  -2.826 -15.407  1.00  0.00    -0.387 OA
ATOM     14  H   UNL     1     -38.743  -3.330 -15.095  1.00  0.00     0.211 HD
ENDBRANCH   6  13
BRANCH   7  15
ATOM     15  O   UNL     1     -35.161  -3.016 -16.148  1.00  0.00    -0.385 OA
ATOM     16  H   UNL     1     -35.048  -2.183 -15.618  1.00  0.00     0.211 HD
ENDBRANCH   7  15
ENDBRANCH   1   2
BRANCH   1  17
ATOM     17  C   UNL     1     -33.467  -3.390 -18.932  1.00  0.00     0.224 C 
ATOM     18  C   UNL     1     -32.737  -3.104 -20.261  1.00  0.00     0.208 C 
ATOM     19  O   UNL     1     -32.594  -3.024 -17.872  1.00  0.00    -0.337 OA
ATOM     20  C   UNL     1     -31.287  -3.176 -19.860  1.00  0.00     0.180 C 
ATOM     21  C   UNL     1     -31.332  -2.702 -18.414  1.00  0.00     0.179 C 
BRANCH  17  22
ATOM     22  C   UNL     1     -33.790  -4.903 -18.819  1.00  0.00     0.225 C 
BRANCH  22  23
ATOM     23  O   UNL     1     -33.757  -5.523 -20.078  1.00  0.00    -0.391 OA
ATOM     24  H   UNL     1     -32.811  -5.761 -20.257  1.00  0.00     0.210 HD
ENDBRANCH  22  23
ENDBRANCH  17  22
BRANCH  18  25
ATOM     25  O   UNL     1     -33.040  -1.813 -20.734  1.00  0.00    -0.385 OA
ATOM     26  H   UNL     1     -33.825  -1.904 -21.335  1.00  0.00     0.211 HD
ENDBRANCH  18  25
BRANCH  20  27
ATOM     27  O   UNL     1     -30.474  -2.338 -20.641  1.00  0.00    -0.387 OA
ATOM     28  H   UNL     1     -31.060  -1.960 -21.348  1.00  0.00     0.211 HD
ENDBRANCH  20  27
BRANCH  21  29
ATOM     29  C   UNL     1     -30.229  -3.339 -17.557  1.00  0.00     0.191 C 
BRANCH  29  30
ATOM     30  O   UNL     1     -29.338  -4.072 -18.354  1.00  0.00    -0.394 OA
ATOM     31  H   UNL     1     -29.875  -4.771 -18.811  1.00  0.00     0.210 HD
ENDBRANCH  29  30
ENDBRANCH  21  29
ENDBRANCH   1  17
TORSDOF 13
ENDMDL
MODEL 6
REMARK VINA RESULT:    -6.401      2.329      6.087
REMARK INTER + INTRA:         -11.153
REMARK INTER:                  -9.896
REMARK INTRA:                  -1.257
REMARK UNBOUND:                -1.383
REMARK SMILES OC[C@@H]1O[C@@](CO)(O[C@@H]2O[C@H](CO)[C@@H](O)[C@H](O)[C@H]2O)[C@@H](O)[C@H]1O
REMARK SMILES IDX 8 1 9 2 11 3 14 4 10 5 16 6 18 7 12 8 13 9 15 11 17 13 19 15
REMARK SMILES IDX 5 17 20 18 4 19 22 20 3 21 6 22 7 23 21 25 23 27 2 29 1 30
REMARK H PARENT 13 10 15 12 17 14 19 16 7 24 21 26 23 28 1 31
REMARK Flexibility Score: inf
ROOT
ATOM      1  O   UNL     1     -35.526  -3.934 -17.437  1.00  0.00    -0.313 OA
ENDROOT
BRANCH   1   2
ATOM      2  C   UNL     1     -34.211  -3.397 -17.469  1.00  0.00     0.285 C 
ATOM      3  C   UNL     1     -32.482  -2.822 -18.930  1.00  0.00     0.178 C 
ATOM      4  C   UNL     1     -31.428  -3.648 -18.151  1.00  0.00     0.177 C 
ATOM      5  O   UNL     1     -33.759  -3.426 -18.812  1.00  0.00    -0.341 OA
ATOM      6  C   UNL     1     -31.853  -3.799 -16.676  1.00  0.00     0.179 C 
ATOM      7  C   UNL     1     -33.309  -4.287 -16.595  1.00  0.00     0.202 C 
BRANCH   3   8
ATOM      8  C   UNL     1     -32.120  -2.740 -20.417  1.00  0.00     0.191 C 
BRANCH   8   9
ATOM      9  O   UNL     1     -33.008  -1.876 -21.070  1.00  0.00    -0.394 OA
ATOM     10  H   UNL     1     -33.869  -1.945 -20.581  1.00  0.00     0.210 HD
ENDBRANCH   8   9
ENDBRANCH   3   8
BRANCH   4  11
ATOM     11  O   UNL     1     -30.152  -3.063 -18.242  1.00  0.00    -0.387 OA
ATOM     12  H   UNL     1     -29.750  -3.076 -17.334  1.00  0.00     0.211 HD
ENDBRANCH   4  11
BRANCH   6  13
ATOM     13  O   UNL     1     -31.016  -4.721 -16.027  1.00  0.00    -0.387 OA
ATOM     14  H   UNL     1     -30.082  -4.443 -16.215  1.00  0.00     0.211 HD
ENDBRANCH   6  13
BRANCH   7  15
ATOM     15  O   UNL     1     -33.760  -4.239 -15.266  1.00  0.00    -0.385 OA
ATOM     16  H   UNL     1     -33.071  -3.748 -14.746  1.00  0.00     0.211 HD
ENDBRANCH   7  15
ENDBRANCH   1   2
BRANCH   1  17
ATOM     17  C   UNL     1     -36.516  -3.021 -16.969  1.00  0.00     0.224 C 
ATOM     18  C   UNL     1     -37.426  -3.750 -15.958  1.00  0.00     0.208 C 
ATOM     19  O   UNL     1     -35.911  -1.927 -16.295  1.00  0.00    -0.337 OA
ATOM     20  C   UNL     1     -37.745  -2.665 -14.964  1.00  0.00     0.180 C 
ATOM     21  C   UNL     1     -36.490  -1.806 -15.014  1.00  0.00     0.179 C 
BRANCH  17  22
ATOM     22  C   UNL     1     -37.365  -2.479 -18.149  1.00  0.00     0.225 C 
BRANCH  22  23
ATOM     23  O   UNL     1     -36.902  -2.977 -19.377  1.00  0.00    -0.391 OA
ATOM     24  H   UNL     1     -37.398  -2.497 -20.089  1.00  0.00     0.210 HD
ENDBRANCH  22  23
ENDBRANCH  17  22
BRANCH  18  25
ATOM     25  O   UNL     1     -36.732  -4.796 -15.319  1.00  0.00    -0.385 OA
ATOM     26  H   UNL     1     -36.218  -5.270 -16.023  1.00  0.00     0.211 HD
ENDBRANCH  18  25
BRANCH  20  27
ATOM     27  O   UNL     1     -37.960  -3.170 -13.671  1.00  0.00    -0.387 OA
ATOM     28  H   UNL     1     -37.098  -3.076 -13.188  1.00  0.00     0.211 HD
ENDBRANCH  20  27
BRANCH  21  29
ATOM     29  C   UNL     1     -36.783  -0.327 -14.722  1.00  0.00     0.191 C 
BRANCH  29  30
ATOM     30  O   UNL     1     -36.223   0.497 -15.708  1.00  0.00    -0.394 OA
ATOM     31  H   UNL     1     -36.978   0.829 -16.262  1.00  0.00     0.210 HD
ENDBRANCH  29  30
ENDBRANCH  21  29
ENDBRANCH   1  17
TORSDOF 13
ENDMDL
MODEL 7
REMARK VINA RESULT:    -6.377      2.584      4.309
REMARK INTER + INTRA:         -11.115
REMARK INTER:                  -9.411
REMARK INTRA:                  -1.705
REMARK UNBOUND:                -1.383
REMARK SMILES OC[C@@H]1O[C@@](CO)(O[C@@H]2O[C@H](CO)[C@@H](O)[C@H](O)[C@H]2O)[C@@H](O)[C@H]1O
REMARK SMILES IDX 8 1 9 2 11 3 14 4 10 5 16 6 18 7 12 8 13 9 15 11 17 13 19 15
REMARK SMILES IDX 5 17 20 18 4 19 22 20 3 21 6 22 7 23 21 25 23 27 2 29 1 30
REMARK H PARENT 13 10 15 12 17 14 19 16 7 24 21 26 23 28 1 31
REMARK Flexibility Score: inf
ROOT
ATOM      1  O   UNL     1     -37.450  -4.518 -14.552  1.00  0.00    -0.313 OA
ENDROOT
BRANCH   1   2
ATOM      2  C   UNL     1     -37.736  -5.909 -14.495  1.00  0.00     0.285 C 
ATOM      3  C   UNL     1     -39.354  -7.437 -13.786  1.00  0.00     0.178 C 
ATOM      4  C   UNL     1     -38.335  -8.272 -12.969  1.00  0.00     0.177 C 
ATOM      5  O   UNL     1     -38.962  -6.074 -13.804  1.00  0.00    -0.341 OA
ATOM      6  C   UNL     1     -36.916  -8.094 -13.546  1.00  0.00     0.179 C 
ATOM      7  C   UNL     1     -36.601  -6.599 -13.717  1.00  0.00     0.202 C 
BRANCH   3   8
ATOM      8  C   UNL     1     -40.754  -7.531 -13.170  1.00  0.00     0.191 C 
BRANCH   8   9
ATOM      9  O   UNL     1     -41.401  -8.677 -13.650  1.00  0.00    -0.394 OA
ATOM     10  H   UNL     1     -40.719  -9.397 -13.654  1.00  0.00     0.210 HD
ENDBRANCH   8   9
ENDBRANCH   3   8
BRANCH   4  11
ATOM     11  O   UNL     1     -38.693  -9.632 -12.945  1.00  0.00    -0.387 OA
ATOM     12  H   UNL     1     -39.667  -9.684 -12.757  1.00  0.00     0.211 HD
ENDBRANCH   4  11
BRANCH   6  13
ATOM     13  O   UNL     1     -35.971  -8.673 -12.683  1.00  0.00    -0.387 OA
ATOM     14  H   UNL     1     -35.782  -9.583 -13.033  1.00  0.00     0.211 HD
ENDBRANCH   6  13
BRANCH   7  15
ATOM     15  O   UNL     1     -35.395  -6.438 -14.418  1.00  0.00    -0.385 OA
ATOM     16  H   UNL     1     -35.527  -6.844 -15.315  1.00  0.00     0.211 HD
ENDBRANCH   7  15
ENDBRANCH   1   2
BRANCH   1  17
ATOM     17  C   UNL     1     -37.272  -4.015 -15.875  1.00  0.00     0.224 C 
ATOM     18  C   UNL     1     -36.082  -3.032 -15.877  1.00  0.00     0.208 C 
ATOM     19  O   UNL     1     -36.964  -5.069 -16.776  1.00  0.00    -0.337 OA
ATOM     20  C   UNL     1     -35.460  -3.276 -17.227  1.00  0.00     0.180 C 
ATOM     21  C   UNL     1     -35.776  -4.746 -17.464  1.00  0.00     0.179 C 
BRANCH  17  22
ATOM     22  C   UNL     1     -38.555  -3.293 -16.364  1.00  0.00     0.225 C 
BRANCH  22  23
ATOM     23  O   UNL     1     -39.297  -4.111 -17.231  1.00  0.00    -0.391 OA
ATOM     24  H   UNL     1     -39.658  -4.856 -16.685  1.00  0.00     0.210 HD
ENDBRANCH  22  23
ENDBRANCH  17  22
BRANCH  18  25
ATOM     25  O   UNL     1     -35.162  -3.354 -14.860  1.00  0.00    -0.385 OA
ATOM     26  H   UNL     1     -34.427  -3.862 -15.290  1.00  0.00     0.211 HD
ENDBRANCH  18  25
BRANCH  20  27
ATOM     27  O   UNL     1     -34.073  -3.052 -17.225  1.00  0.00    -0.387 OA
ATOM     28  H   UNL     1     -33.949  -2.074 -17.104  1.00  0.00     0.211 HD
ENDBRANCH  20  27
BRANCH  21  29
ATOM     29  C   UNL     1     -35.941  -5.075 -18.954  1.00  0.00     0.191 C 
BRANCH  29  30
ATOM     30  O   UNL     1     -37.296  -5.197 -19.292  1.00  0.00    -0.394 OA
ATOM     31  H   UNL     1     -37.409  -4.759 -20.177  1.00  0.00     0.210 HD
ENDBRANCH  29  30
ENDBRANCH  21  29
ENDBRANCH   1  17
TORSDOF 13
ENDMDL
MODEL 8
REMARK VINA RESULT:    -6.299      1.982      2.899
REMARK INTER + INTRA:         -10.996
REMARK INTER:                  -9.811
REMARK INTRA:                  -1.184
REMARK UNBOUND:                -1.383
REMARK SMILES OC[C@@H]1O[C@@](CO)(O[C@@H]2O[C@H](CO)[C@@H](O)[C@H](O)[C@H]2O)[C@@H](O)[C@H]1O
REMARK SMILES IDX 8 1 9 2 11 3 14 4 10 5 16 6 18 7 12 8 13 9 15 11 17 13 19 15
REMARK SMILES IDX 5 17 20 18 4 19 22 20 3 21 6 22 7 23 21 25 23 27 2 29 1 30
REMARK H PARENT 13 10 15 12 17 14 19 16 7 24 21 26 23 28 1 31
REMARK Flexibility Score: inf
ROOT
ATOM      1  O   UNL     1     -36.958  -4.136 -16.458  1.00  0.00    -0.313 OA
ENDROOT
BRANCH   1   2
ATOM      2  C   UNL     1     -36.535  -5.353 -15.858  1.00  0.00     0.285 C 
ATOM      3  C   UNL     1     -37.285  -7.488 -15.279  1.00  0.00     0.178 C 
ATOM      4  C   UNL     1     -36.812  -7.353 -13.810  1.00  0.00     0.177 C 
ATOM      5  O   UNL     1     -37.655  -6.218 -15.789  1.00  0.00    -0.341 OA
ATOM      6  C   UNL     1     -35.654  -6.339 -13.714  1.00  0.00     0.179 C 
ATOM      7  C   UNL     1     -36.033  -5.037 -14.438  1.00  0.00     0.202 C 
BRANCH   3   8
ATOM      8  C   UNL     1     -38.495  -8.423 -15.379  1.00  0.00     0.191 C 
BRANCH   8   9
ATOM      9  O   UNL     1     -39.538  -7.926 -14.587  1.00  0.00    -0.394 OA
ATOM     10  H   UNL     1     -39.229  -7.999 -13.647  1.00  0.00     0.210 HD
ENDBRANCH   8   9
ENDBRANCH   3   8
BRANCH   4  11
ATOM     11  O   UNL     1     -36.426  -8.598 -13.281  1.00  0.00    -0.387 OA
ATOM     12  H   UNL     1     -35.440  -8.671 -13.372  1.00  0.00     0.211 HD
ENDBRANCH   4  11
BRANCH   6  13
ATOM     13  O   UNL     1     -35.372  -6.058 -12.366  1.00  0.00    -0.387 OA
ATOM     14  H   UNL     1     -34.605  -6.633 -12.107  1.00  0.00     0.211 HD
ENDBRANCH   6  13
BRANCH   7  15
ATOM     15  O   UNL     1     -34.916  -4.190 -14.521  1.00  0.00    -0.385 OA
ATOM     16  H   UNL     1     -35.145  -3.361 -14.023  1.00  0.00     0.211 HD
ENDBRANCH   7  15
ENDBRANCH   1   2
BRANCH   1  17
ATOM     17  C   UNL     1     -36.561  -3.990 -17.820  1.00  0.00     0.224 C 
ATOM     18  C   UNL     1     -35.646  -2.753 -17.941  1.00  0.00     0.208 C 
ATOM     19  O   UNL     1     -35.817  -5.122 -18.249  1.00  0.00    -0.337 OA
ATOM     20  C   UNL     1     -34.663  -3.176 -19.001  1.00  0.00     0.180 C 
ATOM     21  C   UNL     1     -34.589  -4.681 -18.787  1.00  0.00     0.179 C 
BRANCH  17  22
ATOM     22  C   UNL     1     -37.800  -3.823 -18.738  1.00  0.00     0.225 C 
BRANCH  22  23
ATOM     23  O   UNL     1     -38.142  -2.471 -18.887  1.00  0.00    -0.391 OA
ATOM     24  H   UNL     1     -37.764  -1.990 -18.107  1.00  0.00     0.210 HD
ENDBRANCH  22  23
ENDBRANCH  17  22
BRANCH  18  25
ATOM     25  O   UNL     1     -34.968  -2.508 -16.731  1.00  0.00    -0.385 OA
ATOM     26  H   UNL     1     -35.578  -1.965 -16.166  1.00  0.00     0.211 HD
ENDBRANCH  18  25
BRANCH  20  27
ATOM     27  O   UNL     1     -33.403  -2.579 -18.832  1.00  0.00    -0.387 OA
ATOM     28  H   UNL     1     -33.195  -2.118 -19.686  1.00  0.00     0.211 HD
ENDBRANCH  20  27
BRANCH  21  29
ATOM     29  C   UNL     1     -34.296  -5.442 -20.087  1.00  0.00     0.191 C 
BRANCH  29  30
ATOM     30  O   UNL     1     -33.379  -4.740 -20.881  1.00  0.00    -0.394 OA
ATOM     31  H   UNL     1     -32.671  -5.388 -21.138  1.00  0.00     0.210 HD
ENDBRANCH  29  30
ENDBRANCH  21  29
ENDBRANCH   1  17
TORSDOF 13
ENDMDL
MODEL 9
REMARK VINA RESULT:    -6.285      1.750      6.413
REMARK INTER + INTRA:         -10.976
REMARK INTER:                  -9.483
REMARK INTRA:                  -1.492
REMARK UNBOUND:                -1.383
REMARK SMILES OC[C@@H]1O[C@@](CO)(O[C@@H]2O[C@H](CO)[C@@H](O)[C@H](O)[C@H]2O)[C@@H](O)[C@H]1O
REMARK SMILES IDX 8 1 9 2 11 3 14 4 10 5 16 6 18 7 12 8 13 9 15 11 17 13 19 15
REMARK SMILES IDX 5 17 20 18 4 19 22 20 3 21 6 22 7 23 21 25 23 27 2 29 1 30
REMARK H PARENT 13 10 15 12 17 14 19 16 7 24 21 26 23 28 1 31
REMARK Flexibility Score: inf
ROOT
ATOM      1  O   UNL     1     -35.306  -6.397 -15.528  1.00  0.00    -0.313 OA
ENDROOT
BRANCH   1   2
ATOM      2  C   UNL     1     -35.173  -5.364 -16.496  1.00  0.00     0.285 C 
ATOM      3  C   UNL     1     -35.155  -4.979 -18.799  1.00  0.00     0.178 C 
ATOM      4  C   UNL     1     -33.804  -4.222 -18.752  1.00  0.00     0.177 C 
ATOM      5  O   UNL     1     -35.196  -5.963 -17.779  1.00  0.00    -0.341 OA
ATOM      6  C   UNL     1     -33.587  -3.606 -17.355  1.00  0.00     0.179 C 
ATOM      7  C   UNL     1     -33.818  -4.669 -16.269  1.00  0.00     0.202 C 
BRANCH   3   8
ATOM      8  C   UNL     1     -35.344  -5.673 -20.152  1.00  0.00     0.191 C 
BRANCH   8   9
ATOM      9  O   UNL     1     -34.105  -6.125 -20.625  1.00  0.00    -0.394 OA
ATOM     10  H   UNL     1     -33.422  -5.744 -20.014  1.00  0.00     0.210 HD
ENDBRANCH   8   9
ENDBRANCH   3   8
BRANCH   4  11
ATOM     11  O   UNL     1     -33.741  -3.229 -19.747  1.00  0.00    -0.387 OA
ATOM     12  H   UNL     1     -34.210  -2.425 -19.401  1.00  0.00     0.211 HD
ENDBRANCH   4  11
BRANCH   6  13
ATOM     13  O   UNL     1     -32.278  -3.108 -17.248  1.00  0.00    -0.387 OA
ATOM     14  H   UNL     1     -31.714  -3.647 -17.863  1.00  0.00     0.211 HD
ENDBRANCH   6  13
BRANCH   7  15
ATOM     15  O   UNL     1     -33.813  -4.070 -15.000  1.00  0.00    -0.385 OA
ATOM     16  H   UNL     1     -33.003  -3.497 -14.955  1.00  0.00     0.211 HD
ENDBRANCH   7  15
ENDBRANCH   1   2
BRANCH   1  17
ATOM     17  C   UNL     1     -36.597  -6.465 -14.924  1.00  0.00     0.224 C 
ATOM     18  C   UNL     1     -36.445  -6.255 -13.403  1.00  0.00     0.208 C 
ATOM     19  O   UNL     1     -37.438  -5.434 -15.421  1.00  0.00    -0.337 OA
ATOM     20  C   UNL     1     -37.695  -5.491 -13.053  1.00  0.00     0.180 C 
ATOM     21  C   UNL     1     -37.960  -4.708 -14.330  1.00  0.00     0.179 C 
BRANCH  17  22
ATOM     22  C   UNL     1     -37.262  -7.837 -15.205  1.00  0.00     0.225 C 
BRANCH  22  23
ATOM     23  O   UNL     1     -38.503  -7.678 -15.842  1.00  0.00    -0.391 OA
ATOM     24  H   UNL     1     -38.318  -7.313 -16.746  1.00  0.00     0.210 HD
ENDBRANCH  22  23
ENDBRANCH  17  22
BRANCH  18  25
ATOM     25  O   UNL     1     -35.310  -5.473 -13.114  1.00  0.00    -0.385 OA
ATOM     26  H   UNL     1     -35.375  -4.656 -13.672  1.00  0.00     0.211 HD
ENDBRANCH  18  25
BRANCH  20  27
ATOM     27  O   UNL     1     -37.506  -4.628 -11.961  1.00  0.00    -0.387 OA
ATOM     28  H   UNL     1     -36.573  -4.767 -11.653  1.00  0.00     0.211 HD
ENDBRANCH  20  27
BRANCH  21  29
ATOM     29  C   UNL     1     -39.457  -4.449 -14.556  1.00  0.00     0.191 C 
BRANCH  29  30
ATOM     30  O   UNL     1     -40.166  -5.656 -14.636  1.00  0.00    -0.394 OA
ATOM     31  H   UNL     1     -41.084  -5.467 -14.307  1.00  0.00     0.210 HD
ENDBRANCH  29  30
ENDBRANCH  21  29
ENDBRANCH   1  17
TORSDOF 13
ENDMDL
