MODEL 1
REMARK VINA RESULT:    -4.329      0.000      0.000
REMARK INTER + INTRA:          -4.888
REMARK INTER:                  -4.709
REMARK INTRA:                  -0.179
REMARK UNBOUND:                -0.179
REMARK SMILES CC1=CC[C@@H](C(C)(C)O)CC1
REMARK SMILES IDX 6 1 7 2 8 3 5 4 1 5 2 6 3 7 11 8 4 9 10 10 9 11
REMARK H PARENT 9 12
REMARK Flexibility Score: inf
ROOT
ATOM      1  C   UNL     1     139.861 133.033 151.478  1.00  0.00     0.062 C 
ATOM      2  C   UNL     1     141.177 132.241 151.319  1.00  0.00     0.042 C 
ATOM      3  C   UNL     1     139.980 134.296 150.590  1.00  0.00     0.042 C 
ENDROOT
BRANCH   1   4
ATOM      4  C   UNL     1     138.637 132.135 151.057  1.00  0.00     0.024 C 
ATOM      5  C   UNL     1     135.595 129.784 148.911  1.00  0.00     0.039 C 
ATOM      6  C   UNL     1     136.687 130.623 149.515  1.00  0.00    -0.077 C 
ATOM      7  C   UNL     1     137.876 130.053 149.791  1.00  0.00    -0.028 C 
ATOM      8  C   UNL     1     136.381 132.050 149.913  1.00  0.00     0.031 C 
ATOM      9  C   UNL     1     139.048 130.818 150.352  1.00  0.00     0.034 C 
ATOM     10  C   UNL     1     137.643 132.887 150.144  1.00  0.00     0.011 C 
ENDBRANCH   1   4
BRANCH   1  11
ATOM     11  O   UNL     1     139.762 133.415 152.830  1.00  0.00    -0.390 OA
ATOM     12  H   UNL     1     138.816 133.645 153.021  1.00  0.00     0.211 HD
ENDBRANCH   1  11
TORSDOF 2
ENDMDL
MODEL 2
REMARK VINA RESULT:    -4.226      0.415      1.554
REMARK INTER + INTRA:          -4.775
REMARK INTER:                  -4.648
REMARK INTRA:                  -0.127
REMARK UNBOUND:                -0.179
REMARK SMILES CC1=CC[C@@H](C(C)(C)O)CC1
REMARK SMILES IDX 6 1 7 2 8 3 5 4 1 5 2 6 3 7 11 8 4 9 10 10 9 11
REMARK H PARENT 9 12
REMARK Flexibility Score: inf
ROOT
ATOM      1  C   UNL     1     139.882 133.117 151.186  1.00  0.00     0.062 C 
ATOM      2  C   UNL     1     141.210 132.335 151.276  1.00  0.00     0.042 C 
ATOM      3  C   UNL     1     140.188 134.456 150.473  1.00  0.00     0.042 C 
ENDROOT
BRANCH   1   4
ATOM      4  C   UNL     1     138.809 132.269 150.404  1.00  0.00     0.024 C 
ATOM      5  C   UNL     1     135.320 129.895 149.149  1.00  0.00     0.039 C 
ATOM      6  C   UNL     1     136.458 130.701 149.711  1.00  0.00    -0.077 C 
ATOM      7  C   UNL     1     136.349 132.044 149.760  1.00  0.00    -0.028 C 
ATOM      8  C   UNL     1     137.741 129.996 150.088  1.00  0.00     0.031 C 
ATOM      9  C   UNL     1     137.412 132.937 150.348  1.00  0.00     0.034 C 
ATOM     10  C   UNL     1     138.647 130.847 150.985  1.00  0.00     0.011 C 
ENDBRANCH   1   4
BRANCH   1  11
ATOM     11  O   UNL     1     139.456 133.372 152.505  1.00  0.00    -0.390 OA
ATOM     12  H   UNL     1     139.347 134.352 152.614  1.00  0.00     0.211 HD
ENDBRANCH   1  11
TORSDOF 2
ENDMDL
MODEL 3
REMARK VINA RESULT:    -4.146      1.629      4.458
REMARK INTER + INTRA:          -4.689
REMARK INTER:                  -4.531
REMARK INTRA:                  -0.158
REMARK UNBOUND:                -0.179
REMARK SMILES CC1=CC[C@@H](C(C)(C)O)CC1
REMARK SMILES IDX 6 1 7 2 8 3 5 4 1 5 2 6 3 7 11 8 4 9 10 10 9 11
REMARK H PARENT 9 12
REMARK Flexibility Score: inf
ROOT
ATOM      1  C   UNL     1     137.180 132.393 149.767  1.00  0.00     0.062 C 
ATOM      2  C   UNL     1     137.525 132.963 148.374  1.00  0.00     0.042 C 
ATOM      3  C   UNL     1     136.313 131.131 149.541  1.00  0.00     0.042 C 
ENDROOT
BRANCH   1   4
ATOM      4  C   UNL     1     138.503 132.061 150.557  1.00  0.00     0.024 C 
ATOM      5  C   UNL     1     142.626 131.811 152.079  1.00  0.00     0.039 C 
ATOM      6  C   UNL     1     141.269 131.982 151.455  1.00  0.00    -0.077 C 
ATOM      7  C   UNL     1     140.489 133.008 151.850  1.00  0.00    -0.028 C 
ATOM      8  C   UNL     1     140.765 130.927 150.495  1.00  0.00     0.031 C 
ATOM      9  C   UNL     1     139.135 133.293 151.252  1.00  0.00     0.034 C 
ATOM     10  C   UNL     1     139.574 131.405 149.657  1.00  0.00     0.011 C 
ENDBRANCH   1   4
BRANCH   1  11
ATOM     11  O   UNL     1     136.424 133.370 150.444  1.00  0.00    -0.390 OA
ATOM     12  H   UNL     1     135.788 132.908 151.050  1.00  0.00     0.211 HD
ENDBRANCH   1  11
TORSDOF 2
ENDMDL
MODEL 4
REMARK VINA RESULT:    -4.146      1.782      3.069
REMARK INTER + INTRA:          -4.688
REMARK INTER:                  -4.545
REMARK INTRA:                  -0.143
REMARK UNBOUND:                -0.179
REMARK SMILES CC1=CC[C@@H](C(C)(C)O)CC1
REMARK SMILES IDX 6 1 7 2 8 3 5 4 1 5 2 6 3 7 11 8 4 9 10 10 9 11
REMARK H PARENT 9 12
REMARK Flexibility Score: inf
ROOT
ATOM      1  C   UNL     1     142.287 131.584 151.676  1.00  0.00     0.062 C 
ATOM      2  C   UNL     1     142.451 130.057 151.516  1.00  0.00     0.042 C 
ATOM      3  C   UNL     1     143.533 132.245 151.038  1.00  0.00     0.042 C 
ENDROOT
BRANCH   1   4
ATOM      4  C   UNL     1     140.953 132.059 150.983  1.00  0.00     0.024 C 
ATOM      5  C   UNL     1     136.781 132.946 149.895  1.00  0.00     0.039 C 
ATOM      6  C   UNL     1     138.153 132.570 150.380  1.00  0.00    -0.077 C 
ATOM      7  C   UNL     1     138.788 133.385 151.247  1.00  0.00    -0.028 C 
ATOM      8  C   UNL     1     138.836 131.359 149.786  1.00  0.00     0.031 C 
ATOM      9  C   UNL     1     140.144 133.075 151.829  1.00  0.00     0.034 C 
ATOM     10  C   UNL     1     140.027 130.877 150.622  1.00  0.00     0.011 C 
ENDBRANCH   1   4
BRANCH   1  11
ATOM     11  O   UNL     1     142.261 131.861 153.057  1.00  0.00    -0.390 OA
ATOM     12  H   UNL     1     143.187 132.057 153.354  1.00  0.00     0.211 HD
ENDBRANCH   1  11
TORSDOF 2
ENDMDL
MODEL 5
REMARK VINA RESULT:    -4.096     13.429     15.113
REMARK INTER + INTRA:          -4.634
REMARK INTER:                  -4.476
REMARK INTRA:                  -0.158
REMARK UNBOUND:                -0.179
REMARK SMILES CC1=CC[C@@H](C(C)(C)O)CC1
REMARK SMILES IDX 6 1 7 2 8 3 5 4 1 5 2 6 3 7 11 8 4 9 10 10 9 11
REMARK H PARENT 9 12
REMARK Flexibility Score: inf
ROOT
ATOM      1  C   UNL     1     143.916 143.966 141.255  1.00  0.00     0.062 C 
ATOM      2  C   UNL     1     144.941 142.838 141.503  1.00  0.00     0.042 C 
ATOM      3  C   UNL     1     143.228 143.665 139.901  1.00  0.00     0.042 C 
ENDROOT
BRANCH   1   4
ATOM      4  C   UNL     1     142.878 144.022 142.439  1.00  0.00     0.024 C 
ATOM      5  C   UNL     1     140.738 143.671 146.271  1.00  0.00     0.039 C 
ATOM      6  C   UNL     1     141.574 143.712 145.022  1.00  0.00    -0.077 C 
ATOM      7  C   UNL     1     142.469 144.708 144.863  1.00  0.00    -0.028 C 
ATOM      8  C   UNL     1     141.300 142.711 143.922  1.00  0.00     0.031 C 
ATOM      9  C   UNL     1     143.387 144.811 143.671  1.00  0.00     0.034 C 
ATOM     10  C   UNL     1     142.444 142.615 142.906  1.00  0.00     0.011 C 
ENDBRANCH   1   4
BRANCH   1  11
ATOM     11  O   UNL     1     144.636 145.174 141.161  1.00  0.00    -0.390 OA
ATOM     12  H   UNL     1     144.178 145.759 140.503  1.00  0.00     0.211 HD
ENDBRANCH   1  11
TORSDOF 2
ENDMDL
MODEL 6
REMARK VINA RESULT:    -3.989     10.622     12.907
REMARK INTER + INTRA:          -4.517
REMARK INTER:                  -4.341
REMARK INTRA:                  -0.177
REMARK UNBOUND:                -0.179
REMARK SMILES CC1=CC[C@@H](C(C)(C)O)CC1
REMARK SMILES IDX 6 1 7 2 8 3 5 4 1 5 2 6 3 7 11 8 4 9 10 10 9 11
REMARK H PARENT 9 12
REMARK Flexibility Score: inf
ROOT
ATOM      1  C   UNL     1     140.737 139.693 142.982  1.00  0.00     0.062 C 
ATOM      2  C   UNL     1     141.991 139.459 142.113  1.00  0.00     0.042 C 
ATOM      3  C   UNL     1     140.771 138.647 144.123  1.00  0.00     0.042 C 
ENDROOT
BRANCH   1   4
ATOM      4  C   UNL     1     140.735 141.167 143.540  1.00  0.00     0.024 C 
ATOM      5  C   UNL     1     141.768 145.211 144.941  1.00  0.00     0.039 C 
ATOM      6  C   UNL     1     141.557 143.806 144.448  1.00  0.00    -0.077 C 
ATOM      7  C   UNL     1     141.429 143.588 143.123  1.00  0.00    -0.028 C 
ATOM      8  C   UNL     1     141.366 142.696 145.456  1.00  0.00     0.031 C 
ATOM      9  C   UNL     1     141.262 142.213 142.526  1.00  0.00     0.034 C 
ATOM     10  C   UNL     1     141.547 141.301 144.847  1.00  0.00     0.011 C 
ENDBRANCH   1   4
BRANCH   1  11
ATOM     11  O   UNL     1     139.611 139.464 142.166  1.00  0.00    -0.390 OA
ATOM     12  H   UNL     1     139.113 140.317 142.075  1.00  0.00     0.211 HD
ENDBRANCH   1  11
TORSDOF 2
ENDMDL
MODEL 7
REMARK VINA RESULT:    -3.981     11.118     12.701
REMARK INTER + INTRA:          -4.509
REMARK INTER:                  -4.335
REMARK INTRA:                  -0.174
REMARK UNBOUND:                -0.179
REMARK SMILES CC1=CC[C@@H](C(C)(C)O)CC1
REMARK SMILES IDX 6 1 7 2 8 3 5 4 1 5 2 6 3 7 11 8 4 9 10 10 9 11
REMARK H PARENT 9 12
REMARK Flexibility Score: inf
ROOT
ATOM      1  C   UNL     1     141.335 143.864 144.524  1.00  0.00     0.062 C 
ATOM      2  C   UNL     1     140.528 143.729 145.833  1.00  0.00     0.042 C 
ATOM      3  C   UNL     1     142.405 144.957 144.759  1.00  0.00     0.042 C 
ENDROOT
BRANCH   1   4
ATOM      4  C   UNL     1     141.986 142.479 144.147  1.00  0.00     0.024 C 
ATOM      5  C   UNL     1     143.613 138.389 144.106  1.00  0.00     0.039 C 
ATOM      6  C   UNL     1     143.037 139.769 144.262  1.00  0.00    -0.077 C 
ATOM      7  C   UNL     1     141.706 139.942 144.138  1.00  0.00    -0.028 C 
ATOM      8  C   UNL     1     143.977 140.942 144.426  1.00  0.00     0.031 C 
ATOM      9  C   UNL     1     141.027 141.275 144.323  1.00  0.00     0.034 C 
ATOM     10  C   UNL     1     143.274 142.199 144.952  1.00  0.00     0.011 C 
ENDBRANCH   1   4
BRANCH   1  11
ATOM     11  O   UNL     1     140.440 144.287 143.521  1.00  0.00    -0.390 OA
ATOM     12  H   UNL     1     139.518 144.057 143.808  1.00  0.00     0.211 HD
ENDBRANCH   1  11
TORSDOF 2
ENDMDL
MODEL 8
REMARK VINA RESULT:    -3.888     11.194     12.408
REMARK INTER + INTRA:          -4.408
REMARK INTER:                  -4.227
REMARK INTRA:                  -0.181
REMARK UNBOUND:                -0.179
REMARK SMILES CC1=CC[C@@H](C(C)(C)O)CC1
REMARK SMILES IDX 6 1 7 2 8 3 5 4 1 5 2 6 3 7 11 8 4 9 10 10 9 11
REMARK H PARENT 9 12
REMARK Flexibility Score: inf
ROOT
ATOM      1  C   UNL     1     142.927 143.281 145.783  1.00  0.00     0.062 C 
ATOM      2  C   UNL     1     143.860 144.230 145.001  1.00  0.00     0.042 C 
ATOM      3  C   UNL     1     141.575 144.014 145.958  1.00  0.00     0.042 C 
ENDROOT
BRANCH   1   4
ATOM      4  C   UNL     1     142.760 141.923 145.000  1.00  0.00     0.024 C 
ATOM      5  C   UNL     1     141.930 138.761 142.051  1.00  0.00     0.039 C 
ATOM      6  C   UNL     1     142.155 139.935 142.964  1.00  0.00    -0.077 C 
ATOM      7  C   UNL     1     143.308 140.628 142.870  1.00  0.00    -0.028 C 
ATOM      8  C   UNL     1     141.142 140.225 144.048  1.00  0.00     0.031 C 
ATOM      9  C   UNL     1     143.608 141.847 143.706  1.00  0.00     0.034 C 
ATOM     10  C   UNL     1     141.287 141.634 144.636  1.00  0.00     0.011 C 
ENDBRANCH   1   4
BRANCH   1  11
ATOM     11  O   UNL     1     143.512 143.063 147.046  1.00  0.00    -0.390 OA
ATOM     12  H   UNL     1     143.156 142.213 147.413  1.00  0.00     0.211 HD
ENDBRANCH   1  11
TORSDOF 2
ENDMDL
MODEL 9
REMARK VINA RESULT:    -3.885     12.439     13.507
REMARK INTER + INTRA:          -4.405
REMARK INTER:                  -4.248
REMARK INTRA:                  -0.157
REMARK UNBOUND:                -0.179
REMARK SMILES CC1=CC[C@@H](C(C)(C)O)CC1
REMARK SMILES IDX 6 1 7 2 8 3 5 4 1 5 2 6 3 7 11 8 4 9 10 10 9 11
REMARK H PARENT 9 12
REMARK Flexibility Score: inf
ROOT
ATOM      1  C   UNL     1     141.967 144.109 145.315  1.00  0.00     0.062 C 
ATOM      2  C   UNL     1     140.653 143.856 146.084  1.00  0.00     0.042 C 
ATOM      3  C   UNL     1     143.130 143.841 146.301  1.00  0.00     0.042 C 
ENDROOT
BRANCH   1   4
ATOM      4  C   UNL     1     142.042 143.170 144.052  1.00  0.00     0.024 C 
ATOM      5  C   UNL     1     141.202 140.571 140.599  1.00  0.00     0.039 C 
ATOM      6  C   UNL     1     141.347 141.460 141.803  1.00  0.00    -0.077 C 
ATOM      7  C   UNL     1     141.281 142.797 141.644  1.00  0.00    -0.028 C 
ATOM      8  C   UNL     1     141.690 140.836 143.138  1.00  0.00     0.031 C 
ATOM      9  C   UNL     1     141.366 143.769 142.793  1.00  0.00     0.034 C 
ATOM     10  C   UNL     1     141.429 141.777 144.319  1.00  0.00     0.011 C 
ENDBRANCH   1   4
BRANCH   1  11
ATOM     11  O   UNL     1     141.976 145.465 144.933  1.00  0.00    -0.390 OA
ATOM     12  H   UNL     1     142.918 145.774 144.900  1.00  0.00     0.211 HD
ENDBRANCH   1  11
TORSDOF 2
ENDMDL
