MODEL 1
REMARK VINA RESULT:    -2.370      0.000      0.000
REMARK INTER + INTRA:          -3.012
REMARK INTER:                  -2.786
REMARK INTRA:                  -0.226
REMARK UNBOUND:                -0.226
REMARK SMILES [NH3+][C@@H](CO)C(=O)[O-]
REMARK SMILES IDX 3 1 2 2 1 3 5 7 6 8 7 9 4 10
REMARK H PARENT 1 4 1 5 1 6 4 11
REMARK Flexibility Score: inf
ROOT
ATOM      1  C   UNL     1     102.253 110.674 105.711  1.00  0.00     0.227 C 
ENDROOT
BRANCH   1   2
ATOM      2  C   UNL     1     101.464 111.749 104.942  1.00  0.00     0.253 C 
BRANCH   2   3
ATOM      3  N   UNL     1     100.106 111.288 104.632  1.00  0.00    -0.348 N 
ATOM      4  H   UNL     1     100.062 110.948 103.644  1.00  0.00     0.345 HD
ATOM      5  H   UNL     1      99.850 110.491 105.261  1.00  0.00     0.345 HD
ATOM      6  H   UNL     1      99.413 112.061 104.759  1.00  0.00     0.345 HD
ENDBRANCH   2   3
BRANCH   2   7
ATOM      7  C   UNL     1     102.195 112.113 103.678  1.00  0.00     0.102 C 
ATOM      8  O   UNL     1     103.428 112.365 103.709  1.00  0.00    -0.544 OA
ATOM      9  O   UNL     1     101.516 112.160 102.465  1.00  0.00    -0.544 OA
ENDBRANCH   2   7
ENDBRANCH   1   2
BRANCH   1  10
ATOM     10  O   UNL     1     103.312 111.249 106.428  1.00  0.00    -0.390 OA
ATOM     11  H   UNL     1     104.075 110.618 106.364  1.00  0.00     0.210 HD
ENDBRANCH   1  10
TORSDOF 4
ENDMDL
MODEL 2
REMARK VINA RESULT:    -2.366     12.288     12.659
REMARK INTER + INTRA:          -3.007
REMARK INTER:                  -2.781
REMARK INTRA:                  -0.226
REMARK UNBOUND:                -0.226
REMARK SMILES [NH3+][C@@H](CO)C(=O)[O-]
REMARK SMILES IDX 3 1 2 2 1 3 5 7 6 8 7 9 4 10
REMARK H PARENT 1 4 1 5 1 6 4 11
REMARK Flexibility Score: inf
ROOT
ATOM      1  C   UNL     1     113.550 113.100 105.717  1.00  0.00     0.227 C 
ENDROOT
BRANCH   1   2
ATOM      2  C   UNL     1     114.863 113.248 104.926  1.00  0.00     0.253 C 
BRANCH   2   3
ATOM      3  N   UNL     1     115.132 114.655 104.608  1.00  0.00    -0.348 N 
ATOM      4  H   UNL     1     115.448 115.161 105.466  1.00  0.00     0.345 HD
ATOM      5  H   UNL     1     115.895 114.717 103.894  1.00  0.00     0.345 HD
ATOM      6  H   UNL     1     114.273 115.121 104.233  1.00  0.00     0.345 HD
ENDBRANCH   2   3
BRANCH   2   7
ATOM      7  C   UNL     1     114.795 112.430 103.665  1.00  0.00     0.102 C 
ATOM      8  O   UNL     1     115.176 112.921 102.571  1.00  0.00    -0.544 OA
ATOM      9  O   UNL     1     114.325 111.122 103.703  1.00  0.00    -0.544 OA
ENDBRANCH   2   7
ENDBRANCH   1   2
BRANCH   1  10
ATOM     10  O   UNL     1     113.503 111.864 106.378  1.00  0.00    -0.390 OA
ATOM     11  H   UNL     1     114.114 111.255 105.887  1.00  0.00     0.210 HD
ENDBRANCH   1  10
TORSDOF 4
ENDMDL
MODEL 3
REMARK VINA RESULT:    -2.366      2.869      3.505
REMARK INTER + INTRA:          -3.007
REMARK INTER:                  -2.628
REMARK INTRA:                  -0.379
REMARK UNBOUND:                -0.226
REMARK SMILES [NH3+][C@@H](CO)C(=O)[O-]
REMARK SMILES IDX 3 1 2 2 1 3 5 7 6 8 7 9 4 10
REMARK H PARENT 1 4 1 5 1 6 4 11
REMARK Flexibility Score: inf
ROOT
ATOM      1  C   UNL     1     101.853 110.988 102.832  1.00  0.00     0.227 C 
ENDROOT
BRANCH   1   2
ATOM      2  C   UNL     1     101.826 111.207 101.308  1.00  0.00     0.253 C 
BRANCH   2   3
ATOM      3  N   UNL     1     103.179 111.149 100.742  1.00  0.00    -0.348 N 
ATOM      4  H   UNL     1     103.376 110.186 100.386  1.00  0.00     0.345 HD
ATOM      5  H   UNL     1     103.254 111.814  99.937  1.00  0.00     0.345 HD
ATOM      6  H   UNL     1     103.894 111.401 101.463  1.00  0.00     0.345 HD
ENDBRANCH   2   3
BRANCH   2   7
ATOM      7  C   UNL     1     101.183 112.531 100.993  1.00  0.00     0.102 C 
ATOM      8  O   UNL     1     101.886 113.499 100.602  1.00  0.00    -0.544 OA
ATOM      9  O   UNL     1      99.808 112.690 101.120  1.00  0.00    -0.544 OA
ENDBRANCH   2   7
ENDBRANCH   1   2
BRANCH   1  10
ATOM     10  O   UNL     1     101.543 112.175 103.512  1.00  0.00    -0.390 OA
ATOM     11  H   UNL     1     101.780 112.028 104.464  1.00  0.00     0.210 HD
ENDBRANCH   1  10
TORSDOF 4
ENDMDL
MODEL 4
REMARK VINA RESULT:    -2.366     13.133     13.502
REMARK INTER + INTRA:          -3.007
REMARK INTER:                  -2.614
REMARK INTRA:                  -0.393
REMARK UNBOUND:                -0.226
REMARK SMILES [NH3+][C@@H](CO)C(=O)[O-]
REMARK SMILES IDX 3 1 2 2 1 3 5 7 6 8 7 9 4 10
REMARK H PARENT 1 4 1 5 1 6 4 11
REMARK Flexibility Score: inf
ROOT
ATOM      1  C   UNL     1     109.881 101.549 102.908  1.00  0.00     0.227 C 
ENDROOT
BRANCH   1   2
ATOM      2  C   UNL     1     109.824 101.382 101.379  1.00  0.00     0.253 C 
BRANCH   2   3
ATOM      3  N   UNL     1     109.278 102.584 100.737  1.00  0.00    -0.348 N 
ATOM      4  H   UNL     1     108.650 103.091 101.402  1.00  0.00     0.345 HD
ATOM      5  H   UNL     1     110.059 103.229 100.472  1.00  0.00     0.345 HD
ATOM      6  H   UNL     1     108.736 102.332  99.878  1.00  0.00     0.345 HD
ENDBRANCH   2   3
BRANCH   2   7
ATOM      7  C   UNL     1     108.993 100.178 101.026  1.00  0.00     0.102 C 
ATOM      8  O   UNL     1     107.808 100.321 100.627  1.00  0.00    -0.544 OA
ATOM      9  O   UNL     1     109.533  98.901 101.124  1.00  0.00    -0.544 OA
ENDBRANCH   2   7
ENDBRANCH   1   2
BRANCH   1  10
ATOM     10  O   UNL     1     108.926 100.735 103.534  1.00  0.00    -0.390 OA
ATOM     11  H   UNL     1     108.048 101.182 103.414  1.00  0.00     0.210 HD
ENDBRANCH   1  10
TORSDOF 4
ENDMDL
MODEL 5
REMARK VINA RESULT:    -2.356     12.468     12.845
REMARK INTER + INTRA:          -2.995
REMARK INTER:                  -2.769
REMARK INTRA:                  -0.226
REMARK UNBOUND:                -0.226
REMARK SMILES [NH3+][C@@H](CO)C(=O)[O-]
REMARK SMILES IDX 3 1 2 2 1 3 5 7 6 8 7 9 4 10
REMARK H PARENT 1 4 1 5 1 6 4 11
REMARK Flexibility Score: inf
ROOT
ATOM      1  C   UNL     1     110.014 102.013 105.663  1.00  0.00     0.227 C 
ENDROOT
BRANCH   1   2
ATOM      2  C   UNL     1     109.516 100.757 104.924  1.00  0.00     0.253 C 
BRANCH   2   3
ATOM      3  N   UNL     1     110.617  99.821 104.672  1.00  0.00    -0.348 N 
ATOM      4  H   UNL     1     111.027  99.499 105.579  1.00  0.00     0.345 HD
ATOM      5  H   UNL     1     110.258  98.981 104.162  1.00  0.00     0.345 HD
ATOM      6  H   UNL     1     111.367 100.275 104.100  1.00  0.00     0.345 HD
ENDBRANCH   2   3
BRANCH   2   7
ATOM      7  C   UNL     1     108.859 101.153 103.629  1.00  0.00     0.102 C 
ATOM      8  O   UNL     1     107.999 102.072 103.610  1.00  0.00    -0.544 OA
ATOM      9  O   UNL     1     109.206 100.515 102.444  1.00  0.00    -0.544 OA
ENDBRANCH   2   7
ENDBRANCH   1   2
BRANCH   1  10
ATOM     10  O   UNL     1     108.960 102.643 106.340  1.00  0.00    -0.390 OA
ATOM     11  H   UNL     1     108.771 102.094 107.146  1.00  0.00     0.210 HD
ENDBRANCH   1  10
TORSDOF 4
ENDMDL
MODEL 6
REMARK VINA RESULT:    -2.355     12.939     13.458
REMARK INTER + INTRA:          -2.994
REMARK INTER:                  -2.615
REMARK INTRA:                  -0.380
REMARK UNBOUND:                -0.226
REMARK SMILES [NH3+][C@@H](CO)C(=O)[O-]
REMARK SMILES IDX 3 1 2 2 1 3 5 7 6 8 7 9 4 10
REMARK H PARENT 1 4 1 5 1 6 4 11
REMARK Flexibility Score: inf
ROOT
ATOM      1  C   UNL     1     114.181 113.367 103.054  1.00  0.00     0.227 C 
ENDROOT
BRANCH   1   2
ATOM      2  C   UNL     1     114.267 113.451 101.520  1.00  0.00     0.253 C 
BRANCH   2   3
ATOM      3  N   UNL     1     113.380 112.467 100.886  1.00  0.00    -0.348 N 
ATOM      4  H   UNL     1     113.895 111.571 100.730  1.00  0.00     0.345 HD
ATOM      5  H   UNL     1     112.566 112.269 101.514  1.00  0.00     0.345 HD
ATOM      6  H   UNL     1     113.027 112.824  99.968  1.00  0.00     0.345 HD
ENDBRANCH   2   3
BRANCH   2   7
ATOM      7  C   UNL     1     115.688 113.237 101.074  1.00  0.00     0.102 C 
ATOM      8  O   UNL     1     116.514 114.186 101.116  1.00  0.00    -0.544 OA
ATOM      9  O   UNL     1     116.101 111.988 100.625  1.00  0.00    -0.544 OA
ENDBRANCH   2   7
ENDBRANCH   1   2
BRANCH   1  10
ATOM     10  O   UNL     1     115.286 112.681 103.578  1.00  0.00    -0.390 OA
ATOM     11  H   UNL     1     116.062 112.908 103.002  1.00  0.00     0.210 HD
ENDBRANCH   1  10
TORSDOF 4
ENDMDL
MODEL 7
REMARK VINA RESULT:    -2.321      4.685      5.049
REMARK INTER + INTRA:          -2.955
REMARK INTER:                  -2.551
REMARK INTRA:                  -0.404
REMARK UNBOUND:                -0.226
REMARK SMILES [NH3+][C@@H](CO)C(=O)[O-]
REMARK SMILES IDX 3 1 2 2 1 3 5 7 6 8 7 9 4 10
REMARK H PARENT 1 4 1 5 1 6 4 11
REMARK Flexibility Score: inf
ROOT
ATOM      1  C   UNL     1     104.922 114.456 102.106  1.00  0.00     0.227 C 
ENDROOT
BRANCH   1   2
ATOM      2  C   UNL     1     104.176 114.910 100.838  1.00  0.00     0.253 C 
BRANCH   2   3
ATOM      3  N   UNL     1     103.387 116.121 101.094  1.00  0.00    -0.348 N 
ATOM      4  H   UNL     1     102.921 116.053 102.027  1.00  0.00     0.345 HD
ATOM      5  H   UNL     1     104.017 116.957 101.105  1.00  0.00     0.345 HD
ATOM      6  H   UNL     1     102.658 116.251 100.355  1.00  0.00     0.345 HD
ENDBRANCH   2   3
BRANCH   2   7
ATOM      7  C   UNL     1     103.287 113.801 100.344  1.00  0.00     0.102 C 
ATOM      8  O   UNL     1     102.070 113.774 100.665  1.00  0.00    -0.544 OA
ATOM      9  O   UNL     1     103.799 112.807  99.517  1.00  0.00    -0.544 OA
ENDBRANCH   2   7
ENDBRANCH   1   2
BRANCH   1  10
ATOM     10  O   UNL     1     104.510 113.173 102.494  1.00  0.00    -0.390 OA
ATOM     11  H   UNL     1     103.764 113.296 103.137  1.00  0.00     0.210 HD
ENDBRANCH   1  10
TORSDOF 4
ENDMDL
MODEL 8
REMARK VINA RESULT:    -2.320     11.313     11.543
REMARK INTER + INTRA:          -2.953
REMARK INTER:                  -2.549
REMARK INTRA:                  -0.404
REMARK UNBOUND:                -0.226
REMARK SMILES [NH3+][C@@H](CO)C(=O)[O-]
REMARK SMILES IDX 3 1 2 2 1 3 5 7 6 8 7 9 4 10
REMARK H PARENT 1 4 1 5 1 6 4 11
REMARK Flexibility Score: inf
ROOT
ATOM      1  C   UNL     1     105.468 102.545 102.064  1.00  0.00     0.227 C 
ENDROOT
BRANCH   1   2
ATOM      2  C   UNL     1     105.408 101.672 100.797  1.00  0.00     0.253 C 
BRANCH   2   3
ATOM      3  N   UNL     1     104.711 100.407 101.061  1.00  0.00    -0.348 N 
ATOM      4  H   UNL     1     105.364  99.728 101.515  1.00  0.00     0.345 HD
ATOM      5  H   UNL     1     103.910 100.573 101.714  1.00  0.00     0.345 HD
ATOM      6  H   UNL     1     104.348  99.991 100.172  1.00  0.00     0.345 HD
ENDBRANCH   2   3
BRANCH   2   7
ATOM      7  C   UNL     1     106.800 101.407 100.291  1.00  0.00     0.102 C 
ATOM      8  O   UNL     1     107.414 100.367 100.644  1.00  0.00    -0.544 OA
ATOM      9  O   UNL     1     107.411 102.301  99.420  1.00  0.00    -0.544 OA
ENDBRANCH   2   7
ENDBRANCH   1   2
BRANCH   1  10
ATOM     10  O   UNL     1     106.793 102.889 102.369  1.00  0.00    -0.390 OA
ATOM     11  H   UNL     1     106.932 103.813 102.033  1.00  0.00     0.210 HD
ENDBRANCH   1  10
TORSDOF 4
ENDMDL
MODEL 9
REMARK VINA RESULT:    -2.311     13.999     14.396
REMARK INTER + INTRA:          -2.943
REMARK INTER:                  -2.551
REMARK INTRA:                  -0.392
REMARK UNBOUND:                -0.226
REMARK SMILES [NH3+][C@@H](CO)C(=O)[O-]
REMARK SMILES IDX 3 1 2 2 1 3 5 7 6 8 7 9 4 10
REMARK H PARENT 1 4 1 5 1 6 4 11
REMARK Flexibility Score: inf
ROOT
ATOM      1  C   UNL     1     115.424 108.988 102.143  1.00  0.00     0.227 C 
ENDROOT
BRANCH   1   2
ATOM      2  C   UNL     1     116.172 109.331 100.842  1.00  0.00     0.253 C 
BRANCH   2   3
ATOM      3  N   UNL     1     117.624 109.348 101.057  1.00  0.00    -0.348 N 
ATOM      4  H   UNL     1     117.848 108.984 102.011  1.00  0.00     0.345 HD
ATOM      5  H   UNL     1     118.093 108.729 100.355  1.00  0.00     0.345 HD
ATOM      6  H   UNL     1     118.001 110.320 100.963  1.00  0.00     0.345 HD
ENDBRANCH   2   3
BRANCH   2   7
ATOM      7  C   UNL     1     115.705 110.662 100.319  1.00  0.00     0.102 C 
ATOM      8  O   UNL     1     116.324 111.715 100.622  1.00  0.00    -0.544 OA
ATOM      9  O   UNL     1     114.594 110.737  99.486  1.00  0.00    -0.544 OA
ENDBRANCH   2   7
ENDBRANCH   1   2
BRANCH   1  10
ATOM     10  O   UNL     1     114.666 110.082 102.586  1.00  0.00    -0.390 OA
ATOM     11  H   UNL     1     113.755 109.969 102.208  1.00  0.00     0.210 HD
ENDBRANCH   1  10
TORSDOF 4
ENDMDL
