MODEL 1
REMARK VINA RESULT:     0.473      0.000      0.000
REMARK INTER + INTRA:           0.128
REMARK INTER:                   0.500
REMARK INTRA:                  -0.372
REMARK UNBOUND:                -0.372
REMARK SMILES CC1=CC[C@]23[C@H]([C@@H](C(C)C)CC[C@H]2C)[C@@H]13
REMARK SMILES IDX 14 1 13 2 12 3 11 4 7 5 6 6 5 7 15 8 2 9 3 10 4 11 1 12 8 13
REMARK SMILES IDX 9 14 10 15
REMARK H PARENT
REMARK Flexibility Score: inf
ROOT
ATOM      1  C   UNL     1     154.735 135.104 163.754  1.00  0.00     0.008 C 
ATOM      2  C   UNL     1     153.440 135.452 163.005  1.00  0.00    -0.007 C 
ATOM      3  C   UNL     1     153.516 134.875 161.567  1.00  0.00     0.004 C 
ATOM      4  C   UNL     1     152.510 135.453 160.551  1.00  0.00     0.004 C 
ATOM      5  C   UNL     1     151.459 136.414 161.162  1.00  0.00    -0.004 C 
ATOM      6  C   UNL     1     152.052 137.479 162.111  1.00  0.00     0.007 C 
ATOM      7  C   UNL     1     153.122 136.976 163.072  1.00  0.00    -0.013 C 
ATOM      8  C   UNL     1     153.516 137.906 161.924  1.00  0.00     0.025 C 
ATOM      9  C   UNL     1     153.905 139.167 162.624  1.00  0.00    -0.073 C 
ATOM     10  C   UNL     1     153.771 139.097 163.944  1.00  0.00    -0.027 C 
ATOM     11  C   UNL     1     153.252 137.771 164.384  1.00  0.00     0.035 C 
ATOM     12  C   UNL     1     154.386 140.392 161.913  1.00  0.00     0.039 C 
ENDROOT
BRANCH   5  13
ATOM     13  C   UNL     1     150.539 137.091 160.103  1.00  0.00    -0.014 C 
ATOM     14  C   UNL     1     150.248 138.574 160.389  1.00  0.00     0.007 C 
ATOM     15  C   UNL     1     151.066 136.914 158.672  1.00  0.00     0.007 C 
ENDBRANCH   5  13
TORSDOF 1
ENDMDL
MODEL 2
REMARK VINA RESULT:     2.888     13.331     15.596
REMARK INTER + INTRA:           2.685
REMARK INTER:                   2.934
REMARK INTRA:                  -0.249
REMARK UNBOUND:                -0.372
REMARK SMILES CC1=CC[C@]23[C@H]([C@@H](C(C)C)CC[C@H]2C)[C@@H]13
REMARK SMILES IDX 14 1 13 2 12 3 11 4 7 5 6 6 5 7 15 8 2 9 3 10 4 11 1 12 8 13
REMARK SMILES IDX 9 14 10 15
REMARK H PARENT
REMARK Flexibility Score: inf
ROOT
ATOM      1  C   UNL     1     138.374 137.194 165.187  1.00  0.00     0.008 C 
ATOM      2  C   UNL     1     137.378 137.259 164.020  1.00  0.00    -0.007 C 
ATOM      3  C   UNL     1     136.284 136.180 164.226  1.00  0.00     0.004 C 
ATOM      4  C   UNL     1     135.442 135.823 162.984  1.00  0.00     0.004 C 
ATOM      5  C   UNL     1     135.708 136.718 161.749  1.00  0.00    -0.004 C 
ATOM      6  C   UNL     1     137.204 136.932 161.432  1.00  0.00     0.007 C 
ATOM      7  C   UNL     1     138.097 137.194 162.640  1.00  0.00    -0.013 C 
ATOM      8  C   UNL     1     138.217 135.868 161.885  1.00  0.00     0.025 C 
ATOM      9  C   UNL     1     139.564 135.960 161.246  1.00  0.00    -0.073 C 
ATOM     10  C   UNL     1     140.187 137.107 161.498  1.00  0.00    -0.027 C 
ATOM     11  C   UNL     1     139.367 138.013 162.350  1.00  0.00     0.035 C 
ATOM     12  C   UNL     1     140.151 134.878 160.396  1.00  0.00     0.039 C 
ENDROOT
BRANCH   5  13
ATOM     13  C   UNL     1     134.949 136.258 160.468  1.00  0.00    -0.014 C 
ATOM     14  C   UNL     1     134.924 137.312 159.348  1.00  0.00     0.007 C 
ATOM     15  C   UNL     1     135.466 134.917 159.932  1.00  0.00     0.007 C 
ENDBRANCH   5  13
TORSDOF 1
ENDMDL
