MODEL 1
REMARK VINA RESULT:    -4.469      0.000      0.000
REMARK INTER + INTRA:         -17.664
REMARK INTER:                 -11.783
REMARK INTRA:                  -5.881
REMARK UNBOUND:                -5.881
REMARK SMILES CCCCCCCCCCCCCCCCCCCCCCCCCCCCCC(=O)[O-]
REMARK SMILES IDX 16 1 17 2 18 3 19 4 20 5 21 6 22 7 23 8 24 9 25 10 26 11
REMARK SMILES IDX 27 12 28 13 29 14 30 15 31 16 32 17 15 18 14 19 13 20 12 21
REMARK SMILES IDX 11 22 10 23 9 24 8 25 7 26 6 27 5 28 4 29 3 30 2 31 1 32
REMARK H PARENT
REMARK Flexibility Score: inf
ROOT
ATOM      1  C   UNL     1      18.260  31.006  55.565  1.00  0.00     0.000 C 
ENDROOT
BRANCH   1   2
ATOM      2  C   UNL     1      18.698  30.781  54.103  1.00  0.00     0.000 C 
BRANCH   2   3
ATOM      3  C   UNL     1      19.050  29.327  53.736  1.00  0.00     0.000 C 
BRANCH   3   4
ATOM      4  C   UNL     1      18.521  28.860  52.364  1.00  0.00     0.000 C 
BRANCH   4   5
ATOM      5  C   UNL     1      18.790  27.375  52.046  1.00  0.00     0.000 C 
BRANCH   5   6
ATOM      6  C   UNL     1      19.731  26.651  53.034  1.00  0.00     0.000 C 
BRANCH   6   7
ATOM      7  C   UNL     1      20.063  25.193  52.666  1.00  0.00     0.000 C 
BRANCH   7   8
ATOM      8  C   UNL     1      20.378  25.011  51.171  1.00  0.00     0.000 C 
BRANCH   8   9
ATOM      9  C   UNL     1      21.757  25.571  50.779  1.00  0.00     0.000 C 
BRANCH   9  10
ATOM     10  C   UNL     1      21.755  26.502  49.551  1.00  0.00     0.000 C 
BRANCH  10  11
ATOM     11  C   UNL     1      21.976  27.979  49.921  1.00  0.00     0.000 C 
BRANCH  11  12
ATOM     12  C   UNL     1      22.666  28.157  51.282  1.00  0.00     0.000 C 
BRANCH  12  13
ATOM     13  C   UNL     1      22.197  29.423  52.022  1.00  0.00     0.006 C 
BRANCH  13  14
ATOM     14  C   UNL     1      22.039  30.623  51.077  1.00  0.00     0.053 C 
BRANCH  14  15
ATOM     15  C   UNL     1      22.247  31.927  51.788  1.00  0.00     0.041 C 
ATOM     16  O   UNL     1      23.318  32.571  51.635  1.00  0.00    -0.550 OA
ATOM     17  O   UNL     1      21.257  32.425  52.625  1.00  0.00    -0.550 OA
ENDBRANCH  14  15
ENDBRANCH  13  14
ENDBRANCH  12  13
ENDBRANCH  11  12
ENDBRANCH  10  11
ENDBRANCH   9  10
ENDBRANCH   8   9
ENDBRANCH   7   8
ENDBRANCH   6   7
ENDBRANCH   5   6
ENDBRANCH   4   5
ENDBRANCH   3   4
ENDBRANCH   2   3
ENDBRANCH   1   2
BRANCH   1  18
ATOM     18  C   UNL     1      16.731  31.077  55.767  1.00  0.00     0.000 C 
BRANCH  18  19
ATOM     19  C   UNL     1      16.131  29.746  56.244  1.00  0.00     0.000 C 
BRANCH  19  20
ATOM     20  C   UNL     1      15.741  28.860  55.050  1.00  0.00     0.000 C 
BRANCH  20  21
ATOM     21  C   UNL     1      16.151  27.389  55.247  1.00  0.00     0.000 C 
BRANCH  21  22
ATOM     22  C   UNL     1      15.401  26.376  54.361  1.00  0.00     0.000 C 
BRANCH  22  23
ATOM     23  C   UNL     1      16.279  25.322  53.659  1.00  0.00     0.000 C 
BRANCH  23  24
ATOM     24  C   UNL     1      15.815  24.946  52.234  1.00  0.00    -0.000 C 
BRANCH  24  25
ATOM     25  C   UNL     1      14.311  25.203  52.009  1.00  0.00    -0.000 C 
BRANCH  25  26
ATOM     26  C   UNL     1      14.035  26.330  50.998  1.00  0.00    -0.000 C 
BRANCH  26  27
ATOM     27  C   UNL     1      15.284  26.869  50.266  1.00  0.00    -0.000 C 
BRANCH  27  28
ATOM     28  C   UNL     1      15.443  28.402  50.284  1.00  0.00    -0.000 C 
BRANCH  28  29
ATOM     29  C   UNL     1      14.978  29.039  51.602  1.00  0.00    -0.000 C 
BRANCH  29  30
ATOM     30  C   UNL     1      14.668  30.532  51.406  1.00  0.00    -0.000 C 
BRANCH  30  31
ATOM     31  C   UNL     1      15.537  31.444  52.288  1.00  0.00    -0.003 C 
ATOM     32  C   UNL     1      16.035  32.682  51.544  1.00  0.00     0.004 C 
ENDBRANCH  30  31
ENDBRANCH  29  30
ENDBRANCH  28  29
ENDBRANCH  27  28
ENDBRANCH  26  27
ENDBRANCH  25  26
ENDBRANCH  24  25
ENDBRANCH  23  24
ENDBRANCH  22  23
ENDBRANCH  21  22
ENDBRANCH  20  21
ENDBRANCH  19  20
ENDBRANCH  18  19
ENDBRANCH   1  18
TORSDOF 28
ENDMDL
MODEL 2
REMARK VINA RESULT:    -4.401      2.220      6.581
REMARK INTER + INTRA:         -17.486
REMARK INTER:                 -11.807
REMARK INTRA:                  -5.679
REMARK UNBOUND:                -5.881
REMARK SMILES CCCCCCCCCCCCCCCCCCCCCCCCCCCCCC(=O)[O-]
REMARK SMILES IDX 16 1 17 2 18 3 19 4 20 5 21 6 22 7 23 8 24 9 25 10 26 11
REMARK SMILES IDX 27 12 28 13 29 14 30 15 31 16 32 17 15 18 14 19 13 20 12 21
REMARK SMILES IDX 11 22 10 23 9 24 8 25 7 26 6 27 5 28 4 29 3 30 2 31 1 32
REMARK H PARENT
REMARK Flexibility Score: inf
ROOT
ATOM      1  C   UNL     1      16.949  30.880  54.116  1.00  0.00     0.000 C 
ENDROOT
BRANCH   1   2
ATOM      2  C   UNL     1      16.875  29.904  55.308  1.00  0.00     0.000 C 
BRANCH   2   3
ATOM      3  C   UNL     1      15.730  28.876  55.248  1.00  0.00     0.000 C 
BRANCH   3   4
ATOM      4  C   UNL     1      16.178  27.402  55.334  1.00  0.00     0.000 C 
BRANCH   4   5
ATOM      5  C   UNL     1      15.368  26.433  54.450  1.00  0.00     0.000 C 
BRANCH   5   6
ATOM      6  C   UNL     1      16.191  25.318  53.769  1.00  0.00     0.000 C 
BRANCH   6   7
ATOM      7  C   UNL     1      17.677  25.651  53.545  1.00  0.00     0.000 C 
BRANCH   7   8
ATOM      8  C   UNL     1      18.073  25.651  52.058  1.00  0.00     0.000 C 
BRANCH   8   9
ATOM      9  C   UNL     1      16.899  26.005  51.129  1.00  0.00     0.000 C 
BRANCH   9  10
ATOM     10  C   UNL     1      16.759  27.505  50.804  1.00  0.00     0.000 C 
BRANCH  10  11
ATOM     11  C   UNL     1      15.296  27.983  50.805  1.00  0.00     0.000 C 
BRANCH  11  12
ATOM     12  C   UNL     1      15.085  29.255  51.642  1.00  0.00     0.000 C 
BRANCH  12  13
ATOM     13  C   UNL     1      15.208  30.541  50.806  1.00  0.00     0.006 C 
BRANCH  13  14
ATOM     14  C   UNL     1      14.210  31.621  51.250  1.00  0.00     0.053 C 
BRANCH  14  15
ATOM     15  C   UNL     1      14.896  32.907  51.602  1.00  0.00     0.041 C 
ATOM     16  O   UNL     1      14.242  33.860  52.099  1.00  0.00    -0.550 OA
ATOM     17  O   UNL     1      16.258  33.052  51.371  1.00  0.00    -0.550 OA
ENDBRANCH  14  15
ENDBRANCH  13  14
ENDBRANCH  12  13
ENDBRANCH  11  12
ENDBRANCH  10  11
ENDBRANCH   9  10
ENDBRANCH   8   9
ENDBRANCH   7   8
ENDBRANCH   6   7
ENDBRANCH   5   6
ENDBRANCH   4   5
ENDBRANCH   3   4
ENDBRANCH   2   3
ENDBRANCH   1   2
BRANCH   1  18
ATOM     18  C   UNL     1      18.248  30.778  53.289  1.00  0.00     0.000 C 
BRANCH  18  19
ATOM     19  C   UNL     1      18.717  29.328  53.092  1.00  0.00     0.000 C 
BRANCH  19  20
ATOM     20  C   UNL     1      20.094  29.103  53.736  1.00  0.00     0.000 C 
BRANCH  20  21
ATOM     21  C   UNL     1      20.813  27.862  53.177  1.00  0.00     0.000 C 
BRANCH  21  22
ATOM     22  C   UNL     1      20.900  27.793  51.640  1.00  0.00     0.000 C 
BRANCH  22  23
ATOM     23  C   UNL     1      22.300  27.508  51.062  1.00  0.00     0.000 C 
BRANCH  23  24
ATOM     24  C   UNL     1      22.995  28.736  50.432  1.00  0.00    -0.000 C 
BRANCH  24  25
ATOM     25  C   UNL     1      23.987  29.419  51.394  1.00  0.00    -0.000 C 
BRANCH  25  26
ATOM     26  C   UNL     1      23.595  30.868  51.737  1.00  0.00    -0.000 C 
BRANCH  26  27
ATOM     27  C   UNL     1      22.112  31.218  51.488  1.00  0.00    -0.000 C 
BRANCH  27  28
ATOM     28  C   UNL     1      21.544  32.341  52.378  1.00  0.00    -0.000 C 
BRANCH  28  29
ATOM     29  C   UNL     1      22.467  32.700  53.552  1.00  0.00    -0.000 C 
BRANCH  29  30
ATOM     30  C   UNL     1      22.040  31.958  54.828  1.00  0.00    -0.000 C 
BRANCH  30  31
ATOM     31  C   UNL     1      23.222  31.314  55.570  1.00  0.00    -0.003 C 
ATOM     32  C   UNL     1      23.356  29.820  55.280  1.00  0.00     0.004 C 
ENDBRANCH  30  31
ENDBRANCH  29  30
ENDBRANCH  28  29
ENDBRANCH  27  28
ENDBRANCH  26  27
ENDBRANCH  25  26
ENDBRANCH  24  25
ENDBRANCH  23  24
ENDBRANCH  22  23
ENDBRANCH  21  22
ENDBRANCH  20  21
ENDBRANCH  19  20
ENDBRANCH  18  19
ENDBRANCH   1  18
TORSDOF 28
ENDMDL
MODEL 3
REMARK VINA RESULT:    -4.359      2.134      6.094
REMARK INTER + INTRA:         -17.376
REMARK INTER:                 -11.880
REMARK INTRA:                  -5.496
REMARK UNBOUND:                -5.881
REMARK SMILES CCCCCCCCCCCCCCCCCCCCCCCCCCCCCC(=O)[O-]
REMARK SMILES IDX 16 1 17 2 18 3 19 4 20 5 21 6 22 7 23 8 24 9 25 10 26 11
REMARK SMILES IDX 27 12 28 13 29 14 30 15 31 16 32 17 15 18 14 19 13 20 12 21
REMARK SMILES IDX 11 22 10 23 9 24 8 25 7 26 6 27 5 28 4 29 3 30 2 31 1 32
REMARK H PARENT
REMARK Flexibility Score: inf
ROOT
ATOM      1  C   UNL     1      15.954  28.394  54.612  1.00  0.00     0.000 C 
ENDROOT
BRANCH   1   2
ATOM      2  C   UNL     1      15.573  26.921  54.870  1.00  0.00     0.000 C 
BRANCH   2   3
ATOM      3  C   UNL     1      16.415  25.880  54.109  1.00  0.00     0.000 C 
BRANCH   3   4
ATOM      4  C   UNL     1      17.611  26.462  53.325  1.00  0.00     0.000 C 
BRANCH   4   5
ATOM      5  C   UNL     1      18.793  25.489  53.144  1.00  0.00     0.000 C 
BRANCH   5   6
ATOM      6  C   UNL     1      19.087  25.074  51.686  1.00  0.00     0.000 C 
BRANCH   6   7
ATOM      7  C   UNL     1      18.636  26.087  50.618  1.00  0.00     0.000 C 
BRANCH   7   8
ATOM      8  C   UNL     1      17.557  25.521  49.677  1.00  0.00     0.000 C 
BRANCH   8   9
ATOM      9  C   UNL     1      16.350  26.463  49.519  1.00  0.00     0.000 C 
BRANCH   9  10
ATOM     10  C   UNL     1      15.167  26.165  50.460  1.00  0.00     0.000 C 
BRANCH  10  11
ATOM     11  C   UNL     1      14.669  27.415  51.208  1.00  0.00     0.000 C 
BRANCH  11  12
ATOM     12  C   UNL     1      15.591  28.630  51.020  1.00  0.00     0.000 C 
BRANCH  12  13
ATOM     13  C   UNL     1      14.866  29.966  51.263  1.00  0.00     0.006 C 
BRANCH  13  14
ATOM     14  C   UNL     1      15.774  31.006  51.936  1.00  0.00     0.053 C 
BRANCH  14  15
ATOM     15  C   UNL     1      15.333  32.409  51.641  1.00  0.00     0.041 C 
ATOM     16  O   UNL     1      16.173  33.281  51.300  1.00  0.00    -0.550 OA
ATOM     17  O   UNL     1      13.991  32.751  51.753  1.00  0.00    -0.550 OA
ENDBRANCH  14  15
ENDBRANCH  13  14
ENDBRANCH  12  13
ENDBRANCH  11  12
ENDBRANCH  10  11
ENDBRANCH   9  10
ENDBRANCH   8   9
ENDBRANCH   7   8
ENDBRANCH   6   7
ENDBRANCH   5   6
ENDBRANCH   4   5
ENDBRANCH   3   4
ENDBRANCH   2   3
ENDBRANCH   1   2
BRANCH   1  18
ATOM     18  C   UNL     1      16.007  29.269  55.882  1.00  0.00     0.000 C 
BRANCH  18  19
ATOM     19  C   UNL     1      16.393  30.726  55.585  1.00  0.00     0.000 C 
BRANCH  19  20
ATOM     20  C   UNL     1      17.515  31.199  56.522  1.00  0.00     0.000 C 
BRANCH  20  21
ATOM     21  C   UNL     1      18.877  31.299  55.809  1.00  0.00     0.000 C 
BRANCH  21  22
ATOM     22  C   UNL     1      18.874  30.872  54.328  1.00  0.00     0.000 C 
BRANCH  22  23
ATOM     23  C   UNL     1      19.533  29.513  54.023  1.00  0.00     0.000 C 
BRANCH  23  24
ATOM     24  C   UNL     1      19.751  29.230  52.520  1.00  0.00    -0.000 C 
BRANCH  24  25
ATOM     25  C   UNL     1      21.003  28.372  52.249  1.00  0.00    -0.000 C 
BRANCH  25  26
ATOM     26  C   UNL     1      21.607  28.608  50.853  1.00  0.00    -0.000 C 
BRANCH  26  27
ATOM     27  C   UNL     1      22.708  29.688  50.793  1.00  0.00    -0.000 C 
BRANCH  27  28
ATOM     28  C   UNL     1      22.348  31.030  51.459  1.00  0.00    -0.000 C 
BRANCH  28  29
ATOM     29  C   UNL     1      23.373  31.471  52.516  1.00  0.00    -0.000 C 
BRANCH  29  30
ATOM     30  C   UNL     1      24.001  30.251  53.208  1.00  0.00    -0.000 C 
BRANCH  30  31
ATOM     31  C   UNL     1      23.406  29.981  54.599  1.00  0.00    -0.003 C 
ATOM     32  C   UNL     1      22.662  31.189  55.166  1.00  0.00     0.004 C 
ENDBRANCH  30  31
ENDBRANCH  29  30
ENDBRANCH  28  29
ENDBRANCH  27  28
ENDBRANCH  26  27
ENDBRANCH  25  26
ENDBRANCH  24  25
ENDBRANCH  23  24
ENDBRANCH  22  23
ENDBRANCH  21  22
ENDBRANCH  20  21
ENDBRANCH  19  20
ENDBRANCH  18  19
ENDBRANCH   1  18
TORSDOF 28
ENDMDL
MODEL 4
REMARK VINA RESULT:    -4.357      2.252      6.436
REMARK INTER + INTRA:         -17.372
REMARK INTER:                 -11.827
REMARK INTRA:                  -5.544
REMARK UNBOUND:                -5.881
REMARK SMILES CCCCCCCCCCCCCCCCCCCCCCCCCCCCCC(=O)[O-]
REMARK SMILES IDX 16 1 17 2 18 3 19 4 20 5 21 6 22 7 23 8 24 9 25 10 26 11
REMARK SMILES IDX 27 12 28 13 29 14 30 15 31 16 32 17 15 18 14 19 13 20 12 21
REMARK SMILES IDX 11 22 10 23 9 24 8 25 7 26 6 27 5 28 4 29 3 30 2 31 1 32
REMARK H PARENT
REMARK Flexibility Score: inf
ROOT
ATOM      1  C   UNL     1      14.147  27.307  51.372  1.00  0.00     0.000 C 
ENDROOT
BRANCH   1   2
ATOM      2  C   UNL     1      13.625  25.909  51.765  1.00  0.00     0.000 C 
BRANCH   2   3
ATOM      3  C   UNL     1      14.399  24.723  51.162  1.00  0.00     0.000 C 
BRANCH   3   4
ATOM      4  C   UNL     1      15.224  23.905  52.177  1.00  0.00     0.000 C 
BRANCH   4   5
ATOM      5  C   UNL     1      15.402  24.582  53.551  1.00  0.00     0.000 C 
BRANCH   5   6
ATOM      6  C   UNL     1      16.600  25.551  53.657  1.00  0.00     0.000 C 
BRANCH   6   7
ATOM      7  C   UNL     1      16.537  26.536  54.839  1.00  0.00     0.000 C 
BRANCH   7   8
ATOM      8  C   UNL     1      15.612  27.735  54.568  1.00  0.00     0.000 C 
BRANCH   8   9
ATOM      9  C   UNL     1      16.175  29.059  55.115  1.00  0.00     0.000 C 
BRANCH   9  10
ATOM     10  C   UNL     1      17.466  29.547  54.429  1.00  0.00     0.000 C 
BRANCH  10  11
ATOM     11  C   UNL     1      17.266  29.866  52.937  1.00  0.00     0.000 C 
BRANCH  11  12
ATOM     12  C   UNL     1      16.456  31.151  52.704  1.00  0.00     0.000 C 
BRANCH  12  13
ATOM     13  C   UNL     1      15.216  30.917  51.822  1.00  0.00     0.006 C 
BRANCH  13  14
ATOM     14  C   UNL     1      15.200  31.831  50.588  1.00  0.00     0.053 C 
BRANCH  14  15
ATOM     15  C   UNL     1      15.503  33.256  50.943  1.00  0.00     0.041 C 
ATOM     16  O   UNL     1      16.567  33.798  50.545  1.00  0.00    -0.550 OA
ATOM     17  O   UNL     1      14.611  33.982  51.722  1.00  0.00    -0.550 OA
ENDBRANCH  14  15
ENDBRANCH  13  14
ENDBRANCH  12  13
ENDBRANCH  11  12
ENDBRANCH  10  11
ENDBRANCH   9  10
ENDBRANCH   8   9
ENDBRANCH   7   8
ENDBRANCH   6   7
ENDBRANCH   5   6
ENDBRANCH   4   5
ENDBRANCH   3   4
ENDBRANCH   2   3
ENDBRANCH   1   2
BRANCH   1  18
ATOM     18  C   UNL     1      15.449  27.290  50.545  1.00  0.00     0.000 C 
BRANCH  18  19
ATOM     19  C   UNL     1      15.418  28.273  49.364  1.00  0.00     0.000 C 
BRANCH  19  20
ATOM     20  C   UNL     1      15.762  27.560  48.047  1.00  0.00     0.000 C 
BRANCH  20  21
ATOM     21  C   UNL     1      15.109  26.169  47.939  1.00  0.00     0.000 C 
BRANCH  21  22
ATOM     22  C   UNL     1      16.055  25.033  47.504  1.00  0.00     0.000 C 
BRANCH  22  23
ATOM     23  C   UNL     1      17.453  25.042  48.153  1.00  0.00     0.000 C 
BRANCH  23  24
ATOM     24  C   UNL     1      17.608  24.081  49.353  1.00  0.00    -0.000 C 
BRANCH  24  25
ATOM     25  C   UNL     1      18.420  24.696  50.510  1.00  0.00    -0.000 C 
BRANCH  25  26
ATOM     26  C   UNL     1      18.823  26.159  50.254  1.00  0.00    -0.000 C 
BRANCH  26  27
ATOM     27  C   UNL     1      18.998  27.019  51.525  1.00  0.00    -0.000 C 
BRANCH  27  28
ATOM     28  C   UNL     1      20.429  27.063  52.095  1.00  0.00    -0.000 C 
BRANCH  28  29
ATOM     29  C   UNL     1      20.787  28.423  52.715  1.00  0.00    -0.000 C 
BRANCH  29  30
ATOM     30  C   UNL     1      21.562  29.292  51.711  1.00  0.00    -0.000 C 
BRANCH  30  31
ATOM     31  C   UNL     1      23.011  28.819  51.506  1.00  0.00    -0.003 C 
ATOM     32  C   UNL     1      24.025  29.690  52.246  1.00  0.00     0.004 C 
ENDBRANCH  30  31
ENDBRANCH  29  30
ENDBRANCH  28  29
ENDBRANCH  27  28
ENDBRANCH  26  27
ENDBRANCH  25  26
ENDBRANCH  24  25
ENDBRANCH  23  24
ENDBRANCH  22  23
ENDBRANCH  21  22
ENDBRANCH  20  21
ENDBRANCH  19  20
ENDBRANCH  18  19
ENDBRANCH   1  18
TORSDOF 28
ENDMDL
MODEL 5
REMARK VINA RESULT:    -4.337      2.532      6.644
REMARK INTER + INTRA:         -17.318
REMARK INTER:                 -12.111
REMARK INTRA:                  -5.207
REMARK UNBOUND:                -5.881
REMARK SMILES CCCCCCCCCCCCCCCCCCCCCCCCCCCCCC(=O)[O-]
REMARK SMILES IDX 16 1 17 2 18 3 19 4 20 5 21 6 22 7 23 8 24 9 25 10 26 11
REMARK SMILES IDX 27 12 28 13 29 14 30 15 31 16 32 17 15 18 14 19 13 20 12 21
REMARK SMILES IDX 11 22 10 23 9 24 8 25 7 26 6 27 5 28 4 29 3 30 2 31 1 32
REMARK H PARENT
REMARK Flexibility Score: inf
ROOT
ATOM      1  C   UNL     1      17.460  30.287  54.884  1.00  0.00     0.000 C 
ENDROOT
BRANCH   1   2
ATOM      2  C   UNL     1      16.103  29.570  54.727  1.00  0.00     0.000 C 
BRANCH   2   3
ATOM      3  C   UNL     1      15.922  28.307  55.589  1.00  0.00     0.000 C 
BRANCH   3   4
ATOM      4  C   UNL     1      15.847  26.986  54.794  1.00  0.00     0.000 C 
BRANCH   4   5
ATOM      5  C   UNL     1      17.073  26.706  53.901  1.00  0.00     0.000 C 
BRANCH   5   6
ATOM      6  C   UNL     1      17.028  25.374  53.120  1.00  0.00     0.000 C 
BRANCH   6   7
ATOM      7  C   UNL     1      15.773  24.517  53.369  1.00  0.00     0.000 C 
BRANCH   7   8
ATOM      8  C   UNL     1      15.164  23.960  52.070  1.00  0.00     0.000 C 
BRANCH   8   9
ATOM      9  C   UNL     1      13.774  24.545  51.763  1.00  0.00     0.000 C 
BRANCH   9  10
ATOM     10  C   UNL     1      13.787  25.865  50.968  1.00  0.00     0.000 C 
BRANCH  10  11
ATOM     11  C   UNL     1      15.031  26.012  50.074  1.00  0.00     0.000 C 
BRANCH  11  12
ATOM     12  C   UNL     1      15.698  27.391  50.202  1.00  0.00     0.000 C 
BRANCH  12  13
ATOM     13  C   UNL     1      14.982  28.302  51.215  1.00  0.00     0.006 C 
BRANCH  13  14
ATOM     14  C   UNL     1      15.469  29.757  51.133  1.00  0.00     0.053 C 
BRANCH  14  15
ATOM     15  C   UNL     1      14.552  30.608  50.306  1.00  0.00     0.041 C 
ATOM     16  O   UNL     1      14.593  30.553  49.050  1.00  0.00    -0.550 OA
ATOM     17  O   UNL     1      13.657  31.469  50.929  1.00  0.00    -0.550 OA
ENDBRANCH  14  15
ENDBRANCH  13  14
ENDBRANCH  12  13
ENDBRANCH  11  12
ENDBRANCH  10  11
ENDBRANCH   9  10
ENDBRANCH   8   9
ENDBRANCH   7   8
ENDBRANCH   6   7
ENDBRANCH   5   6
ENDBRANCH   4   5
ENDBRANCH   3   4
ENDBRANCH   2   3
ENDBRANCH   1   2
BRANCH   1  18
ATOM     18  C   UNL     1      18.061  30.809  53.562  1.00  0.00     0.000 C 
BRANCH  18  19
ATOM     19  C   UNL     1      19.089  29.843  52.952  1.00  0.00     0.000 C 
BRANCH  19  20
ATOM     20  C   UNL     1      20.085  29.358  54.017  1.00  0.00     0.000 C 
BRANCH  20  21
ATOM     21  C   UNL     1      20.951  28.183  53.525  1.00  0.00     0.000 C 
BRANCH  21  22
ATOM     22  C   UNL     1      20.439  27.480  52.253  1.00  0.00     0.000 C 
BRANCH  22  23
ATOM     23  C   UNL     1      21.522  26.843  51.360  1.00  0.00     0.000 C 
BRANCH  23  24
ATOM     24  C   UNL     1      21.746  27.564  50.012  1.00  0.00    -0.000 C 
BRANCH  24  25
ATOM     25  C   UNL     1      22.069  29.062  50.183  1.00  0.00    -0.000 C 
BRANCH  25  26
ATOM     26  C   UNL     1      23.573  29.372  50.080  1.00  0.00    -0.000 C 
BRANCH  26  27
ATOM     27  C   UNL     1      24.310  29.484  51.433  1.00  0.00    -0.000 C 
BRANCH  27  28
ATOM     28  C   UNL     1      23.611  30.360  52.490  1.00  0.00    -0.000 C 
BRANCH  28  29
ATOM     29  C   UNL     1      24.172  31.789  52.553  1.00  0.00    -0.000 C 
BRANCH  29  30
ATOM     30  C   UNL     1      23.156  32.798  51.994  1.00  0.00    -0.000 C 
BRANCH  30  31
ATOM     31  C   UNL     1      21.713  32.270  52.021  1.00  0.00    -0.003 C 
ATOM     32  C   UNL     1      20.724  33.285  52.593  1.00  0.00     0.004 C 
ENDBRANCH  30  31
ENDBRANCH  29  30
ENDBRANCH  28  29
ENDBRANCH  27  28
ENDBRANCH  26  27
ENDBRANCH  25  26
ENDBRANCH  24  25
ENDBRANCH  23  24
ENDBRANCH  22  23
ENDBRANCH  21  22
ENDBRANCH  20  21
ENDBRANCH  19  20
ENDBRANCH  18  19
ENDBRANCH   1  18
TORSDOF 28
ENDMDL
MODEL 6
REMARK VINA RESULT:    -4.327      1.263      2.078
REMARK INTER + INTRA:         -17.292
REMARK INTER:                 -11.710
REMARK INTRA:                  -5.582
REMARK UNBOUND:                -5.881
REMARK SMILES CCCCCCCCCCCCCCCCCCCCCCCCCCCCCC(=O)[O-]
REMARK SMILES IDX 16 1 17 2 18 3 19 4 20 5 21 6 22 7 23 8 24 9 25 10 26 11
REMARK SMILES IDX 27 12 28 13 29 14 30 15 31 16 32 17 15 18 14 19 13 20 12 21
REMARK SMILES IDX 11 22 10 23 9 24 8 25 7 26 6 27 5 28 4 29 3 30 2 31 1 32
REMARK H PARENT
REMARK Flexibility Score: inf
ROOT
ATOM      1  C   UNL     1      19.875  30.544  53.119  1.00  0.00     0.000 C 
ENDROOT
BRANCH   1   2
ATOM      2  C   UNL     1      20.530  29.485  54.029  1.00  0.00     0.000 C 
BRANCH   2   3
ATOM      3  C   UNL     1      20.792  28.119  53.369  1.00  0.00     0.000 C 
BRANCH   3   4
ATOM      4  C   UNL     1      19.522  27.341  52.964  1.00  0.00     0.000 C 
BRANCH   4   5
ATOM      5  C   UNL     1      19.698  25.810  52.910  1.00  0.00     0.000 C 
BRANCH   5   6
ATOM      6  C   UNL     1      19.574  25.182  51.505  1.00  0.00     0.000 C 
BRANCH   6   7
ATOM      7  C   UNL     1      19.781  26.161  50.334  1.00  0.00     0.000 C 
BRANCH   7   8
ATOM      8  C   UNL     1      21.178  26.044  49.699  1.00  0.00     0.000 C 
BRANCH   8   9
ATOM      9  C   UNL     1      21.876  27.406  49.539  1.00  0.00     0.000 C 
BRANCH   9  10
ATOM     10  C   UNL     1      22.927  27.727  50.619  1.00  0.00     0.000 C 
BRANCH  10  11
ATOM     11  C   UNL     1      23.204  29.235  50.755  1.00  0.00     0.000 C 
BRANCH  11  12
ATOM     12  C   UNL     1      24.344  29.546  51.737  1.00  0.00     0.000 C 
BRANCH  12  13
ATOM     13  C   UNL     1      23.959  30.622  52.769  1.00  0.00     0.006 C 
BRANCH  13  14
ATOM     14  C   UNL     1      23.199  31.794  52.130  1.00  0.00     0.053 C 
BRANCH  14  15
ATOM     15  C   UNL     1      24.057  33.019  52.012  1.00  0.00     0.041 C 
ATOM     16  O   UNL     1      23.563  34.104  51.608  1.00  0.00    -0.550 OA
ATOM     17  O   UNL     1      25.404  32.956  52.342  1.00  0.00    -0.550 OA
ENDBRANCH  14  15
ENDBRANCH  13  14
ENDBRANCH  12  13
ENDBRANCH  11  12
ENDBRANCH  10  11
ENDBRANCH   9  10
ENDBRANCH   8   9
ENDBRANCH   7   8
ENDBRANCH   6   7
ENDBRANCH   5   6
ENDBRANCH   4   5
ENDBRANCH   3   4
ENDBRANCH   2   3
ENDBRANCH   1   2
BRANCH   1  18
ATOM     18  C   UNL     1      18.480  31.010  53.586  1.00  0.00     0.000 C 
BRANCH  18  19
ATOM     19  C   UNL     1      17.974  30.238  54.814  1.00  0.00     0.000 C 
BRANCH  19  20
ATOM     20  C   UNL     1      16.477  30.494  55.046  1.00  0.00     0.000 C 
BRANCH  20  21
ATOM     21  C   UNL     1      15.712  29.215  55.434  1.00  0.00     0.000 C 
BRANCH  21  22
ATOM     22  C   UNL     1      16.416  27.894  55.068  1.00  0.00     0.000 C 
BRANCH  22  23
ATOM     23  C   UNL     1      15.498  26.767  54.556  1.00  0.00     0.000 C 
BRANCH  23  24
ATOM     24  C   UNL     1      16.243  25.579  53.908  1.00  0.00    -0.000 C 
BRANCH  24  25
ATOM     25  C   UNL     1      15.426  24.898  52.792  1.00  0.00    -0.000 C 
BRANCH  25  26
ATOM     26  C   UNL     1      15.002  25.868  51.675  1.00  0.00    -0.000 C 
BRANCH  26  27
ATOM     27  C   UNL     1      16.097  26.181  50.632  1.00  0.00    -0.000 C 
BRANCH  27  28
ATOM     28  C   UNL     1      16.210  27.662  50.223  1.00  0.00    -0.000 C 
BRANCH  28  29
ATOM     29  C   UNL     1      16.412  28.603  51.421  1.00  0.00    -0.000 C 
BRANCH  29  30
ATOM     30  C   UNL     1      15.158  29.460  51.658  1.00  0.00    -0.000 C 
BRANCH  30  31
ATOM     31  C   UNL     1      15.420  30.964  51.480  1.00  0.00    -0.003 C 
ATOM     32  C   UNL     1      14.137  31.763  51.258  1.00  0.00     0.004 C 
ENDBRANCH  30  31
ENDBRANCH  29  30
ENDBRANCH  28  29
ENDBRANCH  27  28
ENDBRANCH  26  27
ENDBRANCH  25  26
ENDBRANCH  24  25
ENDBRANCH  23  24
ENDBRANCH  22  23
ENDBRANCH  21  22
ENDBRANCH  20  21
ENDBRANCH  19  20
ENDBRANCH  18  19
ENDBRANCH   1  18
TORSDOF 28
ENDMDL
MODEL 7
REMARK VINA RESULT:    -4.301      1.785      5.413
REMARK INTER + INTRA:         -17.222
REMARK INTER:                 -11.685
REMARK INTRA:                  -5.537
REMARK UNBOUND:                -5.881
REMARK SMILES CCCCCCCCCCCCCCCCCCCCCCCCCCCCCC(=O)[O-]
REMARK SMILES IDX 16 1 17 2 18 3 19 4 20 5 21 6 22 7 23 8 24 9 25 10 26 11
REMARK SMILES IDX 27 12 28 13 29 14 30 15 31 16 32 17 15 18 14 19 13 20 12 21
REMARK SMILES IDX 11 22 10 23 9 24 8 25 7 26 6 27 5 28 4 29 3 30 2 31 1 32
REMARK H PARENT
REMARK Flexibility Score: inf
ROOT
ATOM      1  C   UNL     1      15.312  23.875  50.759  1.00  0.00     0.000 C 
ENDROOT
BRANCH   1   2
ATOM      2  C   UNL     1      14.756  24.492  52.059  1.00  0.00     0.000 C 
BRANCH   2   3
ATOM      3  C   UNL     1      15.599  24.238  53.322  1.00  0.00     0.000 C 
BRANCH   3   4
ATOM      4  C   UNL     1      16.293  25.490  53.900  1.00  0.00     0.000 C 
BRANCH   4   5
ATOM      5  C   UNL     1      15.351  26.459  54.643  1.00  0.00     0.000 C 
BRANCH   5   6
ATOM      6  C   UNL     1      16.053  27.501  55.541  1.00  0.00     0.000 C 
BRANCH   6   7
ATOM      7  C   UNL     1      15.667  28.965  55.261  1.00  0.00     0.000 C 
BRANCH   7   8
ATOM      8  C   UNL     1      16.511  29.969  56.066  1.00  0.00     0.000 C 
BRANCH   8   9
ATOM      9  C   UNL     1      17.291  30.946  55.169  1.00  0.00     0.000 C 
BRANCH   9  10
ATOM     10  C   UNL     1      18.824  30.807  55.239  1.00  0.00     0.000 C 
BRANCH  10  11
ATOM     11  C   UNL     1      19.547  31.589  54.127  1.00  0.00     0.000 C 
BRANCH  11  12
ATOM     12  C   UNL     1      20.785  30.855  53.590  1.00  0.00     0.000 C 
BRANCH  12  13
ATOM     13  C   UNL     1      21.271  29.743  54.537  1.00  0.00     0.006 C 
BRANCH  13  14
ATOM     14  C   UNL     1      22.702  29.991  55.038  1.00  0.00     0.053 C 
BRANCH  14  15
ATOM     15  C   UNL     1      23.633  30.352  53.920  1.00  0.00     0.041 C 
ATOM     16  O   UNL     1      24.316  31.407  53.977  1.00  0.00    -0.550 OA
ATOM     17  O   UNL     1      23.738  29.523  52.811  1.00  0.00    -0.550 OA
ENDBRANCH  14  15
ENDBRANCH  13  14
ENDBRANCH  12  13
ENDBRANCH  11  12
ENDBRANCH  10  11
ENDBRANCH   9  10
ENDBRANCH   8   9
ENDBRANCH   7   8
ENDBRANCH   6   7
ENDBRANCH   5   6
ENDBRANCH   4   5
ENDBRANCH   3   4
ENDBRANCH   2   3
ENDBRANCH   1   2
BRANCH   1  18
ATOM     18  C   UNL     1      15.421  24.866  49.581  1.00  0.00     0.000 C 
BRANCH  18  19
ATOM     19  C   UNL     1      16.864  25.044  49.084  1.00  0.00     0.000 C 
BRANCH  19  20
ATOM     20  C   UNL     1      17.853  24.289  49.986  1.00  0.00     0.000 C 
BRANCH  20  21
ATOM     21  C   UNL     1      19.056  25.156  50.401  1.00  0.00     0.000 C 
BRANCH  21  22
ATOM     22  C   UNL     1      19.770  24.711  51.692  1.00  0.00     0.000 C 
BRANCH  22  23
ATOM     23  C   UNL     1      19.842  25.765  52.813  1.00  0.00     0.000 C 
BRANCH  23  24
ATOM     24  C   UNL     1      19.660  27.223  52.334  1.00  0.00    -0.000 C 
BRANCH  24  25
ATOM     25  C   UNL     1      18.526  27.958  53.077  1.00  0.00    -0.000 C 
BRANCH  25  26
ATOM     26  C   UNL     1      17.660  28.828  52.148  1.00  0.00    -0.000 C 
BRANCH  26  27
ATOM     27  C   UNL     1      16.796  28.042  51.137  1.00  0.00    -0.000 C 
BRANCH  27  28
ATOM     28  C   UNL     1      15.277  28.109  51.382  1.00  0.00    -0.000 C 
BRANCH  28  29
ATOM     29  C   UNL     1      14.788  29.521  51.742  1.00  0.00    -0.000 C 
BRANCH  29  30
ATOM     30  C   UNL     1      14.926  30.469  50.540  1.00  0.00    -0.000 C 
BRANCH  30  31
ATOM     31  C   UNL     1      14.889  31.952  50.940  1.00  0.00    -0.003 C 
ATOM     32  C   UNL     1      16.045  32.343  51.860  1.00  0.00     0.004 C 
ENDBRANCH  30  31
ENDBRANCH  29  30
ENDBRANCH  28  29
ENDBRANCH  27  28
ENDBRANCH  26  27
ENDBRANCH  25  26
ENDBRANCH  24  25
ENDBRANCH  23  24
ENDBRANCH  22  23
ENDBRANCH  21  22
ENDBRANCH  20  21
ENDBRANCH  19  20
ENDBRANCH  18  19
ENDBRANCH   1  18
TORSDOF 28
ENDMDL
MODEL 8
REMARK VINA RESULT:    -4.260      2.326      6.703
REMARK INTER + INTRA:         -17.114
REMARK INTER:                 -11.597
REMARK INTRA:                  -5.517
REMARK UNBOUND:                -5.881
REMARK SMILES CCCCCCCCCCCCCCCCCCCCCCCCCCCCCC(=O)[O-]
REMARK SMILES IDX 16 1 17 2 18 3 19 4 20 5 21 6 22 7 23 8 24 9 25 10 26 11
REMARK SMILES IDX 27 12 28 13 29 14 30 15 31 16 32 17 15 18 14 19 13 20 12 21
REMARK SMILES IDX 11 22 10 23 9 24 8 25 7 26 6 27 5 28 4 29 3 30 2 31 1 32
REMARK H PARENT
REMARK Flexibility Score: inf
ROOT
ATOM      1  C   UNL     1      18.712  29.426  53.825  1.00  0.00     0.000 C 
ENDROOT
BRANCH   1   2
ATOM      2  C   UNL     1      17.204  29.342  53.510  1.00  0.00     0.000 C 
BRANCH   2   3
ATOM      3  C   UNL     1      16.279  29.243  54.737  1.00  0.00     0.000 C 
BRANCH   3   4
ATOM      4  C   UNL     1      16.121  27.821  55.316  1.00  0.00     0.000 C 
BRANCH   4   5
ATOM      5  C   UNL     1      15.181  26.902  54.512  1.00  0.00     0.000 C 
BRANCH   5   6
ATOM      6  C   UNL     1      15.830  25.610  53.968  1.00  0.00     0.000 C 
BRANCH   6   7
ATOM      7  C   UNL     1      17.330  25.724  53.640  1.00  0.00     0.000 C 
BRANCH   7   8
ATOM      8  C   UNL     1      17.603  25.868  52.133  1.00  0.00     0.000 C 
BRANCH   8   9
ATOM      9  C   UNL     1      16.328  26.155  51.320  1.00  0.00     0.000 C 
BRANCH   9  10
ATOM     10  C   UNL     1      16.340  27.484  50.540  1.00  0.00     0.000 C 
BRANCH  10  11
ATOM     11  C   UNL     1      15.080  28.333  50.786  1.00  0.00     0.000 C 
BRANCH  11  12
ATOM     12  C   UNL     1      15.027  29.590  49.905  1.00  0.00     0.000 C 
BRANCH  12  13
ATOM     13  C   UNL     1      15.401  30.869  50.676  1.00  0.00     0.006 C 
BRANCH  13  14
ATOM     14  C   UNL     1      14.176  31.543  51.312  1.00  0.00     0.053 C 
BRANCH  14  15
ATOM     15  C   UNL     1      14.471  32.949  51.742  1.00  0.00     0.041 C 
ATOM     16  O   UNL     1      15.275  33.660  51.085  1.00  0.00    -0.550 OA
ATOM     17  O   UNL     1      13.860  33.469  52.876  1.00  0.00    -0.550 OA
ENDBRANCH  14  15
ENDBRANCH  13  14
ENDBRANCH  12  13
ENDBRANCH  11  12
ENDBRANCH  10  11
ENDBRANCH   9  10
ENDBRANCH   8   9
ENDBRANCH   7   8
ENDBRANCH   6   7
ENDBRANCH   5   6
ENDBRANCH   4   5
ENDBRANCH   3   4
ENDBRANCH   2   3
ENDBRANCH   1   2
BRANCH   1  18
ATOM     18  C   UNL     1      19.627  28.872  52.713  1.00  0.00     0.000 C 
BRANCH  18  19
ATOM     19  C   UNL     1      20.695  27.905  53.246  1.00  0.00     0.000 C 
BRANCH  19  20
ATOM     20  C   UNL     1      21.001  26.805  52.218  1.00  0.00     0.000 C 
BRANCH  20  21
ATOM     21  C   UNL     1      20.813  27.282  50.766  1.00  0.00     0.000 C 
BRANCH  21  22
ATOM     22  C   UNL     1      22.084  27.248  49.895  1.00  0.00     0.000 C 
BRANCH  22  23
ATOM     23  C   UNL     1      22.948  28.524  49.923  1.00  0.00     0.000 C 
BRANCH  23  24
ATOM     24  C   UNL     1      22.158  29.827  50.180  1.00  0.00    -0.000 C 
BRANCH  24  25
ATOM     25  C   UNL     1      22.734  30.654  51.346  1.00  0.00    -0.000 C 
BRANCH  25  26
ATOM     26  C   UNL     1      23.690  29.849  52.244  1.00  0.00    -0.000 C 
BRANCH  26  27
ATOM     27  C   UNL     1      23.546  30.118  53.757  1.00  0.00    -0.000 C 
BRANCH  27  28
ATOM     28  C   UNL     1      22.914  31.474  54.125  1.00  0.00    -0.000 C 
BRANCH  28  29
ATOM     29  C   UNL     1      21.667  31.335  55.013  1.00  0.00    -0.000 C 
BRANCH  29  30
ATOM     30  C   UNL     1      20.658  32.455  54.715  1.00  0.00    -0.000 C 
BRANCH  30  31
ATOM     31  C   UNL     1      20.279  32.539  53.227  1.00  0.00    -0.003 C 
ATOM     32  C   UNL     1      20.708  33.856  52.583  1.00  0.00     0.004 C 
ENDBRANCH  30  31
ENDBRANCH  29  30
ENDBRANCH  28  29
ENDBRANCH  27  28
ENDBRANCH  26  27
ENDBRANCH  25  26
ENDBRANCH  24  25
ENDBRANCH  23  24
ENDBRANCH  22  23
ENDBRANCH  21  22
ENDBRANCH  20  21
ENDBRANCH  19  20
ENDBRANCH  18  19
ENDBRANCH   1  18
TORSDOF 28
ENDMDL
MODEL 9
REMARK VINA RESULT:    -4.197      1.667      4.553
REMARK INTER + INTRA:         -16.947
REMARK INTER:                 -10.648
REMARK INTRA:                  -6.299
REMARK UNBOUND:                -5.881
REMARK SMILES CCCCCCCCCCCCCCCCCCCCCCCCCCCCCC(=O)[O-]
REMARK SMILES IDX 16 1 17 2 18 3 19 4 20 5 21 6 22 7 23 8 24 9 25 10 26 11
REMARK SMILES IDX 27 12 28 13 29 14 30 15 31 16 32 17 15 18 14 19 13 20 12 21
REMARK SMILES IDX 11 22 10 23 9 24 8 25 7 26 6 27 5 28 4 29 3 30 2 31 1 32
REMARK H PARENT
REMARK Flexibility Score: inf
ROOT
ATOM      1  C   UNL     1      19.335  25.674  53.025  1.00  0.00     0.000 C 
ENDROOT
BRANCH   1   2
ATOM      2  C   UNL     1      20.713  25.016  53.249  1.00  0.00     0.000 C 
BRANCH   2   3
ATOM      3  C   UNL     1      21.477  24.635  51.968  1.00  0.00     0.000 C 
BRANCH   3   4
ATOM      4  C   UNL     1      22.361  25.757  51.383  1.00  0.00     0.000 C 
BRANCH   4   5
ATOM      5  C   UNL     1      21.817  26.391  50.087  1.00  0.00     0.000 C 
BRANCH   5   6
ATOM      6  C   UNL     1      21.353  27.858  50.216  1.00  0.00     0.000 C 
BRANCH   6   7
ATOM      7  C   UNL     1      21.592  28.497  51.597  1.00  0.00     0.000 C 
BRANCH   7   8
ATOM      8  C   UNL     1      20.310  29.081  52.215  1.00  0.00     0.000 C 
BRANCH   8   9
ATOM      9  C   UNL     1      20.385  29.196  53.747  1.00  0.00     0.000 C 
BRANCH   9  10
ATOM     10  C   UNL     1      19.750  30.471  54.334  1.00  0.00     0.000 C 
BRANCH  10  11
ATOM     11  C   UNL     1      19.654  31.617  53.311  1.00  0.00     0.000 C 
BRANCH  11  12
ATOM     12  C   UNL     1      20.528  32.824  53.683  1.00  0.00     0.000 C 
BRANCH  12  13
ATOM     13  C   UNL     1      21.634  33.095  52.647  1.00  0.00     0.006 C 
BRANCH  13  14
ATOM     14  C   UNL     1      22.690  31.981  52.620  1.00  0.00     0.053 C 
BRANCH  14  15
ATOM     15  C   UNL     1      23.738  32.175  53.675  1.00  0.00     0.041 C 
ATOM     16  O   UNL     1      24.184  33.325  53.923  1.00  0.00    -0.550 OA
ATOM     17  O   UNL     1      24.225  31.081  54.378  1.00  0.00    -0.550 OA
ENDBRANCH  14  15
ENDBRANCH  13  14
ENDBRANCH  12  13
ENDBRANCH  11  12
ENDBRANCH  10  11
ENDBRANCH   9  10
ENDBRANCH   8   9
ENDBRANCH   7   8
ENDBRANCH   6   7
ENDBRANCH   5   6
ENDBRANCH   4   5
ENDBRANCH   3   4
ENDBRANCH   2   3
ENDBRANCH   1   2
BRANCH   1  18
ATOM     18  C   UNL     1      18.632  25.249  51.719  1.00  0.00     0.000 C 
BRANCH  18  19
ATOM     19  C   UNL     1      17.949  26.423  51.001  1.00  0.00     0.000 C 
BRANCH  19  20
ATOM     20  C   UNL     1      17.815  26.143  49.496  1.00  0.00     0.000 C 
BRANCH  20  21
ATOM     21  C   UNL     1      16.599  25.256  49.166  1.00  0.00     0.000 C 
BRANCH  21  22
ATOM     22  C   UNL     1      15.285  25.661  49.862  1.00  0.00     0.000 C 
BRANCH  22  23
ATOM     23  C   UNL     1      14.523  24.522  50.565  1.00  0.00     0.000 C 
BRANCH  23  24
ATOM     24  C   UNL     1      14.917  24.304  52.043  1.00  0.00    -0.000 C 
BRANCH  24  25
ATOM     25  C   UNL     1      14.800  25.588  52.888  1.00  0.00    -0.000 C 
BRANCH  25  26
ATOM     26  C   UNL     1      15.816  25.647  54.042  1.00  0.00    -0.000 C 
BRANCH  26  27
ATOM     27  C   UNL     1      15.820  26.969  54.841  1.00  0.00    -0.000 C 
BRANCH  27  28
ATOM     28  C   UNL     1      16.821  28.031  54.346  1.00  0.00    -0.000 C 
BRANCH  28  29
ATOM     29  C   UNL     1      16.135  29.287  53.785  1.00  0.00    -0.000 C 
BRANCH  29  30
ATOM     30  C   UNL     1      16.353  29.394  52.267  1.00  0.00    -0.000 C 
BRANCH  30  31
ATOM     31  C   UNL     1      15.100  29.029  51.456  1.00  0.00    -0.003 C 
ATOM     32  C   UNL     1      15.255  29.327  49.965  1.00  0.00     0.004 C 
ENDBRANCH  30  31
ENDBRANCH  29  30
ENDBRANCH  28  29
ENDBRANCH  27  28
ENDBRANCH  26  27
ENDBRANCH  25  26
ENDBRANCH  24  25
ENDBRANCH  23  24
ENDBRANCH  22  23
ENDBRANCH  21  22
ENDBRANCH  20  21
ENDBRANCH  19  20
ENDBRANCH  18  19
ENDBRANCH   1  18
TORSDOF 28
ENDMDL
