MODEL 1
REMARK VINA RESULT:    -3.789      0.000      0.000
REMARK INTER + INTRA:          -7.165
REMARK INTER:                  -5.782
REMARK INTRA:                  -1.383
REMARK UNBOUND:                -1.383
REMARK SMILES CCCCCCCCCCC(=O)[O-]
REMARK SMILES IDX 7 1 8 2 9 3 10 4 11 5 12 6 13 7 6 8 5 9 4 10 3 11 2 12 1 13
REMARK H PARENT
REMARK Flexibility Score: inf
ROOT
ATOM      1  C   UNL     1     -26.490 -21.380 -28.711  1.00  0.00     0.000 C 
ENDROOT
BRANCH   1   2
ATOM      2  C   UNL     1     -27.961 -20.933 -28.742  1.00  0.00     0.000 C 
BRANCH   2   3
ATOM      3  C   UNL     1     -28.139 -19.529 -29.340  1.00  0.00     0.006 C 
BRANCH   3   4
ATOM      4  C   UNL     1     -28.698 -19.606 -30.762  1.00  0.00     0.053 C 
BRANCH   4   5
ATOM      5  C   UNL     1     -27.736 -19.006 -31.738  1.00  0.00     0.041 C 
ATOM      6  O   UNL     1     -28.117 -18.705 -32.899  1.00  0.00    -0.550 OA
ATOM      7  O   UNL     1     -26.406 -18.823 -31.380  1.00  0.00    -0.550 OA
ENDBRANCH   4   5
ENDBRANCH   3   4
ENDBRANCH   2   3
ENDBRANCH   1   2
BRANCH   1   8
ATOM      8  C   UNL     1     -26.224 -22.605 -29.601  1.00  0.00     0.000 C 
BRANCH   8   9
ATOM      9  C   UNL     1     -25.613 -22.227 -30.959  1.00  0.00    -0.000 C 
BRANCH   9  10
ATOM     10  C   UNL     1     -26.555 -22.531 -32.138  1.00  0.00    -0.000 C 
BRANCH  10  11
ATOM     11  C   UNL     1     -27.802 -23.326 -31.697  1.00  0.00    -0.000 C 
BRANCH  11  12
ATOM     12  C   UNL     1     -29.088 -22.906 -32.427  1.00  0.00    -0.003 C 
ATOM     13  C   UNL     1     -28.822 -22.079 -33.683  1.00  0.00     0.004 C 
ENDBRANCH  11  12
ENDBRANCH  10  11
ENDBRANCH   9  10
ENDBRANCH   8   9
ENDBRANCH   1   8
TORSDOF 9
ENDMDL
MODEL 2
REMARK VINA RESULT:    -3.681      2.028      3.169
REMARK INTER + INTRA:          -7.000
REMARK INTER:                  -5.782
REMARK INTRA:                  -1.218
REMARK UNBOUND:                -1.383
REMARK SMILES CCCCCCCCCCC(=O)[O-]
REMARK SMILES IDX 7 1 8 2 9 3 10 4 11 5 12 6 13 7 6 8 5 9 4 10 3 11 2 12 1 13
REMARK H PARENT
REMARK Flexibility Score: inf
ROOT
ATOM      1  C   UNL     1     -25.076 -22.591 -30.311  1.00  0.00     0.000 C 
ENDROOT
BRANCH   1   2
ATOM      2  C   UNL     1     -26.110 -22.279 -29.218  1.00  0.00     0.000 C 
BRANCH   2   3
ATOM      3  C   UNL     1     -26.134 -20.791 -28.836  1.00  0.00     0.006 C 
BRANCH   3   4
ATOM      4  C   UNL     1     -27.249 -20.502 -27.828  1.00  0.00     0.053 C 
BRANCH   4   5
ATOM      5  C   UNL     1     -27.320 -19.038 -27.529  1.00  0.00     0.041 C 
ATOM      6  O   UNL     1     -28.331 -18.558 -26.952  1.00  0.00    -0.550 OA
ATOM      7  O   UNL     1     -26.292 -18.196 -27.932  1.00  0.00    -0.550 OA
ENDBRANCH   4   5
ENDBRANCH   3   4
ENDBRANCH   2   3
ENDBRANCH   1   2
BRANCH   1   8
ATOM      8  C   UNL     1     -25.713 -22.744 -31.702  1.00  0.00     0.000 C 
BRANCH   8   9
ATOM      9  C   UNL     1     -27.169 -23.230 -31.635  1.00  0.00    -0.000 C 
BRANCH   9  10
ATOM     10  C   UNL     1     -28.148 -22.265 -32.329  1.00  0.00    -0.000 C 
BRANCH  10  11
ATOM     11  C   UNL     1     -29.125 -21.609 -31.331  1.00  0.00    -0.000 C 
BRANCH  11  12
ATOM     12  C   UNL     1     -28.870 -20.107 -31.119  1.00  0.00    -0.003 C 
ATOM     13  C   UNL     1     -27.737 -19.563 -31.987  1.00  0.00     0.004 C 
ENDBRANCH  11  12
ENDBRANCH  10  11
ENDBRANCH   9  10
ENDBRANCH   8   9
ENDBRANCH   1   8
TORSDOF 9
ENDMDL
MODEL 3
REMARK VINA RESULT:    -3.678      1.391      2.994
REMARK INTER + INTRA:          -6.997
REMARK INTER:                  -5.573
REMARK INTRA:                  -1.423
REMARK UNBOUND:                -1.383
REMARK SMILES CCCCCCCCCCC(=O)[O-]
REMARK SMILES IDX 7 1 8 2 9 3 10 4 11 5 12 6 13 7 6 8 5 9 4 10 3 11 2 12 1 13
REMARK H PARENT
REMARK Flexibility Score: inf
ROOT
ATOM      1  C   UNL     1     -26.465 -21.318 -28.392  1.00  0.00     0.000 C 
ENDROOT
BRANCH   1   2
ATOM      2  C   UNL     1     -26.118 -22.452 -29.369  1.00  0.00     0.000 C 
BRANCH   2   3
ATOM      3  C   UNL     1     -25.082 -22.028 -30.421  1.00  0.00     0.006 C 
BRANCH   3   4
ATOM      4  C   UNL     1     -24.614 -20.590 -30.181  1.00  0.00     0.053 C 
BRANCH   4   5
ATOM      5  C   UNL     1     -24.882 -19.743 -31.385  1.00  0.00     0.041 C 
ATOM      6  O   UNL     1     -25.193 -20.281 -32.480  1.00  0.00    -0.550 OA
ATOM      7  O   UNL     1     -24.741 -18.363 -31.310  1.00  0.00    -0.550 OA
ENDBRANCH   4   5
ENDBRANCH   3   4
ENDBRANCH   2   3
ENDBRANCH   1   2
BRANCH   1   8
ATOM      8  C   UNL     1     -27.913 -20.825 -28.548  1.00  0.00     0.000 C 
BRANCH   8   9
ATOM      9  C   UNL     1     -28.000 -19.449 -29.226  1.00  0.00    -0.000 C 
BRANCH   9  10
ATOM     10  C   UNL     1     -28.578 -19.527 -30.651  1.00  0.00    -0.000 C 
BRANCH  10  11
ATOM     11  C   UNL     1     -29.125 -20.931 -30.982  1.00  0.00    -0.000 C 
BRANCH  11  12
ATOM     12  C   UNL     1     -28.444 -21.586 -32.196  1.00  0.00    -0.003 C 
ATOM     13  C   UNL     1     -28.483 -23.112 -32.154  1.00  0.00     0.004 C 
ENDBRANCH  11  12
ENDBRANCH  10  11
ENDBRANCH   9  10
ENDBRANCH   8   9
ENDBRANCH   1   8
TORSDOF 9
ENDMDL
MODEL 4
REMARK VINA RESULT:    -3.636     20.152     22.034
REMARK INTER + INTRA:          -6.931
REMARK INTER:                  -5.471
REMARK INTRA:                  -1.460
REMARK UNBOUND:                -1.383
REMARK SMILES CCCCCCCCCCC(=O)[O-]
REMARK SMILES IDX 7 1 8 2 9 3 10 4 11 5 12 6 13 7 6 8 5 9 4 10 3 11 2 12 1 13
REMARK H PARENT
REMARK Flexibility Score: inf
ROOT
ATOM      1  C   UNL     1     -11.246 -35.580 -29.474  1.00  0.00     0.000 C 
ENDROOT
BRANCH   1   2
ATOM      2  C   UNL     1     -11.919 -34.274 -29.023  1.00  0.00     0.000 C 
BRANCH   2   3
ATOM      3  C   UNL     1     -13.243 -34.519 -28.282  1.00  0.00     0.006 C 
BRANCH   3   4
ATOM      4  C   UNL     1     -13.536 -36.016 -28.164  1.00  0.00     0.053 C 
BRANCH   4   5
ATOM      5  C   UNL     1     -14.510 -36.274 -27.058  1.00  0.00     0.041 C 
ATOM      6  O   UNL     1     -15.606 -35.655 -27.022  1.00  0.00    -0.550 OA
ATOM      7  O   UNL     1     -14.187 -37.164 -26.041  1.00  0.00    -0.550 OA
ENDBRANCH   4   5
ENDBRANCH   3   4
ENDBRANCH   2   3
ENDBRANCH   1   2
BRANCH   1   8
ATOM      8  C   UNL     1      -9.715 -35.535 -29.334  1.00  0.00     0.000 C 
BRANCH   8   9
ATOM      9  C   UNL     1      -9.238 -35.927 -27.927  1.00  0.00    -0.000 C 
BRANCH   9  10
ATOM     10  C   UNL     1     -10.020 -37.120 -27.347  1.00  0.00    -0.000 C 
BRANCH  10  11
ATOM     11  C   UNL     1     -10.597 -36.814 -25.949  1.00  0.00    -0.000 C 
BRANCH  11  12
ATOM     12  C   UNL     1     -10.685 -35.311 -25.636  1.00  0.00    -0.003 C 
ATOM     13  C   UNL     1     -11.815 -34.966 -24.667  1.00  0.00     0.004 C 
ENDBRANCH  11  12
ENDBRANCH  10  11
ENDBRANCH   9  10
ENDBRANCH   8   9
ENDBRANCH   1   8
TORSDOF 9
ENDMDL
MODEL 5
REMARK VINA RESULT:    -3.634      1.792      3.215
REMARK INTER + INTRA:          -6.929
REMARK INTER:                  -5.566
REMARK INTRA:                  -1.363
REMARK UNBOUND:                -1.383
REMARK SMILES CCCCCCCCCCC(=O)[O-]
REMARK SMILES IDX 7 1 8 2 9 3 10 4 11 5 12 6 13 7 6 8 5 9 4 10 3 11 2 12 1 13
REMARK H PARENT
REMARK Flexibility Score: inf
ROOT
ATOM      1  C   UNL     1     -26.520 -21.439 -28.416  1.00  0.00     0.000 C 
ENDROOT
BRANCH   1   2
ATOM      2  C   UNL     1     -27.903 -20.780 -28.540  1.00  0.00     0.000 C 
BRANCH   2   3
ATOM      3  C   UNL     1     -28.462 -20.848 -29.970  1.00  0.00     0.006 C 
BRANCH   3   4
ATOM      4  C   UNL     1     -28.453 -19.465 -30.627  1.00  0.00     0.053 C 
BRANCH   4   5
ATOM      5  C   UNL     1     -28.050 -19.570 -32.064  1.00  0.00     0.041 C 
ATOM      6  O   UNL     1     -28.061 -20.688 -32.644  1.00  0.00    -0.550 OA
ATOM      7  O   UNL     1     -27.617 -18.442 -32.750  1.00  0.00    -0.550 OA
ENDBRANCH   4   5
ENDBRANCH   3   4
ENDBRANCH   2   3
ENDBRANCH   1   2
BRANCH   1   8
ATOM      8  C   UNL     1     -26.264 -22.489 -29.510  1.00  0.00     0.000 C 
BRANCH   8   9
ATOM      9  C   UNL     1     -24.882 -22.336 -30.164  1.00  0.00    -0.000 C 
BRANCH   9  10
ATOM     10  C   UNL     1     -24.803 -21.118 -31.102  1.00  0.00    -0.000 C 
BRANCH  10  11
ATOM     11  C   UNL     1     -24.039 -19.939 -30.462  1.00  0.00    -0.000 C 
BRANCH  11  12
ATOM     12  C   UNL     1     -24.789 -18.600 -30.550  1.00  0.00    -0.003 C 
ATOM     13  C   UNL     1     -25.257 -18.084 -29.191  1.00  0.00     0.004 C 
ENDBRANCH  11  12
ENDBRANCH  10  11
ENDBRANCH   9  10
ENDBRANCH   8   9
ENDBRANCH   1   8
TORSDOF 9
ENDMDL
MODEL 6
REMARK VINA RESULT:    -3.629     20.612     22.427
REMARK INTER + INTRA:          -6.921
REMARK INTER:                  -5.571
REMARK INTRA:                  -1.350
REMARK UNBOUND:                -1.383
REMARK SMILES CCCCCCCCCCC(=O)[O-]
REMARK SMILES IDX 7 1 8 2 9 3 10 4 11 5 12 6 13 7 6 8 5 9 4 10 3 11 2 12 1 13
REMARK H PARENT
REMARK Flexibility Score: inf
ROOT
ATOM      1  C   UNL     1     -10.522 -36.216 -25.949  1.00  0.00     0.000 C 
ENDROOT
BRANCH   1   2
ATOM      2  C   UNL     1     -10.199 -37.426 -26.840  1.00  0.00     0.000 C 
BRANCH   2   3
ATOM      3  C   UNL     1      -9.124 -37.115 -27.892  1.00  0.00     0.006 C 
BRANCH   3   4
ATOM      4  C   UNL     1      -8.962 -35.604 -28.079  1.00  0.00     0.053 C 
BRANCH   4   5
ATOM      5  C   UNL     1      -9.259 -35.216 -29.493  1.00  0.00     0.041 C 
ATOM      6  O   UNL     1      -9.499 -34.015 -29.784  1.00  0.00    -0.550 OA
ATOM      7  O   UNL     1      -9.318 -36.190 -30.483  1.00  0.00    -0.550 OA
ENDBRANCH   4   5
ENDBRANCH   3   4
ENDBRANCH   2   3
ENDBRANCH   1   2
BRANCH   1   8
ATOM      8  C   UNL     1     -12.032 -35.937 -25.855  1.00  0.00     0.000 C 
BRANCH   8   9
ATOM      9  C   UNL     1     -12.361 -34.438 -25.925  1.00  0.00    -0.000 C 
BRANCH   9  10
ATOM     10  C   UNL     1     -12.432 -33.914 -27.371  1.00  0.00    -0.000 C 
BRANCH  10  11
ATOM     11  C   UNL     1     -13.523 -34.628 -28.196  1.00  0.00    -0.000 C 
BRANCH  11  12
ATOM     12  C   UNL     1     -13.018 -35.166 -29.546  1.00  0.00    -0.003 C 
ATOM     13  C   UNL     1     -12.720 -36.664 -29.521  1.00  0.00     0.004 C 
ENDBRANCH  11  12
ENDBRANCH  10  11
ENDBRANCH   9  10
ENDBRANCH   8   9
ENDBRANCH   1   8
TORSDOF 9
ENDMDL
MODEL 7
REMARK VINA RESULT:    -3.615      1.598      4.430
REMARK INTER + INTRA:          -6.900
REMARK INTER:                  -5.683
REMARK INTRA:                  -1.218
REMARK UNBOUND:                -1.383
REMARK SMILES CCCCCCCCCCC(=O)[O-]
REMARK SMILES IDX 7 1 8 2 9 3 10 4 11 5 12 6 13 7 6 8 5 9 4 10 3 11 2 12 1 13
REMARK H PARENT
REMARK Flexibility Score: inf
ROOT
ATOM      1  C   UNL     1     -27.933 -22.475 -32.203  1.00  0.00     0.000 C 
ENDROOT
BRANCH   1   2
ATOM      2  C   UNL     1     -26.883 -23.162 -31.315  1.00  0.00     0.000 C 
BRANCH   2   3
ATOM      3  C   UNL     1     -25.456 -22.671 -31.602  1.00  0.00     0.006 C 
BRANCH   3   4
ATOM      4  C   UNL     1     -24.883 -21.921 -30.397  1.00  0.00     0.053 C 
BRANCH   4   5
ATOM      5  C   UNL     1     -24.452 -20.543 -30.793  1.00  0.00     0.041 C 
ATOM      6  O   UNL     1     -23.581 -19.934 -30.119  1.00  0.00    -0.550 OA
ATOM      7  O   UNL     1     -25.048 -19.914 -31.879  1.00  0.00    -0.550 OA
ENDBRANCH   4   5
ENDBRANCH   3   4
ENDBRANCH   2   3
ENDBRANCH   1   2
BRANCH   1   8
ATOM      8  C   UNL     1     -28.904 -21.594 -31.399  1.00  0.00     0.000 C 
BRANCH   8   9
ATOM      9  C   UNL     1     -28.436 -20.133 -31.305  1.00  0.00    -0.000 C 
BRANCH   9  10
ATOM     10  C   UNL     1     -28.411 -19.611 -29.857  1.00  0.00    -0.000 C 
BRANCH  10  11
ATOM     11  C   UNL     1     -28.012 -20.710 -28.849  1.00  0.00    -0.000 C 
BRANCH  11  12
ATOM     12  C   UNL     1     -27.131 -20.196 -27.698  1.00  0.00    -0.003 C 
ATOM     13  C   UNL     1     -26.405 -18.895 -28.033  1.00  0.00     0.004 C 
ENDBRANCH  11  12
ENDBRANCH  10  11
ENDBRANCH   9  10
ENDBRANCH   8   9
ENDBRANCH   1   8
TORSDOF 9
ENDMDL
MODEL 8
REMARK VINA RESULT:    -3.558     20.552     22.434
REMARK INTER + INTRA:          -6.813
REMARK INTER:                  -5.799
REMARK INTRA:                  -1.014
REMARK UNBOUND:                -1.383
REMARK SMILES CCCCCCCCCCC(=O)[O-]
REMARK SMILES IDX 7 1 8 2 9 3 10 4 11 5 12 6 13 7 6 8 5 9 4 10 3 11 2 12 1 13
REMARK H PARENT
REMARK Flexibility Score: inf
ROOT
ATOM      1  C   UNL     1     -12.469 -34.083 -26.532  1.00  0.00     0.000 C 
ENDROOT
BRANCH   1   2
ATOM      2  C   UNL     1     -12.468 -35.063 -25.348  1.00  0.00     0.000 C 
BRANCH   2   3
ATOM      3  C   UNL     1     -11.132 -35.071 -24.589  1.00  0.00     0.006 C 
BRANCH   3   4
ATOM      4  C   UNL     1     -10.824 -36.465 -24.037  1.00  0.00     0.053 C 
BRANCH   4   5
ATOM      5  C   UNL     1     -11.870 -36.881 -23.051  1.00  0.00     0.041 C 
ATOM      6  O   UNL     1     -12.619 -37.862 -23.298  1.00  0.00    -0.550 OA
ATOM      7  O   UNL     1     -12.048 -36.156 -21.879  1.00  0.00    -0.550 OA
ENDBRANCH   4   5
ENDBRANCH   3   4
ENDBRANCH   2   3
ENDBRANCH   1   2
BRANCH   1   8
ATOM      8  C   UNL     1     -13.510 -34.450 -27.603  1.00  0.00     0.000 C 
BRANCH   8   9
ATOM      9  C   UNL     1     -12.874 -34.737 -28.972  1.00  0.00    -0.000 C 
BRANCH   9  10
ATOM     10  C   UNL     1     -11.561 -33.963 -29.189  1.00  0.00    -0.000 C 
BRANCH  10  11
ATOM     11  C   UNL     1     -10.379 -34.901 -29.514  1.00  0.00    -0.000 C 
BRANCH  11  12
ATOM     12  C   UNL     1     -10.541 -36.316 -28.935  1.00  0.00    -0.003 C 
ATOM     13  C   UNL     1      -9.668 -36.565 -27.706  1.00  0.00     0.004 C 
ENDBRANCH  11  12
ENDBRANCH  10  11
ENDBRANCH   9  10
ENDBRANCH   8   9
ENDBRANCH   1   8
TORSDOF 9
ENDMDL
MODEL 9
REMARK VINA RESULT:    -3.514     19.778     21.606
REMARK INTER + INTRA:          -6.746
REMARK INTER:                  -5.474
REMARK INTRA:                  -1.272
REMARK UNBOUND:                -1.383
REMARK SMILES CCCCCCCCCCC(=O)[O-]
REMARK SMILES IDX 7 1 8 2 9 3 10 4 11 5 12 6 13 7 6 8 5 9 4 10 3 11 2 12 1 13
REMARK H PARENT
REMARK Flexibility Score: inf
ROOT
ATOM      1  C   UNL     1     -15.251 -35.881 -26.882  1.00  0.00     0.000 C 
ENDROOT
BRANCH   1   2
ATOM      2  C   UNL     1     -14.334 -37.111 -26.799  1.00  0.00     0.000 C 
BRANCH   2   3
ATOM      3  C   UNL     1     -13.734 -37.306 -25.398  1.00  0.00     0.006 C 
BRANCH   3   4
ATOM      4  C   UNL     1     -12.237 -36.987 -25.393  1.00  0.00     0.053 C 
BRANCH   4   5
ATOM      5  C   UNL     1     -11.917 -35.985 -24.329  1.00  0.00     0.041 C 
ATOM      6  O   UNL     1     -11.289 -34.934 -24.618  1.00  0.00    -0.550 OA
ATOM      7  O   UNL     1     -12.272 -36.236 -23.009  1.00  0.00    -0.550 OA
ENDBRANCH   4   5
ENDBRANCH   3   4
ENDBRANCH   2   3
ENDBRANCH   1   2
BRANCH   1   8
ATOM      8  C   UNL     1     -14.715 -34.807 -27.845  1.00  0.00     0.000 C 
BRANCH   8   9
ATOM      9  C   UNL     1     -13.518 -34.038 -27.265  1.00  0.00    -0.000 C 
BRANCH   9  10
ATOM     10  C   UNL     1     -12.245 -34.195 -28.116  1.00  0.00    -0.000 C 
BRANCH  10  11
ATOM     11  C   UNL     1     -12.531 -34.868 -29.474  1.00  0.00    -0.000 C 
BRANCH  11  12
ATOM     12  C   UNL     1     -11.895 -36.261 -29.617  1.00  0.00    -0.003 C 
ATOM     13  C   UNL     1     -10.677 -36.458 -28.715  1.00  0.00     0.004 C 
ENDBRANCH  11  12
ENDBRANCH  10  11
ENDBRANCH   9  10
ENDBRANCH   8   9
ENDBRANCH   1   8
TORSDOF 9
ENDMDL
