MODEL 1
REMARK VINA RESULT:    -6.211      0.000      0.000
REMARK INTER + INTRA:          -7.767
REMARK INTER:                  -7.663
REMARK INTRA:                  -0.104
REMARK UNBOUND:                -0.104
REMARK SMILES COc1cc(-c2oc3cc(O)cc(O)c3c(=O)c2O)ccc1O
REMARK SMILES IDX 6 1 18 2 16 3 17 4 15 5 13 6 12 7 10 8 9 9 8 10 7 11 5 12
REMARK SMILES IDX 3 13 22 14 4 15 21 16 20 17 2 18 1 19 23 20 19 22 14 24
REMARK SMILES IDX 11 26
REMARK H PARENT 23 21 19 23 14 25 11 27
REMARK Flexibility Score: inf
ROOT
ATOM      1  C   UNL     1      84.739   0.770  -7.222  1.00  0.00     0.180 A 
ATOM      2  C   UNL     1      83.518   0.670  -7.913  1.00  0.00     0.208 A 
ATOM      3  C   UNL     1      83.022  -0.603  -8.236  1.00  0.00     0.238 A 
ATOM      4  O   UNL     1      81.904  -0.689  -8.806  1.00  0.00    -0.285 OA
ATOM      5  C   UNL     1      83.760  -1.758  -7.878  1.00  0.00     0.111 A 
ATOM      6  C   UNL     1      83.371  -3.096  -8.190  1.00  0.00     0.134 A 
ATOM      7  C   UNL     1      84.110  -4.167  -7.673  1.00  0.00     0.093 A 
ATOM      8  C   UNL     1      85.259  -3.949  -6.911  1.00  0.00     0.123 A 
ATOM      9  C   UNL     1      85.680  -2.647  -6.650  1.00  0.00     0.094 A 
ATOM     10  C   UNL     1      84.943  -1.557  -7.122  1.00  0.00     0.146 A 
ATOM     11  O   UNL     1      85.373  -0.332  -6.843  1.00  0.00    -0.452 OA
ENDROOT
BRANCH   1  12
ATOM     12  C   UNL     1      85.338   2.078  -6.868  1.00  0.00     0.025 A 
ATOM     13  C   UNL     1      86.397   3.521  -5.201  1.00  0.00     0.161 A 
ATOM     14  C   UNL     1      86.538   4.524  -6.170  1.00  0.00     0.157 A 
ATOM     15  C   UNL     1      85.801   2.296  -5.559  1.00  0.00     0.062 A 
ATOM     16  C   UNL     1      86.097   4.303  -7.481  1.00  0.00     0.051 A 
ATOM     17  C   UNL     1      85.507   3.087  -7.830  1.00  0.00     0.016 A 
BRANCH  13  18
ATOM     18  O   UNL     1      86.858   3.777  -3.900  1.00  0.00    -0.493 OA
ATOM     19  C   UNL     1      86.037   4.224  -2.827  1.00  0.00     0.278 C 
ENDBRANCH  13  18
BRANCH  14  20
ATOM     20  O   UNL     1      87.125   5.740  -5.822  1.00  0.00    -0.504 OA
ATOM     21  H   UNL     1      86.713   6.346  -5.122  1.00  0.00     0.293 HD
ENDBRANCH  14  20
ENDBRANCH   1  12
BRANCH   2  22
ATOM     22  O   UNL     1      82.797   1.822  -8.237  1.00  0.00    -0.502 OA
ATOM     23  H   UNL     1      83.234   2.732  -8.320  1.00  0.00     0.293 HD
ENDBRANCH   2  22
BRANCH   6  24
ATOM     24  O   UNL     1      82.294  -3.422  -9.019  1.00  0.00    -0.507 OA
ATOM     25  H   UNL     1      81.561  -2.784  -9.288  1.00  0.00     0.293 HD
ENDBRANCH   6  24
BRANCH   8  26
ATOM     26  O   UNL     1      85.997  -5.021  -6.413  1.00  0.00    -0.508 OA
ATOM     27  H   UNL     1      86.732  -5.457  -6.959  1.00  0.00     0.293 HD
ENDBRANCH   8  26
TORSDOF 6
ENDMDL
MODEL 2
REMARK VINA RESULT:    -6.198      7.924     11.657
REMARK INTER + INTRA:          -7.751
REMARK INTER:                  -7.347
REMARK INTRA:                  -0.405
REMARK UNBOUND:                -0.104
REMARK SMILES COc1cc(-c2oc3cc(O)cc(O)c3c(=O)c2O)ccc1O
REMARK SMILES IDX 6 1 18 2 16 3 17 4 15 5 13 6 12 7 10 8 9 9 8 10 7 11 5 12
REMARK SMILES IDX 3 13 22 14 4 15 21 16 20 17 2 18 1 19 23 20 19 22 14 24
REMARK SMILES IDX 11 26
REMARK H PARENT 23 21 19 23 14 25 11 27
REMARK Flexibility Score: inf
ROOT
ATOM      1  C   UNL     1      86.001   1.102   2.858  1.00  0.00     0.180 A 
ATOM      2  C   UNL     1      86.505  -0.183   3.127  1.00  0.00     0.208 A 
ATOM      3  C   UNL     1      86.660  -0.587   4.461  1.00  0.00     0.238 A 
ATOM      4  O   UNL     1      87.061  -1.757   4.696  1.00  0.00    -0.285 OA
ATOM      5  C   UNL     1      86.326   0.303   5.511  1.00  0.00     0.111 A 
ATOM      6  C   UNL     1      86.481   0.012   6.900  1.00  0.00     0.134 A 
ATOM      7  C   UNL     1      85.997   0.917   7.853  1.00  0.00     0.093 A 
ATOM      8  C   UNL     1      85.421   2.129   7.468  1.00  0.00     0.123 A 
ATOM      9  C   UNL     1      85.318   2.448   6.115  1.00  0.00     0.094 A 
ATOM     10  C   UNL     1      85.761   1.550   5.140  1.00  0.00     0.146 A 
ATOM     11  O   UNL     1      85.635   1.889   3.863  1.00  0.00    -0.452 OA
ENDROOT
BRANCH   1  12
ATOM     12  C   UNL     1      85.831   1.609   1.477  1.00  0.00     0.025 A 
ATOM     13  C   UNL     1      84.369   2.059  -0.431  1.00  0.00     0.161 A 
ATOM     14  C   UNL     1      85.453   2.618  -1.122  1.00  0.00     0.157 A 
ATOM     15  C   UNL     1      84.564   1.561   0.873  1.00  0.00     0.062 A 
ATOM     16  C   UNL     1      86.714   2.686  -0.515  1.00  0.00     0.051 A 
ATOM     17  C   UNL     1      86.901   2.192   0.778  1.00  0.00     0.016 A 
BRANCH  13  18
ATOM     18  O   UNL     1      83.120   2.015  -1.070  1.00  0.00    -0.493 OA
ATOM     19  C   UNL     1      82.017   2.854  -0.743  1.00  0.00     0.278 C 
ENDBRANCH  13  18
BRANCH  14  20
ATOM     20  O   UNL     1      85.268   3.110  -2.413  1.00  0.00    -0.504 OA
ATOM     21  H   UNL     1      84.345   3.334  -2.767  1.00  0.00     0.293 HD
ENDBRANCH  14  20
ENDBRANCH   1  12
BRANCH   2  22
ATOM     22  O   UNL     1      86.808  -1.053   2.076  1.00  0.00    -0.502 OA
ATOM     23  H   UNL     1      87.757  -1.326   1.853  1.00  0.00     0.293 HD
ENDBRANCH   2  22
BRANCH   6  24
ATOM     24  O   UNL     1      87.125  -1.127   7.392  1.00  0.00    -0.507 OA
ATOM     25  H   UNL     1      87.105  -2.034   6.951  1.00  0.00     0.293 HD
ENDBRANCH   6  24
BRANCH   8  26
ATOM     26  O   UNL     1      84.955   3.031   8.423  1.00  0.00    -0.508 OA
ATOM     27  H   UNL     1      85.548   3.765   8.792  1.00  0.00     0.293 HD
ENDBRANCH   8  26
TORSDOF 6
ENDMDL
MODEL 3
REMARK VINA RESULT:    -6.183      2.207      7.261
REMARK INTER + INTRA:          -7.733
REMARK INTER:                  -7.757
REMARK INTRA:                   0.024
REMARK UNBOUND:                -0.104
REMARK SMILES COc1cc(-c2oc3cc(O)cc(O)c3c(=O)c2O)ccc1O
REMARK SMILES IDX 6 1 18 2 16 3 17 4 15 5 13 6 12 7 10 8 9 9 8 10 7 11 5 12
REMARK SMILES IDX 3 13 22 14 4 15 21 16 20 17 2 18 1 19 23 20 19 22 14 24
REMARK SMILES IDX 11 26
REMARK H PARENT 23 21 19 23 14 25 11 27
REMARK Flexibility Score: inf
ROOT
ATOM      1  C   UNL     1      84.719  -2.820  -7.149  1.00  0.00     0.180 A 
ATOM      2  C   UNL     1      84.036  -2.883  -8.377  1.00  0.00     0.208 A 
ATOM      3  C   UNL     1      83.648  -1.687  -9.001  1.00  0.00     0.238 A 
ATOM      4  O   UNL     1      83.085  -1.747 -10.125  1.00  0.00    -0.285 OA
ATOM      5  C   UNL     1      83.932  -0.445  -8.383  1.00  0.00     0.111 A 
ATOM      6  C   UNL     1      83.550   0.827  -8.908  1.00  0.00     0.134 A 
ATOM      7  C   UNL     1      83.997   1.995  -8.279  1.00  0.00     0.093 A 
ATOM      8  C   UNL     1      84.759   1.938  -7.110  1.00  0.00     0.123 A 
ATOM      9  C   UNL     1      85.088   0.702  -6.557  1.00  0.00     0.094 A 
ATOM     10  C   UNL     1      84.686  -0.482  -7.182  1.00  0.00     0.146 A 
ATOM     11  O   UNL     1      85.029  -1.639  -6.628  1.00  0.00    -0.452 OA
ENDROOT
BRANCH   1  12
ATOM     12  C   UNL     1      85.139  -4.038  -6.418  1.00  0.00     0.025 A 
ATOM     13  C   UNL     1      84.620  -6.284  -5.602  1.00  0.00     0.161 A 
ATOM     14  C   UNL     1      85.919  -6.391  -5.089  1.00  0.00     0.157 A 
ATOM     15  C   UNL     1      84.237  -5.105  -6.273  1.00  0.00     0.062 A 
ATOM     16  C   UNL     1      86.828  -5.337  -5.249  1.00  0.00     0.051 A 
ATOM     17  C   UNL     1      86.444  -4.171  -5.915  1.00  0.00     0.016 A 
BRANCH  13  18
ATOM     18  O   UNL     1      83.740  -7.364  -5.428  1.00  0.00    -0.493 OA
ATOM     19  C   UNL     1      82.588  -7.604  -6.230  1.00  0.00     0.278 C 
ENDBRANCH  13  18
BRANCH  14  20
ATOM     20  O   UNL     1      86.303  -7.554  -4.422  1.00  0.00    -0.504 OA
ATOM     21  H   UNL     1      86.604  -7.536  -3.455  1.00  0.00     0.293 HD
ENDBRANCH  14  20
ENDBRANCH   1  12
BRANCH   2  22
ATOM     22  O   UNL     1      83.785  -4.119  -8.979  1.00  0.00    -0.502 OA
ATOM     23  H   UNL     1      83.195  -4.215  -9.796  1.00  0.00     0.293 HD
ENDBRANCH   2  22
BRANCH   6  24
ATOM     24  O   UNL     1      82.715   0.995 -10.016  1.00  0.00    -0.507 OA
ATOM     25  H   UNL     1      82.246   1.854 -10.257  1.00  0.00     0.293 HD
ENDBRANCH   6  24
BRANCH   8  26
ATOM     26  O   UNL     1      85.188   3.106  -6.482  1.00  0.00    -0.508 OA
ATOM     27  H   UNL     1      85.184   3.997  -6.964  1.00  0.00     0.293 HD
ENDBRANCH   8  26
TORSDOF 6
ENDMDL
MODEL 4
REMARK VINA RESULT:    -6.075      3.397      7.019
REMARK INTER + INTRA:          -7.599
REMARK INTER:                  -7.209
REMARK INTRA:                  -0.391
REMARK UNBOUND:                -0.104
REMARK SMILES COc1cc(-c2oc3cc(O)cc(O)c3c(=O)c2O)ccc1O
REMARK SMILES IDX 6 1 18 2 16 3 17 4 15 5 13 6 12 7 10 8 9 9 8 10 7 11 5 12
REMARK SMILES IDX 3 13 22 14 4 15 21 16 20 17 2 18 1 19 23 20 19 22 14 24
REMARK SMILES IDX 11 26
REMARK H PARENT 23 21 19 23 14 25 11 27
REMARK Flexibility Score: inf
ROOT
ATOM      1  C   UNL     1      86.013   2.780  -2.660  1.00  0.00     0.180 A 
ATOM      2  C   UNL     1      86.330   4.124  -2.921  1.00  0.00     0.208 A 
ATOM      3  C   UNL     1      86.524   4.532  -4.250  1.00  0.00     0.238 A 
ATOM      4  O   UNL     1      86.754   5.747  -4.482  1.00  0.00    -0.285 OA
ATOM      5  C   UNL     1      86.415   3.588  -5.300  1.00  0.00     0.111 A 
ATOM      6  C   UNL     1      86.630   3.882  -6.680  1.00  0.00     0.134 A 
ATOM      7  C   UNL     1      86.367   2.901  -7.645  1.00  0.00     0.093 A 
ATOM      8  C   UNL     1      85.958   1.619  -7.274  1.00  0.00     0.123 A 
ATOM      9  C   UNL     1      85.802   1.304  -5.926  1.00  0.00     0.094 A 
ATOM     10  C   UNL     1      86.022   2.272  -4.943  1.00  0.00     0.146 A 
ATOM     11  O   UNL     1      85.852   1.933  -3.670  1.00  0.00    -0.452 OA
ENDROOT
BRANCH   1  12
ATOM     12  C   UNL     1      85.817   2.269  -1.284  1.00  0.00     0.025 A 
ATOM     13  C   UNL     1      84.299   1.581   0.506  1.00  0.00     0.161 A 
ATOM     14  C   UNL     1      85.402   1.244   1.303  1.00  0.00     0.157 A 
ATOM     15  C   UNL     1      84.514   2.088  -0.791  1.00  0.00     0.062 A 
ATOM     16  C   UNL     1      86.702   1.404   0.807  1.00  0.00     0.051 A 
ATOM     17  C   UNL     1      86.910   1.906  -0.479  1.00  0.00     0.016 A 
BRANCH  13  18
ATOM     18  O   UNL     1      83.011   1.399   1.034  1.00  0.00    -0.493 OA
ATOM     19  C   UNL     1      81.927   0.805   0.330  1.00  0.00     0.278 C 
ENDBRANCH  13  18
BRANCH  14  20
ATOM     20  O   UNL     1      85.196   0.744   2.587  1.00  0.00    -0.504 OA
ATOM     21  H   UNL     1      85.538  -0.169   2.862  1.00  0.00     0.293 HD
ENDBRANCH  14  20
ENDBRANCH   1  12
BRANCH   2  22
ATOM     22  O   UNL     1      86.412   5.043  -1.872  1.00  0.00    -0.502 OA
ATOM     23  H   UNL     1      87.042   5.836  -1.891  1.00  0.00     0.293 HD
ENDBRANCH   2  22
BRANCH   6  24
ATOM     24  O   UNL     1      87.125   5.102  -7.150  1.00  0.00    -0.507 OA
ATOM     25  H   UNL     1      88.002   5.512  -6.869  1.00  0.00     0.293 HD
ENDBRANCH   6  24
BRANCH   8  26
ATOM     26  O   UNL     1      85.713   0.644  -8.240  1.00  0.00    -0.508 OA
ATOM     27  H   UNL     1      86.152   0.681  -9.153  1.00  0.00     0.293 HD
ENDBRANCH   8  26
TORSDOF 6
ENDMDL
MODEL 5
REMARK VINA RESULT:    -5.988     10.341     13.783
REMARK INTER + INTRA:          -7.492
REMARK INTER:                  -7.351
REMARK INTRA:                  -0.141
REMARK UNBOUND:                -0.104
REMARK SMILES COc1cc(-c2oc3cc(O)cc(O)c3c(=O)c2O)ccc1O
REMARK SMILES IDX 6 1 18 2 16 3 17 4 15 5 13 6 12 7 10 8 9 9 8 10 7 11 5 12
REMARK SMILES IDX 3 13 22 14 4 15 21 16 20 17 2 18 1 19 23 20 19 22 14 24
REMARK SMILES IDX 11 26
REMARK H PARENT 23 21 19 23 14 25 11 27
REMARK Flexibility Score: inf
ROOT
ATOM      1  C   UNL     1      85.460   2.198   6.421  1.00  0.00     0.180 A 
ATOM      2  C   UNL     1      85.925   1.018   7.028  1.00  0.00     0.208 A 
ATOM      3  C   UNL     1      86.394  -0.026   6.215  1.00  0.00     0.238 A 
ATOM      4  O   UNL     1      86.859  -1.058   6.764  1.00  0.00    -0.285 OA
ATOM      5  C   UNL     1      86.378   0.117   4.806  1.00  0.00     0.111 A 
ATOM      6  C   UNL     1      86.793  -0.892   3.885  1.00  0.00     0.134 A 
ATOM      7  C   UNL     1      86.857  -0.594   2.518  1.00  0.00     0.093 A 
ATOM      8  C   UNL     1      86.460   0.654   2.033  1.00  0.00     0.123 A 
ATOM      9  C   UNL     1      85.998   1.626   2.918  1.00  0.00     0.094 A 
ATOM     10  C   UNL     1      85.956   1.370   4.292  1.00  0.00     0.146 A 
ATOM     11  O   UNL     1      85.519   2.327   5.102  1.00  0.00    -0.452 OA
ENDROOT
BRANCH   1  12
ATOM     12  C   UNL     1      84.927   3.332   7.210  1.00  0.00     0.025 A 
ATOM     13  C   UNL     1      83.350   4.175   8.879  1.00  0.00     0.161 A 
ATOM     14  C   UNL     1      83.926   5.448   8.771  1.00  0.00     0.157 A 
ATOM     15  C   UNL     1      83.861   3.118   8.099  1.00  0.00     0.062 A 
ATOM     16  C   UNL     1      85.003   5.661   7.901  1.00  0.00     0.051 A 
ATOM     17  C   UNL     1      85.505   4.610   7.131  1.00  0.00     0.016 A 
BRANCH  13  18
ATOM     18  O   UNL     1      82.278   3.998   9.768  1.00  0.00    -0.493 OA
ATOM     19  C   UNL     1      80.972   3.580   9.383  1.00  0.00     0.278 C 
ENDBRANCH  13  18
BRANCH  14  20
ATOM     20  O   UNL     1      83.424   6.498   9.538  1.00  0.00    -0.504 OA
ATOM     21  H   UNL     1      82.765   7.166   9.156  1.00  0.00     0.293 HD
ENDBRANCH  14  20
ENDBRANCH   1  12
BRANCH   2  22
ATOM     22  O   UNL     1      85.952   0.907   8.421  1.00  0.00    -0.502 OA
ATOM     23  H   UNL     1      86.573   0.269   8.903  1.00  0.00     0.293 HD
ENDBRANCH   2  22
BRANCH   6  24
ATOM     24  O   UNL     1      87.122  -2.199   4.255  1.00  0.00    -0.507 OA
ATOM     25  H   UNL     1      86.804  -2.655   5.096  1.00  0.00     0.293 HD
ENDBRANCH   6  24
BRANCH   8  26
ATOM     26  O   UNL     1      86.513   0.937   0.670  1.00  0.00    -0.508 OA
ATOM     27  H   UNL     1      85.936   1.662   0.257  1.00  0.00     0.293 HD
ENDBRANCH   8  26
TORSDOF 6
ENDMDL
MODEL 6
REMARK VINA RESULT:    -5.797     14.530     15.081
REMARK INTER + INTRA:          -7.256
REMARK INTER:                  -7.368
REMARK INTRA:                   0.112
REMARK UNBOUND:                -0.104
REMARK SMILES COc1cc(-c2oc3cc(O)cc(O)c3c(=O)c2O)ccc1O
REMARK SMILES IDX 6 1 18 2 16 3 17 4 15 5 13 6 12 7 10 8 9 9 8 10 7 11 5 12
REMARK SMILES IDX 3 13 22 14 4 15 21 16 20 17 2 18 1 19 23 20 19 22 14 24
REMARK SMILES IDX 11 26
REMARK H PARENT 23 21 19 23 14 25 11 27
REMARK Flexibility Score: inf
ROOT
ATOM      1  C   UNL     1      84.744   5.453   7.165  1.00  0.00     0.180 A 
ATOM      2  C   UNL     1      83.492   5.370   7.798  1.00  0.00     0.208 A 
ATOM      3  C   UNL     1      83.033   4.118   8.236  1.00  0.00     0.238 A 
ATOM      4  O   UNL     1      81.936   4.057   8.849  1.00  0.00    -0.285 OA
ATOM      5  C   UNL     1      83.823   2.962   8.021  1.00  0.00     0.111 A 
ATOM      6  C   UNL     1      83.439   1.638   8.388  1.00  0.00     0.134 A 
ATOM      7  C   UNL     1      84.355   0.588   8.245  1.00  0.00     0.093 A 
ATOM      8  C   UNL     1      85.618   0.805   7.691  1.00  0.00     0.123 A 
ATOM      9  C   UNL     1      85.981   2.084   7.275  1.00  0.00     0.094 A 
ATOM     10  C   UNL     1      85.102   3.158   7.437  1.00  0.00     0.146 A 
ATOM     11  O   UNL     1      85.491   4.363   7.038  1.00  0.00    -0.452 OA
ENDROOT
BRANCH   1  12
ATOM     12  C   UNL     1      85.286   6.733   6.655  1.00  0.00     0.025 A 
ATOM     13  C   UNL     1      84.907   8.891   5.567  1.00  0.00     0.161 A 
ATOM     14  C   UNL     1      86.265   9.202   5.725  1.00  0.00     0.157 A 
ATOM     15  C   UNL     1      84.422   7.655   6.040  1.00  0.00     0.062 A 
ATOM     16  C   UNL     1      87.125   8.294   6.356  1.00  0.00     0.051 A 
ATOM     17  C   UNL     1      86.640   7.071   6.823  1.00  0.00     0.016 A 
BRANCH  13  18
ATOM     18  O   UNL     1      84.075   9.829   4.937  1.00  0.00    -0.493 OA
ATOM     19  C   UNL     1      83.226  10.743   5.623  1.00  0.00     0.278 C 
ENDBRANCH  13  18
BRANCH  14  20
ATOM     20  O   UNL     1      86.751  10.421   5.257  1.00  0.00    -0.504 OA
ATOM     21  H   UNL     1      87.516  10.468   4.595  1.00  0.00     0.293 HD
ENDBRANCH  14  20
ENDBRANCH   1  12
BRANCH   2  22
ATOM     22  O   UNL     1      82.738   6.525   8.019  1.00  0.00    -0.502 OA
ATOM     23  H   UNL     1      83.160   7.442   8.102  1.00  0.00     0.293 HD
ENDBRANCH   2  22
BRANCH   6  24
ATOM     24  O   UNL     1      82.169   1.298   8.865  1.00  0.00    -0.507 OA
ATOM     25  H   UNL     1      81.985   0.574   9.543  1.00  0.00     0.293 HD
ENDBRANCH   6  24
BRANCH   8  26
ATOM     26  O   UNL     1      86.518  -0.248   7.539  1.00  0.00    -0.508 OA
ATOM     27  H   UNL     1      86.333  -1.164   7.931  1.00  0.00     0.293 HD
ENDBRANCH   8  26
TORSDOF 6
ENDMDL
MODEL 7
REMARK VINA RESULT:    -5.584      1.956      6.796
REMARK INTER + INTRA:          -6.995
REMARK INTER:                  -7.550
REMARK INTRA:                   0.555
REMARK UNBOUND:                -0.104
REMARK SMILES COc1cc(-c2oc3cc(O)cc(O)c3c(=O)c2O)ccc1O
REMARK SMILES IDX 6 1 18 2 16 3 17 4 15 5 13 6 12 7 10 8 9 9 8 10 7 11 5 12
REMARK SMILES IDX 3 13 22 14 4 15 21 16 20 17 2 18 1 19 23 20 19 22 14 24
REMARK SMILES IDX 11 26
REMARK H PARENT 23 21 19 23 14 25 11 27
REMARK Flexibility Score: inf
ROOT
ATOM      1  C   UNL     1      84.296  -2.189  -7.146  1.00  0.00     0.180 A 
ATOM      2  C   UNL     1      83.111  -1.863  -7.828  1.00  0.00     0.208 A 
ATOM      3  C   UNL     1      82.915  -0.541  -8.258  1.00  0.00     0.238 A 
ATOM      4  O   UNL     1      81.877  -0.266  -8.914  1.00  0.00    -0.285 OA
ATOM      5  C   UNL     1      83.898   0.442  -7.987  1.00  0.00     0.111 A 
ATOM      6  C   UNL     1      83.786   1.820  -8.342  1.00  0.00     0.134 A 
ATOM      7  C   UNL     1      84.876   2.675  -8.140  1.00  0.00     0.093 A 
ATOM      8  C   UNL     1      86.050   2.217  -7.539  1.00  0.00     0.123 A 
ATOM      9  C   UNL     1      86.148   0.887  -7.136  1.00  0.00     0.094 A 
ATOM     10  C   UNL     1      85.090   0.001  -7.356  1.00  0.00     0.146 A 
ATOM     11  O   UNL     1      85.228  -1.261  -6.966  1.00  0.00    -0.452 OA
ENDROOT
BRANCH   1  12
ATOM     12  C   UNL     1      84.565  -3.555  -6.641  1.00  0.00     0.025 A 
ATOM     13  C   UNL     1      85.979  -5.078  -5.352  1.00  0.00     0.161 A 
ATOM     14  C   UNL     1      85.080  -6.122  -5.611  1.00  0.00     0.157 A 
ATOM     15  C   UNL     1      85.712  -3.793  -5.865  1.00  0.00     0.062 A 
ATOM     16  C   UNL     1      83.925  -5.883  -6.367  1.00  0.00     0.051 A 
ATOM     17  C   UNL     1      83.665  -4.608  -6.873  1.00  0.00     0.016 A 
BRANCH  13  18
ATOM     18  O   UNL     1      87.121  -5.354  -4.584  1.00  0.00    -0.493 OA
ATOM     19  C   UNL     1      87.113  -5.581  -3.179  1.00  0.00     0.278 C 
ENDBRANCH  13  18
BRANCH  14  20
ATOM     20  O   UNL     1      85.340  -7.395  -5.108  1.00  0.00    -0.504 OA
ATOM     21  H   UNL     1      84.793  -8.200  -5.393  1.00  0.00     0.293 HD
ENDBRANCH  14  20
ENDBRANCH   1  12
BRANCH   2  22
ATOM     22  O   UNL     1      82.163  -2.852  -8.103  1.00  0.00    -0.502 OA
ATOM     23  H   UNL     1      82.239  -3.471  -8.901  1.00  0.00     0.293 HD
ENDBRANCH   2  22
BRANCH   6  24
ATOM     24  O   UNL     1      82.625   2.399  -8.862  1.00  0.00    -0.507 OA
ATOM     25  H   UNL     1      82.501   2.673  -9.825  1.00  0.00     0.293 HD
ENDBRANCH   6  24
BRANCH   8  26
ATOM     26  O   UNL     1      87.125   3.079  -7.329  1.00  0.00    -0.508 OA
ATOM     27  H   UNL     1      86.998   3.990  -6.903  1.00  0.00     0.293 HD
ENDBRANCH   8  26
TORSDOF 6
ENDMDL
MODEL 8
REMARK VINA RESULT:    -5.232      9.745     13.186
REMARK INTER + INTRA:          -6.560
REMARK INTER:                  -6.407
REMARK INTRA:                  -0.153
REMARK UNBOUND:                -0.104
REMARK SMILES COc1cc(-c2oc3cc(O)cc(O)c3c(=O)c2O)ccc1O
REMARK SMILES IDX 6 1 18 2 16 3 17 4 15 5 13 6 12 7 10 8 9 9 8 10 7 11 5 12
REMARK SMILES IDX 3 13 22 14 4 15 21 16 20 17 2 18 1 19 23 20 19 22 14 24
REMARK SMILES IDX 11 26
REMARK H PARENT 23 21 19 23 14 25 11 27
REMARK Flexibility Score: inf
ROOT
ATOM      1  C   UNL     1      85.766   1.856   6.068  1.00  0.00     0.180 A 
ATOM      2  C   UNL     1      86.114   0.603   6.602  1.00  0.00     0.208 A 
ATOM      3  C   UNL     1      86.513  -0.421   5.730  1.00  0.00     0.238 A 
ATOM      4  O   UNL     1      86.875  -1.524   6.217  1.00  0.00    -0.285 OA
ATOM      5  C   UNL     1      86.544  -0.186   4.333  1.00  0.00     0.111 A 
ATOM      6  C   UNL     1      86.895  -1.163   3.354  1.00  0.00     0.134 A 
ATOM      7  C   UNL     1      87.018  -0.783   2.012  1.00  0.00     0.093 A 
ATOM      8  C   UNL     1      86.741   0.524   1.605  1.00  0.00     0.123 A 
ATOM      9  C   UNL     1      86.341   1.471   2.545  1.00  0.00     0.094 A 
ATOM     10  C   UNL     1      86.244   1.131   3.897  1.00  0.00     0.146 A 
ATOM     11  O   UNL     1      85.869   2.066   4.761  1.00  0.00    -0.452 OA
ENDROOT
BRANCH   1  12
ATOM     12  C   UNL     1      85.313   2.979   6.921  1.00  0.00     0.025 A 
ATOM     13  C   UNL     1      85.516   5.320   7.597  1.00  0.00     0.161 A 
ATOM     14  C   UNL     1      84.442   5.152   8.481  1.00  0.00     0.157 A 
ATOM     15  C   UNL     1      85.943   4.230   6.814  1.00  0.00     0.062 A 
ATOM     16  C   UNL     1      83.797   3.912   8.576  1.00  0.00     0.051 A 
ATOM     17  C   UNL     1      84.224   2.834   7.798  1.00  0.00     0.016 A 
BRANCH  13  18
ATOM     18  O   UNL     1      86.131   6.580   7.523  1.00  0.00    -0.493 OA
ATOM     19  C   UNL     1      86.785   7.093   6.367  1.00  0.00     0.278 C 
ENDBRANCH  13  18
BRANCH  14  20
ATOM     20  O   UNL     1      84.016   6.227   9.260  1.00  0.00    -0.504 OA
ATOM     21  H   UNL     1      83.321   6.111   9.989  1.00  0.00     0.293 HD
ENDBRANCH  14  20
ENDBRANCH   1  12
BRANCH   2  22
ATOM     22  O   UNL     1      86.097   0.399   7.984  1.00  0.00    -0.502 OA
ATOM     23  H   UNL     1      85.825  -0.483   8.401  1.00  0.00     0.293 HD
ENDBRANCH   2  22
BRANCH   6  24
ATOM     24  O   UNL     1      87.102  -2.515   3.641  1.00  0.00    -0.507 OA
ATOM     25  H   UNL     1      87.199  -3.242   2.949  1.00  0.00     0.293 HD
ENDBRANCH   6  24
BRANCH   8  26
ATOM     26  O   UNL     1      86.851   0.890   0.265  1.00  0.00    -0.508 OA
ATOM     27  H   UNL     1      87.749   0.917  -0.204  1.00  0.00     0.293 HD
ENDBRANCH   8  26
TORSDOF 6
ENDMDL
MODEL 9
REMARK VINA RESULT:    -5.056      2.250      3.788
REMARK INTER + INTRA:          -6.343
REMARK INTER:                  -6.265
REMARK INTRA:                  -0.078
REMARK UNBOUND:                -0.104
REMARK SMILES COc1cc(-c2oc3cc(O)cc(O)c3c(=O)c2O)ccc1O
REMARK SMILES IDX 6 1 18 2 16 3 17 4 15 5 13 6 12 7 10 8 9 9 8 10 7 11 5 12
REMARK SMILES IDX 3 13 22 14 4 15 21 16 20 17 2 18 1 19 23 20 19 22 14 24
REMARK SMILES IDX 11 26
REMARK H PARENT 23 21 19 23 14 25 11 27
REMARK Flexibility Score: inf
ROOT
ATOM      1  C   UNL     1      83.904  -2.260  -7.595  1.00  0.00     0.180 A 
ATOM      2  C   UNL     1      83.471  -3.145  -8.597  1.00  0.00     0.208 A 
ATOM      3  C   UNL     1      83.365  -4.512  -8.298  1.00  0.00     0.238 A 
ATOM      4  O   UNL     1      82.926  -5.292  -9.183  1.00  0.00    -0.285 OA
ATOM      5  C   UNL     1      83.707  -4.980  -7.006  1.00  0.00     0.111 A 
ATOM      6  C   UNL     1      83.674  -6.349  -6.605  1.00  0.00     0.134 A 
ATOM      7  C   UNL     1      83.909  -6.682  -5.265  1.00  0.00     0.093 A 
ATOM      8  C   UNL     1      84.237  -5.702  -4.326  1.00  0.00     0.123 A 
ATOM      9  C   UNL     1      84.329  -4.369  -4.720  1.00  0.00     0.094 A 
ATOM     10  C   UNL     1      84.066  -4.001  -6.043  1.00  0.00     0.146 A 
ATOM     11  O   UNL     1      84.154  -2.719  -6.374  1.00  0.00    -0.452 OA
ENDROOT
BRANCH   1  12
ATOM     12  C   UNL     1      84.065  -0.808  -7.840  1.00  0.00     0.025 A 
ATOM     13  C   UNL     1      85.481   1.186  -7.800  1.00  0.00     0.161 A 
ATOM     14  C   UNL     1      84.431   1.934  -8.348  1.00  0.00     0.157 A 
ATOM     15  C   UNL     1      85.293  -0.189  -7.553  1.00  0.00     0.062 A 
ATOM     16  C   UNL     1      83.212   1.316  -8.655  1.00  0.00     0.051 A 
ATOM     17  C   UNL     1      83.031  -0.046  -8.409  1.00  0.00     0.016 A 
BRANCH  13  18
ATOM     18  O   UNL     1      86.690   1.839  -7.513  1.00  0.00    -0.493 OA
ATOM     19  C   UNL     1      87.125   2.193  -6.205  1.00  0.00     0.278 C 
ENDBRANCH  13  18
BRANCH  14  20
ATOM     20  O   UNL     1      84.609   3.295  -8.592  1.00  0.00    -0.504 OA
ATOM     21  H   UNL     1      85.452   3.779  -8.305  1.00  0.00     0.293 HD
ENDBRANCH  14  20
ENDBRANCH   1  12
BRANCH   2  22
ATOM     22  O   UNL     1      83.118  -2.659  -9.859  1.00  0.00    -0.502 OA
ATOM     23  H   UNL     1      82.160  -2.642 -10.187  1.00  0.00     0.293 HD
ENDBRANCH   2  22
BRANCH   6  24
ATOM     24  O   UNL     1      83.448  -7.414  -7.482  1.00  0.00    -0.507 OA
ATOM     25  H   UNL     1      83.678  -8.377  -7.289  1.00  0.00     0.293 HD
ENDBRANCH   6  24
BRANCH   8  26
ATOM     26  O   UNL     1      84.483  -6.043  -2.998  1.00  0.00    -0.508 OA
ATOM     27  H   UNL     1      85.238  -6.670  -2.743  1.00  0.00     0.293 HD
ENDBRANCH   8  26
TORSDOF 6
ENDMDL
