MODEL 1
REMARK VINA RESULT:    -6.509      0.000      0.000
REMARK INTER + INTRA:         -10.569
REMARK INTER:                 -10.124
REMARK INTRA:                  -0.444
REMARK UNBOUND:                -0.444
REMARK SMILES COc1cc(CNC(=O)CCCCC=CC(C)C)ccc1O
REMARK SMILES IDX 11 1 12 2 13 3 14 4 15 5 16 6 17 7 18 8 10 9 8 10 9 11 7 12
REMARK SMILES IDX 6 14 5 15 4 16 19 17 3 18 20 19 21 20 2 21 1 22 22 23
REMARK H PARENT 7 13 22 24
REMARK Flexibility Score: inf
ROOT
ATOM      1  C   UNL     1     -15.148 -28.152 -10.708  1.00  0.00     0.010 C 
ENDROOT
BRANCH   1   2
ATOM      2  C   UNL     1     -15.144 -26.654 -10.359  1.00  0.00     0.005 C 
BRANCH   2   3
ATOM      3  C   UNL     1     -13.722 -26.089 -10.248  1.00  0.00     0.027 C 
BRANCH   3   4
ATOM      4  C   UNL     1     -12.978 -26.679  -9.076  1.00  0.00    -0.031 C 
ATOM      5  C   UNL     1     -12.461 -25.979  -8.049  1.00  0.00    -0.028 C 
BRANCH   5   6
ATOM      6  C   UNL     1     -12.503 -24.470  -7.918  1.00  0.00     0.005 C 
ATOM      7  C   UNL     1     -12.627 -24.075  -6.441  1.00  0.00     0.012 C 
ATOM      8  C   UNL     1     -11.243 -23.847  -8.530  1.00  0.00     0.012 C 
ENDBRANCH   5   6
ENDBRANCH   3   4
ENDBRANCH   2   3
ENDBRANCH   1   2
BRANCH   1   9
ATOM      9  C   UNL     1     -15.066 -29.044  -9.462  1.00  0.00     0.100 C 
BRANCH   9  10
ATOM     10  C   UNL     1     -14.472 -30.391  -9.766  1.00  0.00     0.220 C 
ATOM     11  O   UNL     1     -13.472 -30.795  -9.114  1.00  0.00    -0.275 OA
ATOM     12  N   UNL     1     -15.027 -31.204 -10.808  1.00  0.00    -0.352 N 
ATOM     13  H   UNL     1     -15.757 -30.789 -11.434  1.00  0.00     0.163 HD
BRANCH  12  14
ATOM     14  C   UNL     1     -14.841 -32.651 -10.846  1.00  0.00     0.151 C 
BRANCH  14  15
ATOM     15  C   UNL     1     -14.420 -33.069 -12.227  1.00  0.00    -0.025 A 
ATOM     16  C   UNL     1     -15.157 -34.040 -12.922  1.00  0.00     0.056 A 
ATOM     17  C   UNL     1     -13.256 -32.543 -12.807  1.00  0.00     0.009 A 
ATOM     18  C   UNL     1     -14.757 -34.464 -14.206  1.00  0.00     0.160 A 
ATOM     19  C   UNL     1     -12.853 -32.957 -14.077  1.00  0.00     0.050 A 
ATOM     20  C   UNL     1     -13.598 -33.911 -14.780  1.00  0.00     0.157 A 
BRANCH  18  21
ATOM     21  O   UNL     1     -15.481 -35.427 -14.931  1.00  0.00    -0.493 OA
ATOM     22  C   UNL     1     -16.893 -35.604 -14.853  1.00  0.00     0.278 C 
ENDBRANCH  18  21
BRANCH  20  23
ATOM     23  O   UNL     1     -13.170 -34.294 -16.051  1.00  0.00    -0.504 OA
ATOM     24  H   UNL     1     -12.232 -34.102 -16.387  1.00  0.00     0.293 HD
ENDBRANCH  20  23
ENDBRANCH  14  15
ENDBRANCH  12  14
ENDBRANCH   9  10
ENDBRANCH   1   9
TORSDOF 10
ENDMDL
MODEL 2
REMARK VINA RESULT:    -6.493      1.586      2.779
REMARK INTER + INTRA:         -10.543
REMARK INTER:                 -10.265
REMARK INTRA:                  -0.277
REMARK UNBOUND:                -0.444
REMARK SMILES COc1cc(CNC(=O)CCCCC=CC(C)C)ccc1O
REMARK SMILES IDX 11 1 12 2 13 3 14 4 15 5 16 6 17 7 18 8 10 9 8 10 9 11 7 12
REMARK SMILES IDX 6 14 5 15 4 16 19 17 3 18 20 19 21 20 2 21 1 22 22 23
REMARK H PARENT 7 13 22 24
REMARK Flexibility Score: inf
ROOT
ATOM      1  C   UNL     1     -15.662 -30.956  -9.833  1.00  0.00     0.010 C 
ENDROOT
BRANCH   1   2
ATOM      2  C   UNL     1     -15.650 -29.881 -10.935  1.00  0.00     0.005 C 
BRANCH   2   3
ATOM      3  C   UNL     1     -15.184 -28.518 -10.410  1.00  0.00     0.027 C 
BRANCH   3   4
ATOM      4  C   UNL     1     -13.985 -28.650  -9.505  1.00  0.00    -0.031 C 
ATOM      5  C   UNL     1     -13.287 -27.625  -8.979  1.00  0.00    -0.028 C 
BRANCH   5   6
ATOM      6  C   UNL     1     -13.565 -26.159  -9.245  1.00  0.00     0.005 C 
ATOM      7  C   UNL     1     -12.461 -25.295  -8.623  1.00  0.00     0.012 C 
ATOM      8  C   UNL     1     -13.658 -25.899 -10.753  1.00  0.00     0.012 C 
ENDBRANCH   5   6
ENDBRANCH   3   4
ENDBRANCH   2   3
ENDBRANCH   1   2
BRANCH   1   9
ATOM      9  C   UNL     1     -15.342 -32.355 -10.377  1.00  0.00     0.100 C 
BRANCH   9  10
ATOM     10  C   UNL     1     -14.198 -32.337 -11.351  1.00  0.00     0.220 C 
ATOM     11  O   UNL     1     -13.022 -32.167 -10.931  1.00  0.00    -0.275 OA
ATOM     12  N   UNL     1     -14.443 -32.491 -12.755  1.00  0.00    -0.352 N 
ATOM     13  H   UNL     1     -15.434 -32.480 -13.095  1.00  0.00     0.163 HD
BRANCH  12  14
ATOM     14  C   UNL     1     -13.413 -32.955 -13.678  1.00  0.00     0.151 C 
BRANCH  14  15
ATOM     15  C   UNL     1     -13.975 -34.036 -14.559  1.00  0.00    -0.025 A 
ATOM     16  C   UNL     1     -15.332 -34.381 -14.466  1.00  0.00     0.056 A 
ATOM     17  C   UNL     1     -13.141 -34.749 -15.433  1.00  0.00     0.009 A 
ATOM     18  C   UNL     1     -15.867 -35.413 -15.266  1.00  0.00     0.160 A 
ATOM     19  C   UNL     1     -13.663 -35.771 -16.227  1.00  0.00     0.050 A 
ATOM     20  C   UNL     1     -15.020 -36.104 -16.150  1.00  0.00     0.157 A 
BRANCH  18  21
ATOM     21  O   UNL     1     -17.224 -35.774 -15.202  1.00  0.00    -0.493 OA
ATOM     22  C   UNL     1     -17.752 -36.789 -14.353  1.00  0.00     0.278 C 
ENDBRANCH  18  21
BRANCH  20  23
ATOM     23  O   UNL     1     -15.509 -37.125 -16.966  1.00  0.00    -0.504 OA
ATOM     24  H   UNL     1     -15.835 -36.952 -17.912  1.00  0.00     0.293 HD
ENDBRANCH  20  23
ENDBRANCH  14  15
ENDBRANCH  12  14
ENDBRANCH   9  10
ENDBRANCH   1   9
TORSDOF 10
ENDMDL
MODEL 3
REMARK VINA RESULT:    -6.041      2.162      9.467
REMARK INTER + INTRA:          -9.839
REMARK INTER:                  -9.944
REMARK INTRA:                   0.104
REMARK UNBOUND:                -0.444
REMARK SMILES COc1cc(CNC(=O)CCCCC=CC(C)C)ccc1O
REMARK SMILES IDX 11 1 12 2 13 3 14 4 15 5 16 6 17 7 18 8 10 9 8 10 9 11 7 12
REMARK SMILES IDX 6 14 5 15 4 16 19 17 3 18 20 19 21 20 2 21 1 22 22 23
REMARK H PARENT 7 13 22 24
REMARK Flexibility Score: inf
ROOT
ATOM      1  C   UNL     1     -14.492 -33.704 -13.309  1.00  0.00     0.010 C 
ENDROOT
BRANCH   1   2
ATOM      2  C   UNL     1     -15.005 -33.465 -14.740  1.00  0.00     0.005 C 
BRANCH   2   3
ATOM      3  C   UNL     1     -14.153 -34.191 -15.789  1.00  0.00     0.027 C 
BRANCH   3   4
ATOM      4  C   UNL     1     -13.468 -35.403 -15.209  1.00  0.00    -0.031 C 
ATOM      5  C   UNL     1     -13.796 -36.683 -15.469  1.00  0.00    -0.028 C 
BRANCH   5   6
ATOM      6  C   UNL     1     -14.940 -37.122 -16.361  1.00  0.00     0.005 C 
ATOM      7  C   UNL     1     -16.280 -36.832 -15.675  1.00  0.00     0.012 C 
ATOM      8  C   UNL     1     -14.868 -36.404 -17.713  1.00  0.00     0.012 C 
ENDBRANCH   5   6
ENDBRANCH   3   4
ENDBRANCH   2   3
ENDBRANCH   1   2
BRANCH   1   9
ATOM      9  C   UNL     1     -13.613 -32.552 -12.802  1.00  0.00     0.100 C 
BRANCH   9  10
ATOM     10  C   UNL     1     -13.878 -32.228 -11.359  1.00  0.00     0.220 C 
ATOM     11  O   UNL     1     -13.070 -32.616 -10.473  1.00  0.00    -0.275 OA
ATOM     12  N   UNL     1     -15.056 -31.501 -10.988  1.00  0.00    -0.352 N 
ATOM     13  H   UNL     1     -15.786 -31.321 -11.718  1.00  0.00     0.163 HD
BRANCH  12  14
ATOM     14  C   UNL     1     -15.146 -30.754  -9.737  1.00  0.00     0.151 C 
BRANCH  14  15
ATOM     15  C   UNL     1     -14.856 -29.301  -9.997  1.00  0.00    -0.025 A 
ATOM     16  C   UNL     1     -13.866 -28.640  -9.254  1.00  0.00     0.056 A 
ATOM     17  C   UNL     1     -15.611 -28.580 -10.933  1.00  0.00     0.009 A 
ATOM     18  C   UNL     1     -13.604 -27.270  -9.465  1.00  0.00     0.160 A 
ATOM     19  C   UNL     1     -15.358 -27.225 -11.148  1.00  0.00     0.050 A 
ATOM     20  C   UNL     1     -14.357 -26.568 -10.422  1.00  0.00     0.157 A 
BRANCH  18  21
ATOM     21  O   UNL     1     -12.611 -26.584  -8.744  1.00  0.00    -0.493 OA
ATOM     22  C   UNL     1     -12.805 -25.335  -8.089  1.00  0.00     0.278 C 
ENDBRANCH  18  21
BRANCH  20  23
ATOM     23  O   UNL     1     -14.125 -25.215 -10.670  1.00  0.00    -0.504 OA
ATOM     24  H   UNL     1     -13.877 -24.565  -9.931  1.00  0.00     0.293 HD
ENDBRANCH  20  23
ENDBRANCH  14  15
ENDBRANCH  12  14
ENDBRANCH   9  10
ENDBRANCH   1   9
TORSDOF 10
ENDMDL
MODEL 4
REMARK VINA RESULT:    -5.865      3.143      9.578
REMARK INTER + INTRA:          -9.566
REMARK INTER:                  -8.886
REMARK INTRA:                  -0.680
REMARK UNBOUND:                -0.444
REMARK SMILES COc1cc(CNC(=O)CCCCC=CC(C)C)ccc1O
REMARK SMILES IDX 11 1 12 2 13 3 14 4 15 5 16 6 17 7 18 8 10 9 8 10 9 11 7 12
REMARK SMILES IDX 6 14 5 15 4 16 19 17 3 18 20 19 21 20 2 21 1 22 22 23
REMARK H PARENT 7 13 22 24
REMARK Flexibility Score: inf
ROOT
ATOM      1  C   UNL     1     -15.748 -36.395 -16.072  1.00  0.00     0.010 C 
ENDROOT
BRANCH   1   2
ATOM      2  C   UNL     1     -16.284 -37.125 -14.828  1.00  0.00     0.005 C 
BRANCH   2   3
ATOM      3  C   UNL     1     -17.816 -37.094 -14.752  1.00  0.00     0.027 C 
BRANCH   3   4
ATOM      4  C   UNL     1     -18.302 -37.080 -13.324  1.00  0.00    -0.031 C 
ATOM      5  C   UNL     1     -19.561 -36.806 -12.932  1.00  0.00    -0.028 C 
BRANCH   5   6
ATOM      6  C   UNL     1     -20.696 -36.422 -13.861  1.00  0.00     0.005 C 
ATOM      7  C   UNL     1     -22.024 -36.960 -13.315  1.00  0.00     0.012 C 
ATOM      8  C   UNL     1     -20.763 -34.899 -14.018  1.00  0.00     0.012 C 
ENDBRANCH   5   6
ENDBRANCH   3   4
ENDBRANCH   2   3
ENDBRANCH   1   2
BRANCH   1   9
ATOM      9  C   UNL     1     -15.597 -34.885 -15.845  1.00  0.00     0.100 C 
BRANCH   9  10
ATOM     10  C   UNL     1     -14.352 -34.550 -15.071  1.00  0.00     0.220 C 
ATOM     11  O   UNL     1     -13.235 -34.973 -15.471  1.00  0.00    -0.275 OA
ATOM     12  N   UNL     1     -14.438 -33.770 -13.872  1.00  0.00    -0.352 N 
ATOM     13  H   UNL     1     -15.385 -33.556 -13.478  1.00  0.00     0.163 HD
BRANCH  12  14
ATOM     14  C   UNL     1     -13.300 -33.018 -13.351  1.00  0.00     0.151 C 
BRANCH  14  15
ATOM     15  C   UNL     1     -13.710 -32.281 -12.106  1.00  0.00    -0.025 A 
ATOM     16  C   UNL     1     -14.611 -31.209 -12.191  1.00  0.00     0.056 A 
ATOM     17  C   UNL     1     -13.151 -32.615 -10.864  1.00  0.00     0.009 A 
ATOM     18  C   UNL     1     -14.983 -30.489 -11.035  1.00  0.00     0.160 A 
ATOM     19  C   UNL     1     -13.513 -31.907  -9.716  1.00  0.00     0.050 A 
ATOM     20  C   UNL     1     -14.427 -30.850  -9.795  1.00  0.00     0.157 A 
BRANCH  18  21
ATOM     21  O   UNL     1     -15.891 -29.418 -11.088  1.00  0.00    -0.493 OA
ATOM     22  C   UNL     1     -15.525 -28.056 -11.283  1.00  0.00     0.278 C 
ENDBRANCH  18  21
BRANCH  20  23
ATOM     23  O   UNL     1     -14.773 -30.172  -8.626  1.00  0.00    -0.504 OA
ATOM     24  H   UNL     1     -14.501 -30.506  -7.707  1.00  0.00     0.293 HD
ENDBRANCH  20  23
ENDBRANCH  14  15
ENDBRANCH  12  14
ENDBRANCH   9  10
ENDBRANCH   1   9
TORSDOF 10
ENDMDL
MODEL 5
REMARK VINA RESULT:    -5.864      2.873      8.935
REMARK INTER + INTRA:          -9.565
REMARK INTER:                  -9.487
REMARK INTRA:                  -0.078
REMARK UNBOUND:                -0.444
REMARK SMILES COc1cc(CNC(=O)CCCCC=CC(C)C)ccc1O
REMARK SMILES IDX 11 1 12 2 13 3 14 4 15 5 16 6 17 7 18 8 10 9 8 10 9 11 7 12
REMARK SMILES IDX 6 14 5 15 4 16 19 17 3 18 20 19 21 20 2 21 1 22 22 23
REMARK H PARENT 7 13 22 24
REMARK Flexibility Score: inf
ROOT
ATOM      1  C   UNL     1     -14.506 -33.802 -13.630  1.00  0.00     0.010 C 
ENDROOT
BRANCH   1   2
ATOM      2  C   UNL     1     -14.666 -33.666 -15.154  1.00  0.00     0.005 C 
BRANCH   2   3
ATOM      3  C   UNL     1     -13.681 -34.557 -15.922  1.00  0.00     0.027 C 
BRANCH   3   4
ATOM      4  C   UNL     1     -13.468 -35.879 -15.227  1.00  0.00    -0.031 C 
ATOM      5  C   UNL     1     -14.166 -37.006 -15.464  1.00  0.00    -0.028 C 
BRANCH   5   6
ATOM      6  C   UNL     1     -15.316 -37.124 -16.444  1.00  0.00     0.005 C 
ATOM      7  C   UNL     1     -16.601 -36.576 -15.813  1.00  0.00     0.012 C 
ATOM      8  C   UNL     1     -14.995 -36.368 -17.738  1.00  0.00     0.012 C 
ENDBRANCH   5   6
ENDBRANCH   3   4
ENDBRANCH   2   3
ENDBRANCH   1   2
BRANCH   1   9
ATOM      9  C   UNL     1     -13.546 -32.756 -13.046  1.00  0.00     0.100 C 
BRANCH   9  10
ATOM     10  C   UNL     1     -13.835 -32.466 -11.600  1.00  0.00     0.220 C 
ATOM     11  O   UNL     1     -12.887 -32.193 -10.816  1.00  0.00    -0.275 OA
ATOM     12  N   UNL     1     -15.180 -32.521 -11.109  1.00  0.00    -0.352 N 
ATOM     13  H   UNL     1     -15.930 -32.895 -11.738  1.00  0.00     0.163 HD
BRANCH  12  14
ATOM     14  C   UNL     1     -15.597 -31.813  -9.902  1.00  0.00     0.151 C 
BRANCH  14  15
ATOM     15  C   UNL     1     -15.321 -30.343 -10.059  1.00  0.00    -0.025 A 
ATOM     16  C   UNL     1     -15.752 -29.668 -11.211  1.00  0.00     0.056 A 
ATOM     17  C   UNL     1     -14.579 -29.650  -9.091  1.00  0.00     0.009 A 
ATOM     18  C   UNL     1     -15.474 -28.296 -11.386  1.00  0.00     0.160 A 
ATOM     19  C   UNL     1     -14.301 -28.293  -9.257  1.00  0.00     0.050 A 
ATOM     20  C   UNL     1     -14.746 -27.613 -10.396  1.00  0.00     0.157 A 
BRANCH  18  21
ATOM     21  O   UNL     1     -15.902 -27.591 -12.524  1.00  0.00    -0.493 OA
ATOM     22  C   UNL     1     -16.672 -28.154 -13.582  1.00  0.00     0.278 C 
ENDBRANCH  18  21
BRANCH  20  23
ATOM     23  O   UNL     1     -14.457 -26.254 -10.524  1.00  0.00    -0.504 OA
ATOM     24  H   UNL     1     -13.608 -25.844 -10.148  1.00  0.00     0.293 HD
ENDBRANCH  20  23
ENDBRANCH  14  15
ENDBRANCH  12  14
ENDBRANCH   9  10
ENDBRANCH   1   9
TORSDOF 10
ENDMDL
MODEL 6
REMARK VINA RESULT:    -5.378      1.601      2.726
REMARK INTER + INTRA:          -8.808
REMARK INTER:                  -8.357
REMARK INTRA:                  -0.452
REMARK UNBOUND:                -0.444
REMARK SMILES COc1cc(CNC(=O)CCCCC=CC(C)C)ccc1O
REMARK SMILES IDX 11 1 12 2 13 3 14 4 15 5 16 6 17 7 18 8 10 9 8 10 9 11 7 12
REMARK SMILES IDX 6 14 5 15 4 16 19 17 3 18 20 19 21 20 2 21 1 22 22 23
REMARK H PARENT 7 13 22 24
REMARK Flexibility Score: inf
ROOT
ATOM      1  C   UNL     1     -15.423 -30.146 -10.449  1.00  0.00     0.010 C 
ENDROOT
BRANCH   1   2
ATOM      2  C   UNL     1     -14.318 -29.342  -9.742  1.00  0.00     0.005 C 
BRANCH   2   3
ATOM      3  C   UNL     1     -14.745 -27.896  -9.458  1.00  0.00     0.027 C 
BRANCH   3   4
ATOM      4  C   UNL     1     -13.938 -26.909 -10.264  1.00  0.00    -0.031 C 
ATOM      5  C   UNL     1     -13.227 -25.884  -9.757  1.00  0.00    -0.028 C 
BRANCH   5   6
ATOM      6  C   UNL     1     -13.153 -25.523  -8.286  1.00  0.00     0.005 C 
ATOM      7  C   UNL     1     -11.877 -26.106  -7.667  1.00  0.00     0.012 C 
ATOM      8  C   UNL     1     -13.182 -24.001  -8.110  1.00  0.00     0.012 C 
ENDBRANCH   5   6
ENDBRANCH   3   4
ENDBRANCH   2   3
ENDBRANCH   1   2
BRANCH   1   9
ATOM      9  C   UNL     1     -15.202 -31.662 -10.345  1.00  0.00     0.100 C 
BRANCH   9  10
ATOM     10  C   UNL     1     -14.071 -32.131 -11.217  1.00  0.00     0.220 C 
ATOM     11  O   UNL     1     -13.003 -32.541 -10.688  1.00  0.00    -0.275 OA
ATOM     12  N   UNL     1     -14.197 -32.093 -12.644  1.00  0.00    -0.352 N 
ATOM     13  H   UNL     1     -15.029 -31.611 -13.062  1.00  0.00     0.163 HD
BRANCH  12  14
ATOM     14  C   UNL     1     -13.391 -32.939 -13.518  1.00  0.00     0.151 C 
BRANCH  14  15
ATOM     15  C   UNL     1     -14.267 -33.980 -14.158  1.00  0.00    -0.025 A 
ATOM     16  C   UNL     1     -13.843 -34.632 -15.327  1.00  0.00     0.056 A 
ATOM     17  C   UNL     1     -15.536 -34.264 -13.633  1.00  0.00     0.009 A 
ATOM     18  C   UNL     1     -14.667 -35.590 -15.955  1.00  0.00     0.160 A 
ATOM     19  C   UNL     1     -16.357 -35.210 -14.249  1.00  0.00     0.050 A 
ATOM     20  C   UNL     1     -15.928 -35.876 -15.403  1.00  0.00     0.157 A 
BRANCH  18  21
ATOM     21  O   UNL     1     -14.264 -36.266 -17.119  1.00  0.00    -0.493 OA
ATOM     22  C   UNL     1     -14.933 -36.183 -18.375  1.00  0.00     0.278 C 
ENDBRANCH  18  21
BRANCH  20  23
ATOM     23  O   UNL     1     -16.771 -36.822 -15.986  1.00  0.00    -0.504 OA
ATOM     24  H   UNL     1     -17.209 -36.673 -16.890  1.00  0.00     0.293 HD
ENDBRANCH  20  23
ENDBRANCH  14  15
ENDBRANCH  12  14
ENDBRANCH   9  10
ENDBRANCH   1   9
TORSDOF 10
ENDMDL
MODEL 7
REMARK VINA RESULT:    -5.372      3.385      6.664
REMARK INTER + INTRA:          -8.799
REMARK INTER:                  -8.155
REMARK INTRA:                  -0.645
REMARK UNBOUND:                -0.444
REMARK SMILES COc1cc(CNC(=O)CCCCC=CC(C)C)ccc1O
REMARK SMILES IDX 11 1 12 2 13 3 14 4 15 5 16 6 17 7 18 8 10 9 8 10 9 11 7 12
REMARK SMILES IDX 6 14 5 15 4 16 19 17 3 18 20 19 21 20 2 21 1 22 22 23
REMARK H PARENT 7 13 22 24
REMARK Flexibility Score: inf
ROOT
ATOM      1  C   UNL     1     -13.035 -33.177 -14.240  1.00  0.00     0.010 C 
ENDROOT
BRANCH   1   2
ATOM      2  C   UNL     1     -12.824 -32.337 -12.968  1.00  0.00     0.005 C 
BRANCH   2   3
ATOM      3  C   UNL     1     -13.885 -32.626 -11.900  1.00  0.00     0.027 C 
BRANCH   3   4
ATOM      4  C   UNL     1     -13.413 -32.228 -10.523  1.00  0.00    -0.031 C 
ATOM      5  C   UNL     1     -13.833 -31.149  -9.836  1.00  0.00    -0.028 C 
BRANCH   5   6
ATOM      6  C   UNL     1     -14.826 -30.124 -10.351  1.00  0.00     0.005 C 
ATOM      7  C   UNL     1     -16.242 -30.712 -10.334  1.00  0.00     0.012 C 
ATOM      8  C   UNL     1     -14.768 -28.852  -9.498  1.00  0.00     0.012 C 
ENDBRANCH   5   6
ENDBRANCH   3   4
ENDBRANCH   2   3
ENDBRANCH   1   2
BRANCH   1   9
ATOM      9  C   UNL     1     -14.510 -33.247 -14.657  1.00  0.00     0.100 C 
BRANCH   9  10
ATOM     10  C   UNL     1     -14.940 -34.649 -14.986  1.00  0.00     0.220 C 
ATOM     11  O   UNL     1     -14.084 -35.573 -15.023  1.00  0.00    -0.275 OA
ATOM     12  N   UNL     1     -16.314 -34.932 -15.279  1.00  0.00    -0.352 N 
ATOM     13  H   UNL     1     -16.979 -34.130 -15.390  1.00  0.00     0.163 HD
BRANCH  12  14
ATOM     14  C   UNL     1     -16.881 -36.269 -15.134  1.00  0.00     0.151 C 
BRANCH  14  15
ATOM     15  C   UNL     1     -18.208 -36.181 -14.433  1.00  0.00    -0.025 A 
ATOM     16  C   UNL     1     -19.076 -35.112 -14.706  1.00  0.00     0.056 A 
ATOM     17  C   UNL     1     -18.563 -37.125 -13.458  1.00  0.00     0.009 A 
ATOM     18  C   UNL     1     -20.311 -35.000 -14.034  1.00  0.00     0.160 A 
ATOM     19  C   UNL     1     -19.783 -37.020 -12.789  1.00  0.00     0.050 A 
ATOM     20  C   UNL     1     -20.659 -35.966 -13.074  1.00  0.00     0.157 A 
BRANCH  18  21
ATOM     21  O   UNL     1     -21.206 -33.947 -14.295  1.00  0.00    -0.493 OA
ATOM     22  C   UNL     1     -21.523 -33.459 -15.595  1.00  0.00     0.278 C 
ENDBRANCH  18  21
BRANCH  20  23
ATOM     23  O   UNL     1     -21.875 -35.899 -12.392  1.00  0.00    -0.504 OA
ATOM     24  H   UNL     1     -22.324 -35.015 -12.174  1.00  0.00     0.293 HD
ENDBRANCH  20  23
ENDBRANCH  14  15
ENDBRANCH  12  14
ENDBRANCH   9  10
ENDBRANCH   1   9
TORSDOF 10
ENDMDL
MODEL 8
REMARK VINA RESULT:    -4.766      2.154      9.282
REMARK INTER + INTRA:          -7.857
REMARK INTER:                  -7.791
REMARK INTRA:                  -0.066
REMARK UNBOUND:                -0.444
REMARK SMILES COc1cc(CNC(=O)CCCCC=CC(C)C)ccc1O
REMARK SMILES IDX 11 1 12 2 13 3 14 4 15 5 16 6 17 7 18 8 10 9 8 10 9 11 7 12
REMARK SMILES IDX 6 14 5 15 4 16 19 17 3 18 20 19 21 20 2 21 1 22 22 23
REMARK H PARENT 7 13 22 24
REMARK Flexibility Score: inf
ROOT
ATOM      1  C   UNL     1     -15.258 -34.348 -13.897  1.00  0.00     0.010 C 
ENDROOT
BRANCH   1   2
ATOM      2  C   UNL     1     -14.555 -35.583 -14.485  1.00  0.00     0.005 C 
BRANCH   2   3
ATOM      3  C   UNL     1     -15.520 -36.759 -14.686  1.00  0.00     0.027 C 
BRANCH   3   4
ATOM      4  C   UNL     1     -16.564 -36.449 -15.730  1.00  0.00    -0.031 C 
ATOM      5  C   UNL     1     -17.811 -36.009 -15.478  1.00  0.00    -0.028 C 
BRANCH   5   6
ATOM      6  C   UNL     1     -18.393 -35.789 -14.096  1.00  0.00     0.005 C 
ATOM      7  C   UNL     1     -19.759 -35.102 -14.205  1.00  0.00     0.012 C 
ATOM      8  C   UNL     1     -18.527 -37.125 -13.356  1.00  0.00     0.012 C 
ENDBRANCH   5   6
ENDBRANCH   3   4
ENDBRANCH   2   3
ENDBRANCH   1   2
BRANCH   1   9
ATOM      9  C   UNL     1     -14.411 -33.074 -14.028  1.00  0.00     0.100 C 
BRANCH   9  10
ATOM     10  C   UNL     1     -13.711 -32.725 -12.744  1.00  0.00     0.220 C 
ATOM     11  O   UNL     1     -12.567 -32.197 -12.780  1.00  0.00    -0.275 OA
ATOM     12  N   UNL     1     -14.331 -33.010 -11.484  1.00  0.00    -0.352 N 
ATOM     13  H   UNL     1     -15.209 -33.583 -11.475  1.00  0.00     0.163 HD
BRANCH  12  14
ATOM     14  C   UNL     1     -13.969 -32.300 -10.261  1.00  0.00     0.151 C 
BRANCH  14  15
ATOM     15  C   UNL     1     -14.391 -30.861 -10.370  1.00  0.00    -0.025 A 
ATOM     16  C   UNL     1     -13.750 -29.882  -9.597  1.00  0.00     0.056 A 
ATOM     17  C   UNL     1     -15.466 -30.495 -11.194  1.00  0.00     0.009 A 
ATOM     18  C   UNL     1     -14.155 -28.532  -9.666  1.00  0.00     0.160 A 
ATOM     19  C   UNL     1     -15.872 -29.162 -11.267  1.00  0.00     0.050 A 
ATOM     20  C   UNL     1     -15.222 -28.180 -10.512  1.00  0.00     0.157 A 
BRANCH  18  21
ATOM     21  O   UNL     1     -13.524 -27.528  -8.912  1.00  0.00    -0.493 OA
ATOM     22  C   UNL     1     -12.930 -26.356  -9.462  1.00  0.00     0.278 C 
ENDBRANCH  18  21
BRANCH  20  23
ATOM     23  O   UNL     1     -15.649 -26.856 -10.618  1.00  0.00    -0.504 OA
ATOM     24  H   UNL     1     -16.599 -26.575 -10.398  1.00  0.00     0.293 HD
ENDBRANCH  20  23
ENDBRANCH  14  15
ENDBRANCH  12  14
ENDBRANCH   9  10
ENDBRANCH   1   9
TORSDOF 10
ENDMDL
MODEL 9
REMARK VINA RESULT:    -4.254      2.343      3.636
REMARK INTER + INTRA:          -7.061
REMARK INTER:                  -6.296
REMARK INTRA:                  -0.764
REMARK UNBOUND:                -0.444
REMARK SMILES COc1cc(CNC(=O)CCCCC=CC(C)C)ccc1O
REMARK SMILES IDX 11 1 12 2 13 3 14 4 15 5 16 6 17 7 18 8 10 9 8 10 9 11 7 12
REMARK SMILES IDX 6 14 5 15 4 16 19 17 3 18 20 19 21 20 2 21 1 22 22 23
REMARK H PARENT 7 13 22 24
REMARK Flexibility Score: inf
ROOT
ATOM      1  C   UNL     1     -15.239 -28.062 -10.661  1.00  0.00     0.010 C 
ENDROOT
BRANCH   1   2
ATOM      2  C   UNL     1     -14.251 -26.883 -10.713  1.00  0.00     0.005 C 
BRANCH   2   3
ATOM      3  C   UNL     1     -14.452 -26.012 -11.960  1.00  0.00     0.027 C 
BRANCH   3   4
ATOM      4  C   UNL     1     -15.180 -26.760 -13.049  1.00  0.00    -0.031 C 
ATOM      5  C   UNL     1     -15.166 -26.442 -14.357  1.00  0.00    -0.028 C 
BRANCH   5   6
ATOM      6  C   UNL     1     -14.447 -25.247 -14.952  1.00  0.00     0.005 C 
ATOM      7  C   UNL     1     -13.178 -25.709 -15.679  1.00  0.00     0.012 C 
ATOM      8  C   UNL     1     -15.370 -24.496 -15.919  1.00  0.00     0.012 C 
ENDBRANCH   5   6
ENDBRANCH   3   4
ENDBRANCH   2   3
ENDBRANCH   1   2
BRANCH   1   9
ATOM      9  C   UNL     1     -15.051 -28.928  -9.408  1.00  0.00     0.100 C 
BRANCH   9  10
ATOM     10  C   UNL     1     -14.465 -30.274  -9.732  1.00  0.00     0.220 C 
ATOM     11  O   UNL     1     -13.429 -30.666  -9.131  1.00  0.00    -0.275 OA
ATOM     12  N   UNL     1     -15.069 -31.100 -10.735  1.00  0.00    -0.352 N 
ATOM     13  H   UNL     1     -15.835 -30.696 -11.325  1.00  0.00     0.163 HD
BRANCH  12  14
ATOM     14  C   UNL     1     -14.877 -32.547 -10.770  1.00  0.00     0.151 C 
BRANCH  14  15
ATOM     15  C   UNL     1     -14.437 -32.964 -12.146  1.00  0.00    -0.025 A 
ATOM     16  C   UNL     1     -15.183 -33.912 -12.863  1.00  0.00     0.056 A 
ATOM     17  C   UNL     1     -13.250 -32.459 -12.698  1.00  0.00     0.009 A 
ATOM     18  C   UNL     1     -14.766 -34.335 -14.143  1.00  0.00     0.160 A 
ATOM     19  C   UNL     1     -12.832 -32.873 -13.964  1.00  0.00     0.050 A 
ATOM     20  C   UNL     1     -13.584 -33.804 -14.689  1.00  0.00     0.157 A 
BRANCH  18  21
ATOM     21  O   UNL     1     -15.498 -35.275 -14.889  1.00  0.00    -0.493 OA
ATOM     22  C   UNL     1     -15.244 -36.677 -14.895  1.00  0.00     0.278 C 
ENDBRANCH  18  21
BRANCH  20  23
ATOM     23  O   UNL     1     -13.140 -34.187 -15.955  1.00  0.00    -0.504 OA
ATOM     24  H   UNL     1     -13.313 -33.624 -16.782  1.00  0.00     0.293 HD
ENDBRANCH  20  23
ENDBRANCH  14  15
ENDBRANCH  12  14
ENDBRANCH   9  10
ENDBRANCH   1   9
TORSDOF 10
ENDMDL
