MODEL 1
REMARK VINA RESULT:    -7.380      0.000      0.000
REMARK INTER + INTRA:          -8.028
REMARK INTER:                  -8.028
REMARK INTRA:                   0.000
REMARK UNBOUND:                 0.000
REMARK SMILES Cc1cc(O)c2c(c1)C(=O)c1cc(O)cc(O)c1C2=O
REMARK SMILES IDX 1 1 2 2 8 3 7 4 6 5 4 6 3 7 19 8 20 9 18 10 11 11 9 12 10 13
REMARK SMILES IDX 12 14 13 15 15 16 16 17 5 18 17 20 14 22
REMARK H PARENT 5 19 17 21 14 23
REMARK Flexibility Score: inf
ROOT
ATOM      1  C   UNL     1      43.764 -11.334   6.747  1.00  0.00     0.044 C 
ATOM      2  C   UNL     1      43.364 -11.397   8.192  1.00  0.00    -0.047 A 
ATOM      3  C   UNL     1      42.874 -10.256   8.837  1.00  0.00     0.016 A 
ATOM      4  C   UNL     1      42.523 -10.297  10.197  1.00  0.00     0.038 A 
ATOM      5  C   UNL     1      42.667 -11.500  10.924  1.00  0.00     0.076 A 
ATOM      6  C   UNL     1      43.244 -12.629  10.286  1.00  0.00     0.127 A 
ATOM      7  C   UNL     1      43.565 -12.570   8.927  1.00  0.00     0.050 A 
ATOM      8  C   UNL     1      42.149 -11.546  12.316  1.00  0.00     0.201 C 
ATOM      9  O   UNL     1      41.725 -12.633  12.791  1.00  0.00    -0.288 OA
ATOM     10  C   UNL     1      41.958 -10.282  13.074  1.00  0.00     0.076 A 
ATOM     11  C   UNL     1      41.817  -9.080  12.344  1.00  0.00     0.041 A 
ATOM     12  C   UNL     1      42.012  -9.082  10.875  1.00  0.00     0.194 C 
ATOM     13  O   UNL     1      41.765  -8.041  10.204  1.00  0.00    -0.289 OA
ATOM     14  C   UNL     1      41.499  -7.888  13.015  1.00  0.00     0.059 A 
ATOM     15  C   UNL     1      41.335  -7.875  14.400  1.00  0.00     0.120 A 
ATOM     16  C   UNL     1      41.512  -9.052  15.131  1.00  0.00     0.093 A 
ATOM     17  C   UNL     1      41.849 -10.249  14.489  1.00  0.00     0.131 A 
ENDROOT
BRANCH   6  18
ATOM     18  O   UNL     1      43.546 -13.809  10.970  1.00  0.00    -0.507 OA
ATOM     19  H   UNL     1      44.302 -13.891  11.635  1.00  0.00     0.293 HD
ENDBRANCH   6  18
BRANCH  17  20
ATOM     20  O   UNL     1      42.100 -11.363  15.293  1.00  0.00    -0.507 OA
ATOM     21  H   UNL     1      41.848 -11.415  16.271  1.00  0.00     0.293 HD
ENDBRANCH  17  20
BRANCH  15  22
ATOM     22  O   UNL     1      41.006  -6.684  15.042  1.00  0.00    -0.508 OA
ATOM     23  H   UNL     1      40.984  -6.615  16.053  1.00  0.00     0.293 HD
ENDBRANCH  15  22
TORSDOF 3
ENDMDL
MODEL 2
REMARK VINA RESULT:    -7.133      1.732      1.848
REMARK INTER + INTRA:          -7.759
REMARK INTER:                  -7.759
REMARK INTRA:                   0.000
REMARK UNBOUND:                 0.000
REMARK SMILES Cc1cc(O)c2c(c1)C(=O)c1cc(O)cc(O)c1C2=O
REMARK SMILES IDX 1 1 2 2 8 3 7 4 6 5 4 6 3 7 19 8 20 9 18 10 11 11 9 12 10 13
REMARK SMILES IDX 12 14 13 15 15 16 16 17 5 18 17 20 14 22
REMARK H PARENT 5 19 17 21 14 23
REMARK Flexibility Score: inf
ROOT
ATOM      1  C   UNL     1      43.252 -10.246   7.510  1.00  0.00     0.044 C 
ATOM      2  C   UNL     1      43.108 -10.401   8.996  1.00  0.00    -0.047 A 
ATOM      3  C   UNL     1      43.208  -9.284   9.833  1.00  0.00     0.016 A 
ATOM      4  C   UNL     1      43.104  -9.423  11.227  1.00  0.00     0.038 A 
ATOM      5  C   UNL     1      42.896 -10.701  11.793  1.00  0.00     0.076 A 
ATOM      6  C   UNL     1      42.880 -11.838  10.945  1.00  0.00     0.127 A 
ATOM      7  C   UNL     1      42.965 -11.673   9.559  1.00  0.00     0.050 A 
ATOM      8  C   UNL     1      42.642 -10.789  13.255  1.00  0.00     0.201 C 
ATOM      9  O   UNL     1      41.921 -11.716  13.710  1.00  0.00    -0.288 OA
ATOM     10  C   UNL     1      43.080  -9.685  14.147  1.00  0.00     0.076 A 
ATOM     11  C   UNL     1      43.290  -8.409  13.578  1.00  0.00     0.041 A 
ATOM     12  C   UNL     1      43.219  -8.236  12.107  1.00  0.00     0.194 C 
ATOM     13  O   UNL     1      43.280  -7.080  11.604  1.00  0.00    -0.289 OA
ATOM     14  C   UNL     1      43.570  -7.311  14.408  1.00  0.00     0.059 A 
ATOM     15  C   UNL     1      43.660  -7.470  15.790  1.00  0.00     0.120 A 
ATOM     16  C   UNL     1      43.493  -8.737  16.355  1.00  0.00     0.093 A 
ATOM     17  C   UNL     1      43.233  -9.851  15.549  1.00  0.00     0.131 A 
ENDROOT
BRANCH   6  18
ATOM     18  O   UNL     1      42.818 -13.145  11.436  1.00  0.00    -0.507 OA
ATOM     19  H   UNL     1      43.122 -13.408  12.363  1.00  0.00     0.293 HD
ENDBRANCH   6  18
BRANCH  17  20
ATOM     20  O   UNL     1      43.169 -11.098  16.174  1.00  0.00    -0.507 OA
ATOM     21  H   UNL     1      42.310 -11.615  16.305  1.00  0.00     0.293 HD
ENDBRANCH  17  20
BRANCH  15  22
ATOM     22  O   UNL     1      43.925  -6.364  16.594  1.00  0.00    -0.508 OA
ATOM     23  H   UNL     1      43.276  -5.588  16.658  1.00  0.00     0.293 HD
ENDBRANCH  15  22
TORSDOF 3
ENDMDL
MODEL 3
REMARK VINA RESULT:    -7.130      2.084      3.617
REMARK INTER + INTRA:          -7.755
REMARK INTER:                  -7.755
REMARK INTRA:                   0.000
REMARK UNBOUND:                 0.000
REMARK SMILES Cc1cc(O)c2c(c1)C(=O)c1cc(O)cc(O)c1C2=O
REMARK SMILES IDX 1 1 2 2 8 3 7 4 6 5 4 6 3 7 19 8 20 9 18 10 11 11 9 12 10 13
REMARK SMILES IDX 12 14 13 15 15 16 16 17 5 18 17 20 14 22
REMARK H PARENT 5 19 17 21 14 23
REMARK Flexibility Score: inf
ROOT
ATOM      1  C   UNL     1      43.643 -12.296   8.697  1.00  0.00     0.044 C 
ATOM      2  C   UNL     1      43.269 -11.213   9.666  1.00  0.00    -0.047 A 
ATOM      3  C   UNL     1      43.935 -11.104  10.891  1.00  0.00     0.016 A 
ATOM      4  C   UNL     1      43.572 -10.111  11.818  1.00  0.00     0.038 A 
ATOM      5  C   UNL     1      42.524  -9.215  11.513  1.00  0.00     0.076 A 
ATOM      6  C   UNL     1      41.797  -9.385  10.307  1.00  0.00     0.127 A 
ATOM      7  C   UNL     1      42.190 -10.366   9.391  1.00  0.00     0.050 A 
ATOM      8  C   UNL     1      42.268  -8.089  12.449  1.00  0.00     0.201 C 
ATOM      9  O   UNL     1      41.807  -7.003  12.011  1.00  0.00    -0.288 OA
ATOM     10  C   UNL     1      42.730  -8.183  13.859  1.00  0.00     0.076 A 
ATOM     11  C   UNL     1      43.776  -9.083  14.160  1.00  0.00     0.041 A 
ATOM     12  C   UNL     1      44.279 -10.007  13.117  1.00  0.00     0.194 C 
ATOM     13  O   UNL     1      45.295 -10.722  13.342  1.00  0.00    -0.289 OA
ATOM     14  C   UNL     1      44.332  -9.101  15.450  1.00  0.00     0.059 A 
ATOM     15  C   UNL     1      43.850  -8.249  16.443  1.00  0.00     0.120 A 
ATOM     16  C   UNL     1      42.789  -7.385  16.161  1.00  0.00     0.093 A 
ATOM     17  C   UNL     1      42.204  -7.362  14.891  1.00  0.00     0.131 A 
ENDROOT
BRANCH   6  18
ATOM     18  O   UNL     1      40.663  -8.631   9.997  1.00  0.00    -0.507 OA
ATOM     19  H   UNL     1      39.912  -8.457  10.650  1.00  0.00     0.293 HD
ENDBRANCH   6  18
BRANCH  17  20
ATOM     20  O   UNL     1      41.089  -6.541  14.710  1.00  0.00    -0.507 OA
ATOM     21  H   UNL     1      40.850  -5.777  15.328  1.00  0.00     0.293 HD
ENDBRANCH  17  20
BRANCH  15  22
ATOM     22  O   UNL     1      44.426  -8.275  17.711  1.00  0.00    -0.508 OA
ATOM     23  H   UNL     1      44.213  -9.012  18.375  1.00  0.00     0.293 HD
ENDBRANCH  15  22
TORSDOF 3
ENDMDL
MODEL 4
REMARK VINA RESULT:    -7.110     16.944     19.613
REMARK INTER + INTRA:          -7.734
REMARK INTER:                  -7.734
REMARK INTRA:                   0.000
REMARK UNBOUND:                 0.000
REMARK SMILES Cc1cc(O)c2c(c1)C(=O)c1cc(O)cc(O)c1C2=O
REMARK SMILES IDX 1 1 2 2 8 3 7 4 6 5 4 6 3 7 19 8 20 9 18 10 11 11 9 12 10 13
REMARK SMILES IDX 12 14 13 15 15 16 16 17 5 18 17 20 14 22
REMARK H PARENT 5 19 17 21 14 23
REMARK Flexibility Score: inf
ROOT
ATOM      1  C   UNL     1      53.466 -23.694   6.577  1.00  0.00     0.044 C 
ATOM      2  C   UNL     1      54.008 -23.449   7.955  1.00  0.00    -0.047 A 
ATOM      3  C   UNL     1      55.229 -24.013   8.341  1.00  0.00     0.016 A 
ATOM      4  C   UNL     1      55.731 -23.813   9.638  1.00  0.00     0.038 A 
ATOM      5  C   UNL     1      54.999 -23.036  10.564  1.00  0.00     0.076 A 
ATOM      6  C   UNL     1      53.724 -22.539  10.193  1.00  0.00     0.127 A 
ATOM      7  C   UNL     1      53.254 -22.733   8.890  1.00  0.00     0.050 A 
ATOM      8  C   UNL     1      55.630 -22.724  11.872  1.00  0.00     0.201 C 
ATOM      9  O   UNL     1      55.345 -21.650  12.465  1.00  0.00    -0.288 OA
ATOM     10  C   UNL     1      56.730 -23.583  12.385  1.00  0.00     0.076 A 
ATOM     11  C   UNL     1      57.458 -24.360  11.457  1.00  0.00     0.041 A 
ATOM     12  C   UNL     1      57.022 -24.421  10.042  1.00  0.00     0.194 C 
ATOM     13  O   UNL     1      57.738 -25.010   9.185  1.00  0.00    -0.289 OA
ATOM     14  C   UNL     1      58.589 -25.078  11.881  1.00  0.00     0.059 A 
ATOM     15  C   UNL     1      58.992 -25.042  13.216  1.00  0.00     0.120 A 
ATOM     16  C   UNL     1      58.253 -24.307  14.145  1.00  0.00     0.093 A 
ATOM     17  C   UNL     1      57.111 -23.600  13.753  1.00  0.00     0.131 A 
ENDROOT
BRANCH   6  18
ATOM     18  O   UNL     1      52.880 -21.882  11.091  1.00  0.00    -0.507 OA
ATOM     19  H   UNL     1      52.046 -21.385  10.812  1.00  0.00     0.293 HD
ENDBRANCH   6  18
BRANCH  17  20
ATOM     20  O   UNL     1      56.371 -22.964  14.752  1.00  0.00    -0.507 OA
ATOM     21  H   UNL     1      55.745 -23.450  15.379  1.00  0.00     0.293 HD
ENDBRANCH  17  20
BRANCH  15  22
ATOM     22  O   UNL     1      60.125 -25.750  13.610  1.00  0.00    -0.508 OA
ATOM     23  H   UNL     1      60.096 -26.751  13.767  1.00  0.00     0.293 HD
ENDBRANCH  15  22
TORSDOF 3
ENDMDL
MODEL 5
REMARK VINA RESULT:    -6.928      3.356      3.563
REMARK INTER + INTRA:          -7.535
REMARK INTER:                  -7.535
REMARK INTRA:                   0.000
REMARK UNBOUND:                 0.000
REMARK SMILES Cc1cc(O)c2c(c1)C(=O)c1cc(O)cc(O)c1C2=O
REMARK SMILES IDX 1 1 2 2 8 3 7 4 6 5 4 6 3 7 19 8 20 9 18 10 11 11 9 12 10 13
REMARK SMILES IDX 12 14 13 15 15 16 16 17 5 18 17 20 14 22
REMARK H PARENT 5 19 17 21 14 23
REMARK Flexibility Score: inf
ROOT
ATOM      1  C   UNL     1      47.453 -10.203   8.979  1.00  0.00     0.044 C 
ATOM      2  C   UNL     1      46.887 -10.117  10.367  1.00  0.00    -0.047 A 
ATOM      3  C   UNL     1      45.664  -9.477  10.589  1.00  0.00     0.016 A 
ATOM      4  C   UNL     1      45.139  -9.366  11.888  1.00  0.00     0.038 A 
ATOM      5  C   UNL     1      45.852  -9.904  12.982  1.00  0.00     0.076 A 
ATOM      6  C   UNL     1      47.132 -10.475  12.760  1.00  0.00     0.127 A 
ATOM      7  C   UNL     1      47.623 -10.593  11.457  1.00  0.00     0.050 A 
ATOM      8  C   UNL     1      45.199  -9.899  14.317  1.00  0.00     0.201 C 
ATOM      9  O   UNL     1      45.470 -10.804  15.150  1.00  0.00    -0.288 OA
ATOM     10  C   UNL     1      44.095  -8.943  14.595  1.00  0.00     0.076 A 
ATOM     11  C   UNL     1      43.386  -8.405  13.498  1.00  0.00     0.041 A 
ATOM     12  C   UNL     1      43.845  -8.679  12.116  1.00  0.00     0.194 C 
ATOM     13  O   UNL     1      43.146  -8.307  11.132  1.00  0.00    -0.289 OA
ATOM     14  C   UNL     1      42.251  -7.607  13.723  1.00  0.00     0.059 A 
ATOM     15  C   UNL     1      41.826  -7.328  15.021  1.00  0.00     0.120 A 
ATOM     16  C   UNL     1      42.547  -7.825  16.110  1.00  0.00     0.093 A 
ATOM     17  C   UNL     1      43.692  -8.604  15.914  1.00  0.00     0.131 A 
ENDROOT
BRANCH   6  18
ATOM     18  O   UNL     1      47.958 -10.903  13.802  1.00  0.00    -0.507 OA
ATOM     19  H   UNL     1      47.943 -10.499  14.728  1.00  0.00     0.293 HD
ENDBRANCH   6  18
BRANCH  17  20
ATOM     20  O   UNL     1      44.412  -8.988  17.046  1.00  0.00    -0.507 OA
ATOM     21  H   UNL     1      45.349  -9.367  17.012  1.00  0.00     0.293 HD
ENDBRANCH  17  20
BRANCH  15  22
ATOM     22  O   UNL     1      40.690  -6.546  15.219  1.00  0.00    -0.508 OA
ATOM     23  H   UNL     1      40.638  -5.870  15.973  1.00  0.00     0.293 HD
ENDBRANCH  15  22
TORSDOF 3
ENDMDL
MODEL 6
REMARK VINA RESULT:    -6.714      2.273      5.786
REMARK INTER + INTRA:          -7.302
REMARK INTER:                  -7.302
REMARK INTRA:                   0.000
REMARK UNBOUND:                 0.000
REMARK SMILES Cc1cc(O)c2c(c1)C(=O)c1cc(O)cc(O)c1C2=O
REMARK SMILES IDX 1 1 2 2 8 3 7 4 6 5 4 6 3 7 19 8 20 9 18 10 11 11 9 12 10 13
REMARK SMILES IDX 12 14 13 15 15 16 16 17 5 18 17 20 14 22
REMARK H PARENT 5 19 17 21 14 23
REMARK Flexibility Score: inf
ROOT
ATOM      1  C   UNL     1      42.895  -5.923  16.677  1.00  0.00     0.044 C 
ATOM      2  C   UNL     1      43.266  -7.030  15.734  1.00  0.00    -0.047 A 
ATOM      3  C   UNL     1      43.031  -6.894  14.362  1.00  0.00     0.016 A 
ATOM      4  C   UNL     1      43.349  -7.936  13.474  1.00  0.00     0.038 A 
ATOM      5  C   UNL     1      43.910  -9.134  13.969  1.00  0.00     0.076 A 
ATOM      6  C   UNL     1      44.066  -9.298  15.369  1.00  0.00     0.127 A 
ATOM      7  C   UNL     1      43.763  -8.240  16.231  1.00  0.00     0.050 A 
ATOM      8  C   UNL     1      44.369 -10.152  12.988  1.00  0.00     0.201 C 
ATOM      9  O   UNL     1      45.333 -10.909  13.276  1.00  0.00    -0.288 OA
ATOM     10  C   UNL     1      43.818 -10.147  11.608  1.00  0.00     0.076 A 
ATOM     11  C   UNL     1      43.255  -8.948  11.117  1.00  0.00     0.041 A 
ATOM     12  C   UNL     1      43.090  -7.786  12.022  1.00  0.00     0.194 C 
ATOM     13  O   UNL     1      42.705  -6.675  11.560  1.00  0.00    -0.289 OA
ATOM     14  C   UNL     1      42.849  -8.864   9.775  1.00  0.00     0.059 A 
ATOM     15  C   UNL     1      42.982  -9.960   8.923  1.00  0.00     0.120 A 
ATOM     16  C   UNL     1      43.501 -11.161   9.414  1.00  0.00     0.093 A 
ATOM     17  C   UNL     1      43.894 -11.277  10.751  1.00  0.00     0.131 A 
ENDROOT
BRANCH   6  18
ATOM     18  O   UNL     1      44.484 -10.500  15.946  1.00  0.00    -0.507 OA
ATOM     19  H   UNL     1      43.935 -11.016  16.619  1.00  0.00     0.293 HD
ENDBRANCH   6  18
BRANCH  17  20
ATOM     20  O   UNL     1      44.317 -12.533  11.192  1.00  0.00    -0.507 OA
ATOM     21  H   UNL     1      45.286 -12.821  11.213  1.00  0.00     0.293 HD
ENDBRANCH  17  20
BRANCH  15  22
ATOM     22  O   UNL     1      42.586  -9.849   7.593  1.00  0.00    -0.508 OA
ATOM     23  H   UNL     1      43.242  -9.983   6.831  1.00  0.00     0.293 HD
ENDBRANCH  15  22
TORSDOF 3
ENDMDL
MODEL 7
REMARK VINA RESULT:    -6.602     17.347     19.812
REMARK INTER + INTRA:          -7.180
REMARK INTER:                  -7.180
REMARK INTRA:                   0.000
REMARK UNBOUND:                 0.000
REMARK SMILES Cc1cc(O)c2c(c1)C(=O)c1cc(O)cc(O)c1C2=O
REMARK SMILES IDX 1 1 2 2 8 3 7 4 6 5 4 6 3 7 19 8 20 9 18 10 11 11 9 12 10 13
REMARK SMILES IDX 12 14 13 15 15 16 16 17 5 18 17 20 14 22
REMARK H PARENT 5 19 17 21 14 23
REMARK Flexibility Score: inf
ROOT
ATOM      1  C   UNL     1      56.459 -18.932   7.648  1.00  0.00     0.044 C 
ATOM      2  C   UNL     1      56.889 -20.171   8.378  1.00  0.00    -0.047 A 
ATOM      3  C   UNL     1      56.358 -20.464   9.639  1.00  0.00     0.016 A 
ATOM      4  C   UNL     1      56.775 -21.606  10.344  1.00  0.00     0.038 A 
ATOM      5  C   UNL     1      57.740 -22.468   9.777  1.00  0.00     0.076 A 
ATOM      6  C   UNL     1      58.336 -22.120   8.538  1.00  0.00     0.127 A 
ATOM      7  C   UNL     1      57.890 -20.990   7.846  1.00  0.00     0.050 A 
ATOM      8  C   UNL     1      58.045 -23.740  10.482  1.00  0.00     0.201 C 
ATOM      9  O   UNL     1      58.404 -24.752   9.823  1.00  0.00    -0.288 OA
ATOM     10  C   UNL     1      57.748 -23.870  11.933  1.00  0.00     0.076 A 
ATOM     11  C   UNL     1      56.784 -23.004  12.497  1.00  0.00     0.041 A 
ATOM     12  C   UNL     1      56.212 -21.905  11.682  1.00  0.00     0.194 C 
ATOM     13  O   UNL     1      55.262 -21.210  12.138  1.00  0.00    -0.289 OA
ATOM     14  C   UNL     1      56.376 -23.185  13.829  1.00  0.00     0.059 A 
ATOM     15  C   UNL     1      56.925 -24.203  14.607  1.00  0.00     0.120 A 
ATOM     16  C   UNL     1      57.907 -25.037  14.067  1.00  0.00     0.093 A 
ATOM     17  C   UNL     1      58.346 -24.865  12.750  1.00  0.00     0.131 A 
ENDROOT
BRANCH   6  18
ATOM     18  O   UNL     1      59.392 -22.843   7.979  1.00  0.00    -0.507 OA
ATOM     19  H   UNL     1      60.152 -22.417   7.468  1.00  0.00     0.293 HD
ENDBRANCH   6  18
BRANCH  17  20
ATOM     20  O   UNL     1      59.394 -25.675  12.308  1.00  0.00    -0.507 OA
ATOM     21  H   UNL     1      59.561 -25.893  11.335  1.00  0.00     0.293 HD
ENDBRANCH  17  20
BRANCH  15  22
ATOM     22  O   UNL     1      56.495 -24.372  15.921  1.00  0.00    -0.508 OA
ATOM     23  H   UNL     1      55.955 -23.658  16.397  1.00  0.00     0.293 HD
ENDBRANCH  15  22
TORSDOF 3
ENDMDL
MODEL 8
REMARK VINA RESULT:    -6.549     15.659     18.139
REMARK INTER + INTRA:          -7.123
REMARK INTER:                  -7.123
REMARK INTRA:                   0.000
REMARK UNBOUND:                 0.000
REMARK SMILES Cc1cc(O)c2c(c1)C(=O)c1cc(O)cc(O)c1C2=O
REMARK SMILES IDX 1 1 2 2 8 3 7 4 6 5 4 6 3 7 19 8 20 9 18 10 11 11 9 12 10 13
REMARK SMILES IDX 12 14 13 15 15 16 16 17 5 18 17 20 14 22
REMARK H PARENT 5 19 17 21 14 23
REMARK Flexibility Score: inf
ROOT
ATOM      1  C   UNL     1      59.951 -24.227   9.484  1.00  0.00     0.044 C 
ATOM      2  C   UNL     1      58.817 -23.687  10.307  1.00  0.00    -0.047 A 
ATOM      3  C   UNL     1      57.511 -23.711   9.807  1.00  0.00     0.016 A 
ATOM      4  C   UNL     1      56.447 -23.182  10.558  1.00  0.00     0.038 A 
ATOM      5  C   UNL     1      56.696 -22.619  11.830  1.00  0.00     0.076 A 
ATOM      6  C   UNL     1      58.033 -22.521  12.293  1.00  0.00     0.127 A 
ATOM      7  C   UNL     1      59.073 -23.073  11.538  1.00  0.00     0.050 A 
ATOM      8  C   UNL     1      55.531 -22.206  12.655  1.00  0.00     0.201 C 
ATOM      9  O   UNL     1      55.607 -22.251  13.912  1.00  0.00    -0.288 OA
ATOM     10  C   UNL     1      54.227 -21.925  12.001  1.00  0.00     0.076 A 
ATOM     11  C   UNL     1      53.982 -22.487  10.729  1.00  0.00     0.041 A 
ATOM     12  C   UNL     1      55.067 -23.205  10.018  1.00  0.00     0.194 C 
ATOM     13  O   UNL     1      54.820 -23.816   8.941  1.00  0.00    -0.289 OA
ATOM     14  C   UNL     1      52.713 -22.358  10.139  1.00  0.00     0.059 A 
ATOM     15  C   UNL     1      51.695 -21.666  10.793  1.00  0.00     0.120 A 
ATOM     16  C   UNL     1      51.943 -21.074  12.034  1.00  0.00     0.093 A 
ATOM     17  C   UNL     1      53.203 -21.170  12.633  1.00  0.00     0.131 A 
ENDROOT
BRANCH   6  18
ATOM     18  O   UNL     1      58.376 -21.857  13.473  1.00  0.00    -0.507 OA
ATOM     19  H   UNL     1      57.751 -21.760  14.261  1.00  0.00     0.293 HD
ENDBRANCH   6  18
BRANCH  17  20
ATOM     20  O   UNL     1      53.403 -20.476  13.828  1.00  0.00    -0.507 OA
ATOM     21  H   UNL     1      53.784 -20.900  14.664  1.00  0.00     0.293 HD
ENDBRANCH  17  20
BRANCH  15  22
ATOM     22  O   UNL     1      50.441 -21.563  10.195  1.00  0.00    -0.508 OA
ATOM     23  H   UNL     1      49.822 -22.363  10.121  1.00  0.00     0.293 HD
ENDBRANCH  15  22
TORSDOF 3
ENDMDL
MODEL 9
REMARK VINA RESULT:    -6.417      2.448      3.998
REMARK INTER + INTRA:          -6.980
REMARK INTER:                  -6.980
REMARK INTRA:                   0.000
REMARK UNBOUND:                 0.000
REMARK SMILES Cc1cc(O)c2c(c1)C(=O)c1cc(O)cc(O)c1C2=O
REMARK SMILES IDX 1 1 2 2 8 3 7 4 6 5 4 6 3 7 19 8 20 9 18 10 11 11 9 12 10 13
REMARK SMILES IDX 12 14 13 15 15 16 16 17 5 18 17 20 14 22
REMARK H PARENT 5 19 17 21 14 23
REMARK Flexibility Score: inf
ROOT
ATOM      1  C   UNL     1      41.773  -7.624   7.392  1.00  0.00     0.044 C 
ATOM      2  C   UNL     1      42.214  -7.817   8.813  1.00  0.00    -0.047 A 
ATOM      3  C   UNL     1      41.820  -8.956   9.524  1.00  0.00     0.016 A 
ATOM      4  C   UNL     1      42.204  -9.132  10.864  1.00  0.00     0.038 A 
ATOM      5  C   UNL     1      42.995  -8.152  11.503  1.00  0.00     0.076 A 
ATOM      6  C   UNL     1      43.320  -6.961  10.804  1.00  0.00     0.127 A 
ATOM      7  C   UNL     1      42.944  -6.818   9.464  1.00  0.00     0.050 A 
ATOM      8  C   UNL     1      43.505  -8.441  12.869  1.00  0.00     0.201 C 
ATOM      9  O   UNL     1      44.601  -7.948  13.246  1.00  0.00    -0.288 OA
ATOM     10  C   UNL     1      42.820  -9.456  13.712  1.00  0.00     0.076 A 
ATOM     11  C   UNL     1      42.027 -10.433  13.070  1.00  0.00     0.041 A 
ATOM     12  C   UNL     1      41.775 -10.338  11.612  1.00  0.00     0.194 C 
ATOM     13  O   UNL     1      41.175 -11.273  11.013  1.00  0.00    -0.289 OA
ATOM     14  C   UNL     1      41.476 -11.487  13.817  1.00  0.00     0.059 A 
ATOM     15  C   UNL     1      41.691 -11.571  15.192  1.00  0.00     0.120 A 
ATOM     16  C   UNL     1      42.441 -10.586  15.838  1.00  0.00     0.093 A 
ATOM     17  C   UNL     1      42.984  -9.514  15.121  1.00  0.00     0.131 A 
ENDROOT
BRANCH   6  18
ATOM     18  O   UNL     1      43.979  -5.887  11.407  1.00  0.00    -0.507 OA
ATOM     19  H   UNL     1      44.704  -5.997  12.101  1.00  0.00     0.293 HD
ENDBRANCH   6  18
BRANCH  17  20
ATOM     20  O   UNL     1      43.643  -8.520  15.847  1.00  0.00    -0.507 OA
ATOM     21  H   UNL     1      43.206  -7.983  16.584  1.00  0.00     0.293 HD
ENDBRANCH  17  20
BRANCH  15  22
ATOM     22  O   UNL     1      41.146 -12.633  15.909  1.00  0.00    -0.508 OA
ATOM     23  H   UNL     1      41.689 -13.139  16.601  1.00  0.00     0.293 HD
ENDBRANCH  15  22
TORSDOF 3
ENDMDL
