MODEL 1
REMARK VINA RESULT:    -4.035      0.000      0.000
REMARK INTER + INTRA:          -6.030
REMARK INTER:                  -5.450
REMARK INTRA:                  -0.580
REMARK UNBOUND:                -0.580
REMARK SMILES CC(=O)CCC=C(C)CCC=C(C)C
REMARK SMILES IDX 7 1 6 2 8 3 9 4 10 5 11 6 13 7 12 8 14 9 5 10 4 11 2 12 3 13
REMARK SMILES IDX 1 14
REMARK H PARENT
REMARK Flexibility Score: inf
ROOT
ATOM      1  C   UNL     1      12.875 -16.577 -13.724  1.00  0.00    -0.077 C 
ATOM      2  C   UNL     1      13.433 -16.181 -14.890  1.00  0.00    -0.028 C 
ATOM      3  C   UNL     1      13.711 -16.967 -12.528  1.00  0.00     0.039 C 
ENDROOT
BRANCH   1   4
ATOM      4  C   UNL     1      11.368 -16.644 -13.617  1.00  0.00     0.034 C 
BRANCH   4   5
ATOM      5  C   UNL     1      10.941 -17.050 -12.202  1.00  0.00     0.032 C 
BRANCH   5   6
ATOM      6  C   UNL     1       9.615 -17.765 -12.227  1.00  0.00    -0.028 C 
ATOM      7  C   UNL     1       8.629 -16.337 -10.421  1.00  0.00     0.039 C 
ATOM      8  C   UNL     1       8.556 -17.434 -11.453  1.00  0.00    -0.080 C 
ATOM      9  C   UNL     1       7.265 -18.201 -11.581  1.00  0.00     0.039 C 
ENDBRANCH   5   6
ENDBRANCH   4   5
ENDBRANCH   1   4
BRANCH   2  10
ATOM     10  C   UNL     1      14.919 -16.129 -15.160  1.00  0.00     0.035 C 
BRANCH  10  11
ATOM     11  C   UNL     1      15.427 -17.444 -15.764  1.00  0.00     0.079 C 
BRANCH  11  12
ATOM     12  C   UNL     1      16.650 -17.956 -15.050  1.00  0.00     0.130 C 
ATOM     13  O   UNL     1      17.177 -18.996 -15.416  1.00  0.00    -0.300 OA
ATOM     14  C   UNL     1      17.242 -17.185 -13.909  1.00  0.00     0.087 C 
ENDBRANCH  11  12
ENDBRANCH  10  11
ENDBRANCH   2  10
TORSDOF 6
ENDMDL
MODEL 2
REMARK VINA RESULT:    -4.026      1.860      3.328
REMARK INTER + INTRA:          -6.018
REMARK INTER:                  -5.529
REMARK INTRA:                  -0.488
REMARK UNBOUND:                -0.580
REMARK SMILES CC(=O)CCC=C(C)CCC=C(C)C
REMARK SMILES IDX 7 1 6 2 8 3 9 4 10 5 11 6 13 7 12 8 14 9 5 10 4 11 2 12 3 13
REMARK SMILES IDX 1 14
REMARK H PARENT
REMARK Flexibility Score: inf
ROOT
ATOM      1  C   UNL     1      10.398 -16.475 -11.941  1.00  0.00    -0.077 C 
ATOM      2  C   UNL     1      11.602 -15.918 -12.204  1.00  0.00    -0.028 C 
ATOM      3  C   UNL     1       9.884 -17.671 -12.707  1.00  0.00     0.039 C 
ENDROOT
BRANCH   1   4
ATOM      4  C   UNL     1       9.534 -15.875 -10.854  1.00  0.00     0.034 C 
BRANCH   4   5
ATOM      5  C   UNL     1       8.285 -16.732 -10.620  1.00  0.00     0.032 C 
BRANCH   5   6
ATOM      6  C   UNL     1       8.008 -16.882  -9.145  1.00  0.00    -0.028 C 
ATOM      7  C   UNL     1       7.483 -19.324  -9.329  1.00  0.00     0.039 C 
ATOM      8  C   UNL     1       7.677 -18.049  -8.547  1.00  0.00    -0.080 C 
ATOM      9  C   UNL     1       7.449 -18.090  -7.058  1.00  0.00     0.039 C 
ENDBRANCH   5   6
ENDBRANCH   4   5
ENDBRANCH   1   4
BRANCH   2  10
ATOM     10  C   UNL     1      12.538 -16.370 -13.301  1.00  0.00     0.035 C 
BRANCH  10  11
ATOM     11  C   UNL     1      13.907 -16.773 -12.741  1.00  0.00     0.079 C 
BRANCH  11  12
ATOM     12  C   UNL     1      14.925 -16.971 -13.833  1.00  0.00     0.130 C 
ATOM     13  O   UNL     1      16.110 -17.070 -13.549  1.00  0.00    -0.300 OA
ATOM     14  C   UNL     1      14.494 -17.074 -15.264  1.00  0.00     0.087 C 
ENDBRANCH  11  12
ENDBRANCH  10  11
ENDBRANCH   2  10
TORSDOF 6
ENDMDL
MODEL 3
REMARK VINA RESULT:    -4.017      2.939      7.215
REMARK INTER + INTRA:          -6.005
REMARK INTER:                  -5.472
REMARK INTRA:                  -0.533
REMARK UNBOUND:                -0.580
REMARK SMILES CC(=O)CCC=C(C)CCC=C(C)C
REMARK SMILES IDX 7 1 6 2 8 3 9 4 10 5 11 6 13 7 12 8 14 9 5 10 4 11 2 12 3 13
REMARK SMILES IDX 1 14
REMARK H PARENT
REMARK Flexibility Score: inf
ROOT
ATOM      1  C   UNL     1      12.328 -16.609 -13.468  1.00  0.00    -0.077 C 
ATOM      2  C   UNL     1      10.990 -16.460 -13.330  1.00  0.00    -0.028 C 
ATOM      3  C   UNL     1      13.210 -17.033 -12.318  1.00  0.00     0.039 C 
ENDROOT
BRANCH   1   4
ATOM      4  C   UNL     1      12.962 -16.328 -14.813  1.00  0.00     0.034 C 
BRANCH   4   5
ATOM      5  C   UNL     1      14.478 -16.154 -14.671  1.00  0.00     0.032 C 
BRANCH   5   6
ATOM      6  C   UNL     1      15.212 -17.283 -15.350  1.00  0.00    -0.028 C 
ATOM      7  C   UNL     1      17.165 -17.165 -13.787  1.00  0.00     0.039 C 
ATOM      8  C   UNL     1      16.407 -17.769 -14.942  1.00  0.00    -0.080 C 
ATOM      9  C   UNL     1      17.038 -18.921 -15.680  1.00  0.00     0.039 C 
ENDBRANCH   5   6
ENDBRANCH   4   5
ENDBRANCH   1   4
BRANCH   2  10
ATOM     10  C   UNL     1      10.233 -16.641 -12.035  1.00  0.00     0.035 C 
BRANCH  10  11
ATOM     11  C   UNL     1       9.399 -17.927 -12.046  1.00  0.00     0.079 C 
BRANCH  11  12
ATOM     12  C   UNL     1       8.169 -17.807 -11.185  1.00  0.00     0.130 C 
ATOM     13  O   UNL     1       7.220 -18.555 -11.372  1.00  0.00    -0.300 OA
ATOM     14  C   UNL     1       8.109 -16.794 -10.083  1.00  0.00     0.087 C 
ENDBRANCH  11  12
ENDBRANCH  10  11
ENDBRANCH   2  10
TORSDOF 6
ENDMDL
MODEL 4
REMARK VINA RESULT:    -4.013      3.960      7.867
REMARK INTER + INTRA:          -6.001
REMARK INTER:                  -5.373
REMARK INTRA:                  -0.627
REMARK UNBOUND:                -0.580
REMARK SMILES CC(=O)CCC=C(C)CCC=C(C)C
REMARK SMILES IDX 7 1 6 2 8 3 9 4 10 5 11 6 13 7 12 8 14 9 5 10 4 11 2 12 3 13
REMARK SMILES IDX 1 14
REMARK H PARENT
REMARK Flexibility Score: inf
ROOT
ATOM      1  C   UNL     1       8.991 -17.255 -11.725  1.00  0.00    -0.077 C 
ATOM      2  C   UNL     1       8.387 -18.370 -11.254  1.00  0.00    -0.028 C 
ATOM      3  C   UNL     1       8.621 -15.875 -11.233  1.00  0.00     0.039 C 
ENDROOT
BRANCH   1   4
ATOM      4  C   UNL     1      10.061 -17.392 -12.785  1.00  0.00     0.034 C 
BRANCH   4   5
ATOM      5  C   UNL     1      10.989 -16.173 -12.779  1.00  0.00     0.032 C 
BRANCH   5   6
ATOM      6  C   UNL     1      12.315 -16.506 -13.415  1.00  0.00    -0.028 C 
ATOM      7  C   UNL     1      13.573 -16.343 -11.254  1.00  0.00     0.039 C 
ATOM      8  C   UNL     1      13.479 -16.617 -12.735  1.00  0.00    -0.080 C 
ATOM      9  C   UNL     1      14.744 -16.984 -13.468  1.00  0.00     0.039 C 
ENDBRANCH   5   6
ENDBRANCH   4   5
ENDBRANCH   1   4
BRANCH   2  10
ATOM     10  C   UNL     1       7.260 -18.379 -10.247  1.00  0.00     0.035 C 
BRANCH  10  11
ATOM     11  C   UNL     1       7.593 -19.263  -9.040  1.00  0.00     0.079 C 
BRANCH  11  12
ATOM     12  C   UNL     1       7.378 -18.540  -7.736  1.00  0.00     0.130 C 
ATOM     13  O   UNL     1       6.999 -19.158  -6.753  1.00  0.00    -0.300 OA
ATOM     14  C   UNL     1       7.651 -17.071  -7.629  1.00  0.00     0.087 C 
ENDBRANCH  11  12
ENDBRANCH  10  11
ENDBRANCH   2  10
TORSDOF 6
ENDMDL
MODEL 5
REMARK VINA RESULT:    -4.008      3.108      7.265
REMARK INTER + INTRA:          -5.994
REMARK INTER:                  -5.284
REMARK INTRA:                  -0.710
REMARK UNBOUND:                -0.580
REMARK SMILES CC(=O)CCC=C(C)CCC=C(C)C
REMARK SMILES IDX 7 1 6 2 8 3 9 4 10 5 11 6 13 7 12 8 14 9 5 10 4 11 2 12 3 13
REMARK SMILES IDX 1 14
REMARK H PARENT
REMARK Flexibility Score: inf
ROOT
ATOM      1  C   UNL     1      11.694 -16.901 -12.887  1.00  0.00    -0.077 C 
ATOM      2  C   UNL     1      10.685 -17.434 -12.160  1.00  0.00    -0.028 C 
ATOM      3  C   UNL     1      11.455 -16.245 -14.227  1.00  0.00     0.039 C 
ENDROOT
BRANCH   1   4
ATOM      4  C   UNL     1      13.105 -16.975 -12.349  1.00  0.00     0.034 C 
BRANCH   4   5
ATOM      5  C   UNL     1      14.052 -16.113 -13.191  1.00  0.00     0.032 C 
BRANCH   5   6
ATOM      6  C   UNL     1      15.305 -16.876 -13.537  1.00  0.00    -0.028 C 
ATOM      7  C   UNL     1      14.642 -17.194 -15.932  1.00  0.00     0.039 C 
ATOM      8  C   UNL     1      15.597 -17.340 -14.774  1.00  0.00    -0.080 C 
ATOM      9  C   UNL     1      16.895 -18.068 -15.015  1.00  0.00     0.039 C 
ENDBRANCH   5   6
ENDBRANCH   4   5
ENDBRANCH   1   4
BRANCH   2  10
ATOM     10  C   UNL     1       9.241 -17.490 -12.602  1.00  0.00     0.035 C 
BRANCH  10  11
ATOM     11  C   UNL     1       8.361 -16.551 -11.769  1.00  0.00     0.079 C 
BRANCH  11  12
ATOM     12  C   UNL     1       8.201 -17.038 -10.353  1.00  0.00     0.130 C 
ATOM     13  O   UNL     1       8.436 -16.285  -9.421  1.00  0.00    -0.300 OA
ATOM     14  C   UNL     1       7.728 -18.433 -10.079  1.00  0.00     0.087 C 
ENDBRANCH  11  12
ENDBRANCH  10  11
ENDBRANCH   2  10
TORSDOF 6
ENDMDL
MODEL 6
REMARK VINA RESULT:    -3.954      1.643      2.983
REMARK INTER + INTRA:          -5.921
REMARK INTER:                  -5.284
REMARK INTRA:                  -0.637
REMARK UNBOUND:                -0.580
REMARK SMILES CC(=O)CCC=C(C)CCC=C(C)C
REMARK SMILES IDX 7 1 6 2 8 3 9 4 10 5 11 6 13 7 12 8 14 9 5 10 4 11 2 12 3 13
REMARK SMILES IDX 1 14
REMARK H PARENT
REMARK Flexibility Score: inf
ROOT
ATOM      1  C   UNL     1      10.423 -16.968 -13.113  1.00  0.00    -0.077 C 
ATOM      2  C   UNL     1      11.440 -16.866 -12.226  1.00  0.00    -0.028 C 
ATOM      3  C   UNL     1      10.499 -16.355 -14.491  1.00  0.00     0.039 C 
ENDROOT
BRANCH   1   4
ATOM      4  C   UNL     1       9.167 -17.707 -12.708  1.00  0.00     0.034 C 
BRANCH   4   5
ATOM      5  C   UNL     1       8.460 -16.984 -11.556  1.00  0.00     0.032 C 
BRANCH   5   6
ATOM      6  C   UNL     1       8.133 -17.944 -10.441  1.00  0.00    -0.028 C 
ATOM      7  C   UNL     1       7.932 -16.132  -8.724  1.00  0.00     0.039 C 
ATOM      8  C   UNL     1       7.862 -17.571  -9.169  1.00  0.00    -0.080 C 
ATOM      9  C   UNL     1       7.518 -18.616  -8.139  1.00  0.00     0.039 C 
ENDBRANCH   5   6
ENDBRANCH   4   5
ENDBRANCH   1   4
BRANCH   2  10
ATOM     10  C   UNL     1      12.722 -16.104 -12.470  1.00  0.00     0.035 C 
BRANCH  10  11
ATOM     11  C   UNL     1      13.947 -17.021 -12.374  1.00  0.00     0.079 C 
BRANCH  11  12
ATOM     12  C   UNL     1      14.796 -16.956 -13.616  1.00  0.00     0.130 C 
ATOM     13  O   UNL     1      16.013 -17.025 -13.525  1.00  0.00    -0.300 OA
ATOM     14  C   UNL     1      14.159 -16.834 -14.966  1.00  0.00     0.087 C 
ENDBRANCH  11  12
ENDBRANCH  10  11
ENDBRANCH   2  10
TORSDOF 6
ENDMDL
MODEL 7
REMARK VINA RESULT:    -3.946      3.358      7.666
REMARK INTER + INTRA:          -5.910
REMARK INTER:                  -5.432
REMARK INTRA:                  -0.477
REMARK UNBOUND:                -0.580
REMARK SMILES CC(=O)CCC=C(C)CCC=C(C)C
REMARK SMILES IDX 7 1 6 2 8 3 9 4 10 5 11 6 13 7 12 8 14 9 5 10 4 11 2 12 3 13
REMARK SMILES IDX 1 14
REMARK H PARENT
REMARK Flexibility Score: inf
ROOT
ATOM      1  C   UNL     1      10.278 -16.575 -11.768  1.00  0.00    -0.077 C 
ATOM      2  C   UNL     1       9.448 -15.888 -10.949  1.00  0.00    -0.028 C 
ATOM      3  C   UNL     1       9.847 -17.846 -12.461  1.00  0.00     0.039 C 
ENDROOT
BRANCH   1   4
ATOM      4  C   UNL     1      11.683 -16.061 -11.987  1.00  0.00     0.034 C 
BRANCH   4   5
ATOM      5  C   UNL     1      12.368 -16.824 -13.127  1.00  0.00     0.032 C 
BRANCH   5   6
ATOM      6  C   UNL     1      13.859 -16.880 -12.914  1.00  0.00    -0.028 C 
ATOM      7  C   UNL     1      14.368 -16.953 -15.365  1.00  0.00     0.039 C 
ATOM      8  C   UNL     1      14.771 -16.906 -13.913  1.00  0.00    -0.080 C 
ATOM      9  C   UNL     1      16.242 -16.933 -13.585  1.00  0.00     0.039 C 
ENDBRANCH   5   6
ENDBRANCH   4   5
ENDBRANCH   1   4
BRANCH   2  10
ATOM     10  C   UNL     1       8.045 -16.317 -10.588  1.00  0.00     0.035 C 
BRANCH  10  11
ATOM     11  C   UNL     1       7.904 -16.566  -9.082  1.00  0.00     0.079 C 
BRANCH  11  12
ATOM     12  C   UNL     1       7.706 -18.026  -8.769  1.00  0.00     0.130 C 
ATOM     13  O   UNL     1       7.599 -18.833  -9.679  1.00  0.00    -0.300 OA
ATOM     14  C   UNL     1       7.668 -18.500  -7.348  1.00  0.00     0.087 C 
ENDBRANCH  11  12
ENDBRANCH  10  11
ENDBRANCH   2  10
TORSDOF 6
ENDMDL
MODEL 8
REMARK VINA RESULT:    -3.796      2.373      4.337
REMARK INTER + INTRA:          -5.707
REMARK INTER:                  -5.182
REMARK INTRA:                  -0.525
REMARK UNBOUND:                -0.580
REMARK SMILES CC(=O)CCC=C(C)CCC=C(C)C
REMARK SMILES IDX 7 1 6 2 8 3 9 4 10 5 11 6 13 7 12 8 14 9 5 10 4 11 2 12 3 13
REMARK SMILES IDX 1 14
REMARK H PARENT
REMARK Flexibility Score: inf
ROOT
ATOM      1  C   UNL     1       8.655 -16.415 -12.063  1.00  0.00    -0.077 C 
ATOM      2  C   UNL     1       9.950 -16.041 -11.956  1.00  0.00    -0.028 C 
ATOM      3  C   UNL     1       8.136 -17.171 -13.264  1.00  0.00     0.039 C 
ENDROOT
BRANCH   1   4
ATOM      4  C   UNL     1       7.693 -16.053 -10.954  1.00  0.00     0.034 C 
BRANCH   4   5
ATOM      5  C   UNL     1       8.362 -16.208  -9.584  1.00  0.00     0.032 C 
BRANCH   5   6
ATOM      6  C   UNL     1       7.944 -17.499  -8.927  1.00  0.00    -0.028 C 
ATOM      7  C   UNL     1       7.512 -16.416  -6.709  1.00  0.00     0.039 C 
ATOM      8  C   UNL     1       7.529 -17.600  -7.643  1.00  0.00    -0.080 C 
ATOM      9  C   UNL     1       7.106 -18.939  -7.096  1.00  0.00     0.039 C 
ENDBRANCH   5   6
ENDBRANCH   4   5
ENDBRANCH   1   4
BRANCH   2  10
ATOM     10  C   UNL     1      11.004 -16.276 -13.013  1.00  0.00     0.035 C 
BRANCH  10  11
ATOM     11  C   UNL     1      12.254 -16.941 -12.424  1.00  0.00     0.079 C 
BRANCH  11  12
ATOM     12  C   UNL     1      13.434 -16.846 -13.354  1.00  0.00     0.130 C 
ATOM     13  O   UNL     1      14.563 -17.028 -12.924  1.00  0.00    -0.300 OA
ATOM     14  C   UNL     1      13.233 -16.554 -14.809  1.00  0.00     0.087 C 
ENDBRANCH  11  12
ENDBRANCH  10  11
ENDBRANCH   2  10
TORSDOF 6
ENDMDL
MODEL 9
REMARK VINA RESULT:    -3.792      1.338      2.037
REMARK INTER + INTRA:          -5.702
REMARK INTER:                  -5.304
REMARK INTRA:                  -0.398
REMARK UNBOUND:                -0.580
REMARK SMILES CC(=O)CCC=C(C)CCC=C(C)C
REMARK SMILES IDX 7 1 6 2 8 3 9 4 10 5 11 6 13 7 12 8 14 9 5 10 4 11 2 12 3 13
REMARK SMILES IDX 1 14
REMARK H PARENT
REMARK Flexibility Score: inf
ROOT
ATOM      1  C   UNL     1      12.318 -16.501 -13.155  1.00  0.00    -0.077 C 
ATOM      2  C   UNL     1      13.636 -16.787 -13.050  1.00  0.00    -0.028 C 
ATOM      3  C   UNL     1      11.635 -16.352 -14.494  1.00  0.00     0.039 C 
ENDROOT
BRANCH   1   4
ATOM      4  C   UNL     1      11.506 -16.310 -11.894  1.00  0.00     0.034 C 
BRANCH   4   5
ATOM      5  C   UNL     1      10.007 -16.413 -12.193  1.00  0.00     0.032 C 
BRANCH   5   6
ATOM      6  C   UNL     1       9.192 -16.032 -10.984  1.00  0.00    -0.028 C 
ATOM      7  C   UNL     1       7.881 -18.167 -10.996  1.00  0.00     0.039 C 
ATOM      8  C   UNL     1       8.254 -16.826 -10.416  1.00  0.00    -0.080 C 
ATOM      9  C   UNL     1       7.517 -16.355  -9.189  1.00  0.00     0.039 C 
ENDBRANCH   5   6
ENDBRANCH   4   5
ENDBRANCH   1   4
BRANCH   2  10
ATOM     10  C   UNL     1      14.580 -16.938 -14.220  1.00  0.00     0.035 C 
BRANCH  10  11
ATOM     11  C   UNL     1      15.885 -16.165 -13.994  1.00  0.00     0.079 C 
BRANCH  11  12
ATOM     12  C   UNL     1      17.083 -17.077 -13.969  1.00  0.00     0.130 C 
ATOM     13  O   UNL     1      17.949 -16.920 -13.122  1.00  0.00    -0.300 OA
ATOM     14  C   UNL     1      17.208 -18.194 -14.959  1.00  0.00     0.087 C 
ENDBRANCH  11  12
ENDBRANCH  10  11
ENDBRANCH   2  10
TORSDOF 6
ENDMDL
