MODEL 1
REMARK VINA RESULT:    -5.898      0.000      0.000
REMARK INTER + INTRA:          -8.937
REMARK INTER:                  -7.966
REMARK INTRA:                  -0.971
REMARK UNBOUND:                -0.971
REMARK SMILES CC(=O)CCC=C(C)CCC=C(C)C
REMARK SMILES IDX 7 1 6 2 8 3 9 4 10 5 11 6 13 7 12 8 14 9 5 10 4 11 2 12 3 13
REMARK SMILES IDX 1 14
REMARK H PARENT
REMARK Flexibility Score: inf
ROOT
ATOM      1  C   UNL     1      -8.665  31.038  44.042  1.00  0.00    -0.077 C 
ATOM      2  C   UNL     1      -8.937  30.169  43.041  1.00  0.00    -0.028 C 
ATOM      3  C   UNL     1      -7.484  30.850  44.965  1.00  0.00     0.039 C 
ENDROOT
BRANCH   1   4
ATOM      4  C   UNL     1      -9.598  32.207  44.281  1.00  0.00     0.034 C 
BRANCH   4   5
ATOM      5  C   UNL     1      -9.076  33.494  43.630  1.00  0.00     0.032 C 
BRANCH   5   6
ATOM      6  C   UNL     1      -9.113  33.403  42.122  1.00  0.00    -0.028 C 
ATOM      7  C   UNL     1      -6.635  33.676  41.861  1.00  0.00     0.039 C 
ATOM      8  C   UNL     1      -8.033  33.508  41.315  1.00  0.00    -0.080 C 
ATOM      9  C   UNL     1      -8.246  33.461  39.824  1.00  0.00     0.039 C 
ENDBRANCH   5   6
ENDBRANCH   4   5
ENDBRANCH   1   4
BRANCH   2  10
ATOM     10  C   UNL     1      -8.092  28.967  42.702  1.00  0.00     0.035 C 
BRANCH  10  11
ATOM     11  C   UNL     1      -7.397  29.153  41.349  1.00  0.00     0.079 C 
BRANCH  11  12
ATOM     12  C   UNL     1      -8.383  29.009  40.221  1.00  0.00     0.130 C 
ATOM     13  O   UNL     1      -8.497  29.907  39.403  1.00  0.00    -0.300 OA
ATOM     14  C   UNL     1      -9.226  27.776  40.074  1.00  0.00     0.087 C 
ENDBRANCH  11  12
ENDBRANCH  10  11
ENDBRANCH   2  10
TORSDOF 6
ENDMDL
MODEL 2
REMARK VINA RESULT:    -5.743      1.731      3.723
REMARK INTER + INTRA:          -8.729
REMARK INTER:                  -8.222
REMARK INTRA:                  -0.506
REMARK UNBOUND:                -0.971
REMARK SMILES CC(=O)CCC=C(C)CCC=C(C)C
REMARK SMILES IDX 7 1 6 2 8 3 9 4 10 5 11 6 13 7 12 8 14 9 5 10 4 11 2 12 3 13
REMARK SMILES IDX 1 14
REMARK H PARENT
REMARK Flexibility Score: inf
ROOT
ATOM      1  C   UNL     1      -8.565  30.497  39.846  1.00  0.00    -0.077 C 
ATOM      2  C   UNL     1      -8.174  30.414  41.139  1.00  0.00    -0.028 C 
ATOM      3  C   UNL     1      -8.311  29.380  38.861  1.00  0.00     0.039 C 
ENDROOT
BRANCH   1   4
ATOM      4  C   UNL     1      -9.234  31.764  39.354  1.00  0.00     0.034 C 
BRANCH   4   5
ATOM      5  C   UNL     1      -8.317  32.985  39.504  1.00  0.00     0.032 C 
BRANCH   5   6
ATOM      6  C   UNL     1      -8.821  33.926  40.573  1.00  0.00    -0.028 C 
ATOM      7  C   UNL     1      -6.798  33.652  42.028  1.00  0.00     0.039 C 
ATOM      8  C   UNL     1      -8.165  34.215  41.720  1.00  0.00    -0.080 C 
ATOM      9  C   UNL     1      -8.834  35.125  42.717  1.00  0.00     0.039 C 
ENDBRANCH   5   6
ENDBRANCH   4   5
ENDBRANCH   1   4
BRANCH   2  10
ATOM     10  C   UNL     1      -7.497  29.213  41.750  1.00  0.00     0.035 C 
BRANCH  10  11
ATOM     11  C   UNL     1      -8.141  28.848  43.091  1.00  0.00     0.079 C 
BRANCH  11  12
ATOM     12  C   UNL     1      -8.451  30.089  43.886  1.00  0.00     0.130 C 
ATOM     13  O   UNL     1      -9.530  30.642  43.742  1.00  0.00    -0.300 OA
ATOM     14  C   UNL     1      -7.464  30.658  44.862  1.00  0.00     0.087 C 
ENDBRANCH  11  12
ENDBRANCH  10  11
ENDBRANCH   2  10
TORSDOF 6
ENDMDL
MODEL 3
REMARK VINA RESULT:    -5.692      1.726      3.087
REMARK INTER + INTRA:          -8.659
REMARK INTER:                  -7.749
REMARK INTRA:                  -0.909
REMARK UNBOUND:                -0.971
REMARK SMILES CC(=O)CCC=C(C)CCC=C(C)C
REMARK SMILES IDX 7 1 6 2 8 3 9 4 10 5 11 6 13 7 12 8 14 9 5 10 4 11 2 12 3 13
REMARK SMILES IDX 1 14
REMARK H PARENT
REMARK Flexibility Score: inf
ROOT
ATOM      1  C   UNL     1      -8.180  33.792  42.614  1.00  0.00    -0.077 C 
ATOM      2  C   UNL     1      -8.694  32.828  43.412  1.00  0.00    -0.028 C 
ATOM      3  C   UNL     1      -6.773  33.715  42.071  1.00  0.00     0.039 C 
ENDROOT
BRANCH   1   4
ATOM      4  C   UNL     1      -9.019  35.012  42.293  1.00  0.00     0.034 C 
BRANCH   4   5
ATOM      5  C   UNL     1      -9.395  35.069  40.807  1.00  0.00     0.032 C 
BRANCH   5   6
ATOM      6  C   UNL     1      -9.801  33.709  40.288  1.00  0.00    -0.028 C 
ATOM      7  C   UNL     1      -7.984  33.619  38.565  1.00  0.00     0.039 C 
ATOM      8  C   UNL     1      -9.196  33.058  39.269  1.00  0.00    -0.080 C 
ATOM      9  C   UNL     1      -9.764  31.734  38.827  1.00  0.00     0.039 C 
ENDBRANCH   5   6
ENDBRANCH   4   5
ENDBRANCH   1   4
BRANCH   2  10
ATOM     10  C   UNL     1      -7.962  31.570  43.808  1.00  0.00     0.035 C 
BRANCH  10  11
ATOM     11  C   UNL     1      -8.813  30.330  43.520  1.00  0.00     0.079 C 
BRANCH  11  12
ATOM     12  C   UNL     1      -8.015  29.302  42.762  1.00  0.00     0.130 C 
ATOM     13  O   UNL     1      -7.507  28.371  43.366  1.00  0.00    -0.300 OA
ATOM     14  C   UNL     1      -7.838  29.393  41.275  1.00  0.00     0.087 C 
ENDBRANCH  11  12
ENDBRANCH  10  11
ENDBRANCH   2  10
TORSDOF 6
ENDMDL
MODEL 4
REMARK VINA RESULT:    -5.673      1.649      3.446
REMARK INTER + INTRA:          -8.633
REMARK INTER:                  -7.432
REMARK INTRA:                  -1.201
REMARK UNBOUND:                -0.971
REMARK SMILES CC(=O)CCC=C(C)CCC=C(C)C
REMARK SMILES IDX 7 1 6 2 8 3 9 4 10 5 11 6 13 7 12 8 14 9 5 10 4 11 2 12 3 13
REMARK SMILES IDX 1 14
REMARK H PARENT
REMARK Flexibility Score: inf
ROOT
ATOM      1  C   UNL     1      -8.637  30.118  41.763  1.00  0.00    -0.077 C 
ATOM      2  C   UNL     1      -9.355  30.748  40.804  1.00  0.00    -0.028 C 
ATOM      3  C   UNL     1      -7.478  29.209  41.427  1.00  0.00     0.039 C 
ENDROOT
BRANCH   1   4
ATOM      4  C   UNL     1      -9.036  30.284  43.215  1.00  0.00     0.034 C 
BRANCH   4   5
ATOM      5  C   UNL     1      -8.197  31.360  43.915  1.00  0.00     0.032 C 
BRANCH   5   6
ATOM      6  C   UNL     1      -8.800  32.734  43.735  1.00  0.00    -0.028 C 
ATOM      7  C   UNL     1      -7.056  33.488  42.102  1.00  0.00     0.039 C 
ATOM      8  C   UNL     1      -8.288  33.706  42.948  1.00  0.00    -0.080 C 
ATOM      9  C   UNL     1      -8.974  35.047  42.927  1.00  0.00     0.039 C 
ENDBRANCH   5   6
ENDBRANCH   4   5
ENDBRANCH   1   4
BRANCH   2  10
ATOM     10  C   UNL     1      -9.064  30.662  39.327  1.00  0.00     0.035 C 
BRANCH  10  11
ATOM     11  C   UNL     1      -9.730  31.816  38.572  1.00  0.00     0.079 C 
BRANCH  11  12
ATOM     12  C   UNL     1      -8.863  33.046  38.610  1.00  0.00     0.130 C 
ATOM     13  O   UNL     1      -7.743  33.009  38.123  1.00  0.00    -0.300 OA
ATOM     14  C   UNL     1      -9.348  34.325  39.227  1.00  0.00     0.087 C 
ENDBRANCH  11  12
ENDBRANCH  10  11
ENDBRANCH   2  10
TORSDOF 6
ENDMDL
MODEL 5
REMARK VINA RESULT:    -5.648      1.280      4.490
REMARK INTER + INTRA:          -8.600
REMARK INTER:                  -7.829
REMARK INTRA:                  -0.771
REMARK UNBOUND:                -0.971
REMARK SMILES CC(=O)CCC=C(C)CCC=C(C)C
REMARK SMILES IDX 7 1 6 2 8 3 9 4 10 5 11 6 13 7 12 8 14 9 5 10 4 11 2 12 3 13
REMARK SMILES IDX 1 14
REMARK H PARENT
REMARK Flexibility Score: inf
ROOT
ATOM      1  C   UNL     1      -8.571  31.055  43.533  1.00  0.00    -0.077 C 
ATOM      2  C   UNL     1      -7.826  32.179  43.422  1.00  0.00    -0.028 C 
ATOM      3  C   UNL     1     -10.070  31.069  43.347  1.00  0.00     0.039 C 
ENDROOT
BRANCH   1   4
ATOM      4  C   UNL     1      -7.895  29.752  43.904  1.00  0.00     0.034 C 
BRANCH   4   5
ATOM      5  C   UNL     1      -8.126  28.669  42.842  1.00  0.00     0.032 C 
BRANCH   5   6
ATOM      6  C   UNL     1      -7.858  29.195  41.451  1.00  0.00    -0.028 C 
ATOM      7  C   UNL     1      -9.421  27.581  40.340  1.00  0.00     0.039 C 
ATOM      8  C   UNL     1      -8.410  28.702  40.319  1.00  0.00    -0.080 C 
ATOM      9  C   UNL     1      -7.989  29.296  39.000  1.00  0.00     0.039 C 
ENDBRANCH   5   6
ENDBRANCH   4   5
ENDBRANCH   1   4
BRANCH   2  10
ATOM     10  C   UNL     1      -8.377  33.536  43.063  1.00  0.00     0.035 C 
BRANCH  10  11
ATOM     11  C   UNL     1      -7.839  34.001  41.706  1.00  0.00     0.079 C 
BRANCH  11  12
ATOM     12  C   UNL     1      -8.823  33.691  40.610  1.00  0.00     0.130 C 
ATOM     13  O   UNL     1      -8.958  32.538  40.232  1.00  0.00    -0.300 OA
ATOM     14  C   UNL     1      -9.651  34.769  39.976  1.00  0.00     0.087 C 
ENDBRANCH  11  12
ENDBRANCH  10  11
ENDBRANCH   2  10
TORSDOF 6
ENDMDL
MODEL 6
REMARK VINA RESULT:    -5.623      1.292      3.723
REMARK INTER + INTRA:          -8.566
REMARK INTER:                  -7.548
REMARK INTRA:                  -1.018
REMARK UNBOUND:                -0.971
REMARK SMILES CC(=O)CCC=C(C)CCC=C(C)C
REMARK SMILES IDX 7 1 6 2 8 3 9 4 10 5 11 6 13 7 12 8 14 9 5 10 4 11 2 12 3 13
REMARK SMILES IDX 1 14
REMARK H PARENT
REMARK Flexibility Score: inf
ROOT
ATOM      1  C   UNL     1      -8.367  33.201  41.962  1.00  0.00    -0.077 C 
ATOM      2  C   UNL     1      -9.394  33.180  41.081  1.00  0.00    -0.028 C 
ATOM      3  C   UNL     1      -6.926  33.195  41.510  1.00  0.00     0.039 C 
ENDROOT
BRANCH   1   4
ATOM      4  C   UNL     1      -8.666  33.177  43.447  1.00  0.00     0.034 C 
BRANCH   4   5
ATOM      5  C   UNL     1      -9.589  32.011  43.823  1.00  0.00     0.032 C 
BRANCH   5   6
ATOM      6  C   UNL     1      -9.073  30.701  43.273  1.00  0.00    -0.028 C 
ATOM      7  C   UNL     1      -7.540  30.279  45.209  1.00  0.00     0.039 C 
ATOM      8  C   UNL     1      -8.138  29.927  43.869  1.00  0.00    -0.080 C 
ATOM      9  C   UNL     1      -7.683  28.679  43.158  1.00  0.00     0.039 C 
ENDBRANCH   5   6
ENDBRANCH   4   5
ENDBRANCH   1   4
BRANCH   2  10
ATOM     10  C   UNL     1      -9.232  33.197  39.581  1.00  0.00     0.035 C 
BRANCH  10  11
ATOM     11  C   UNL     1      -9.784  31.912  38.959  1.00  0.00     0.079 C 
BRANCH  11  12
ATOM     12  C   UNL     1      -8.676  30.923  38.710  1.00  0.00     0.130 C 
ATOM     13  O   UNL     1      -7.959  31.057  37.730  1.00  0.00    -0.300 OA
ATOM     14  C   UNL     1      -8.425  29.780  39.648  1.00  0.00     0.087 C 
ENDBRANCH  11  12
ENDBRANCH  10  11
ENDBRANCH   2  10
TORSDOF 6
ENDMDL
MODEL 7
REMARK VINA RESULT:    -5.515      1.956      5.477
REMARK INTER + INTRA:          -8.420
REMARK INTER:                  -7.412
REMARK INTRA:                  -1.008
REMARK UNBOUND:                -0.971
REMARK SMILES CC(=O)CCC=C(C)CCC=C(C)C
REMARK SMILES IDX 7 1 6 2 8 3 9 4 10 5 11 6 13 7 12 8 14 9 5 10 4 11 2 12 3 13
REMARK SMILES IDX 1 14
REMARK H PARENT
REMARK Flexibility Score: inf
ROOT
ATOM      1  C   UNL     1      -9.114  33.005  39.358  1.00  0.00    -0.077 C 
ATOM      2  C   UNL     1      -9.711  33.605  40.414  1.00  0.00    -0.028 C 
ATOM      3  C   UNL     1      -7.890  33.589  38.693  1.00  0.00     0.039 C 
ENDROOT
BRANCH   1   4
ATOM      4  C   UNL     1      -9.717  31.738  38.789  1.00  0.00     0.034 C 
BRANCH   4   5
ATOM      5  C   UNL     1      -8.718  30.574  38.810  1.00  0.00     0.032 C 
BRANCH   5   6
ATOM      6  C   UNL     1      -8.336  30.200  40.224  1.00  0.00    -0.028 C 
ATOM      7  C   UNL     1      -9.152  27.840  40.017  1.00  0.00     0.039 C 
ATOM      8  C   UNL     1      -8.546  28.989  40.786  1.00  0.00    -0.080 C 
ATOM      9  C   UNL     1      -8.165  28.795  42.231  1.00  0.00     0.039 C 
ENDBRANCH   5   6
ENDBRANCH   4   5
ENDBRANCH   1   4
BRANCH   2  10
ATOM     10  C   UNL     1      -9.213  34.869  41.069  1.00  0.00     0.035 C 
BRANCH  10  11
ATOM     11  C   UNL     1      -8.805  34.606  42.522  1.00  0.00     0.079 C 
BRANCH  11  12
ATOM     12  C   UNL     1      -7.670  33.618  42.584  1.00  0.00     0.130 C 
ATOM     13  O   UNL     1      -6.616  33.877  42.025  1.00  0.00    -0.300 OA
ATOM     14  C   UNL     1      -7.804  32.322  43.328  1.00  0.00     0.087 C 
ENDBRANCH  11  12
ENDBRANCH  10  11
ENDBRANCH   2  10
TORSDOF 6
ENDMDL
MODEL 8
REMARK VINA RESULT:    -5.403      2.310      4.574
REMARK INTER + INTRA:          -8.269
REMARK INTER:                  -7.622
REMARK INTRA:                  -0.647
REMARK UNBOUND:                -0.971
REMARK SMILES CC(=O)CCC=C(C)CCC=C(C)C
REMARK SMILES IDX 7 1 6 2 8 3 9 4 10 5 11 6 13 7 12 8 14 9 5 10 4 11 2 12 3 13
REMARK SMILES IDX 1 14
REMARK H PARENT
REMARK Flexibility Score: inf
ROOT
ATOM      1  C   UNL     1      -7.865  29.530  42.239  1.00  0.00    -0.077 C 
ATOM      2  C   UNL     1      -7.901  30.883  42.266  1.00  0.00    -0.028 C 
ATOM      3  C   UNL     1      -7.859  28.705  43.504  1.00  0.00     0.039 C 
ENDROOT
BRANCH   1   4
ATOM      4  C   UNL     1      -7.778  28.819  40.904  1.00  0.00     0.034 C 
BRANCH   4   5
ATOM      5  C   UNL     1      -9.013  29.087  40.035  1.00  0.00     0.032 C 
BRANCH   5   6
ATOM      6  C   UNL     1      -8.647  29.835  38.773  1.00  0.00    -0.028 C 
ATOM      7  C   UNL     1      -9.855  31.926  39.442  1.00  0.00     0.039 C 
ATOM      8  C   UNL     1      -9.038  31.096  38.482  1.00  0.00    -0.080 C 
ATOM      9  C   UNL     1      -8.643  31.678  37.149  1.00  0.00     0.039 C 
ENDBRANCH   5   6
ENDBRANCH   4   5
ENDBRANCH   1   4
BRANCH   2  10
ATOM     10  C   UNL     1      -7.985  31.708  43.526  1.00  0.00     0.035 C 
BRANCH  10  11
ATOM     11  C   UNL     1      -9.055  32.795  43.395  1.00  0.00     0.079 C 
BRANCH  11  12
ATOM     12  C   UNL     1      -8.454  34.073  42.871  1.00  0.00     0.130 C 
ATOM     13  O   UNL     1      -9.060  35.124  43.009  1.00  0.00    -0.300 OA
ATOM     14  C   UNL     1      -7.117  34.084  42.190  1.00  0.00     0.087 C 
ENDBRANCH  11  12
ENDBRANCH  10  11
ENDBRANCH   2  10
TORSDOF 6
ENDMDL
