MODEL 1
REMARK VINA RESULT:    -5.705      0.000      0.000
REMARK INTER + INTRA:          -6.431
REMARK INTER:                  -6.205
REMARK INTRA:                  -0.226
REMARK UNBOUND:                -0.226
REMARK SMILES C[C@@H]1[C@H](C)CC[C@]2(C(=O)[O-])CC[C@]3(C)C(=CC[C@H]4[C@]5(C)CC[C@@H](O)C(C)(C)[C@@H]5CC[C@]43C)[C@H]12
REMARK SMILES IDX 7 1 6 2 11 3 33 4 5 5 12 6 15 7 2 8 3 9 13 10 16 11 1 12
REMARK SMILES IDX 4 13 14 14 31 15 17 16 18 17 30 18 32 19 19 20 29 21 28 22
REMARK SMILES IDX 21 23 20 24 25 25 22 26 23 27 26 28 27 29 8 30 9 31 10 32
REMARK SMILES IDX 24 33
REMARK H PARENT 24 34
REMARK Flexibility Score: inf
ROOT
ATOM      1  C   UNL     1      68.285  49.734  37.748  1.00  0.00     0.017 C 
ATOM      2  C   UNL     1      69.174  50.276  38.921  1.00  0.00     0.014 C 
ATOM      3  C   UNL     1      68.685  50.524  36.441  1.00  0.00     0.014 C 
ATOM      4  C   UNL     1      66.723  49.814  38.108  1.00  0.00     0.030 C 
ATOM      5  C   UNL     1      68.795  49.707  40.283  1.00  0.00     0.004 C 
ATOM      6  C   UNL     1      67.560  51.197  35.626  1.00  0.00     0.013 C 
ATOM      7  C   UNL     1      65.841  50.765  37.247  1.00  0.00    -0.063 C 
ATOM      8  C   UNL     1      66.337  49.710  39.648  1.00  0.00    -0.003 C 
ATOM      9  C   UNL     1      67.399  50.172  40.691  1.00  0.00    -0.011 C 
ATOM     10  C   UNL     1      66.460  51.928  36.472  1.00  0.00    -0.006 C 
ATOM     11  C   UNL     1      64.647  50.268  36.866  1.00  0.00    -0.027 C 
ATOM     12  C   UNL     1      64.933  50.237  40.008  1.00  0.00     0.008 C 
ATOM     13  C   UNL     1      67.361  51.675  41.048  1.00  0.00     0.008 C 
ATOM     14  C   UNL     1      67.085  52.932  37.489  1.00  0.00     0.017 C 
ATOM     15  C   UNL     1      65.417  52.753  35.526  1.00  0.00    -0.020 C 
ATOM     16  C   UNL     1      63.740  50.857  35.847  1.00  0.00     0.032 C 
ATOM     17  C   UNL     1      64.416  51.781  34.783  1.00  0.00     0.006 C 
ATOM     18  C   UNL     1      64.525  53.732  36.353  1.00  0.00     0.008 C 
ATOM     19  C   UNL     1      66.286  53.593  34.522  1.00  0.00     0.012 C 
ATOM     20  C   UNL     1      63.269  52.464  33.872  1.00  0.00    -0.025 C 
ATOM     21  C   UNL     1      63.457  54.471  35.523  1.00  0.00     0.005 C 
ATOM     22  C   UNL     1      62.485  53.577  34.693  1.00  0.00     0.003 C 
ATOM     23  C   UNL     1      63.845  53.073  32.550  1.00  0.00     0.010 C 
ATOM     24  C   UNL     1      62.300  51.311  33.425  1.00  0.00     0.012 C 
ATOM     25  C   UNL     1      61.475  54.465  33.825  1.00  0.00    -0.006 C 
ATOM     26  C   UNL     1      62.824  53.849  31.710  1.00  0.00     0.033 C 
ATOM     27  C   UNL     1      62.164  54.975  32.518  1.00  0.00     0.120 C 
ATOM     28  C   UNL     1      60.173  53.674  33.492  1.00  0.00     0.014 C 
ATOM     29  C   UNL     1      60.996  55.718  34.620  1.00  0.00     0.014 C 
ENDROOT
BRANCH   1  30
ATOM     30  C   UNL     1      68.702  48.264  37.505  1.00  0.00     0.048 C 
ATOM     31  O   UNL     1      67.857  47.331  37.584  1.00  0.00    -0.550 OA
ATOM     32  O   UNL     1      70.035  47.914  37.328  1.00  0.00    -0.550 OA
ENDBRANCH   1  30
BRANCH  27  33
ATOM     33  O   UNL     1      61.220  55.624  31.695  1.00  0.00    -0.393 OA
ATOM     34  H   UNL     1      60.436  55.851  32.259  1.00  0.00     0.210 HD
ENDBRANCH  27  33
TORSDOF 2
ENDMDL
MODEL 2
REMARK VINA RESULT:    -5.690      1.544      8.435
REMARK INTER + INTRA:          -6.415
REMARK INTER:                  -6.180
REMARK INTRA:                  -0.235
REMARK UNBOUND:                -0.226
REMARK SMILES C[C@@H]1[C@H](C)CC[C@]2(C(=O)[O-])CC[C@]3(C)C(=CC[C@H]4[C@]5(C)CC[C@@H](O)C(C)(C)[C@@H]5CC[C@]43C)[C@H]12
REMARK SMILES IDX 7 1 6 2 11 3 33 4 5 5 12 6 15 7 2 8 3 9 13 10 16 11 1 12
REMARK SMILES IDX 4 13 14 14 31 15 17 16 18 17 30 18 32 19 19 20 29 21 28 22
REMARK SMILES IDX 21 23 20 24 25 25 22 26 23 27 26 28 27 29 8 30 9 31 10 32
REMARK SMILES IDX 24 33
REMARK H PARENT 24 34
REMARK Flexibility Score: inf
ROOT
ATOM      1  C   UNL     1      61.312  54.813  33.497  1.00  0.00     0.017 C 
ATOM      2  C   UNL     1      61.560  55.762  32.273  1.00  0.00     0.014 C 
ATOM      3  C   UNL     1      61.975  55.485  34.763  1.00  0.00     0.014 C 
ATOM      4  C   UNL     1      61.828  53.323  33.203  1.00  0.00     0.030 C 
ATOM      5  C   UNL     1      61.102  55.171  30.945  1.00  0.00     0.004 C 
ATOM      6  C   UNL     1      62.953  54.639  35.606  1.00  0.00     0.013 C 
ATOM      7  C   UNL     1      63.005  52.791  34.072  1.00  0.00    -0.063 C 
ATOM      8  C   UNL     1      61.814  52.849  31.684  1.00  0.00    -0.003 C 
ATOM      9  C   UNL     1      61.939  53.946  30.584  1.00  0.00    -0.011 C 
ATOM     10  C   UNL     1      63.955  53.752  34.786  1.00  0.00    -0.006 C 
ATOM     11  C   UNL     1      62.875  51.525  34.518  1.00  0.00    -0.027 C 
ATOM     12  C   UNL     1      62.715  51.637  31.369  1.00  0.00     0.008 C 
ATOM     13  C   UNL     1      63.385  54.319  30.186  1.00  0.00     0.008 C 
ATOM     14  C   UNL     1      64.722  54.586  33.716  1.00  0.00     0.017 C 
ATOM     15  C   UNL     1      65.057  53.034  35.752  1.00  0.00    -0.020 C 
ATOM     16  C   UNL     1      63.713  50.873  35.557  1.00  0.00     0.032 C 
ATOM     17  C   UNL     1      64.422  51.835  36.565  1.00  0.00     0.006 C 
ATOM     18  C   UNL     1      66.237  52.417  34.936  1.00  0.00     0.008 C 
ATOM     19  C   UNL     1      65.630  54.154  36.694  1.00  0.00     0.012 C 
ATOM     20  C   UNL     1      65.418  50.976  37.504  1.00  0.00    -0.025 C 
ATOM     21  C   UNL     1      67.262  51.645  35.789  1.00  0.00     0.005 C 
ATOM     22  C   UNL     1      66.696  50.502  36.685  1.00  0.00     0.003 C 
ATOM     23  C   UNL     1      65.857  51.765  38.782  1.00  0.00     0.010 C 
ATOM     24  C   UNL     1      64.596  49.742  38.024  1.00  0.00     0.012 C 
ATOM     25  C   UNL     1      67.848  49.829  37.569  1.00  0.00    -0.006 C 
ATOM     26  C   UNL     1      66.906  51.049  39.642  1.00  0.00     0.033 C 
ATOM     27  C   UNL     1      68.161  50.697  38.830  1.00  0.00     0.120 C 
ATOM     28  C   UNL     1      67.467  48.373  37.979  1.00  0.00     0.014 C 
ATOM     29  C   UNL     1      69.173  49.687  36.759  1.00  0.00     0.014 C 
ENDROOT
BRANCH   1  30
ATOM     30  C   UNL     1      59.788  54.807  33.765  1.00  0.00     0.048 C 
ATOM     31  O   UNL     1      59.159  53.722  33.895  1.00  0.00    -0.550 OA
ATOM     32  O   UNL     1      59.047  55.982  33.735  1.00  0.00    -0.550 OA
ENDBRANCH   1  30
BRANCH  27  33
ATOM     33  O   UNL     1      69.065  50.018  39.674  1.00  0.00    -0.393 OA
ATOM     34  H   UNL     1      69.518  49.323  39.130  1.00  0.00     0.210 HD
ENDBRANCH  27  33
TORSDOF 2
ENDMDL
MODEL 3
REMARK VINA RESULT:    -5.248      2.385      4.491
REMARK INTER + INTRA:          -5.934
REMARK INTER:                  -5.729
REMARK INTRA:                  -0.205
REMARK UNBOUND:                -0.226
REMARK SMILES C[C@@H]1[C@H](C)CC[C@]2(C(=O)[O-])CC[C@]3(C)C(=CC[C@H]4[C@]5(C)CC[C@@H](O)C(C)(C)[C@@H]5CC[C@]43C)[C@H]12
REMARK SMILES IDX 7 1 6 2 11 3 33 4 5 5 12 6 15 7 2 8 3 9 13 10 16 11 1 12
REMARK SMILES IDX 4 13 14 14 31 15 17 16 18 17 30 18 32 19 19 20 29 21 28 22
REMARK SMILES IDX 21 23 20 24 25 25 22 26 23 27 26 28 27 29 8 30 9 31 10 32
REMARK SMILES IDX 24 33
REMARK H PARENT 24 34
REMARK Flexibility Score: inf
ROOT
ATOM      1  C   UNL     1      65.460  51.796  37.460  1.00  0.00     0.017 C 
ATOM      2  C   UNL     1      66.984  51.458  37.304  1.00  0.00     0.014 C 
ATOM      3  C   UNL     1      64.640  50.604  36.830  1.00  0.00     0.014 C 
ATOM      4  C   UNL     1      65.109  53.232  36.837  1.00  0.00     0.030 C 
ATOM      5  C   UNL     1      67.905  52.592  37.738  1.00  0.00     0.004 C 
ATOM      6  C   UNL     1      63.562  50.939  35.777  1.00  0.00     0.013 C 
ATOM      7  C   UNL     1      64.152  53.262  35.610  1.00  0.00    -0.063 C 
ATOM      8  C   UNL     1      66.274  54.317  36.839  1.00  0.00    -0.003 C 
ATOM      9  C   UNL     1      67.743  53.799  36.815  1.00  0.00    -0.011 C 
ATOM     10  C   UNL     1      63.967  52.030  34.724  1.00  0.00    -0.006 C 
ATOM     11  C   UNL     1      63.199  54.216  35.636  1.00  0.00    -0.027 C 
ATOM     12  C   UNL     1      66.078  55.488  35.854  1.00  0.00     0.008 C 
ATOM     13  C   UNL     1      68.330  53.546  35.409  1.00  0.00     0.008 C 
ATOM     14  C   UNL     1      65.327  51.696  34.039  1.00  0.00     0.017 C 
ATOM     15  C   UNL     1      62.839  52.190  33.555  1.00  0.00    -0.020 C 
ATOM     16  C   UNL     1      62.022  54.301  34.734  1.00  0.00     0.032 C 
ATOM     17  C   UNL     1      61.560  52.956  34.084  1.00  0.00     0.006 C 
ATOM     18  C   UNL     1      63.365  53.025  32.345  1.00  0.00     0.008 C 
ATOM     19  C   UNL     1      62.500  50.740  33.054  1.00  0.00     0.012 C 
ATOM     20  C   UNL     1      60.392  53.261  33.011  1.00  0.00    -0.025 C 
ATOM     21  C   UNL     1      62.312  53.288  31.250  1.00  0.00     0.005 C 
ATOM     22  C   UNL     1      60.986  53.963  31.714  1.00  0.00     0.003 C 
ATOM     23  C   UNL     1      59.600  51.971  32.612  1.00  0.00     0.010 C 
ATOM     24  C   UNL     1      59.353  54.197  33.728  1.00  0.00     0.012 C 
ATOM     25  C   UNL     1      59.954  54.115  30.500  1.00  0.00    -0.006 C 
ATOM     26  C   UNL     1      58.566  52.179  31.499  1.00  0.00     0.033 C 
ATOM     27  C   UNL     1      59.205  52.769  30.234  1.00  0.00     0.120 C 
ATOM     28  C   UNL     1      58.939  55.270  30.763  1.00  0.00     0.014 C 
ATOM     29  C   UNL     1      60.685  54.511  29.181  1.00  0.00     0.014 C 
ENDROOT
BRANCH   1  30
ATOM     30  C   UNL     1      65.145  51.780  38.974  1.00  0.00     0.048 C 
ATOM     31  O   UNL     1      65.008  50.689  39.595  1.00  0.00    -0.550 OA
ATOM     32  O   UNL     1      64.869  52.953  39.665  1.00  0.00    -0.550 OA
ENDBRANCH   1  30
BRANCH  27  33
ATOM     33  O   UNL     1      58.195  52.959  29.268  1.00  0.00    -0.393 OA
ATOM     34  H   UNL     1      58.558  52.664  28.393  1.00  0.00     0.210 HD
ENDBRANCH  27  33
TORSDOF 2
ENDMDL
MODEL 4
REMARK VINA RESULT:    -5.184      5.982     10.897
REMARK INTER + INTRA:          -5.865
REMARK INTER:                  -5.657
REMARK INTRA:                  -0.208
REMARK UNBOUND:                -0.226
REMARK SMILES C[C@@H]1[C@H](C)CC[C@]2(C(=O)[O-])CC[C@]3(C)C(=CC[C@H]4[C@]5(C)CC[C@@H](O)C(C)(C)[C@@H]5CC[C@]43C)[C@H]12
REMARK SMILES IDX 7 1 6 2 11 3 33 4 5 5 12 6 15 7 2 8 3 9 13 10 16 11 1 12
REMARK SMILES IDX 4 13 14 14 31 15 17 16 18 17 30 18 32 19 19 20 29 21 28 22
REMARK SMILES IDX 21 23 20 24 25 25 22 26 23 27 26 28 27 29 8 30 9 31 10 32
REMARK SMILES IDX 24 33
REMARK H PARENT 24 34
REMARK Flexibility Score: inf
ROOT
ATOM      1  C   UNL     1      55.922  54.756  33.079  1.00  0.00     0.017 C 
ATOM      2  C   UNL     1      55.658  56.298  32.963  1.00  0.00     0.014 C 
ATOM      3  C   UNL     1      57.090  54.549  34.121  1.00  0.00     0.014 C 
ATOM      4  C   UNL     1      56.202  54.097  31.644  1.00  0.00     0.030 C 
ATOM      5  C   UNL     1      54.652  56.662  31.879  1.00  0.00     0.004 C 
ATOM      6  C   UNL     1      58.300  53.692  33.695  1.00  0.00     0.013 C 
ATOM      7  C   UNL     1      57.615  53.492  31.401  1.00  0.00    -0.063 C 
ATOM      8  C   UNL     1      55.519  54.798  30.389  1.00  0.00    -0.003 C 
ATOM      9  C   UNL     1      55.203  56.320  30.496  1.00  0.00    -0.011 C 
ATOM     10  C   UNL     1      58.818  53.936  32.233  1.00  0.00    -0.006 C 
ATOM     11  C   UNL     1      57.639  52.295  30.779  1.00  0.00    -0.027 C 
ATOM     12  C   UNL     1      56.148  54.452  29.024  1.00  0.00     0.008 C 
ATOM     13  C   UNL     1      56.352  57.263  30.073  1.00  0.00     0.008 C 
ATOM     14  C   UNL     1      59.084  55.448  31.960  1.00  0.00     0.017 C 
ATOM     15  C   UNL     1      60.198  53.119  31.935  1.00  0.00    -0.020 C 
ATOM     16  C   UNL     1      58.815  51.396  30.657  1.00  0.00     0.032 C 
ATOM     17  C   UNL     1      59.926  51.573  31.743  1.00  0.00     0.006 C 
ATOM     18  C   UNL     1      60.888  53.596  30.618  1.00  0.00     0.008 C 
ATOM     19  C   UNL     1      61.163  53.408  33.140  1.00  0.00     0.012 C 
ATOM     20  C   UNL     1      61.193  50.647  31.358  1.00  0.00    -0.025 C 
ATOM     21  C   UNL     1      62.148  52.795  30.236  1.00  0.00     0.005 C 
ATOM     22  C   UNL     1      61.976  51.251  30.113  1.00  0.00     0.003 C 
ATOM     23  C   UNL     1      62.169  50.446  32.565  1.00  0.00     0.010 C 
ATOM     24  C   UNL     1      60.625  49.220  31.024  1.00  0.00     0.012 C 
ATOM     25  C   UNL     1      63.368  50.534  29.783  1.00  0.00    -0.006 C 
ATOM     26  C   UNL     1      63.456  49.684  32.221  1.00  0.00     0.033 C 
ATOM     27  C   UNL     1      64.226  50.360  31.078  1.00  0.00     0.120 C 
ATOM     28  C   UNL     1      63.142  49.159  29.081  1.00  0.00     0.014 C 
ATOM     29  C   UNL     1      64.210  51.371  28.773  1.00  0.00     0.014 C 
ENDROOT
BRANCH   1  30
ATOM     30  C   UNL     1      54.661  54.128  33.719  1.00  0.00     0.048 C 
ATOM     31  O   UNL     1      53.929  53.338  33.063  1.00  0.00    -0.550 OA
ATOM     32  O   UNL     1      54.223  54.516  34.979  1.00  0.00    -0.550 OA
ENDBRANCH   1  30
BRANCH  27  33
ATOM     33  O   UNL     1      65.376  49.594  30.798  1.00  0.00    -0.393 OA
ATOM     34  H   UNL     1      66.114  49.944  31.361  1.00  0.00     0.210 HD
ENDBRANCH  27  33
TORSDOF 2
ENDMDL
MODEL 5
REMARK VINA RESULT:    -5.135      4.010      6.911
REMARK INTER + INTRA:          -5.812
REMARK INTER:                  -5.576
REMARK INTRA:                  -0.235
REMARK UNBOUND:                -0.226
REMARK SMILES C[C@@H]1[C@H](C)CC[C@]2(C(=O)[O-])CC[C@]3(C)C(=CC[C@H]4[C@]5(C)CC[C@@H](O)C(C)(C)[C@@H]5CC[C@]43C)[C@H]12
REMARK SMILES IDX 7 1 6 2 11 3 33 4 5 5 12 6 15 7 2 8 3 9 13 10 16 11 1 12
REMARK SMILES IDX 4 13 14 14 31 15 17 16 18 17 30 18 32 19 19 20 29 21 28 22
REMARK SMILES IDX 21 23 20 24 25 25 22 26 23 27 26 28 27 29 8 30 9 31 10 32
REMARK SMILES IDX 24 33
REMARK H PARENT 24 34
REMARK Flexibility Score: inf
ROOT
ATOM      1  C   UNL     1      64.701  53.865  33.135  1.00  0.00     0.017 C 
ATOM      2  C   UNL     1      65.376  53.390  34.469  1.00  0.00     0.014 C 
ATOM      3  C   UNL     1      64.123  55.313  33.383  1.00  0.00     0.014 C 
ATOM      4  C   UNL     1      63.612  52.808  32.615  1.00  0.00     0.030 C 
ATOM      5  C   UNL     1      65.851  51.943  34.425  1.00  0.00     0.004 C 
ATOM      6  C   UNL     1      62.643  55.575  33.032  1.00  0.00     0.013 C 
ATOM      7  C   UNL     1      62.128  53.274  32.575  1.00  0.00    -0.063 C 
ATOM      8  C   UNL     1      63.854  51.283  33.004  1.00  0.00    -0.003 C 
ATOM      9  C   UNL     1      64.664  50.990  34.302  1.00  0.00    -0.011 C 
ATOM     10  C   UNL     1      61.642  54.437  33.439  1.00  0.00    -0.006 C 
ATOM     11  C   UNL     1      61.439  52.931  31.468  1.00  0.00    -0.027 C 
ATOM     12  C   UNL     1      62.608  50.378  32.906  1.00  0.00     0.008 C 
ATOM     13  C   UNL     1      63.829  50.921  35.600  1.00  0.00     0.008 C 
ATOM     14  C   UNL     1      61.796  54.044  34.940  1.00  0.00     0.017 C 
ATOM     15  C   UNL     1      60.091  54.877  33.189  1.00  0.00    -0.020 C 
ATOM     16  C   UNL     1      60.109  53.459  31.067  1.00  0.00     0.032 C 
ATOM     17  C   UNL     1      59.724  54.857  31.651  1.00  0.00     0.006 C 
ATOM     18  C   UNL     1      59.087  53.899  33.878  1.00  0.00     0.008 C 
ATOM     19  C   UNL     1      59.918  56.303  33.824  1.00  0.00     0.012 C 
ATOM     20  C   UNL     1      58.193  55.191  31.257  1.00  0.00    -0.025 C 
ATOM     21  C   UNL     1      57.604  54.212  33.598  1.00  0.00     0.005 C 
ATOM     22  C   UNL     1      57.186  54.295  32.098  1.00  0.00     0.003 C 
ATOM     23  C   UNL     1      57.851  56.707  31.441  1.00  0.00     0.010 C 
ATOM     24  C   UNL     1      58.049  54.903  29.719  1.00  0.00     0.012 C 
ATOM     25  C   UNL     1      55.643  54.694  31.946  1.00  0.00    -0.006 C 
ATOM     26  C   UNL     1      56.375  57.059  31.208  1.00  0.00     0.033 C 
ATOM     27  C   UNL     1      55.447  56.235  32.112  1.00  0.00     0.120 C 
ATOM     28  C   UNL     1      55.068  54.207  30.580  1.00  0.00     0.014 C 
ATOM     29  C   UNL     1      54.767  53.992  33.028  1.00  0.00     0.014 C 
ENDROOT
BRANCH   1  30
ATOM     30  C   UNL     1      65.829  54.028  32.089  1.00  0.00     0.048 C 
ATOM     31  O   UNL     1      65.753  53.465  30.962  1.00  0.00    -0.550 OA
ATOM     32  O   UNL     1      67.014  54.680  32.404  1.00  0.00    -0.550 OA
ENDBRANCH   1  30
BRANCH  27  33
ATOM     33  O   UNL     1      54.112  56.588  31.824  1.00  0.00    -0.393 OA
ATOM     34  H   UNL     1      53.960  56.420  30.858  1.00  0.00     0.210 HD
ENDBRANCH  27  33
TORSDOF 2
ENDMDL
MODEL 6
REMARK VINA RESULT:    -5.122      3.469      7.799
REMARK INTER + INTRA:          -5.798
REMARK INTER:                  -5.563
REMARK INTRA:                  -0.235
REMARK UNBOUND:                -0.226
REMARK SMILES C[C@@H]1[C@H](C)CC[C@]2(C(=O)[O-])CC[C@]3(C)C(=CC[C@H]4[C@]5(C)CC[C@@H](O)C(C)(C)[C@@H]5CC[C@]43C)[C@H]12
REMARK SMILES IDX 7 1 6 2 11 3 33 4 5 5 12 6 15 7 2 8 3 9 13 10 16 11 1 12
REMARK SMILES IDX 4 13 14 14 31 15 17 16 18 17 30 18 32 19 19 20 29 21 28 22
REMARK SMILES IDX 21 23 20 24 25 25 22 26 23 27 26 28 27 29 8 30 9 31 10 32
REMARK SMILES IDX 24 33
REMARK H PARENT 24 34
REMARK Flexibility Score: inf
ROOT
ATOM      1  C   UNL     1      64.009  50.212  30.002  1.00  0.00     0.017 C 
ATOM      2  C   UNL     1      63.242  51.053  28.923  1.00  0.00     0.014 C 
ATOM      3  C   UNL     1      62.971  49.814  31.123  1.00  0.00     0.014 C 
ATOM      4  C   UNL     1      65.297  50.994  30.553  1.00  0.00     0.030 C 
ATOM      5  C   UNL     1      64.153  51.635  27.848  1.00  0.00     0.004 C 
ATOM      6  C   UNL     1      63.328  50.131  32.590  1.00  0.00     0.013 C 
ATOM      7  C   UNL     1      65.295  51.402  32.055  1.00  0.00    -0.063 C 
ATOM      8  C   UNL     1      65.993  52.020  29.554  1.00  0.00    -0.003 C 
ATOM      9  C   UNL     1      65.104  52.667  28.450  1.00  0.00    -0.011 C 
ATOM     10  C   UNL     1      63.987  51.534  32.835  1.00  0.00    -0.006 C 
ATOM     11  C   UNL     1      66.450  51.191  32.718  1.00  0.00    -0.027 C 
ATOM     12  C   UNL     1      66.905  53.068  30.223  1.00  0.00     0.008 C 
ATOM     13  C   UNL     1      64.376  53.965  28.866  1.00  0.00     0.008 C 
ATOM     14  C   UNL     1      63.144  52.685  32.208  1.00  0.00     0.017 C 
ATOM     15  C   UNL     1      64.166  51.849  34.426  1.00  0.00    -0.020 C 
ATOM     16  C   UNL     1      66.637  51.251  34.191  1.00  0.00     0.032 C 
ATOM     17  C   UNL     1      65.354  51.012  35.052  1.00  0.00     0.006 C 
ATOM     18  C   UNL     1      64.517  53.348  34.690  1.00  0.00     0.008 C 
ATOM     19  C   UNL     1      62.788  51.528  35.108  1.00  0.00     0.012 C 
ATOM     20  C   UNL     1      65.703  51.284  36.607  1.00  0.00    -0.025 C 
ATOM     21  C   UNL     1      64.789  53.684  36.169  1.00  0.00     0.005 C 
ATOM     22  C   UNL     1      65.890  52.839  36.880  1.00  0.00     0.003 C 
ATOM     23  C   UNL     1      64.620  50.692  37.570  1.00  0.00     0.010 C 
ATOM     24  C   UNL     1      67.028  50.497  36.916  1.00  0.00     0.012 C 
ATOM     25  C   UNL     1      66.025  53.238  38.424  1.00  0.00    -0.006 C 
ATOM     26  C   UNL     1      64.832  51.033  39.050  1.00  0.00     0.033 C 
ATOM     27  C   UNL     1      64.910  52.550  39.276  1.00  0.00     0.120 C 
ATOM     28  C   UNL     1      67.440  52.885  38.976  1.00  0.00     0.014 C 
ATOM     29  C   UNL     1      65.884  54.777  38.625  1.00  0.00     0.014 C 
ENDROOT
BRANCH   1  30
ATOM     30  C   UNL     1      64.438  48.889  29.325  1.00  0.00     0.048 C 
ATOM     31  O   UNL     1      65.633  48.489  29.385  1.00  0.00    -0.550 OA
ATOM     32  O   UNL     1      63.559  48.173  28.522  1.00  0.00    -0.550 OA
ENDBRANCH   1  30
BRANCH  27  33
ATOM     33  O   UNL     1      65.133  52.788  40.649  1.00  0.00    -0.393 OA
ATOM     34  H   UNL     1      66.114  52.854  40.785  1.00  0.00     0.210 HD
ENDBRANCH  27  33
TORSDOF 2
ENDMDL
MODEL 7
REMARK VINA RESULT:    -5.024      1.838      3.058
REMARK INTER + INTRA:          -5.690
REMARK INTER:                  -5.661
REMARK INTRA:                  -0.029
REMARK UNBOUND:                -0.226
REMARK SMILES C[C@@H]1[C@H](C)CC[C@]2(C(=O)[O-])CC[C@]3(C)C(=CC[C@H]4[C@]5(C)CC[C@@H](O)C(C)(C)[C@@H]5CC[C@]43C)[C@H]12
REMARK SMILES IDX 7 1 6 2 11 3 33 4 5 5 12 6 15 7 2 8 3 9 13 10 16 11 1 12
REMARK SMILES IDX 4 13 14 14 31 15 17 16 18 17 30 18 32 19 19 20 29 21 28 22
REMARK SMILES IDX 21 23 20 24 25 25 22 26 23 27 26 28 27 29 8 30 9 31 10 32
REMARK SMILES IDX 24 33
REMARK H PARENT 24 34
REMARK Flexibility Score: inf
ROOT
ATOM      1  C   UNL     1      67.236  52.183  36.038  1.00  0.00     0.017 C 
ATOM      2  C   UNL     1      67.621  52.765  37.442  1.00  0.00     0.014 C 
ATOM      3  C   UNL     1      67.157  53.391  35.025  1.00  0.00     0.014 C 
ATOM      4  C   UNL     1      65.896  51.304  36.111  1.00  0.00     0.030 C 
ATOM      5  C   UNL     1      67.589  51.728  38.558  1.00  0.00     0.004 C 
ATOM      6  C   UNL     1      65.877  53.548  34.178  1.00  0.00     0.013 C 
ATOM      7  C   UNL     1      64.657  51.825  35.325  1.00  0.00    -0.063 C 
ATOM      8  C   UNL     1      65.588  50.583  37.497  1.00  0.00    -0.003 C 
ATOM      9  C   UNL     1      66.164  51.231  38.791  1.00  0.00    -0.011 C 
ATOM     10  C   UNL     1      64.529  53.300  34.943  1.00  0.00    -0.006 C 
ATOM     11  C   UNL     1      63.971  50.893  34.634  1.00  0.00    -0.027 C 
ATOM     12  C   UNL     1      64.123  50.145  37.695  1.00  0.00     0.008 C 
ATOM     13  C   UNL     1      65.267  52.305  39.446  1.00  0.00     0.008 C 
ATOM     14  C   UNL     1      64.440  54.149  36.247  1.00  0.00     0.017 C 
ATOM     15  C   UNL     1      63.233  53.658  34.017  1.00  0.00    -0.020 C 
ATOM     16  C   UNL     1      62.923  51.156  33.614  1.00  0.00     0.032 C 
ATOM     17  C   UNL     1      62.987  52.553  32.913  1.00  0.00     0.006 C 
ATOM     18  C   UNL     1      61.916  53.723  34.854  1.00  0.00     0.008 C 
ATOM     19  C   UNL     1      63.502  55.074  33.393  1.00  0.00     0.012 C 
ATOM     20  C   UNL     1      61.685  52.732  31.973  1.00  0.00    -0.025 C 
ATOM     21  C   UNL     1      60.645  53.966  34.018  1.00  0.00     0.005 C 
ATOM     22  C   UNL     1      60.382  52.965  32.853  1.00  0.00     0.003 C 
ATOM     23  C   UNL     1      61.855  53.896  30.940  1.00  0.00     0.010 C 
ATOM     24  C   UNL     1      61.559  51.418  31.121  1.00  0.00     0.012 C 
ATOM     25  C   UNL     1      59.074  53.368  32.022  1.00  0.00    -0.006 C 
ATOM     26  C   UNL     1      60.600  54.197  30.110  1.00  0.00     0.033 C 
ATOM     27  C   UNL     1      59.392  54.510  31.004  1.00  0.00     0.120 C 
ATOM     28  C   UNL     1      58.464  52.131  31.295  1.00  0.00     0.014 C 
ATOM     29  C   UNL     1      57.943  53.883  32.963  1.00  0.00     0.014 C 
ENDROOT
BRANCH   1  30
ATOM     30  C   UNL     1      68.423  51.308  35.569  1.00  0.00     0.048 C 
ATOM     31  O   UNL     1      69.169  51.683  34.624  1.00  0.00    -0.550 OA
ATOM     32  O   UNL     1      68.621  50.031  36.078  1.00  0.00    -0.550 OA
ENDBRANCH   1  30
BRANCH  27  33
ATOM     33  O   UNL     1      58.273  54.747  30.177  1.00  0.00    -0.393 OA
ATOM     34  H   UNL     1      58.607  54.878  29.252  1.00  0.00     0.210 HD
ENDBRANCH  27  33
TORSDOF 2
ENDMDL
MODEL 8
REMARK VINA RESULT:    -5.023      1.817      3.314
REMARK INTER + INTRA:          -5.689
REMARK INTER:                  -5.494
REMARK INTRA:                  -0.195
REMARK UNBOUND:                -0.226
REMARK SMILES C[C@@H]1[C@H](C)CC[C@]2(C(=O)[O-])CC[C@]3(C)C(=CC[C@H]4[C@]5(C)CC[C@@H](O)C(C)(C)[C@@H]5CC[C@]43C)[C@H]12
REMARK SMILES IDX 7 1 6 2 11 3 33 4 5 5 12 6 15 7 2 8 3 9 13 10 16 11 1 12
REMARK SMILES IDX 4 13 14 14 31 15 17 16 18 17 30 18 32 19 19 20 29 21 28 22
REMARK SMILES IDX 21 23 20 24 25 25 22 26 23 27 26 28 27 29 8 30 9 31 10 32
REMARK SMILES IDX 24 33
REMARK H PARENT 24 34
REMARK Flexibility Score: inf
ROOT
ATOM      1  C   UNL     1      66.325  50.451  39.034  1.00  0.00     0.017 C 
ATOM      2  C   UNL     1      67.606  49.563  38.861  1.00  0.00     0.014 C 
ATOM      3  C   UNL     1      65.159  49.772  38.214  1.00  0.00     0.014 C 
ATOM      4  C   UNL     1      66.606  51.977  38.627  1.00  0.00     0.030 C 
ATOM      5  C   UNL     1      68.856  50.176  39.479  1.00  0.00     0.004 C 
ATOM      6  C   UNL     1      64.381  50.639  37.201  1.00  0.00     0.013 C 
ATOM      7  C   UNL     1      65.834  52.542  37.399  1.00  0.00    -0.063 C 
ATOM      8  C   UNL     1      68.095  52.505  38.817  1.00  0.00    -0.003 C 
ATOM      9  C   UNL     1      69.247  51.458  38.747  1.00  0.00    -0.011 C 
ATOM     10  C   UNL     1      65.257  51.610  36.334  1.00  0.00    -0.006 C 
ATOM     11  C   UNL     1      65.326  53.781  37.549  1.00  0.00    -0.027 C 
ATOM     12  C   UNL     1      68.446  53.776  38.016  1.00  0.00     0.008 C 
ATOM     13  C   UNL     1      69.799  51.180  37.331  1.00  0.00     0.008 C 
ATOM     14  C   UNL     1      66.431  50.859  35.635  1.00  0.00     0.017 C 
ATOM     15  C   UNL     1      64.375  52.352  35.179  1.00  0.00    -0.020 C 
ATOM     16  C   UNL     1      64.348  54.440  36.645  1.00  0.00     0.032 C 
ATOM     17  C   UNL     1      63.454  53.483  35.790  1.00  0.00     0.006 C 
ATOM     18  C   UNL     1      65.276  53.062  34.120  1.00  0.00     0.008 C 
ATOM     19  C   UNL     1      63.542  51.232  34.458  1.00  0.00     0.012 C 
ATOM     20  C   UNL     1      62.583  54.362  34.751  1.00  0.00    -0.025 C 
ATOM     21  C   UNL     1      64.496  53.859  33.056  1.00  0.00     0.005 C 
ATOM     22  C   UNL     1      63.502  54.936  33.588  1.00  0.00     0.003 C 
ATOM     23  C   UNL     1      61.388  53.552  34.146  1.00  0.00     0.010 C 
ATOM     24  C   UNL     1      61.934  55.529  35.580  1.00  0.00     0.012 C 
ATOM     25  C   UNL     1      62.708  55.638  32.389  1.00  0.00    -0.006 C 
ATOM     26  C   UNL     1      60.605  54.293  33.055  1.00  0.00     0.033 C 
ATOM     27  C   UNL     1      61.520  54.744  31.908  1.00  0.00     0.120 C 
ATOM     28  C   UNL     1      62.201  57.055  32.802  1.00  0.00     0.014 C 
ATOM     29  C   UNL     1      63.637  55.883  31.161  1.00  0.00     0.014 C 
ENDROOT
BRANCH   1  30
ATOM     30  C   UNL     1      65.909  50.363  40.522  1.00  0.00     0.048 C 
ATOM     31  O   UNL     1      65.239  49.383  40.949  1.00  0.00    -0.550 OA
ATOM     32  O   UNL     1      66.142  51.415  41.398  1.00  0.00    -0.550 OA
ENDBRANCH   1  30
BRANCH  27  33
ATOM     33  O   UNL     1      60.742  55.440  30.960  1.00  0.00    -0.393 OA
ATOM     34  H   UNL     1      60.901  55.022  30.075  1.00  0.00     0.210 HD
ENDBRANCH  27  33
TORSDOF 2
ENDMDL
MODEL 9
REMARK VINA RESULT:    -4.989      3.512      5.730
REMARK INTER + INTRA:          -5.652
REMARK INTER:                  -5.420
REMARK INTRA:                  -0.232
REMARK UNBOUND:                -0.226
REMARK SMILES C[C@@H]1[C@H](C)CC[C@]2(C(=O)[O-])CC[C@]3(C)C(=CC[C@H]4[C@]5(C)CC[C@@H](O)C(C)(C)[C@@H]5CC[C@]43C)[C@H]12
REMARK SMILES IDX 7 1 6 2 11 3 33 4 5 5 12 6 15 7 2 8 3 9 13 10 16 11 1 12
REMARK SMILES IDX 4 13 14 14 31 15 17 16 18 17 30 18 32 19 19 20 29 21 28 22
REMARK SMILES IDX 21 23 20 24 25 25 22 26 23 27 26 28 27 29 8 30 9 31 10 32
REMARK SMILES IDX 24 33
REMARK H PARENT 24 34
REMARK Flexibility Score: inf
ROOT
ATOM      1  C   UNL     1      65.884  53.037  36.210  1.00  0.00     0.017 C 
ATOM      2  C   UNL     1      66.649  54.406  36.203  1.00  0.00     0.014 C 
ATOM      3  C   UNL     1      66.736  52.009  35.368  1.00  0.00     0.014 C 
ATOM      4  C   UNL     1      64.372  53.204  35.701  1.00  0.00     0.030 C 
ATOM      5  C   UNL     1      65.870  55.540  36.857  1.00  0.00     0.004 C 
ATOM      6  C   UNL     1      66.029  51.236  34.235  1.00  0.00     0.013 C 
ATOM      7  C   UNL     1      63.981  52.483  34.378  1.00  0.00    -0.063 C 
ATOM      8  C   UNL     1      63.685  54.618  35.953  1.00  0.00    -0.003 C 
ATOM      9  C   UNL     1      64.614  55.864  36.051  1.00  0.00    -0.011 C 
ATOM     10  C   UNL     1      65.043  52.082  33.355  1.00  0.00    -0.006 C 
ATOM     11  C   UNL     1      62.791  51.849  34.389  1.00  0.00    -0.027 C 
ATOM     12  C   UNL     1      62.449  54.909  35.077  1.00  0.00     0.008 C 
ATOM     13  C   UNL     1      64.940  56.551  34.706  1.00  0.00     0.008 C 
ATOM     14  C   UNL     1      65.722  53.373  32.806  1.00  0.00     0.017 C 
ATOM     15  C   UNL     1      64.482  51.227  32.083  1.00  0.00    -0.020 C 
ATOM     16  C   UNL     1      62.303  50.887  33.367  1.00  0.00     0.032 C 
ATOM     17  C   UNL     1      63.405  50.159  32.532  1.00  0.00     0.006 C 
ATOM     18  C   UNL     1      63.765  52.138  31.036  1.00  0.00     0.008 C 
ATOM     19  C   UNL     1      65.730  50.563  31.399  1.00  0.00     0.012 C 
ATOM     20  C   UNL     1      62.699  49.293  31.365  1.00  0.00    -0.025 C 
ATOM     21  C   UNL     1      63.133  51.373  29.857  1.00  0.00     0.005 C 
ATOM     22  C   UNL     1      62.124  50.243  30.227  1.00  0.00     0.003 C 
ATOM     23  C   UNL     1      63.668  48.232  30.745  1.00  0.00     0.010 C 
ATOM     24  C   UNL     1      61.544  48.474  32.046  1.00  0.00     0.012 C 
ATOM     25  C   UNL     1      61.596  49.484  28.921  1.00  0.00    -0.006 C 
ATOM     26  C   UNL     1      63.092  47.471  29.543  1.00  0.00     0.033 C 
ATOM     27  C   UNL     1      62.639  48.428  28.431  1.00  0.00     0.120 C 
ATOM     28  C   UNL     1      60.211  48.815  29.179  1.00  0.00     0.014 C 
ATOM     29  C   UNL     1      61.353  50.480  27.747  1.00  0.00     0.014 C 
ENDROOT
BRANCH   1  30
ATOM     30  C   UNL     1      65.902  52.515  37.667  1.00  0.00     0.048 C 
ATOM     31  O   UNL     1      64.846  52.099  38.218  1.00  0.00    -0.550 OA
ATOM     32  O   UNL     1      67.043  52.616  38.453  1.00  0.00    -0.550 OA
ENDBRANCH   1  30
BRANCH  27  33
ATOM     33  O   UNL     1      62.097  47.664  27.376  1.00  0.00    -0.393 OA
ATOM     34  H   UNL     1      62.188  48.196  26.544  1.00  0.00     0.210 HD
ENDBRANCH  27  33
TORSDOF 2
ENDMDL
