MODEL 1
REMARK VINA RESULT:    -3.911      0.000      0.000
REMARK INTER + INTRA:          -5.551
REMARK INTER:                  -5.283
REMARK INTRA:                  -0.268
REMARK UNBOUND:                -0.268
REMARK SMILES CCCCCCCC(=O)[O-]
REMARK SMILES IDX 5 1 6 2 7 3 8 4 9 5 10 6 4 7 3 8 2 9 1 10
REMARK H PARENT
REMARK Flexibility Score: inf
ROOT
ATOM      1  C   UNL     1      44.717 114.036  10.115  1.00  0.00     0.000 C 
ENDROOT
BRANCH   1   2
ATOM      2  C   UNL     1      43.735 114.902   9.304  1.00  0.00     0.006 C 
BRANCH   2   3
ATOM      3  C   UNL     1      43.881 116.413   9.543  1.00  0.00     0.053 C 
BRANCH   3   4
ATOM      4  C   UNL     1      42.667 117.171   9.103  1.00  0.00     0.041 C 
ATOM      5  O   UNL     1      42.234 117.048   7.927  1.00  0.00    -0.550 OA
ATOM      6  O   UNL     1      41.992 117.987  10.003  1.00  0.00    -0.550 OA
ENDBRANCH   3   4
ENDBRANCH   2   3
ENDBRANCH   1   2
BRANCH   1   7
ATOM      7  C   UNL     1      45.689 113.246   9.221  1.00  0.00     0.000 C 
BRANCH   7   8
ATOM      8  C   UNL     1      45.355 113.379   7.727  1.00  0.00    -0.000 C 
BRANCH   8   9
ATOM      9  C   UNL     1      45.453 112.041   6.979  1.00  0.00    -0.003 C 
ATOM     10  C   UNL     1      46.259 111.022   7.777  1.00  0.00     0.004 C 
ENDBRANCH   8   9
ENDBRANCH   7   8
ENDBRANCH   1   7
TORSDOF 6
ENDMDL
MODEL 2
REMARK VINA RESULT:    -3.902      4.611      7.959
REMARK INTER + INTRA:          -5.538
REMARK INTER:                  -5.436
REMARK INTRA:                  -0.103
REMARK UNBOUND:                -0.268
REMARK SMILES CCCCCCCC(=O)[O-]
REMARK SMILES IDX 5 1 6 2 7 3 8 4 9 5 10 6 4 7 3 8 2 9 1 10
REMARK H PARENT
REMARK Flexibility Score: inf
ROOT
ATOM      1  C   UNL     1      40.298 117.649  11.959  1.00  0.00     0.000 C 
ENDROOT
BRANCH   1   2
ATOM      2  C   UNL     1      41.170 117.883  10.712  1.00  0.00     0.006 C 
BRANCH   2   3
ATOM      3  C   UNL     1      42.477 117.074  10.694  1.00  0.00     0.053 C 
BRANCH   3   4
ATOM      4  C   UNL     1      42.993 116.870   9.304  1.00  0.00     0.041 C 
ATOM      5  O   UNL     1      42.275 117.162   8.311  1.00  0.00    -0.550 OA
ATOM      6  O   UNL     1      44.282 116.390   9.104  1.00  0.00    -0.550 OA
ENDBRANCH   3   4
ENDBRANCH   2   3
ENDBRANCH   1   2
BRANCH   1   7
ATOM      7  C   UNL     1      39.935 118.957  12.684  1.00  0.00     0.000 C 
BRANCH   7   8
ATOM      8  C   UNL     1      38.636 118.839  13.496  1.00  0.00    -0.000 C 
BRANCH   8   9
ATOM      9  C   UNL     1      37.825 120.144  13.503  1.00  0.00    -0.003 C 
ATOM     10  C   UNL     1      36.412 119.909  14.028  1.00  0.00     0.004 C 
ENDBRANCH   8   9
ENDBRANCH   7   8
ENDBRANCH   1   7
TORSDOF 6
ENDMDL
MODEL 3
REMARK VINA RESULT:    -3.891      3.096      5.654
REMARK INTER + INTRA:          -5.523
REMARK INTER:                  -5.187
REMARK INTRA:                  -0.336
REMARK UNBOUND:                -0.268
REMARK SMILES CCCCCCCC(=O)[O-]
REMARK SMILES IDX 5 1 6 2 7 3 8 4 9 5 10 6 4 7 3 8 2 9 1 10
REMARK H PARENT
REMARK Flexibility Score: inf
ROOT
ATOM      1  C   UNL     1      43.324 116.697   8.966  1.00  0.00     0.000 C 
ENDROOT
BRANCH   1   2
ATOM      2  C   UNL     1      43.566 115.185   8.797  1.00  0.00     0.006 C 
BRANCH   2   3
ATOM      3  C   UNL     1      43.972 114.464  10.092  1.00  0.00     0.053 C 
BRANCH   3   4
ATOM      4  C   UNL     1      45.115 113.521   9.875  1.00  0.00     0.041 C 
ATOM      5  O   UNL     1      45.713 113.493   8.768  1.00  0.00    -0.550 OA
ATOM      6  O   UNL     1      45.542 112.697  10.910  1.00  0.00    -0.550 OA
ENDBRANCH   3   4
ENDBRANCH   2   3
ENDBRANCH   1   2
BRANCH   1   7
ATOM      7  C   UNL     1      42.839 117.066  10.378  1.00  0.00     0.000 C 
BRANCH   7   8
ATOM      8  C   UNL     1      41.519 117.852  10.362  1.00  0.00    -0.000 C 
BRANCH   8   9
ATOM      9  C   UNL     1      40.628 117.534  11.572  1.00  0.00    -0.003 C 
ATOM     10  C   UNL     1      41.327 116.580  12.534  1.00  0.00     0.004 C 
ENDBRANCH   8   9
ENDBRANCH   7   8
ENDBRANCH   1   7
TORSDOF 6
ENDMDL
MODEL 4
REMARK VINA RESULT:    -3.879      5.582      8.997
REMARK INTER + INTRA:          -5.507
REMARK INTER:                  -5.375
REMARK INTRA:                  -0.132
REMARK UNBOUND:                -0.268
REMARK SMILES CCCCCCCC(=O)[O-]
REMARK SMILES IDX 5 1 6 2 7 3 8 4 9 5 10 6 4 7 3 8 2 9 1 10
REMARK H PARENT
REMARK Flexibility Score: inf
ROOT
ATOM      1  C   UNL     1      39.901 118.907  12.729  1.00  0.00     0.000 C 
ENDROOT
BRANCH   1   2
ATOM      2  C   UNL     1      40.142 117.651  11.871  1.00  0.00     0.006 C 
BRANCH   2   3
ATOM      3  C   UNL     1      41.187 117.838  10.759  1.00  0.00     0.053 C 
BRANCH   3   4
ATOM      4  C   UNL     1      42.381 116.955  10.956  1.00  0.00     0.041 C 
ATOM      5  O   UNL     1      42.504 116.281  12.011  1.00  0.00    -0.550 OA
ATOM      6  O   UNL     1      43.340 116.851   9.956  1.00  0.00    -0.550 OA
ENDBRANCH   3   4
ENDBRANCH   2   3
ENDBRANCH   1   2
BRANCH   1   7
ATOM      7  C   UNL     1      38.581 118.843  13.517  1.00  0.00     0.000 C 
BRANCH   7   8
ATOM      8  C   UNL     1      37.758 120.135  13.393  1.00  0.00    -0.000 C 
BRANCH   8   9
ATOM      9  C   UNL     1      36.895 120.406  14.635  1.00  0.00    -0.003 C 
ATOM     10  C   UNL     1      37.015 121.860  15.080  1.00  0.00     0.004 C 
ENDBRANCH   8   9
ENDBRANCH   7   8
ENDBRANCH   1   7
TORSDOF 6
ENDMDL
MODEL 5
REMARK VINA RESULT:    -3.837      2.721      3.726
REMARK INTER + INTRA:          -5.450
REMARK INTER:                  -5.154
REMARK INTRA:                  -0.296
REMARK UNBOUND:                -0.268
REMARK SMILES CCCCCCCC(=O)[O-]
REMARK SMILES IDX 5 1 6 2 7 3 8 4 9 5 10 6 4 7 3 8 2 9 1 10
REMARK H PARENT
REMARK Flexibility Score: inf
ROOT
ATOM      1  C   UNL     1      42.796 117.119   8.983  1.00  0.00     0.000 C 
ENDROOT
BRANCH   1   2
ATOM      2  C   UNL     1      42.462 117.129  10.487  1.00  0.00     0.006 C 
BRANCH   2   3
ATOM      3  C   UNL     1      41.171 117.883  10.841  1.00  0.00     0.053 C 
BRANCH   3   4
ATOM      4  C   UNL     1      40.429 117.230  11.966  1.00  0.00     0.041 C 
ATOM      5  O   UNL     1      39.170 117.225  11.977  1.00  0.00    -0.550 OA
ATOM      6  O   UNL     1      41.129 116.595  12.984  1.00  0.00    -0.550 OA
ENDBRANCH   3   4
ENDBRANCH   2   3
ENDBRANCH   1   2
BRANCH   1   7
ATOM      7  C   UNL     1      43.479 115.815   8.536  1.00  0.00     0.000 C 
BRANCH   7   8
ATOM      8  C   UNL     1      44.728 115.489   9.369  1.00  0.00    -0.000 C 
BRANCH   8   9
ATOM      9  C   UNL     1      44.801 114.007   9.768  1.00  0.00    -0.003 C 
ATOM     10  C   UNL     1      43.950 113.728  11.002  1.00  0.00     0.004 C 
ENDBRANCH   8   9
ENDBRANCH   7   8
ENDBRANCH   1   7
TORSDOF 6
ENDMDL
MODEL 6
REMARK VINA RESULT:    -3.835      1.640      2.905
REMARK INTER + INTRA:          -5.448
REMARK INTER:                  -4.971
REMARK INTRA:                  -0.477
REMARK UNBOUND:                -0.268
REMARK SMILES CCCCCCCC(=O)[O-]
REMARK SMILES IDX 5 1 6 2 7 3 8 4 9 5 10 6 4 7 3 8 2 9 1 10
REMARK H PARENT
REMARK Flexibility Score: inf
ROOT
ATOM      1  C   UNL     1      44.286 114.409   8.927  1.00  0.00     0.000 C 
ENDROOT
BRANCH   1   2
ATOM      2  C   UNL     1      44.543 115.921   8.794  1.00  0.00     0.006 C 
BRANCH   2   3
ATOM      3  C   UNL     1      43.798 116.780   9.828  1.00  0.00     0.053 C 
BRANCH   3   4
ATOM      4  C   UNL     1      42.499 117.302   9.295  1.00  0.00     0.041 C 
ATOM      5  O   UNL     1      42.197 117.133   8.085  1.00  0.00    -0.550 OA
ATOM      6  O   UNL     1      41.607 117.944  10.145  1.00  0.00    -0.550 OA
ENDBRANCH   3   4
ENDBRANCH   2   3
ENDBRANCH   1   2
BRANCH   1   7
ATOM      7  C   UNL     1      45.441 113.670   9.626  1.00  0.00     0.000 C 
BRANCH   7   8
ATOM      8  C   UNL     1      45.227 113.543  11.142  1.00  0.00    -0.000 C 
BRANCH   8   9
ATOM      9  C   UNL     1      43.750 113.351  11.516  1.00  0.00    -0.003 C 
ATOM     10  C   UNL     1      43.337 114.305  12.631  1.00  0.00     0.004 C 
ENDBRANCH   8   9
ENDBRANCH   7   8
ENDBRANCH   1   7
TORSDOF 6
ENDMDL
MODEL 7
REMARK VINA RESULT:    -3.831      1.367      1.719
REMARK INTER + INTRA:          -5.442
REMARK INTER:                  -5.143
REMARK INTRA:                  -0.300
REMARK UNBOUND:                -0.268
REMARK SMILES CCCCCCCC(=O)[O-]
REMARK SMILES IDX 5 1 6 2 7 3 8 4 9 5 10 6 4 7 3 8 2 9 1 10
REMARK H PARENT
REMARK Flexibility Score: inf
ROOT
ATOM      1  C   UNL     1      44.810 115.210   8.799  1.00  0.00     0.000 C 
ENDROOT
BRANCH   1   2
ATOM      2  C   UNL     1      43.324 115.603   8.704  1.00  0.00     0.006 C 
BRANCH   2   3
ATOM      3  C   UNL     1      43.031 117.058   9.101  1.00  0.00     0.053 C 
BRANCH   3   4
ATOM      4  C   UNL     1      42.318 117.150  10.415  1.00  0.00     0.041 C 
ATOM      5  O   UNL     1      41.313 117.897  10.541  1.00  0.00    -0.550 OA
ATOM      6  O   UNL     1      42.745 116.382  11.492  1.00  0.00    -0.550 OA
ENDBRANCH   3   4
ENDBRANCH   2   3
ENDBRANCH   1   2
BRANCH   1   7
ATOM      7  C   UNL     1      45.016 113.805   9.391  1.00  0.00     0.000 C 
BRANCH   7   8
ATOM      8  C   UNL     1      46.006 112.960   8.575  1.00  0.00    -0.000 C 
BRANCH   8   9
ATOM      9  C   UNL     1      45.925 113.247   7.068  1.00  0.00    -0.003 C 
ATOM     10  C   UNL     1      45.117 112.173   6.347  1.00  0.00     0.004 C 
ENDBRANCH   8   9
ENDBRANCH   7   8
ENDBRANCH   1   7
TORSDOF 6
ENDMDL
MODEL 8
REMARK VINA RESULT:    -3.807      2.920      4.410
REMARK INTER + INTRA:          -5.410
REMARK INTER:                  -5.164
REMARK INTRA:                  -0.246
REMARK UNBOUND:                -0.268
REMARK SMILES CCCCCCCC(=O)[O-]
REMARK SMILES IDX 5 1 6 2 7 3 8 4 9 5 10 6 4 7 3 8 2 9 1 10
REMARK H PARENT
REMARK Flexibility Score: inf
ROOT
ATOM      1  C   UNL     1      42.876 116.566  11.041  1.00  0.00     0.000 C 
ENDROOT
BRANCH   1   2
ATOM      2  C   UNL     1      41.692 116.728  12.013  1.00  0.00     0.006 C 
BRANCH   2   3
ATOM      3  C   UNL     1      40.496 117.496  11.427  1.00  0.00     0.053 C 
BRANCH   3   4
ATOM      4  C   UNL     1      39.654 118.125  12.494  1.00  0.00     0.041 C 
ATOM      5  O   UNL     1      39.832 119.329  12.814  1.00  0.00    -0.550 OA
ATOM      6  O   UNL     1      38.649 117.390  13.110  1.00  0.00    -0.550 OA
ENDBRANCH   3   4
ENDBRANCH   2   3
ENDBRANCH   1   2
BRANCH   1   7
ATOM      7  C   UNL     1      42.648 117.290   9.703  1.00  0.00     0.000 C 
BRANCH   7   8
ATOM      8  C   UNL     1      43.044 116.430   8.493  1.00  0.00    -0.000 C 
BRANCH   8   9
ATOM      9  C   UNL     1      44.523 116.016   8.521  1.00  0.00    -0.003 C 
ATOM     10  C   UNL     1      44.669 114.498   8.524  1.00  0.00     0.004 C 
ENDBRANCH   8   9
ENDBRANCH   7   8
ENDBRANCH   1   7
TORSDOF 6
ENDMDL
MODEL 9
REMARK VINA RESULT:    -3.801      1.284      1.823
REMARK INTER + INTRA:          -5.402
REMARK INTER:                  -4.974
REMARK INTRA:                  -0.428
REMARK UNBOUND:                -0.268
REMARK SMILES CCCCCCCC(=O)[O-]
REMARK SMILES IDX 5 1 6 2 7 3 8 4 9 5 10 6 4 7 3 8 2 9 1 10
REMARK H PARENT
REMARK Flexibility Score: inf
ROOT
ATOM      1  C   UNL     1      45.292 113.751   9.435  1.00  0.00     0.000 C 
ENDROOT
BRANCH   1   2
ATOM      2  C   UNL     1      44.271 114.490   8.550  1.00  0.00     0.006 C 
BRANCH   2   3
ATOM      3  C   UNL     1      44.465 116.014   8.503  1.00  0.00     0.053 C 
BRANCH   3   4
ATOM      4  C   UNL     1      43.264 116.749   9.016  1.00  0.00     0.041 C 
ATOM      5  O   UNL     1      43.192 117.076  10.230  1.00  0.00    -0.550 OA
ATOM      6  O   UNL     1      42.241 117.103   8.145  1.00  0.00    -0.550 OA
ENDBRANCH   3   4
ENDBRANCH   2   3
ENDBRANCH   1   2
BRANCH   1   7
ATOM      7  C   UNL     1      46.054 112.654   8.671  1.00  0.00     0.000 C 
BRANCH   7   8
ATOM      8  C   UNL     1      45.574 112.504   7.220  1.00  0.00    -0.000 C 
BRANCH   8   9
ATOM      9  C   UNL     1      46.712 112.672   6.201  1.00  0.00    -0.003 C 
ATOM     10  C   UNL     1      46.702 114.070   5.592  1.00  0.00     0.004 C 
ENDBRANCH   8   9
ENDBRANCH   7   8
ENDBRANCH   1   7
TORSDOF 6
ENDMDL
