MODEL 1
REMARK VINA RESULT:    -1.889      0.000      0.000
REMARK INTER + INTRA:          -2.786
REMARK INTER:                  -2.441
REMARK INTRA:                  -0.345
REMARK UNBOUND:                -0.345
REMARK SMILES CCCCCCC(C)=O
REMARK SMILES IDX 4 1 3 2 2 3 1 4 5 5 6 6 7 7 9 8 8 9
REMARK H PARENT
REMARK Flexibility Score: inf
ROOT
ATOM      1  C   UNL     1     126.030 110.458 134.527  1.00  0.00     0.000 C 
ENDROOT
BRANCH   1   2
ATOM      2  C   UNL     1     127.125 109.853 133.641  1.00  0.00    -0.000 C 
BRANCH   2   3
ATOM      3  C   UNL     1     126.873 108.362 133.395  1.00  0.00    -0.003 C 
ATOM      4  C   UNL     1     126.378 107.670 134.663  1.00  0.00     0.004 C 
ENDBRANCH   2   3
ENDBRANCH   1   2
BRANCH   1   5
ATOM      5  C   UNL     1     126.632 111.390 135.589  1.00  0.00     0.008 C 
BRANCH   5   6
ATOM      6  C   UNL     1     125.790 111.426 136.872  1.00  0.00     0.075 C 
BRANCH   6   7
ATOM      7  C   UNL     1     126.359 110.538 137.946  1.00  0.00     0.129 C 
ATOM      8  O   UNL     1     127.124 111.003 138.778  1.00  0.00    -0.300 OA
ATOM      9  C   UNL     1     125.971 109.092 138.018  1.00  0.00     0.087 C 
ENDBRANCH   6   7
ENDBRANCH   5   6
ENDBRANCH   1   5
TORSDOF 5
ENDMDL
MODEL 2
REMARK VINA RESULT:    -1.837      1.387      1.867
REMARK INTER + INTRA:          -2.719
REMARK INTER:                  -2.462
REMARK INTRA:                  -0.257
REMARK UNBOUND:                -0.345
REMARK SMILES CCCCCCC(C)=O
REMARK SMILES IDX 4 1 3 2 2 3 1 4 5 5 6 6 7 7 9 8 8 9
REMARK H PARENT
REMARK Flexibility Score: inf
ROOT
ATOM      1  C   UNL     1     126.397 110.333 134.983  1.00  0.00     0.000 C 
ENDROOT
BRANCH   1   2
ATOM      2  C   UNL     1     126.899 109.553 133.762  1.00  0.00    -0.000 C 
BRANCH   2   3
ATOM      3  C   UNL     1     126.725 108.044 133.964  1.00  0.00    -0.003 C 
ATOM      4  C   UNL     1     127.125 107.270 132.710  1.00  0.00     0.004 C 
ENDBRANCH   2   3
ENDBRANCH   1   2
BRANCH   1   5
ATOM      5  C   UNL     1     125.672 109.406 135.969  1.00  0.00     0.008 C 
BRANCH   5   6
ATOM      6  C   UNL     1     126.051 109.702 137.427  1.00  0.00     0.075 C 
BRANCH   6   7
ATOM      7  C   UNL     1     125.832 111.149 137.785  1.00  0.00     0.129 C 
ATOM      8  O   UNL     1     124.703 111.616 137.762  1.00  0.00    -0.300 OA
ATOM      9  C   UNL     1     126.987 112.012 138.195  1.00  0.00     0.087 C 
ENDBRANCH   6   7
ENDBRANCH   5   6
ENDBRANCH   1   5
TORSDOF 5
ENDMDL
MODEL 3
REMARK VINA RESULT:    -1.771      1.723      3.029
REMARK INTER + INTRA:          -2.634
REMARK INTER:                  -2.269
REMARK INTRA:                  -0.366
REMARK UNBOUND:                -0.345
REMARK SMILES CCCCCCC(C)=O
REMARK SMILES IDX 4 1 3 2 2 3 1 4 5 5 6 6 7 7 9 8 8 9
REMARK H PARENT
REMARK Flexibility Score: inf
ROOT
ATOM      1  C   UNL     1     126.821 109.249 133.976  1.00  0.00     0.000 C 
ENDROOT
BRANCH   1   2
ATOM      2  C   UNL     1     127.125 110.709 133.623  1.00  0.00    -0.000 C 
BRANCH   2   3
ATOM      3  C   UNL     1     126.921 111.623 134.836  1.00  0.00    -0.003 C 
ATOM      4  C   UNL     1     126.069 112.837 134.475  1.00  0.00     0.004 C 
ENDBRANCH   2   3
ENDBRANCH   1   2
BRANCH   1   5
ATOM      5  C   UNL     1     125.791 109.159 135.112  1.00  0.00     0.008 C 
BRANCH   5   6
ATOM      6  C   UNL     1     126.002 107.916 135.988  1.00  0.00     0.075 C 
BRANCH   6   7
ATOM      7  C   UNL     1     125.983 108.250 137.456  1.00  0.00     0.129 C 
ATOM      8  O   UNL     1     125.984 107.351 138.284  1.00  0.00    -0.300 OA
ATOM      9  C   UNL     1     125.989 109.679 137.909  1.00  0.00     0.087 C 
ENDBRANCH   6   7
ENDBRANCH   5   6
ENDBRANCH   1   5
TORSDOF 5
ENDMDL
MODEL 4
REMARK VINA RESULT:    -1.715      1.265      2.415
REMARK INTER + INTRA:          -2.562
REMARK INTER:                  -2.238
REMARK INTRA:                  -0.324
REMARK UNBOUND:                -0.345
REMARK SMILES CCCCCCC(C)=O
REMARK SMILES IDX 4 1 3 2 2 3 1 4 5 5 6 6 7 7 9 8 8 9
REMARK H PARENT
REMARK Flexibility Score: inf
ROOT
ATOM      1  C   UNL     1     126.014 107.607 135.541  1.00  0.00     0.000 C 
ENDROOT
BRANCH   1   2
ATOM      2  C   UNL     1     126.350 107.852 134.066  1.00  0.00    -0.000 C 
BRANCH   2   3
ATOM      3  C   UNL     1     127.097 109.177 133.884  1.00  0.00    -0.003 C 
ATOM      4  C   UNL     1     127.125 109.598 132.417  1.00  0.00     0.004 C 
ENDBRANCH   2   3
ENDBRANCH   1   2
BRANCH   1   5
ATOM      5  C   UNL     1     125.262 108.804 136.142  1.00  0.00     0.008 C 
BRANCH   5   6
ATOM      6  C   UNL     1     125.960 109.357 137.392  1.00  0.00     0.075 C 
BRANCH   6   7
ATOM      7  C   UNL     1     125.833 110.854 137.494  1.00  0.00     0.129 C 
ATOM      8  O   UNL     1     125.009 111.344 138.253  1.00  0.00    -0.300 OA
ATOM      9  C   UNL     1     126.728 111.748 136.690  1.00  0.00     0.087 C 
ENDBRANCH   6   7
ENDBRANCH   5   6
ENDBRANCH   1   5
TORSDOF 5
ENDMDL
MODEL 5
REMARK VINA RESULT:    -1.691      2.557      4.627
REMARK INTER + INTRA:          -2.531
REMARK INTER:                  -2.172
REMARK INTRA:                  -0.359
REMARK UNBOUND:                -0.345
REMARK SMILES CCCCCCC(C)=O
REMARK SMILES IDX 4 1 3 2 2 3 1 4 5 5 6 6 7 7 9 8 8 9
REMARK H PARENT
REMARK Flexibility Score: inf
ROOT
ATOM      1  C   UNL     1     125.980 107.607 136.014  1.00  0.00     0.000 C 
ENDROOT
BRANCH   1   2
ATOM      2  C   UNL     1     125.136 108.656 136.747  1.00  0.00    -0.000 C 
BRANCH   2   3
ATOM      3  C   UNL     1     125.993 109.468 137.724  1.00  0.00    -0.003 C 
ATOM      4  C   UNL     1     126.547 108.583 138.838  1.00  0.00     0.004 C 
ENDBRANCH   2   3
ENDBRANCH   1   2
BRANCH   1   5
ATOM      5  C   UNL     1     125.777 107.700 134.495  1.00  0.00     0.008 C 
BRANCH   5   6
ATOM      6  C   UNL     1     127.055 108.142 133.767  1.00  0.00     0.075 C 
BRANCH   6   7
ATOM      7  C   UNL     1     126.929 109.530 133.197  1.00  0.00     0.129 C 
ATOM      8  O   UNL     1     126.798 109.684 131.992  1.00  0.00    -0.300 OA
ATOM      9  C   UNL     1     126.938 110.725 134.103  1.00  0.00     0.087 C 
ENDBRANCH   6   7
ENDBRANCH   5   6
ENDBRANCH   1   5
TORSDOF 5
ENDMDL
MODEL 6
REMARK VINA RESULT:    -1.567      2.374      4.498
REMARK INTER + INTRA:          -2.371
REMARK INTER:                  -2.016
REMARK INTRA:                  -0.355
REMARK UNBOUND:                -0.345
REMARK SMILES CCCCCCC(C)=O
REMARK SMILES IDX 4 1 3 2 2 3 1 4 5 5 6 6 7 7 9 8 8 9
REMARK H PARENT
REMARK Flexibility Score: inf
ROOT
ATOM      1  C   UNL     1     124.859 111.087 136.681  1.00  0.00     0.000 C 
ENDROOT
BRANCH   1   2
ATOM      2  C   UNL     1     126.099 110.823 137.543  1.00  0.00    -0.000 C 
BRANCH   2   3
ATOM      3  C   UNL     1     127.038 112.034 137.540  1.00  0.00    -0.003 C 
ATOM      4  C   UNL     1     127.125 112.669 138.925  1.00  0.00     0.004 C 
ENDBRANCH   2   3
ENDBRANCH   1   2
BRANCH   1   5
ATOM      5  C   UNL     1     124.762 110.074 135.530  1.00  0.00     0.008 C 
BRANCH   5   6
ATOM      6  C   UNL     1     125.952 109.104 135.512  1.00  0.00     0.075 C 
BRANCH   6   7
ATOM      7  C   UNL     1     126.765 109.231 134.251  1.00  0.00     0.129 C 
ATOM      8  O   UNL     1     127.125 108.226 133.656  1.00  0.00    -0.300 OA
ATOM      9  C   UNL     1     127.113 110.583 133.707  1.00  0.00     0.087 C 
ENDBRANCH   6   7
ENDBRANCH   5   6
ENDBRANCH   1   5
TORSDOF 5
ENDMDL
MODEL 7
REMARK VINA RESULT:    -1.537      1.474      2.169
REMARK INTER + INTRA:          -2.332
REMARK INTER:                  -2.113
REMARK INTRA:                  -0.218
REMARK UNBOUND:                -0.345
REMARK SMILES CCCCCCC(C)=O
REMARK SMILES IDX 4 1 3 2 2 3 1 4 5 5 6 6 7 7 9 8 8 9
REMARK H PARENT
REMARK Flexibility Score: inf
ROOT
ATOM      1  C   UNL     1     125.625 110.397 135.964  1.00  0.00     0.000 C 
ENDROOT
BRANCH   1   2
ATOM      2  C   UNL     1     125.997 109.055 135.324  1.00  0.00    -0.000 C 
BRANCH   2   3
ATOM      3  C   UNL     1     126.750 109.263 134.006  1.00  0.00    -0.003 C 
ATOM      4  C   UNL     1     127.125 110.729 133.810  1.00  0.00     0.004 C 
ENDBRANCH   2   3
ENDBRANCH   1   2
BRANCH   1   5
ATOM      5  C   UNL     1     126.386 110.610 137.281  1.00  0.00     0.008 C 
BRANCH   5   6
ATOM      6  C   UNL     1     125.565 110.168 138.501  1.00  0.00     0.075 C 
BRANCH   6   7
ATOM      7  C   UNL     1     125.839 108.737 138.878  1.00  0.00     0.129 C 
ATOM      8  O   UNL     1     126.982 108.381 139.125  1.00  0.00    -0.300 OA
ATOM      9  C   UNL     1     124.715 107.750 138.977  1.00  0.00     0.087 C 
ENDBRANCH   6   7
ENDBRANCH   5   6
ENDBRANCH   1   5
TORSDOF 5
ENDMDL
