MODEL 1
REMARK VINA RESULT:    -2.545      0.000      0.000
REMARK INTER + INTRA:          -2.545
REMARK INTER:                  -2.545
REMARK INTRA:                   0.000
REMARK UNBOUND:                 0.000
REMARK SMILES CC(=O)[O-]
REMARK SMILES IDX 1 1 2 2 3 3 4 4
REMARK H PARENT
REMARK Flexibility Score: inf
ROOT
ATOM      1  C   UNL     1     125.893 -35.428  45.813  1.00  0.00     0.063 C 
ATOM      2  C   UNL     1     124.843 -34.371  45.779  1.00  0.00     0.038 C 
ATOM      3  O   UNL     1     123.631 -34.679  45.919  1.00  0.00    -0.550 OA
ATOM      4  O   UNL     1     125.203 -33.036  45.648  1.00  0.00    -0.550 OA
ENDROOT
TORSDOF 0
ENDMDL
MODEL 2
REMARK VINA RESULT:    -2.427     11.762     12.099
REMARK INTER + INTRA:          -2.427
REMARK INTER:                  -2.427
REMARK INTRA:                   0.000
REMARK UNBOUND:                 0.000
REMARK SMILES CC(=O)[O-]
REMARK SMILES IDX 1 1 2 2 3 3 4 4
REMARK H PARENT
REMARK Flexibility Score: inf
ROOT
ATOM      1  C   UNL     1     133.794 -41.676  40.513  1.00  0.00     0.063 C 
ATOM      2  C   UNL     1     132.529 -41.378  39.783  1.00  0.00     0.038 C 
ATOM      3  O   UNL     1     131.698 -40.563  40.263  1.00  0.00    -0.550 OA
ATOM      4  O   UNL     1     132.286 -41.958  38.544  1.00  0.00    -0.550 OA
ENDROOT
TORSDOF 0
ENDMDL
MODEL 3
REMARK VINA RESULT:    -2.416     11.774     12.096
REMARK INTER + INTRA:          -2.416
REMARK INTER:                  -2.416
REMARK INTRA:                   0.000
REMARK UNBOUND:                 0.000
REMARK SMILES CC(=O)[O-]
REMARK SMILES IDX 1 1 2 2 3 3 4 4
REMARK H PARENT
REMARK Flexibility Score: inf
ROOT
ATOM      1  C   UNL     1     133.847 -41.701  40.539  1.00  0.00     0.063 C 
ATOM      2  C   UNL     1     132.603 -41.408  39.773  1.00  0.00     0.038 C 
ATOM      3  O   UNL     1     132.385 -41.987  38.677  1.00  0.00    -0.550 OA
ATOM      4  O   UNL     1     131.653 -40.537  40.292  1.00  0.00    -0.550 OA
ENDROOT
TORSDOF 0
ENDMDL
MODEL 4
REMARK VINA RESULT:    -2.371     12.711     13.094
REMARK INTER + INTRA:          -2.371
REMARK INTER:                  -2.371
REMARK INTRA:                   0.000
REMARK UNBOUND:                 0.000
REMARK SMILES CC(=O)[O-]
REMARK SMILES IDX 1 1 2 2 3 3 4 4
REMARK H PARENT
REMARK Flexibility Score: inf
ROOT
ATOM      1  C   UNL     1     132.615 -41.096  40.008  1.00  0.00     0.063 C 
ATOM      2  C   UNL     1     133.741 -42.032  40.287  1.00  0.00     0.038 C 
ATOM      3  O   UNL     1     134.399 -41.929  41.355  1.00  0.00    -0.550 OA
ATOM      4  O   UNL     1     134.033 -43.056  39.395  1.00  0.00    -0.550 OA
ENDROOT
TORSDOF 0
ENDMDL
MODEL 5
REMARK VINA RESULT:    -2.214     11.596     11.932
REMARK INTER + INTRA:          -2.214
REMARK INTER:                  -2.214
REMARK INTRA:                   0.000
REMARK UNBOUND:                 0.000
REMARK SMILES CC(=O)[O-]
REMARK SMILES IDX 1 1 2 2 3 3 4 4
REMARK H PARENT
REMARK Flexibility Score: inf
ROOT
ATOM      1  C   UNL     1     132.242 -41.959  38.601  1.00  0.00     0.063 C 
ATOM      2  C   UNL     1     132.457 -41.239  39.888  1.00  0.00     0.038 C 
ATOM      3  O   UNL     1     131.578 -40.454  40.328  1.00  0.00    -0.550 OA
ATOM      4  O   UNL     1     133.605 -41.474  40.635  1.00  0.00    -0.550 OA
ENDROOT
TORSDOF 0
ENDMDL
MODEL 6
REMARK VINA RESULT:    -2.206      1.386      1.769
REMARK INTER + INTRA:          -2.206
REMARK INTER:                  -2.206
REMARK INTRA:                   0.000
REMARK UNBOUND:                 0.000
REMARK SMILES CC(=O)[O-]
REMARK SMILES IDX 1 1 2 2 3 3 4 4
REMARK H PARENT
REMARK Flexibility Score: inf
ROOT
ATOM      1  C   UNL     1     125.268 -33.087  45.739  1.00  0.00     0.063 C 
ATOM      2  C   UNL     1     124.866 -34.515  45.880  1.00  0.00     0.038 C 
ATOM      3  O   UNL     1     123.652 -34.820  46.016  1.00  0.00    -0.550 OA
ATOM      4  O   UNL     1     125.822 -35.520  45.808  1.00  0.00    -0.550 OA
ENDROOT
TORSDOF 0
ENDMDL
MODEL 7
REMARK VINA RESULT:    -2.043     19.089     19.291
REMARK INTER + INTRA:          -2.043
REMARK INTER:                  -2.043
REMARK INTRA:                   0.000
REMARK UNBOUND:                 0.000
REMARK SMILES CC(=O)[O-]
REMARK SMILES IDX 1 1 2 2 3 3 4 4
REMARK H PARENT
REMARK Flexibility Score: inf
ROOT
ATOM      1  C   UNL     1     129.358 -23.799  30.240  1.00  0.00     0.063 C 
ATOM      2  C   UNL     1     130.338 -24.901  30.023  1.00  0.00     0.038 C 
ATOM      3  O   UNL     1     129.946 -26.025  29.612  1.00  0.00    -0.550 OA
ATOM      4  O   UNL     1     131.694 -24.676  30.222  1.00  0.00    -0.550 OA
ENDROOT
TORSDOF 0
ENDMDL
MODEL 8
REMARK VINA RESULT:    -2.021     17.251     17.448
REMARK INTER + INTRA:          -2.021
REMARK INTER:                  -2.021
REMARK INTRA:                   0.000
REMARK UNBOUND:                 0.000
REMARK SMILES CC(=O)[O-]
REMARK SMILES IDX 1 1 2 2 3 3 4 4
REMARK H PARENT
REMARK Flexibility Score: inf
ROOT
ATOM      1  C   UNL     1     127.724 -38.979  28.848  1.00  0.00     0.063 C 
ATOM      2  C   UNL     1     129.024 -38.853  29.565  1.00  0.00     0.038 C 
ATOM      3  O   UNL     1     129.936 -38.123  29.098  1.00  0.00    -0.550 OA
ATOM      4  O   UNL     1     129.215 -39.498  30.781  1.00  0.00    -0.550 OA
ENDROOT
TORSDOF 0
ENDMDL
