MODEL 1
REMARK VINA RESULT:    14.212      0.000      0.000
REMARK INTER + INTRA:          25.132
REMARK INTER:                  25.844
REMARK INTRA:                  -0.713
REMARK UNBOUND:                -0.713
REMARK SMILES CCCCCCCCCCCCCC[C@H](C)C(=O)[O-]
REMARK SMILES IDX 9 1 10 2 11 3 12 4 13 5 14 6 15 7 16 8 17 9 18 10 19 11 8 12
REMARK SMILES IDX 7 13 6 14 5 15 4 16 3 17 2 18 1 19
REMARK H PARENT
REMARK Flexibility Score: inf
ROOT
ATOM      1  C   UNL     1     -13.092   1.584 -17.981  1.00  0.00     0.000 C 
ENDROOT
BRANCH   1   2
ATOM      2  C   UNL     1     -12.655   3.058 -17.889  1.00  0.00     0.000 C 
BRANCH   2   3
ATOM      3  C   UNL     1     -11.665   3.310 -16.743  1.00  0.00     0.000 C 
BRANCH   3   4
ATOM      4  C   UNL     1     -11.290   4.796 -16.596  1.00  0.00     0.000 C 
BRANCH   4   5
ATOM      5  C   UNL     1     -12.382   5.604 -15.862  1.00  0.00     0.001 C 
BRANCH   5   6
ATOM      6  C   UNL     1     -12.190   7.131 -15.958  1.00  0.00     0.009 C 
BRANCH   6   7
ATOM      7  C   UNL     1     -13.391   7.881 -16.573  1.00  0.00     0.032 C 
ATOM      8  C   UNL     1     -12.905   9.032 -17.459  1.00  0.00     0.014 C 
BRANCH   7   9
ATOM      9  C   UNL     1     -14.308   8.423 -15.508  1.00  0.00     0.044 C 
ATOM     10  O   UNL     1     -14.153   8.079 -14.306  1.00  0.00    -0.550 OA
ATOM     11  O   UNL     1     -15.350   9.280 -15.845  1.00  0.00    -0.550 OA
ENDBRANCH   7   9
ENDBRANCH   6   7
ENDBRANCH   5   6
ENDBRANCH   4   5
ENDBRANCH   3   4
ENDBRANCH   2   3
ENDBRANCH   1   2
BRANCH   1  12
ATOM     12  C   UNL     1     -12.120   0.635 -17.264  1.00  0.00     0.000 C 
BRANCH  12  13
ATOM     13  C   UNL     1     -12.264  -0.822 -17.735  1.00  0.00    -0.000 C 
BRANCH  13  14
ATOM     14  C   UNL     1     -10.929  -1.426 -18.203  1.00  0.00    -0.000 C 
BRANCH  14  15
ATOM     15  C   UNL     1      -9.711  -0.754 -17.547  1.00  0.00    -0.000 C 
BRANCH  15  16
ATOM     16  C   UNL     1      -8.494  -1.701 -17.473  1.00  0.00    -0.000 C 
BRANCH  16  17
ATOM     17  C   UNL     1      -7.181  -0.989 -17.100  1.00  0.00    -0.000 C 
BRANCH  17  18
ATOM     18  C   UNL     1      -7.145  -0.528 -15.637  1.00  0.00    -0.003 C 
ATOM     19  C   UNL     1      -6.961  -1.711 -14.691  1.00  0.00     0.004 C 
ENDBRANCH  17  18
ENDBRANCH  16  17
ENDBRANCH  15  16
ENDBRANCH  14  15
ENDBRANCH  13  14
ENDBRANCH  12  13
ENDBRANCH   1  12
TORSDOF 14
ENDMDL
MODEL 2
REMARK VINA RESULT:    15.057      2.526      3.003
REMARK INTER + INTRA:          26.667
REMARK INTER:                  27.380
REMARK INTRA:                  -0.712
REMARK UNBOUND:                -0.713
REMARK SMILES CCCCCCCCCCCCCC[C@H](C)C(=O)[O-]
REMARK SMILES IDX 9 1 10 2 11 3 12 4 13 5 14 6 15 7 16 8 17 9 18 10 19 11 8 12
REMARK SMILES IDX 7 13 6 14 5 15 4 16 3 17 2 18 1 19
REMARK H PARENT
REMARK Flexibility Score: inf
ROOT
ATOM      1  C   UNL     1     -12.993   0.993 -17.067  1.00  0.00     0.000 C 
ENDROOT
BRANCH   1   2
ATOM      2  C   UNL     1     -12.114   2.127 -17.625  1.00  0.00     0.000 C 
BRANCH   2   3
ATOM      3  C   UNL     1     -12.940   3.281 -18.213  1.00  0.00     0.000 C 
BRANCH   3   4
ATOM      4  C   UNL     1     -14.457   3.033 -18.122  1.00  0.00     0.000 C 
BRANCH   4   5
ATOM      5  C   UNL     1     -15.277   4.246 -18.613  1.00  0.00     0.001 C 
BRANCH   5   6
ATOM      6  C   UNL     1     -14.415   5.372 -19.217  1.00  0.00     0.009 C 
BRANCH   6   7
ATOM      7  C   UNL     1     -15.186   6.323 -20.159  1.00  0.00     0.032 C 
ATOM      8  C   UNL     1     -14.660   6.198 -21.592  1.00  0.00     0.014 C 
BRANCH   7   9
ATOM      9  C   UNL     1     -15.074   7.755 -19.708  1.00  0.00     0.044 C 
ATOM     10  O   UNL     1     -14.113   8.469 -20.099  1.00  0.00    -0.550 OA
ATOM     11  O   UNL     1     -16.011   8.292 -18.832  1.00  0.00    -0.550 OA
ENDBRANCH   7   9
ENDBRANCH   6   7
ENDBRANCH   5   6
ENDBRANCH   4   5
ENDBRANCH   3   4
ENDBRANCH   2   3
ENDBRANCH   1   2
BRANCH   1  12
ATOM     12  C   UNL     1     -12.350  -0.391 -17.238  1.00  0.00     0.000 C 
BRANCH  12  13
ATOM     13  C   UNL     1     -11.519  -0.501 -18.528  1.00  0.00    -0.000 C 
BRANCH  13  14
ATOM     14  C   UNL     1     -10.397  -1.546 -18.421  1.00  0.00    -0.000 C 
BRANCH  14  15
ATOM     15  C   UNL     1      -9.434  -1.266 -17.255  1.00  0.00    -0.000 C 
BRANCH  15  16
ATOM     16  C   UNL     1      -7.976  -1.635 -17.603  1.00  0.00    -0.000 C 
BRANCH  16  17
ATOM     17  C   UNL     1      -6.951  -0.570 -17.171  1.00  0.00    -0.000 C 
BRANCH  17  18
ATOM     18  C   UNL     1      -6.893  -0.379 -15.650  1.00  0.00    -0.003 C 
ATOM     19  C   UNL     1      -7.030  -1.712 -14.920  1.00  0.00     0.004 C 
ENDBRANCH  17  18
ENDBRANCH  16  17
ENDBRANCH  15  16
ENDBRANCH  14  15
ENDBRANCH  13  14
ENDBRANCH  12  13
ENDBRANCH   1  12
TORSDOF 14
ENDMDL
MODEL 3
REMARK VINA RESULT:    15.366      4.310      8.806
REMARK INTER + INTRA:          27.230
REMARK INTER:                  27.482
REMARK INTRA:                  -0.252
REMARK UNBOUND:                -0.713
REMARK SMILES CCCCCCCCCCCCCC[C@H](C)C(=O)[O-]
REMARK SMILES IDX 9 1 10 2 11 3 12 4 13 5 14 6 15 7 16 8 17 9 18 10 19 11 8 12
REMARK SMILES IDX 7 13 6 14 5 15 4 16 3 17 2 18 1 19
REMARK H PARENT
REMARK Flexibility Score: inf
ROOT
ATOM      1  C   UNL     1     -12.091   1.643 -17.470  1.00  0.00     0.000 C 
ENDROOT
BRANCH   1   2
ATOM      2  C   UNL     1     -12.833   0.331 -17.155  1.00  0.00     0.000 C 
BRANCH   2   3
ATOM      3  C   UNL     1     -12.350  -0.844 -18.017  1.00  0.00     0.000 C 
BRANCH   3   4
ATOM      4  C   UNL     1     -10.857  -0.744 -18.376  1.00  0.00     0.000 C 
BRANCH   4   5
ATOM      5  C   UNL     1      -9.945  -0.952 -17.148  1.00  0.00     0.001 C 
BRANCH   5   6
ATOM      6  C   UNL     1      -9.048   0.262 -16.830  1.00  0.00     0.009 C 
BRANCH   6   7
ATOM      7  C   UNL     1      -7.546  -0.075 -16.716  1.00  0.00     0.032 C 
ATOM      8  C   UNL     1      -6.875   0.002 -18.091  1.00  0.00     0.014 C 
BRANCH   7   9
ATOM      9  C   UNL     1      -7.331  -1.445 -16.131  1.00  0.00     0.044 C 
ATOM     10  O   UNL     1      -7.588  -2.473 -16.813  1.00  0.00    -0.550 OA
ATOM     11  O   UNL     1      -6.879  -1.588 -14.823  1.00  0.00    -0.550 OA
ENDBRANCH   7   9
ENDBRANCH   6   7
ENDBRANCH   5   6
ENDBRANCH   4   5
ENDBRANCH   3   4
ENDBRANCH   2   3
ENDBRANCH   1   2
BRANCH   1  12
ATOM     12  C   UNL     1     -13.015   2.716 -18.065  1.00  0.00     0.000 C 
BRANCH  12  13
ATOM     13  C   UNL     1     -12.591   4.142 -17.672  1.00  0.00    -0.000 C 
BRANCH  13  14
ATOM     14  C   UNL     1     -11.563   4.160 -16.530  1.00  0.00    -0.000 C 
BRANCH  14  15
ATOM     15  C   UNL     1     -11.389   5.556 -15.908  1.00  0.00    -0.000 C 
BRANCH  15  16
ATOM     16  C   UNL     1     -12.682   6.395 -15.990  1.00  0.00    -0.000 C 
BRANCH  16  17
ATOM     17  C   UNL     1     -12.492   7.754 -16.687  1.00  0.00    -0.000 C 
BRANCH  17  18
ATOM     18  C   UNL     1     -13.749   8.632 -16.641  1.00  0.00    -0.003 C 
ATOM     19  C   UNL     1     -14.578   8.341 -15.393  1.00  0.00     0.004 C 
ENDBRANCH  17  18
ENDBRANCH  16  17
ENDBRANCH  15  16
ENDBRANCH  14  15
ENDBRANCH  13  14
ENDBRANCH  12  13
ENDBRANCH   1  12
TORSDOF 14
ENDMDL
MODEL 4
REMARK VINA RESULT:    15.682      4.705      8.934
REMARK INTER + INTRA:          27.804
REMARK INTER:                  28.085
REMARK INTRA:                  -0.280
REMARK UNBOUND:                -0.713
REMARK SMILES CCCCCCCCCCCCCC[C@H](C)C(=O)[O-]
REMARK SMILES IDX 9 1 10 2 11 3 12 4 13 5 14 6 15 7 16 8 17 9 18 10 19 11 8 12
REMARK SMILES IDX 7 13 6 14 5 15 4 16 3 17 2 18 1 19
REMARK H PARENT
REMARK Flexibility Score: inf
ROOT
ATOM      1  C   UNL     1     -13.186   0.185 -17.137  1.00  0.00     0.000 C 
ENDROOT
BRANCH   1   2
ATOM      2  C   UNL     1     -12.357  -1.110 -17.203  1.00  0.00     0.000 C 
BRANCH   2   3
ATOM      3  C   UNL     1     -11.448  -1.168 -18.439  1.00  0.00     0.000 C 
BRANCH   3   4
ATOM      4  C   UNL     1      -9.959  -0.986 -18.092  1.00  0.00     0.000 C 
BRANCH   4   5
ATOM      5  C   UNL     1      -9.757  -0.385 -16.684  1.00  0.00     0.001 C 
BRANCH   5   6
ATOM      6  C   UNL     1      -8.517   0.525 -16.573  1.00  0.00     0.009 C 
BRANCH   6   7
ATOM      7  C   UNL     1      -7.174  -0.207 -16.787  1.00  0.00     0.032 C 
ATOM      8  C   UNL     1      -6.875  -0.348 -18.282  1.00  0.00     0.014 C 
BRANCH   7   9
ATOM      9  C   UNL     1      -7.181  -1.570 -16.147  1.00  0.00     0.044 C 
ATOM     10  O   UNL     1      -7.435  -2.592 -16.839  1.00  0.00    -0.550 OA
ATOM     11  O   UNL     1      -6.939  -1.709 -14.785  1.00  0.00    -0.550 OA
ENDBRANCH   7   9
ENDBRANCH   6   7
ENDBRANCH   5   6
ENDBRANCH   4   5
ENDBRANCH   3   4
ENDBRANCH   2   3
ENDBRANCH   1   2
BRANCH   1  12
ATOM     12  C   UNL     1     -12.615   1.298 -18.028  1.00  0.00     0.000 C 
BRANCH  12  13
ATOM     13  C   UNL     1     -11.927   2.410 -17.217  1.00  0.00    -0.000 C 
BRANCH  13  14
ATOM     14  C   UNL     1     -12.534   3.797 -17.483  1.00  0.00    -0.000 C 
BRANCH  14  15
ATOM     15  C   UNL     1     -13.573   3.783 -18.617  1.00  0.00    -0.000 C 
BRANCH  15  16
ATOM     16  C   UNL     1     -14.536   4.987 -18.539  1.00  0.00    -0.000 C 
BRANCH  16  17
ATOM     17  C   UNL     1     -14.851   5.613 -19.910  1.00  0.00    -0.000 C 
BRANCH  17  18
ATOM     18  C   UNL     1     -15.426   7.032 -19.801  1.00  0.00    -0.003 C 
ATOM     19  C   UNL     1     -14.392   8.078 -20.209  1.00  0.00     0.004 C 
ENDBRANCH  17  18
ENDBRANCH  16  17
ENDBRANCH  15  16
ENDBRANCH  14  15
ENDBRANCH  13  14
ENDBRANCH  12  13
ENDBRANCH   1  12
TORSDOF 14
ENDMDL
MODEL 5
REMARK VINA RESULT:    15.778      4.434      9.108
REMARK INTER + INTRA:          27.979
REMARK INTER:                  28.695
REMARK INTRA:                  -0.716
REMARK UNBOUND:                -0.713
REMARK SMILES CCCCCCCCCCCCCC[C@H](C)C(=O)[O-]
REMARK SMILES IDX 9 1 10 2 11 3 12 4 13 5 14 6 15 7 16 8 17 9 18 10 19 11 8 12
REMARK SMILES IDX 7 13 6 14 5 15 4 16 3 17 2 18 1 19
REMARK H PARENT
REMARK Flexibility Score: inf
ROOT
ATOM      1  C   UNL     1     -11.958   1.980 -17.481  1.00  0.00     0.000 C 
ENDROOT
BRANCH   1   2
ATOM      2  C   UNL     1     -12.954   0.863 -17.119  1.00  0.00     0.000 C 
BRANCH   2   3
ATOM      3  C   UNL     1     -12.371  -0.541 -17.338  1.00  0.00     0.000 C 
BRANCH   3   4
ATOM      4  C   UNL     1     -11.348  -0.588 -18.487  1.00  0.00     0.000 C 
BRANCH   4   5
ATOM      5  C   UNL     1      -9.946  -1.017 -18.002  1.00  0.00     0.001 C 
BRANCH   5   6
ATOM      6  C   UNL     1      -9.403  -0.159 -16.841  1.00  0.00     0.009 C 
BRANCH   6   7
ATOM      7  C   UNL     1      -7.867  -0.194 -16.693  1.00  0.00     0.032 C 
ATOM      8  C   UNL     1      -7.195  -0.100 -18.066  1.00  0.00     0.014 C 
BRANCH   7   9
ATOM      9  C   UNL     1      -7.408  -1.449 -15.997  1.00  0.00     0.044 C 
ATOM     10  O   UNL     1      -7.501  -2.564 -16.576  1.00  0.00    -0.550 OA
ATOM     11  O   UNL     1      -6.910  -1.392 -14.700  1.00  0.00    -0.550 OA
ENDBRANCH   7   9
ENDBRANCH   6   7
ENDBRANCH   5   6
ENDBRANCH   4   5
ENDBRANCH   3   4
ENDBRANCH   2   3
ENDBRANCH   1   2
BRANCH   1  12
ATOM     12  C   UNL     1     -12.658   3.285 -17.891  1.00  0.00     0.000 C 
BRANCH  12  13
ATOM     13  C   UNL     1     -14.074   3.047 -18.443  1.00  0.00    -0.000 C 
BRANCH  13  14
ATOM     14  C   UNL     1     -14.886   4.347 -18.565  1.00  0.00    -0.000 C 
BRANCH  14  15
ATOM     15  C   UNL     1     -14.246   5.359 -19.531  1.00  0.00    -0.000 C 
BRANCH  15  16
ATOM     16  C   UNL     1     -15.254   6.424 -20.011  1.00  0.00    -0.000 C 
BRANCH  16  17
ATOM     17  C   UNL     1     -14.854   7.863 -19.641  1.00  0.00    -0.000 C 
BRANCH  17  18
ATOM     18  C   UNL     1     -14.719   8.076 -18.127  1.00  0.00    -0.003 C 
ATOM     19  C   UNL     1     -13.412   8.786 -17.784  1.00  0.00     0.004 C 
ENDBRANCH  17  18
ENDBRANCH  16  17
ENDBRANCH  15  16
ENDBRANCH  14  15
ENDBRANCH  13  14
ENDBRANCH  12  13
ENDBRANCH   1  12
TORSDOF 14
ENDMDL
MODEL 6
REMARK VINA RESULT:    15.937      1.909      2.632
REMARK INTER + INTRA:          28.268
REMARK INTER:                  28.909
REMARK INTRA:                  -0.642
REMARK UNBOUND:                -0.713
REMARK SMILES CCCCCCCCCCCCCC[C@H](C)C(=O)[O-]
REMARK SMILES IDX 9 1 10 2 11 3 12 4 13 5 14 6 15 7 16 8 17 9 18 10 19 11 8 12
REMARK SMILES IDX 7 13 6 14 5 15 4 16 3 17 2 18 1 19
REMARK H PARENT
REMARK Flexibility Score: inf
ROOT
ATOM      1  C   UNL     1     -13.611   2.863 -18.318  1.00  0.00     0.000 C 
ENDROOT
BRANCH   1   2
ATOM      2  C   UNL     1     -13.490   4.310 -18.832  1.00  0.00     0.000 C 
BRANCH   2   3
ATOM      3  C   UNL     1     -14.847   5.024 -18.913  1.00  0.00     0.000 C 
BRANCH   3   4
ATOM      4  C   UNL     1     -14.853   6.177 -19.932  1.00  0.00     0.000 C 
BRANCH   4   5
ATOM      5  C   UNL     1     -15.269   7.519 -19.293  1.00  0.00     0.001 C 
BRANCH   5   6
ATOM      6  C   UNL     1     -14.127   8.222 -18.532  1.00  0.00     0.009 C 
BRANCH   6   7
ATOM      7  C   UNL     1     -14.129   7.964 -17.010  1.00  0.00     0.032 C 
ATOM      8  C   UNL     1     -14.778   9.138 -16.270  1.00  0.00     0.014 C 
BRANCH   7   9
ATOM      9  C   UNL     1     -12.734   7.752 -16.485  1.00  0.00     0.044 C 
ATOM     10  O   UNL     1     -12.493   6.803 -15.693  1.00  0.00    -0.550 OA
ATOM     11  O   UNL     1     -11.708   8.620 -16.843  1.00  0.00    -0.550 OA
ENDBRANCH   7   9
ENDBRANCH   6   7
ENDBRANCH   5   6
ENDBRANCH   4   5
ENDBRANCH   3   4
ENDBRANCH   2   3
ENDBRANCH   1   2
BRANCH   1  12
ATOM     12  C   UNL     1     -12.307   2.349 -17.691  1.00  0.00     0.000 C 
BRANCH  12  13
ATOM     13  C   UNL     1     -12.420   0.894 -17.204  1.00  0.00    -0.000 C 
BRANCH  13  14
ATOM     14  C   UNL     1     -11.959  -0.121 -18.264  1.00  0.00    -0.000 C 
BRANCH  14  15
ATOM     15  C   UNL     1     -10.955  -1.145 -17.709  1.00  0.00    -0.000 C 
BRANCH  15  16
ATOM     16  C   UNL     1      -9.652  -0.478 -17.221  1.00  0.00    -0.000 C 
BRANCH  16  17
ATOM     17  C   UNL     1      -8.427  -1.410 -17.270  1.00  0.00    -0.000 C 
BRANCH  17  18
ATOM     18  C   UNL     1      -7.180  -0.792 -16.625  1.00  0.00    -0.003 C 
ATOM     19  C   UNL     1      -6.985  -1.302 -15.200  1.00  0.00     0.004 C 
ENDBRANCH  17  18
ENDBRANCH  16  17
ENDBRANCH  15  16
ENDBRANCH  14  15
ENDBRANCH  13  14
ENDBRANCH  12  13
ENDBRANCH   1  12
TORSDOF 14
ENDMDL
MODEL 7
REMARK VINA RESULT:    16.225      5.415      7.385
REMARK INTER + INTRA:          28.792
REMARK INTER:                  29.451
REMARK INTRA:                  -0.659
REMARK UNBOUND:                -0.713
REMARK SMILES CCCCCCCCCCCCCC[C@H](C)C(=O)[O-]
REMARK SMILES IDX 9 1 10 2 11 3 12 4 13 5 14 6 15 7 16 8 17 9 18 10 19 11 8 12
REMARK SMILES IDX 7 13 6 14 5 15 4 16 3 17 2 18 1 19
REMARK H PARENT
REMARK Flexibility Score: inf
ROOT
ATOM      1  C   UNL     1     -14.267  -2.246 -15.599  1.00  0.00     0.000 C 
ENDROOT
BRANCH   1   2
ATOM      2  C   UNL     1     -14.378  -3.739 -15.237  1.00  0.00     0.000 C 
BRANCH   2   3
ATOM      3  C   UNL     1     -14.153  -4.002 -13.741  1.00  0.00     0.000 C 
BRANCH   3   4
ATOM      4  C   UNL     1     -15.145  -3.239 -12.846  1.00  0.00     0.000 C 
BRANCH   4   5
ATOM      5  C   UNL     1     -14.753  -3.300 -11.354  1.00  0.00     0.001 C 
BRANCH   5   6
ATOM      6  C   UNL     1     -15.108  -2.022 -10.567  1.00  0.00     0.009 C 
BRANCH   6   7
ATOM      7  C   UNL     1     -13.905  -1.093 -10.294  1.00  0.00     0.032 C 
ATOM      8  C   UNL     1     -13.521  -1.139  -8.812  1.00  0.00     0.014 C 
BRANCH   7   9
ATOM      9  C   UNL     1     -14.205   0.328 -10.690  1.00  0.00     0.044 C 
ATOM     10  O   UNL     1     -15.268   0.602 -11.307  1.00  0.00    -0.550 OA
ATOM     11  O   UNL     1     -13.298   1.343 -10.406  1.00  0.00    -0.550 OA
ENDBRANCH   7   9
ENDBRANCH   6   7
ENDBRANCH   5   6
ENDBRANCH   4   5
ENDBRANCH   3   4
ENDBRANCH   2   3
ENDBRANCH   1   2
BRANCH   1  12
ATOM     12  C   UNL     1     -13.277  -1.989 -16.744  1.00  0.00     0.000 C 
BRANCH  12  13
ATOM     13  C   UNL     1     -12.867  -0.510 -16.850  1.00  0.00    -0.000 C 
BRANCH  13  14
ATOM     14  C   UNL     1     -11.983  -0.227 -18.075  1.00  0.00    -0.000 C 
BRANCH  14  15
ATOM     15  C   UNL     1     -10.738  -1.128 -18.130  1.00  0.00    -0.000 C 
BRANCH  15  16
ATOM     16  C   UNL     1      -9.649  -0.678 -17.133  1.00  0.00    -0.000 C 
BRANCH  16  17
ATOM     17  C   UNL     1      -8.294  -1.378 -17.342  1.00  0.00    -0.000 C 
BRANCH  17  18
ATOM     18  C   UNL     1      -7.145  -0.694 -16.590  1.00  0.00    -0.003 C 
ATOM     19  C   UNL     1      -7.007  -1.246 -15.174  1.00  0.00     0.004 C 
ENDBRANCH  17  18
ENDBRANCH  16  17
ENDBRANCH  15  16
ENDBRANCH  14  15
ENDBRANCH  13  14
ENDBRANCH  12  13
ENDBRANCH   1  12
TORSDOF 14
ENDMDL
MODEL 8
REMARK VINA RESULT:    16.516      3.866      9.314
REMARK INTER + INTRA:          29.320
REMARK INTER:                  30.123
REMARK INTRA:                  -0.802
REMARK UNBOUND:                -0.713
REMARK SMILES CCCCCCCCCCCCCC[C@H](C)C(=O)[O-]
REMARK SMILES IDX 9 1 10 2 11 3 12 4 13 5 14 6 15 7 16 8 17 9 18 10 19 11 8 12
REMARK SMILES IDX 7 13 6 14 5 15 4 16 3 17 2 18 1 19
REMARK H PARENT
REMARK Flexibility Score: inf
ROOT
ATOM      1  C   UNL     1     -11.715   2.656 -17.093  1.00  0.00     0.000 C 
ENDROOT
BRANCH   1   2
ATOM      2  C   UNL     1     -12.595   1.517 -17.638  1.00  0.00     0.000 C 
BRANCH   2   3
ATOM      3  C   UNL     1     -12.178   0.139 -17.102  1.00  0.00     0.000 C 
BRANCH   3   4
ATOM      4  C   UNL     1     -11.791  -0.843 -18.222  1.00  0.00     0.000 C 
BRANCH   4   5
ATOM      5  C   UNL     1     -10.383  -1.441 -18.013  1.00  0.00     0.001 C 
BRANCH   5   6
ATOM      6  C   UNL     1      -9.424  -0.512 -17.242  1.00  0.00     0.009 C 
BRANCH   6   7
ATOM      7  C   UNL     1      -7.992  -1.069 -17.085  1.00  0.00     0.032 C 
ATOM      8  C   UNL     1      -7.945  -2.544 -17.495  1.00  0.00     0.014 C 
BRANCH   7   9
ATOM      9  C   UNL     1      -7.498  -0.928 -15.669  1.00  0.00     0.044 C 
ATOM     10  O   UNL     1      -6.951  -1.903 -15.089  1.00  0.00    -0.550 OA
ATOM     11  O   UNL     1      -7.670   0.268 -14.980  1.00  0.00    -0.550 OA
ENDBRANCH   7   9
ENDBRANCH   6   7
ENDBRANCH   5   6
ENDBRANCH   4   5
ENDBRANCH   3   4
ENDBRANCH   2   3
ENDBRANCH   1   2
BRANCH   1  12
ATOM     12  C   UNL     1     -12.377   4.034 -17.235  1.00  0.00     0.000 C 
BRANCH  12  13
ATOM     13  C   UNL     1     -11.708   5.105 -16.356  1.00  0.00    -0.000 C 
BRANCH  13  14
ATOM     14  C   UNL     1     -12.673   6.237 -15.968  1.00  0.00    -0.000 C 
BRANCH  14  15
ATOM     15  C   UNL     1     -12.235   7.605 -16.519  1.00  0.00    -0.000 C 
BRANCH  15  16
ATOM     16  C   UNL     1     -13.418   8.590 -16.638  1.00  0.00    -0.000 C 
BRANCH  16  17
ATOM     17  C   UNL     1     -14.537   8.099 -17.574  1.00  0.00    -0.000 C 
BRANCH  17  18
ATOM     18  C   UNL     1     -14.153   8.177 -19.058  1.00  0.00    -0.003 C 
ATOM     19  C   UNL     1     -15.168   7.441 -19.929  1.00  0.00     0.004 C 
ENDBRANCH  17  18
ENDBRANCH  16  17
ENDBRANCH  15  16
ENDBRANCH  14  15
ENDBRANCH  13  14
ENDBRANCH  12  13
ENDBRANCH   1  12
TORSDOF 14
ENDMDL
MODEL 9
REMARK VINA RESULT:    16.760      6.180      8.647
REMARK INTER + INTRA:          29.765
REMARK INTER:                  30.394
REMARK INTRA:                  -0.630
REMARK UNBOUND:                -0.713
REMARK SMILES CCCCCCCCCCCCCC[C@H](C)C(=O)[O-]
REMARK SMILES IDX 9 1 10 2 11 3 12 4 13 5 14 6 15 7 16 8 17 9 18 10 19 11 8 12
REMARK SMILES IDX 7 13 6 14 5 15 4 16 3 17 2 18 1 19
REMARK H PARENT
REMARK Flexibility Score: inf
ROOT
ATOM      1  C   UNL     1     -14.315  -2.328 -15.749  1.00  0.00     0.000 C 
ENDROOT
BRANCH   1   2
ATOM      2  C   UNL     1     -13.168  -2.156 -16.762  1.00  0.00     0.000 C 
BRANCH   2   3
ATOM      3  C   UNL     1     -12.742  -0.690 -16.928  1.00  0.00     0.000 C 
BRANCH   3   4
ATOM      4  C   UNL     1     -11.659  -0.504 -18.005  1.00  0.00     0.000 C 
BRANCH   4   5
ATOM      5  C   UNL     1     -10.274  -0.997 -17.533  1.00  0.00     0.001 C 
BRANCH   5   6
ATOM      6  C   UNL     1      -9.458   0.075 -16.783  1.00  0.00     0.009 C 
BRANCH   6   7
ATOM      7  C   UNL     1      -7.931  -0.150 -16.823  1.00  0.00     0.032 C 
ATOM      8  C   UNL     1      -7.459  -0.359 -18.266  1.00  0.00     0.014 C 
BRANCH   7   9
ATOM      9  C   UNL     1      -7.526  -1.336 -15.988  1.00  0.00     0.044 C 
ATOM     10  O   UNL     1      -7.103  -1.168 -14.814  1.00  0.00    -0.550 OA
ATOM     11  O   UNL     1      -7.585  -2.621 -16.516  1.00  0.00    -0.550 OA
ENDBRANCH   7   9
ENDBRANCH   6   7
ENDBRANCH   5   6
ENDBRANCH   4   5
ENDBRANCH   3   4
ENDBRANCH   2   3
ENDBRANCH   1   2
BRANCH   1  12
ATOM     12  C   UNL     1     -14.468  -3.780 -15.271  1.00  0.00     0.000 C 
BRANCH  12  13
ATOM     13  C   UNL     1     -14.020  -3.972 -13.812  1.00  0.00    -0.000 C 
BRANCH  13  14
ATOM     14  C   UNL     1     -15.017  -3.378 -12.805  1.00  0.00    -0.000 C 
BRANCH  14  15
ATOM     15  C   UNL     1     -14.805  -3.907 -11.376  1.00  0.00    -0.000 C 
BRANCH  15  16
ATOM     16  C   UNL     1     -14.316  -2.805 -10.413  1.00  0.00    -0.000 C 
BRANCH  16  17
ATOM     17  C   UNL     1     -15.007  -1.447 -10.629  1.00  0.00    -0.000 C 
BRANCH  17  18
ATOM     18  C   UNL     1     -14.103  -0.254 -10.292  1.00  0.00    -0.003 C 
ATOM     19  C   UNL     1     -14.432   0.953 -11.166  1.00  0.00     0.004 C 
ENDBRANCH  17  18
ENDBRANCH  16  17
ENDBRANCH  15  16
ENDBRANCH  14  15
ENDBRANCH  13  14
ENDBRANCH  12  13
ENDBRANCH   1  12
TORSDOF 14
ENDMDL
