MODEL 1
REMARK VINA RESULT:    -7.013      0.000      0.000
REMARK INTER + INTRA:         -10.307
REMARK INTER:                  -9.473
REMARK INTRA:                  -0.833
REMARK UNBOUND:                -0.833
REMARK SMILES O=c1c(-c2ccc(O)cc2)coc2c([C@@H]3O[C@H](CO)[C@H](O)[C@H](O)[C@@H]3O)c(O)ccc12
REMARK SMILES IDX 3 1 11 2 12 3 13 4 30 5 2 6 1 7 29 8 28 9 26 10 14 11 4 12
REMARK SMILES IDX 5 13 6 14 7 15 10 16 9 17 8 18 15 20 24 21 16 22 22 23 17 24
REMARK SMILES IDX 20 25 25 26 23 28 18 30 19 31 21 33 27 35
REMARK H PARENT 8 19 25 27 23 29 19 32 21 34 27 36
REMARK Flexibility Score: inf
ROOT
ATOM      1  C   UNL     1      -8.802 -38.042 -21.944  1.00  0.00     0.065 A 
ATOM      2  C   UNL     1      -9.213 -39.229 -21.325  1.00  0.00     0.208 A 
ATOM      3  O   UNL     1     -10.432 -39.343 -20.812  1.00  0.00    -0.463 OA
ATOM      4  C   UNL     1     -11.335 -38.366 -20.845  1.00  0.00     0.147 A 
ATOM      5  C   UNL     1     -11.004 -37.135 -21.458  1.00  0.00     0.066 A 
ATOM      6  C   UNL     1      -9.716 -36.975 -22.002  1.00  0.00     0.200 A 
ATOM      7  O   UNL     1      -9.377 -35.875 -22.523  1.00  0.00    -0.288 OA
ATOM      8  C   UNL     1     -11.957 -36.109 -21.513  1.00  0.00     0.020 A 
ATOM      9  C   UNL     1     -13.234 -36.311 -20.998  1.00  0.00     0.047 A 
ATOM     10  C   UNL     1     -13.586 -37.527 -20.407  1.00  0.00     0.125 A 
ATOM     11  C   UNL     1     -12.620 -38.561 -20.273  1.00  0.00     0.069 A 
ENDROOT
BRANCH   1  12
ATOM     12  C   UNL     1      -7.434 -37.938 -22.514  1.00  0.00    -0.011 A 
ATOM     13  C   UNL     1      -7.188 -38.334 -23.841  1.00  0.00     0.013 A 
ATOM     14  C   UNL     1      -5.904 -38.231 -24.383  1.00  0.00     0.047 A 
ATOM     15  C   UNL     1      -4.853 -37.726 -23.612  1.00  0.00     0.115 A 
ATOM     16  C   UNL     1      -6.374 -37.425 -21.746  1.00  0.00     0.013 A 
ATOM     17  C   UNL     1      -5.091 -37.322 -22.292  1.00  0.00     0.047 A 
BRANCH  15  18
ATOM     18  O   UNL     1      -3.578 -37.628 -24.167  1.00  0.00    -0.508 OA
ATOM     19  H   UNL     1      -2.813 -37.195 -23.662  1.00  0.00     0.293 HD
ENDBRANCH  15  18
ENDBRANCH   1  12
BRANCH  11  20
ATOM     20  C   UNL     1     -12.971 -39.875 -19.576  1.00  0.00     0.188 C 
ATOM     21  C   UNL     1     -12.538 -39.829 -18.093  1.00  0.00     0.179 C 
ATOM     22  O   UNL     1     -14.362 -40.141 -19.687  1.00  0.00    -0.362 OA
ATOM     23  C   UNL     1     -12.917 -41.159 -17.407  1.00  0.00     0.177 C 
ATOM     24  C   UNL     1     -14.675 -41.431 -19.185  1.00  0.00     0.176 C 
ATOM     25  C   UNL     1     -14.395 -41.503 -17.666  1.00  0.00     0.177 C 
BRANCH  21  26
ATOM     26  O   UNL     1     -13.160 -38.748 -17.443  1.00  0.00    -0.387 OA
ATOM     27  H   UNL     1     -12.499 -38.370 -16.808  1.00  0.00     0.211 HD
ENDBRANCH  21  26
BRANCH  23  28
ATOM     28  O   UNL     1     -12.674 -41.095 -16.025  1.00  0.00    -0.387 OA
ATOM     29  H   UNL     1     -11.688 -41.095 -15.908  1.00  0.00     0.211 HD
ENDBRANCH  23  28
BRANCH  24  30
ATOM     30  C   UNL     1     -16.146 -41.736 -19.507  1.00  0.00     0.191 C 
BRANCH  30  31
ATOM     31  O   UNL     1     -16.276 -42.982 -20.139  1.00  0.00    -0.394 OA
ATOM     32  H   UNL     1     -16.868 -42.842 -20.924  1.00  0.00     0.210 HD
ENDBRANCH  30  31
ENDBRANCH  24  30
BRANCH  25  33
ATOM     33  O   UNL     1     -15.236 -40.606 -16.982  1.00  0.00    -0.388 OA
ATOM     34  H   UNL     1     -14.680 -39.825 -16.726  1.00  0.00     0.211 HD
ENDBRANCH  25  33
ENDBRANCH  11  20
BRANCH  10  35
ATOM     35  O   UNL     1     -14.911 -37.667 -19.982  1.00  0.00    -0.507 OA
ATOM     36  H   UNL     1     -15.299 -37.217 -19.164  1.00  0.00     0.293 HD
ENDBRANCH  10  35
TORSDOF 9
ENDMDL
MODEL 2
REMARK VINA RESULT:    -6.842      1.985      8.491
REMARK INTER + INTRA:         -10.074
REMARK INTER:                  -8.971
REMARK INTRA:                  -1.104
REMARK UNBOUND:                -0.833
REMARK SMILES O=c1c(-c2ccc(O)cc2)coc2c([C@@H]3O[C@H](CO)[C@H](O)[C@H](O)[C@@H]3O)c(O)ccc12
REMARK SMILES IDX 3 1 11 2 12 3 13 4 30 5 2 6 1 7 29 8 28 9 26 10 14 11 4 12
REMARK SMILES IDX 5 13 6 14 7 15 10 16 9 17 8 18 15 20 24 21 16 22 22 23 17 24
REMARK SMILES IDX 20 25 25 26 23 28 18 30 19 31 21 33 27 35
REMARK H PARENT 8 19 25 27 23 29 19 32 21 34 27 36
REMARK Flexibility Score: inf
ROOT
ATOM      1  C   UNL     1     -13.330 -38.725 -19.126  1.00  0.00     0.065 A 
ATOM      2  C   UNL     1     -12.040 -39.272 -19.127  1.00  0.00     0.208 A 
ATOM      3  O   UNL     1     -11.125 -38.857 -19.994  1.00  0.00    -0.463 OA
ATOM      4  C   UNL     1     -11.353 -37.914 -20.905  1.00  0.00     0.147 A 
ATOM      5  C   UNL     1     -12.628 -37.304 -20.969  1.00  0.00     0.066 A 
ATOM      6  C   UNL     1     -13.626 -37.727 -20.072  1.00  0.00     0.200 A 
ATOM      7  O   UNL     1     -14.786 -37.229 -20.128  1.00  0.00    -0.288 OA
ATOM      8  C   UNL     1     -12.869 -36.297 -21.914  1.00  0.00     0.020 A 
ATOM      9  C   UNL     1     -11.849 -35.875 -22.762  1.00  0.00     0.047 A 
ATOM     10  C   UNL     1     -10.578 -36.451 -22.701  1.00  0.00     0.125 A 
ATOM     11  C   UNL     1     -10.323 -37.523 -21.801  1.00  0.00     0.069 A 
ENDROOT
BRANCH   1  12
ATOM     12  C   UNL     1     -14.336 -39.202 -18.144  1.00  0.00    -0.011 A 
ATOM     13  C   UNL     1     -14.920 -40.473 -18.289  1.00  0.00     0.013 A 
ATOM     14  C   UNL     1     -15.861 -40.929 -17.362  1.00  0.00     0.047 A 
ATOM     15  C   UNL     1     -16.227 -40.127 -16.277  1.00  0.00     0.115 A 
ATOM     16  C   UNL     1     -14.703 -38.403 -17.046  1.00  0.00     0.013 A 
ATOM     17  C   UNL     1     -15.644 -38.863 -16.120  1.00  0.00     0.047 A 
BRANCH  15  18
ATOM     18  O   UNL     1     -17.166 -40.595 -15.360  1.00  0.00    -0.508 OA
ATOM     19  H   UNL     1     -18.048 -40.117 -15.215  1.00  0.00     0.293 HD
ENDBRANCH  15  18
ENDBRANCH   1  12
BRANCH  11  20
ATOM     20  C   UNL     1      -8.956 -38.204 -21.763  1.00  0.00     0.188 C 
ATOM     21  C   UNL     1      -8.889 -39.333 -22.817  1.00  0.00     0.179 C 
ATOM     22  O   UNL     1      -7.921 -37.254 -21.974  1.00  0.00    -0.362 OA
ATOM     23  C   UNL     1      -7.495 -39.995 -22.770  1.00  0.00     0.177 C 
ATOM     24  C   UNL     1      -6.644 -37.843 -21.782  1.00  0.00     0.176 C 
ATOM     25  C   UNL     1      -6.384 -38.931 -22.851  1.00  0.00     0.177 C 
BRANCH  21  26
ATOM     26  O   UNL     1      -9.140 -38.811 -24.098  1.00  0.00    -0.387 OA
ATOM     27  H   UNL     1      -8.277 -38.464 -24.445  1.00  0.00     0.211 HD
ENDBRANCH  21  26
BRANCH  23  28
ATOM     28  O   UNL     1      -7.347 -40.923 -23.813  1.00  0.00    -0.387 OA
ATOM     29  H   UNL     1      -7.523 -40.433 -24.659  1.00  0.00     0.211 HD
ENDBRANCH  23  28
BRANCH  24  30
ATOM     30  C   UNL     1      -5.583 -36.734 -21.833  1.00  0.00     0.191 C 
BRANCH  30  31
ATOM     31  O   UNL     1      -4.339 -37.243 -22.236  1.00  0.00    -0.394 OA
ATOM     32  H   UNL     1      -4.193 -36.934 -23.167  1.00  0.00     0.210 HD
ENDBRANCH  30  31
ENDBRANCH  24  30
BRANCH  25  33
ATOM     33  O   UNL     1      -6.355 -38.348 -24.130  1.00  0.00    -0.388 OA
ATOM     34  H   UNL     1      -6.695 -39.028 -24.767  1.00  0.00     0.211 HD
ENDBRANCH  25  33
ENDBRANCH  11  20
BRANCH  10  35
ATOM     35  O   UNL     1      -9.596 -35.916 -23.541  1.00  0.00    -0.507 OA
ATOM     36  H   UNL     1      -9.131 -36.431 -24.275  1.00  0.00     0.293 HD
ENDBRANCH  10  35
TORSDOF 9
ENDMDL
MODEL 3
REMARK VINA RESULT:    -6.744      1.382      2.607
REMARK INTER + INTRA:          -9.943
REMARK INTER:                  -9.313
REMARK INTRA:                  -0.630
REMARK UNBOUND:                -0.833
REMARK SMILES O=c1c(-c2ccc(O)cc2)coc2c([C@@H]3O[C@H](CO)[C@H](O)[C@H](O)[C@@H]3O)c(O)ccc12
REMARK SMILES IDX 3 1 11 2 12 3 13 4 30 5 2 6 1 7 29 8 28 9 26 10 14 11 4 12
REMARK SMILES IDX 5 13 6 14 7 15 10 16 9 17 8 18 15 20 24 21 16 22 22 23 17 24
REMARK SMILES IDX 20 25 25 26 23 28 18 30 19 31 21 33 27 35
REMARK H PARENT 8 19 25 27 23 29 19 32 21 34 27 36
REMARK Flexibility Score: inf
ROOT
ATOM      1  C   UNL     1      -9.015 -38.799 -21.939  1.00  0.00     0.065 A 
ATOM      2  C   UNL     1      -9.659 -39.595 -20.983  1.00  0.00     0.208 A 
ATOM      3  O   UNL     1     -10.847 -39.252 -20.499  1.00  0.00    -0.463 OA
ATOM      4  C   UNL     1     -11.501 -38.156 -20.874  1.00  0.00     0.147 A 
ATOM      5  C   UNL     1     -10.925 -37.298 -21.840  1.00  0.00     0.066 A 
ATOM      6  C   UNL     1      -9.661 -37.625 -22.366  1.00  0.00     0.200 A 
ATOM      7  O   UNL     1      -9.102 -36.862 -23.203  1.00  0.00    -0.288 OA
ATOM      8  C   UNL     1     -11.618 -36.152 -22.252  1.00  0.00     0.020 A 
ATOM      9  C   UNL     1     -12.882 -35.877 -21.740  1.00  0.00     0.047 A 
ATOM     10  C   UNL     1     -13.477 -36.721 -20.800  1.00  0.00     0.125 A 
ATOM     11  C   UNL     1     -12.769 -37.853 -20.310  1.00  0.00     0.069 A 
ENDROOT
BRANCH   1  12
ATOM     12  C   UNL     1      -7.688 -39.205 -22.468  1.00  0.00    -0.011 A 
ATOM     13  C   UNL     1      -6.510 -38.733 -21.865  1.00  0.00     0.013 A 
ATOM     14  C   UNL     1      -5.260 -39.119 -22.355  1.00  0.00     0.047 A 
ATOM     15  C   UNL     1      -5.170 -39.985 -23.448  1.00  0.00     0.115 A 
ATOM     16  C   UNL     1      -7.591 -40.082 -23.563  1.00  0.00     0.013 A 
ATOM     17  C   UNL     1      -6.339 -40.468 -24.051  1.00  0.00     0.047 A 
BRANCH  15  18
ATOM     18  O   UNL     1      -3.916 -40.363 -23.926  1.00  0.00    -0.508 OA
ATOM     19  H   UNL     1      -3.470 -39.868 -24.690  1.00  0.00     0.293 HD
ENDBRANCH  15  18
ENDBRANCH   1  12
BRANCH  11  20
ATOM     20  C   UNL     1     -13.380 -38.754 -19.238  1.00  0.00     0.188 C 
ATOM     21  C   UNL     1     -14.148 -39.925 -19.894  1.00  0.00     0.179 C 
ATOM     22  O   UNL     1     -12.373 -39.239 -18.362  1.00  0.00    -0.362 OA
ATOM     23  C   UNL     1     -14.743 -40.829 -18.793  1.00  0.00     0.177 C 
ATOM     24  C   UNL     1     -12.945 -39.945 -17.271  1.00  0.00     0.176 C 
ATOM     25  C   UNL     1     -13.661 -41.222 -17.769  1.00  0.00     0.177 C 
BRANCH  21  26
ATOM     26  O   UNL     1     -13.282 -40.665 -20.720  1.00  0.00    -0.387 OA
ATOM     27  H   UNL     1     -12.447 -40.137 -20.812  1.00  0.00     0.211 HD
ENDBRANCH  21  26
BRANCH  23  28
ATOM     28  O   UNL     1     -15.318 -41.982 -19.350  1.00  0.00    -0.387 OA
ATOM     29  H   UNL     1     -14.734 -42.745 -19.094  1.00  0.00     0.211 HD
ENDBRANCH  23  28
BRANCH  24  30
ATOM     30  C   UNL     1     -11.831 -40.274 -16.266  1.00  0.00     0.191 C 
BRANCH  30  31
ATOM     31  O   UNL     1     -12.176 -41.381 -15.475  1.00  0.00    -0.394 OA
ATOM     32  H   UNL     1     -11.407 -41.551 -14.872  1.00  0.00     0.210 HD
ENDBRANCH  30  31
ENDBRANCH  24  30
BRANCH  25  33
ATOM     33  O   UNL     1     -12.728 -42.098 -18.351  1.00  0.00    -0.388 OA
ATOM     34  H   UNL     1     -13.088 -42.356 -19.239  1.00  0.00     0.211 HD
ENDBRANCH  25  33
ENDBRANCH  11  20
BRANCH  10  35
ATOM     35  O   UNL     1     -14.778 -36.406 -20.394  1.00  0.00    -0.507 OA
ATOM     36  H   UNL     1     -15.105 -35.468 -20.208  1.00  0.00     0.293 HD
ENDBRANCH  10  35
TORSDOF 9
ENDMDL
MODEL 4
REMARK VINA RESULT:    -6.676      1.775      8.668
REMARK INTER + INTRA:          -9.851
REMARK INTER:                  -8.713
REMARK INTRA:                  -1.138
REMARK UNBOUND:                -0.833
REMARK SMILES O=c1c(-c2ccc(O)cc2)coc2c([C@@H]3O[C@H](CO)[C@H](O)[C@H](O)[C@@H]3O)c(O)ccc12
REMARK SMILES IDX 3 1 11 2 12 3 13 4 30 5 2 6 1 7 29 8 28 9 26 10 14 11 4 12
REMARK SMILES IDX 5 13 6 14 7 15 10 16 9 17 8 18 15 20 24 21 16 22 22 23 17 24
REMARK SMILES IDX 20 25 25 26 23 28 18 30 19 31 21 33 27 35
REMARK H PARENT 8 19 25 27 23 29 19 32 21 34 27 36
REMARK Flexibility Score: inf
ROOT
ATOM      1  C   UNL     1     -11.915 -39.070 -19.634  1.00  0.00     0.065 A 
ATOM      2  C   UNL     1     -10.632 -39.630 -19.578  1.00  0.00     0.208 A 
ATOM      3  O   UNL     1      -9.643 -39.140 -20.315  1.00  0.00    -0.463 OA
ATOM      4  C   UNL     1      -9.787 -38.108 -21.142  1.00  0.00     0.147 A 
ATOM      5  C   UNL     1     -11.049 -37.479 -21.255  1.00  0.00     0.066 A 
ATOM      6  C   UNL     1     -12.124 -37.979 -20.496  1.00  0.00     0.200 A 
ATOM      7  O   UNL     1     -13.273 -37.464 -20.602  1.00  0.00    -0.288 OA
ATOM      8  C   UNL     1     -11.203 -36.380 -22.110  1.00  0.00     0.020 A 
ATOM      9  C   UNL     1     -10.111 -35.887 -22.819  1.00  0.00     0.047 A 
ATOM     10  C   UNL     1      -8.852 -36.481 -22.706  1.00  0.00     0.125 A 
ATOM     11  C   UNL     1      -8.681 -37.641 -21.901  1.00  0.00     0.069 A 
ENDROOT
BRANCH   1  12
ATOM     12  C   UNL     1     -13.006 -39.632 -18.797  1.00  0.00    -0.011 A 
ATOM     13  C   UNL     1     -13.376 -39.000 -17.597  1.00  0.00     0.013 A 
ATOM     14  C   UNL     1     -14.407 -39.521 -16.811  1.00  0.00     0.047 A 
ATOM     15  C   UNL     1     -15.085 -40.675 -17.215  1.00  0.00     0.115 A 
ATOM     16  C   UNL     1     -13.697 -40.789 -19.201  1.00  0.00     0.013 A 
ATOM     17  C   UNL     1     -14.729 -41.307 -18.413  1.00  0.00     0.047 A 
BRANCH  15  18
ATOM     18  O   UNL     1     -16.112 -41.183 -16.421  1.00  0.00    -0.508 OA
ATOM     19  H   UNL     1     -16.546 -40.624 -15.695  1.00  0.00     0.293 HD
ENDBRANCH  15  18
ENDBRANCH   1  12
BRANCH  11  20
ATOM     20  C   UNL     1      -7.325 -38.339 -21.813  1.00  0.00     0.188 C 
ATOM     21  C   UNL     1      -7.144 -39.313 -23.000  1.00  0.00     0.179 C 
ATOM     22  O   UNL     1      -6.275 -37.383 -21.780  1.00  0.00    -0.362 OA
ATOM     23  C   UNL     1      -5.762 -39.993 -22.898  1.00  0.00     0.177 C 
ATOM     24  C   UNL     1      -5.024 -38.010 -21.538  1.00  0.00     0.176 C 
ATOM     25  C   UNL     1      -4.650 -38.943 -22.713  1.00  0.00     0.177 C 
BRANCH  21  26
ATOM     26  O   UNL     1      -7.257 -38.616 -24.216  1.00  0.00    -0.387 OA
ATOM     27  H   UNL     1      -6.741 -39.125 -24.893  1.00  0.00     0.211 HD
ENDBRANCH  21  26
BRANCH  23  28
ATOM     28  O   UNL     1      -5.502 -40.770 -24.038  1.00  0.00    -0.387 OA
ATOM     29  H   UNL     1      -6.087 -41.571 -23.977  1.00  0.00     0.211 HD
ENDBRANCH  23  28
BRANCH  24  30
ATOM     30  C   UNL     1      -3.966 -36.917 -21.321  1.00  0.00     0.191 C 
BRANCH  30  31
ATOM     31  O   UNL     1      -4.018 -35.956 -22.342  1.00  0.00    -0.394 OA
ATOM     32  H   UNL     1      -3.086 -35.650 -22.494  1.00  0.00     0.210 HD
ENDBRANCH  30  31
ENDBRANCH  24  30
BRANCH  25  33
ATOM     33  O   UNL     1      -4.486 -38.189 -23.889  1.00  0.00    -0.388 OA
ATOM     34  H   UNL     1      -4.007 -37.358 -23.635  1.00  0.00     0.211 HD
ENDBRANCH  25  33
ENDBRANCH  11  20
BRANCH  10  35
ATOM     35  O   UNL     1      -7.799 -35.876 -23.398  1.00  0.00    -0.507 OA
ATOM     36  H   UNL     1      -7.474 -34.934 -23.231  1.00  0.00     0.293 HD
ENDBRANCH  10  35
TORSDOF 9
ENDMDL
MODEL 5
REMARK VINA RESULT:    -6.532      2.243      7.327
REMARK INTER + INTRA:          -9.657
REMARK INTER:                  -9.151
REMARK INTRA:                  -0.505
REMARK UNBOUND:                -0.833
REMARK SMILES O=c1c(-c2ccc(O)cc2)coc2c([C@@H]3O[C@H](CO)[C@H](O)[C@H](O)[C@@H]3O)c(O)ccc12
REMARK SMILES IDX 3 1 11 2 12 3 13 4 30 5 2 6 1 7 29 8 28 9 26 10 14 11 4 12
REMARK SMILES IDX 5 13 6 14 7 15 10 16 9 17 8 18 15 20 24 21 16 22 22 23 17 24
REMARK SMILES IDX 20 25 25 26 23 28 18 30 19 31 21 33 27 35
REMARK H PARENT 8 19 25 27 23 29 19 32 21 34 27 36
REMARK Flexibility Score: inf
ROOT
ATOM      1  C   UNL     1     -11.495 -40.031 -18.640  1.00  0.00     0.065 A 
ATOM      2  C   UNL     1     -10.460 -39.975 -19.582  1.00  0.00     0.208 A 
ATOM      3  O   UNL     1     -10.560 -39.205 -20.659  1.00  0.00    -0.463 OA
ATOM      4  C   UNL     1     -11.621 -38.445 -20.920  1.00  0.00     0.147 A 
ATOM      5  C   UNL     1     -12.709 -38.437 -20.016  1.00  0.00     0.066 A 
ATOM      6  C   UNL     1     -12.642 -39.250 -18.870  1.00  0.00     0.200 A 
ATOM      7  O   UNL     1     -13.612 -39.295 -18.062  1.00  0.00    -0.288 OA
ATOM      8  C   UNL     1     -13.821 -37.625 -20.277  1.00  0.00     0.020 A 
ATOM      9  C   UNL     1     -13.840 -36.804 -21.400  1.00  0.00     0.047 A 
ATOM     10  C   UNL     1     -12.767 -36.783 -22.294  1.00  0.00     0.125 A 
ATOM     11  C   UNL     1     -11.656 -37.647 -22.094  1.00  0.00     0.069 A 
ENDROOT
BRANCH   1  12
ATOM     12  C   UNL     1     -11.359 -40.897 -17.441  1.00  0.00    -0.011 A 
ATOM     13  C   UNL     1     -12.236 -41.979 -17.246  1.00  0.00     0.013 A 
ATOM     14  C   UNL     1     -12.106 -42.801 -16.124  1.00  0.00     0.047 A 
ATOM     15  C   UNL     1     -11.097 -42.559 -15.187  1.00  0.00     0.115 A 
ATOM     16  C   UNL     1     -10.342 -40.663 -16.499  1.00  0.00     0.013 A 
ATOM     17  C   UNL     1     -10.214 -41.488 -15.378  1.00  0.00     0.047 A 
BRANCH  15  18
ATOM     18  O   UNL     1     -10.979 -43.388 -14.073  1.00  0.00    -0.508 OA
ATOM     19  H   UNL     1     -11.122 -44.389 -14.140  1.00  0.00     0.293 HD
ENDBRANCH  15  18
ENDBRANCH   1  12
BRANCH  11  20
ATOM     20  C   UNL     1     -10.501 -37.680 -23.094  1.00  0.00     0.188 C 
ATOM     21  C   UNL     1      -9.421 -36.645 -22.702  1.00  0.00     0.179 C 
ATOM     22  O   UNL     1      -9.945 -38.985 -23.170  1.00  0.00    -0.362 OA
ATOM     23  C   UNL     1      -8.259 -36.708 -23.716  1.00  0.00     0.177 C 
ATOM     24  C   UNL     1      -8.980 -39.067 -24.208  1.00  0.00     0.176 C 
ATOM     25  C   UNL     1      -7.770 -38.157 -23.894  1.00  0.00     0.177 C 
BRANCH  21  26
ATOM     26  O   UNL     1      -8.952 -36.909 -21.403  1.00  0.00    -0.387 OA
ATOM     27  H   UNL     1      -8.031 -36.543 -21.346  1.00  0.00     0.211 HD
ENDBRANCH  21  26
BRANCH  23  28
ATOM     28  O   UNL     1      -7.195 -35.888 -23.307  1.00  0.00    -0.387 OA
ATOM     29  H   UNL     1      -6.466 -36.494 -23.009  1.00  0.00     0.211 HD
ENDBRANCH  23  28
BRANCH  24  30
ATOM     30  C   UNL     1      -8.560 -40.536 -24.367  1.00  0.00     0.191 C 
BRANCH  30  31
ATOM     31  O   UNL     1      -8.659 -41.223 -23.148  1.00  0.00    -0.394 OA
ATOM     32  H   UNL     1      -9.627 -41.370 -22.981  1.00  0.00     0.210 HD
ENDBRANCH  30  31
ENDBRANCH  24  30
BRANCH  25  33
ATOM     33  O   UNL     1      -7.124 -38.604 -22.727  1.00  0.00    -0.388 OA
ATOM     34  H   UNL     1      -6.426 -37.935 -22.507  1.00  0.00     0.211 HD
ENDBRANCH  25  33
ENDBRANCH  11  20
BRANCH  10  35
ATOM     35  O   UNL     1     -12.842 -35.875 -23.355  1.00  0.00    -0.507 OA
ATOM     36  H   UNL     1     -12.940 -34.876 -23.245  1.00  0.00     0.293 HD
ENDBRANCH  10  35
TORSDOF 9
ENDMDL
MODEL 6
REMARK VINA RESULT:    -6.455      2.984      7.633
REMARK INTER + INTRA:          -9.552
REMARK INTER:                  -8.989
REMARK INTRA:                  -0.563
REMARK UNBOUND:                -0.833
REMARK SMILES O=c1c(-c2ccc(O)cc2)coc2c([C@@H]3O[C@H](CO)[C@H](O)[C@H](O)[C@@H]3O)c(O)ccc12
REMARK SMILES IDX 3 1 11 2 12 3 13 4 30 5 2 6 1 7 29 8 28 9 26 10 14 11 4 12
REMARK SMILES IDX 5 13 6 14 7 15 10 16 9 17 8 18 15 20 24 21 16 22 22 23 17 24
REMARK SMILES IDX 20 25 25 26 23 28 18 30 19 31 21 33 27 35
REMARK H PARENT 8 19 25 27 23 29 19 32 21 34 27 36
REMARK Flexibility Score: inf
ROOT
ATOM      1  C   UNL     1     -13.211 -39.385 -20.123  1.00  0.00     0.065 A 
ATOM      2  C   UNL     1     -12.481 -40.391 -20.767  1.00  0.00     0.208 A 
ATOM      3  O   UNL     1     -11.756 -40.123 -21.847  1.00  0.00    -0.463 OA
ATOM      4  C   UNL     1     -11.669 -38.910 -22.387  1.00  0.00     0.147 A 
ATOM      5  C   UNL     1     -12.370 -37.833 -21.795  1.00  0.00     0.066 A 
ATOM      6  C   UNL     1     -13.157 -38.084 -20.656  1.00  0.00     0.200 A 
ATOM      7  O   UNL     1     -13.826 -37.153 -20.126  1.00  0.00    -0.288 OA
ATOM      8  C   UNL     1     -12.267 -36.550 -22.349  1.00  0.00     0.020 A 
ATOM      9  C   UNL     1     -11.451 -36.328 -23.454  1.00  0.00     0.047 A 
ATOM     10  C   UNL     1     -10.734 -37.374 -24.040  1.00  0.00     0.125 A 
ATOM     11  C   UNL     1     -10.874 -38.699 -23.545  1.00  0.00     0.069 A 
ENDROOT
BRANCH   1  12
ATOM     12  C   UNL     1     -14.011 -39.708 -18.915  1.00  0.00    -0.011 A 
ATOM     13  C   UNL     1     -13.595 -39.260 -17.648  1.00  0.00     0.013 A 
ATOM     14  C   UNL     1     -14.350 -39.555 -16.510  1.00  0.00     0.047 A 
ATOM     15  C   UNL     1     -15.531 -40.295 -16.621  1.00  0.00     0.115 A 
ATOM     16  C   UNL     1     -15.205 -40.445 -19.020  1.00  0.00     0.013 A 
ATOM     17  C   UNL     1     -15.958 -40.738 -17.880  1.00  0.00     0.047 A 
BRANCH  15  18
ATOM     18  O   UNL     1     -16.274 -40.581 -15.477  1.00  0.00    -0.508 OA
ATOM     19  H   UNL     1     -16.505 -41.534 -15.221  1.00  0.00     0.293 HD
ENDBRANCH  15  18
ENDBRANCH   1  12
BRANCH  11  20
ATOM     20  C   UNL     1     -10.144 -39.864 -24.211  1.00  0.00     0.188 C 
ATOM     21  C   UNL     1      -8.753 -40.067 -23.566  1.00  0.00     0.179 C 
ATOM     22  O   UNL     1     -10.918 -41.052 -24.124  1.00  0.00    -0.362 OA
ATOM     23  C   UNL     1      -8.042 -41.257 -24.245  1.00  0.00     0.177 C 
ATOM     24  C   UNL     1     -10.326 -42.101 -24.876  1.00  0.00     0.176 C 
ATOM     25  C   UNL     1      -8.958 -42.495 -24.272  1.00  0.00     0.177 C 
BRANCH  21  26
ATOM     26  O   UNL     1      -8.892 -40.301 -22.187  1.00  0.00    -0.387 OA
ATOM     27  H   UNL     1      -9.568 -41.020 -22.081  1.00  0.00     0.211 HD
ENDBRANCH  21  26
BRANCH  23  28
ATOM     28  O   UNL     1      -6.841 -41.564 -23.585  1.00  0.00    -0.387 OA
ATOM     29  H   UNL     1      -6.117 -41.495 -24.262  1.00  0.00     0.211 HD
ENDBRANCH  23  28
BRANCH  24  30
ATOM     30  C   UNL     1     -11.298 -43.290 -24.902  1.00  0.00     0.191 C 
BRANCH  30  31
ATOM     31  O   UNL     1     -10.607 -44.504 -25.040  1.00  0.00    -0.394 OA
ATOM     32  H   UNL     1      -9.723 -44.378 -24.607  1.00  0.00     0.210 HD
ENDBRANCH  30  31
ENDBRANCH  24  30
BRANCH  25  33
ATOM     33  O   UNL     1      -9.137 -43.002 -22.972  1.00  0.00    -0.388 OA
ATOM     34  H   UNL     1     -10.102 -43.210 -22.873  1.00  0.00     0.211 HD
ENDBRANCH  25  33
ENDBRANCH  11  20
BRANCH  10  35
ATOM     35  O   UNL     1      -9.885 -37.046 -25.101  1.00  0.00    -0.507 OA
ATOM     36  H   UNL     1      -9.370 -36.179 -25.172  1.00  0.00     0.293 HD
ENDBRANCH  10  35
TORSDOF 9
ENDMDL
MODEL 7
REMARK VINA RESULT:    -6.422      3.047      4.684
REMARK INTER + INTRA:          -9.508
REMARK INTER:                  -9.233
REMARK INTRA:                  -0.274
REMARK UNBOUND:                -0.833
REMARK SMILES O=c1c(-c2ccc(O)cc2)coc2c([C@@H]3O[C@H](CO)[C@H](O)[C@H](O)[C@@H]3O)c(O)ccc12
REMARK SMILES IDX 3 1 11 2 12 3 13 4 30 5 2 6 1 7 29 8 28 9 26 10 14 11 4 12
REMARK SMILES IDX 5 13 6 14 7 15 10 16 9 17 8 18 15 20 24 21 16 22 22 23 17 24
REMARK SMILES IDX 20 25 25 26 23 28 18 30 19 31 21 33 27 35
REMARK H PARENT 8 19 25 27 23 29 19 32 21 34 27 36
REMARK Flexibility Score: inf
ROOT
ATOM      1  C   UNL     1     -11.505 -40.347 -21.007  1.00  0.00     0.065 A 
ATOM      2  C   UNL     1     -12.810 -40.007 -21.386  1.00  0.00     0.208 A 
ATOM      3  O   UNL     1     -13.697 -39.600 -20.487  1.00  0.00    -0.463 OA
ATOM      4  C   UNL     1     -13.424 -39.484 -19.189  1.00  0.00     0.147 A 
ATOM      5  C   UNL     1     -12.127 -39.801 -18.721  1.00  0.00     0.066 A 
ATOM      6  C   UNL     1     -11.165 -40.247 -19.646  1.00  0.00     0.200 A 
ATOM      7  O   UNL     1     -10.009 -40.573 -19.255  1.00  0.00    -0.288 OA
ATOM      8  C   UNL     1     -11.829 -39.664 -17.359  1.00  0.00     0.020 A 
ATOM      9  C   UNL     1     -12.792 -39.185 -16.476  1.00  0.00     0.047 A 
ATOM     10  C   UNL     1     -14.072 -38.848 -16.922  1.00  0.00     0.125 A 
ATOM     11  C   UNL     1     -14.426 -39.043 -18.285  1.00  0.00     0.069 A 
ENDROOT
BRANCH   1  12
ATOM     12  C   UNL     1     -10.529 -40.796 -22.032  1.00  0.00    -0.011 A 
ATOM     13  C   UNL     1      -9.543 -39.913 -22.506  1.00  0.00     0.013 A 
ATOM     14  C   UNL     1      -8.618 -40.335 -23.464  1.00  0.00     0.047 A 
ATOM     15  C   UNL     1      -8.661 -41.643 -23.956  1.00  0.00     0.115 A 
ATOM     16  C   UNL     1     -10.562 -42.112 -22.526  1.00  0.00     0.013 A 
ATOM     17  C   UNL     1      -9.635 -42.532 -23.483  1.00  0.00     0.047 A 
BRANCH  15  18
ATOM     18  O   UNL     1      -7.731 -42.050 -24.912  1.00  0.00    -0.508 OA
ATOM     19  H   UNL     1      -7.357 -42.992 -24.919  1.00  0.00     0.293 HD
ENDBRANCH  15  18
ENDBRANCH   1  12
BRANCH  11  20
ATOM     20  C   UNL     1     -15.840 -38.736 -18.777  1.00  0.00     0.188 C 
ATOM     21  C   UNL     1     -15.884 -37.344 -19.450  1.00  0.00     0.179 C 
ATOM     22  O   UNL     1     -16.285 -39.744 -19.674  1.00  0.00    -0.362 OA
ATOM     23  C   UNL     1     -17.316 -37.063 -19.953  1.00  0.00     0.177 C 
ATOM     24  C   UNL     1     -17.651 -39.556 -20.013  1.00  0.00     0.176 C 
ATOM     25  C   UNL     1     -17.836 -38.238 -20.802  1.00  0.00     0.177 C 
BRANCH  21  26
ATOM     26  O   UNL     1     -14.972 -37.299 -20.520  1.00  0.00    -0.387 OA
ATOM     27  H   UNL     1     -14.255 -37.954 -20.319  1.00  0.00     0.211 HD
ENDBRANCH  21  26
BRANCH  23  28
ATOM     28  O   UNL     1     -17.359 -35.875 -20.700  1.00  0.00    -0.387 OA
ATOM     29  H   UNL     1     -17.797 -35.192 -20.127  1.00  0.00     0.211 HD
ENDBRANCH  23  28
BRANCH  24  30
ATOM     30  C   UNL     1     -18.124 -40.773 -20.822  1.00  0.00     0.191 C 
BRANCH  30  31
ATOM     31  O   UNL     1     -17.588 -41.962 -20.303  1.00  0.00    -0.394 OA
ATOM     32  H   UNL     1     -18.330 -42.431 -19.840  1.00  0.00     0.210 HD
ENDBRANCH  30  31
ENDBRANCH  24  30
BRANCH  25  33
ATOM     33  O   UNL     1     -17.139 -38.309 -22.021  1.00  0.00    -0.388 OA
ATOM     34  H   UNL     1     -17.755 -38.718 -22.683  1.00  0.00     0.211 HD
ENDBRANCH  25  33
ENDBRANCH  11  20
BRANCH  10  35
ATOM     35  O   UNL     1     -14.952 -38.308 -15.979  1.00  0.00    -0.507 OA
ATOM     36  H   UNL     1     -14.853 -38.415 -14.979  1.00  0.00     0.293 HD
ENDBRANCH  10  35
TORSDOF 9
ENDMDL
MODEL 8
REMARK VINA RESULT:    -5.978     11.179     14.077
REMARK INTER + INTRA:          -8.909
REMARK INTER:                  -8.994
REMARK INTRA:                   0.085
REMARK UNBOUND:                -0.833
REMARK SMILES O=c1c(-c2ccc(O)cc2)coc2c([C@@H]3O[C@H](CO)[C@H](O)[C@H](O)[C@@H]3O)c(O)ccc12
REMARK SMILES IDX 3 1 11 2 12 3 13 4 30 5 2 6 1 7 29 8 28 9 26 10 14 11 4 12
REMARK SMILES IDX 5 13 6 14 7 15 10 16 9 17 8 18 15 20 24 21 16 22 22 23 17 24
REMARK SMILES IDX 20 25 25 26 23 28 18 30 19 31 21 33 27 35
REMARK H PARENT 8 19 25 27 23 29 19 32 21 34 27 36
REMARK Flexibility Score: inf
ROOT
ATOM      1  C   UNL     1      -0.215 -45.150 -19.034  1.00  0.00     0.065 A 
ATOM      2  C   UNL     1      -0.173 -46.394 -19.676  1.00  0.00     0.208 A 
ATOM      3  O   UNL     1      -0.700 -46.556 -20.884  1.00  0.00    -0.463 OA
ATOM      4  C   UNL     1      -1.292 -45.575 -21.561  1.00  0.00     0.147 A 
ATOM      5  C   UNL     1      -1.373 -44.284 -20.988  1.00  0.00     0.066 A 
ATOM      6  C   UNL     1      -0.835 -44.080 -19.704  1.00  0.00     0.200 A 
ATOM      7  O   UNL     1      -0.923 -42.949 -19.148  1.00  0.00    -0.288 OA
ATOM      8  C   UNL     1      -1.979 -43.244 -21.704  1.00  0.00     0.020 A 
ATOM      9  C   UNL     1      -2.469 -43.469 -22.987  1.00  0.00     0.047 A 
ATOM     10  C   UNL     1      -2.381 -44.732 -23.578  1.00  0.00     0.125 A 
ATOM     11  C   UNL     1      -1.835 -45.824 -22.849  1.00  0.00     0.069 A 
ENDROOT
BRANCH   1  12
ATOM     12  C   UNL     1       0.385 -44.993 -17.684  1.00  0.00    -0.011 A 
ATOM     13  C   UNL     1       1.526 -45.732 -17.325  1.00  0.00     0.013 A 
ATOM     14  C   UNL     1       2.098 -45.580 -16.060  1.00  0.00     0.047 A 
ATOM     15  C   UNL     1       1.543 -44.687 -15.139  1.00  0.00     0.115 A 
ATOM     16  C   UNL     1      -0.165 -44.091 -16.756  1.00  0.00     0.013 A 
ATOM     17  C   UNL     1       0.410 -43.941 -15.491  1.00  0.00     0.047 A 
BRANCH  15  18
ATOM     18  O   UNL     1       2.124 -44.546 -13.880  1.00  0.00    -0.508 OA
ATOM     19  H   UNL     1       3.127 -44.445 -13.768  1.00  0.00     0.293 HD
ENDBRANCH  15  18
ENDBRANCH   1  12
BRANCH  11  20
ATOM     20  C   UNL     1      -1.786 -47.224 -23.459  1.00  0.00     0.188 C 
ATOM     21  C   UNL     1      -0.397 -47.489 -24.086  1.00  0.00     0.179 C 
ATOM     22  O   UNL     1      -2.091 -48.205 -22.478  1.00  0.00    -0.362 OA
ATOM     23  C   UNL     1      -0.367 -48.913 -24.681  1.00  0.00     0.177 C 
ATOM     24  C   UNL     1      -2.206 -49.493 -23.065  1.00  0.00     0.176 C 
ATOM     25  C   UNL     1      -0.845 -49.946 -23.644  1.00  0.00     0.177 C 
BRANCH  21  26
ATOM     26  O   UNL     1       0.606 -47.343 -23.112  1.00  0.00    -0.387 OA
ATOM     27  H   UNL     1       0.479 -48.074 -22.453  1.00  0.00     0.211 HD
ENDBRANCH  21  26
BRANCH  23  28
ATOM     28  O   UNL     1       0.924 -49.241 -25.125  1.00  0.00    -0.387 OA
ATOM     29  H   UNL     1       1.261 -49.955 -24.522  1.00  0.00     0.211 HD
ENDBRANCH  23  28
BRANCH  24  30
ATOM     30  C   UNL     1      -2.723 -50.470 -21.999  1.00  0.00     0.191 C 
BRANCH  30  31
ATOM     31  O   UNL     1      -1.962 -51.649 -21.984  1.00  0.00    -0.394 OA
ATOM     32  H   UNL     1      -1.107 -51.430 -21.529  1.00  0.00     0.210 HD
ENDBRANCH  30  31
ENDBRANCH  24  30
BRANCH  25  33
ATOM     33  O   UNL     1       0.097 -50.074 -22.607  1.00  0.00    -0.388 OA
ATOM     34  H   UNL     1       0.801 -50.694 -22.930  1.00  0.00     0.211 HD
ENDBRANCH  25  33
ENDBRANCH  11  20
BRANCH  10  35
ATOM     35  O   UNL     1      -2.834 -44.849 -24.896  1.00  0.00    -0.507 OA
ATOM     36  H   UNL     1      -2.459 -44.328 -25.676  1.00  0.00     0.293 HD
ENDBRANCH  10  35
TORSDOF 9
ENDMDL
MODEL 9
REMARK VINA RESULT:    -5.824      6.359     10.177
REMARK INTER + INTRA:          -8.699
REMARK INTER:                  -8.236
REMARK INTRA:                  -0.464
REMARK UNBOUND:                -0.833
REMARK SMILES O=c1c(-c2ccc(O)cc2)coc2c([C@@H]3O[C@H](CO)[C@H](O)[C@H](O)[C@@H]3O)c(O)ccc12
REMARK SMILES IDX 3 1 11 2 12 3 13 4 30 5 2 6 1 7 29 8 28 9 26 10 14 11 4 12
REMARK SMILES IDX 5 13 6 14 7 15 10 16 9 17 8 18 15 20 24 21 16 22 22 23 17 24
REMARK SMILES IDX 20 25 25 26 23 28 18 30 19 31 21 33 27 35
REMARK H PARENT 8 19 25 27 23 29 19 32 21 34 27 36
REMARK Flexibility Score: inf
ROOT
ATOM      1  C   UNL     1      -1.838 -43.741 -20.633  1.00  0.00     0.065 A 
ATOM      2  C   UNL     1      -2.579 -42.688 -20.083  1.00  0.00     0.208 A 
ATOM      3  O   UNL     1      -3.333 -41.911 -20.850  1.00  0.00    -0.463 OA
ATOM      4  C   UNL     1      -3.442 -42.067 -22.168  1.00  0.00     0.147 A 
ATOM      5  C   UNL     1      -2.731 -43.112 -22.805  1.00  0.00     0.066 A 
ATOM      6  C   UNL     1      -1.913 -43.948 -22.022  1.00  0.00     0.200 A 
ATOM      7  O   UNL     1      -1.236 -44.866 -22.565  1.00  0.00    -0.288 OA
ATOM      8  C   UNL     1      -2.856 -43.292 -24.189  1.00  0.00     0.020 A 
ATOM      9  C   UNL     1      -3.703 -42.472 -24.928  1.00  0.00     0.047 A 
ATOM     10  C   UNL     1      -4.428 -41.448 -24.315  1.00  0.00     0.125 A 
ATOM     11  C   UNL     1      -4.268 -41.195 -22.925  1.00  0.00     0.069 A 
ENDROOT
BRANCH   1  12
ATOM     12  C   UNL     1      -1.004 -44.599 -19.754  1.00  0.00    -0.011 A 
ATOM     13  C   UNL     1      -0.251 -44.027 -18.713  1.00  0.00     0.013 A 
ATOM     14  C   UNL     1       0.528 -44.833 -17.878  1.00  0.00     0.047 A 
ATOM     15  C   UNL     1       0.561 -46.217 -18.067  1.00  0.00     0.115 A 
ATOM     16  C   UNL     1      -0.972 -45.994 -19.933  1.00  0.00     0.013 A 
ATOM     17  C   UNL     1      -0.193 -46.797 -19.096  1.00  0.00     0.047 A 
BRANCH  15  18
ATOM     18  O   UNL     1       1.342 -47.008 -17.226  1.00  0.00    -0.508 OA
ATOM     19  H   UNL     1       2.075 -47.606 -17.591  1.00  0.00     0.293 HD
ENDBRANCH  15  18
ENDBRANCH   1  12
BRANCH  11  20
ATOM     20  C   UNL     1      -5.009 -40.042 -22.249  1.00  0.00     0.188 C 
ATOM     21  C   UNL     1      -4.275 -38.706 -22.509  1.00  0.00     0.179 C 
ATOM     22  O   UNL     1      -6.352 -39.977 -22.707  1.00  0.00    -0.362 OA
ATOM     23  C   UNL     1      -5.049 -37.555 -21.831  1.00  0.00     0.177 C 
ATOM     24  C   UNL     1      -7.094 -39.014 -21.972  1.00  0.00     0.176 C 
ATOM     25  C   UNL     1      -6.537 -37.594 -22.226  1.00  0.00     0.177 C 
BRANCH  21  26
ATOM     26  O   UNL     1      -4.170 -38.476 -23.893  1.00  0.00    -0.387 OA
ATOM     27  H   UNL     1      -3.411 -39.025 -24.221  1.00  0.00     0.211 HD
ENDBRANCH  21  26
BRANCH  23  28
ATOM     28  O   UNL     1      -4.495 -36.311 -22.172  1.00  0.00    -0.387 OA
ATOM     29  H   UNL     1      -4.140 -36.399 -23.095  1.00  0.00     0.211 HD
ENDBRANCH  23  28
BRANCH  24  30
ATOM     30  C   UNL     1      -8.571 -39.126 -22.377  1.00  0.00     0.191 C 
BRANCH  30  31
ATOM     31  O   UNL     1      -9.146 -40.301 -21.867  1.00  0.00    -0.394 OA
ATOM     32  H   UNL     1      -8.474 -40.706 -21.259  1.00  0.00     0.210 HD
ENDBRANCH  30  31
ENDBRANCH  24  30
BRANCH  25  33
ATOM     33  O   UNL     1      -6.695 -37.253 -23.582  1.00  0.00    -0.388 OA
ATOM     34  H   UNL     1      -6.215 -36.397 -23.723  1.00  0.00     0.211 HD
ENDBRANCH  25  33
ENDBRANCH  11  20
BRANCH  10  35
ATOM     35  O   UNL     1      -5.308 -40.720 -25.122  1.00  0.00    -0.507 OA
ATOM     36  H   UNL     1      -5.894 -39.967 -24.792  1.00  0.00     0.293 HD
ENDBRANCH  10  35
TORSDOF 9
ENDMDL
