MODEL 1
REMARK VINA RESULT:    -3.001      0.000      0.000
REMARK INTER + INTRA:          -7.424
REMARK INTER:                  -5.457
REMARK INTRA:                  -1.968
REMARK UNBOUND:                -1.968
REMARK SMILES CCCCCCCCCCCCCC[C@@H](C)C(=O)[O-]
REMARK SMILES IDX 9 1 10 2 11 3 12 4 13 5 14 6 15 7 16 8 17 9 18 10 19 11 8 12
REMARK SMILES IDX 7 13 6 14 5 15 4 16 3 17 2 18 1 19
REMARK H PARENT
REMARK Flexibility Score: inf
ROOT
ATOM      1  C   UNL     1       5.328 -21.064   5.102  1.00  0.00     0.000 C 
ENDROOT
BRANCH   1   2
ATOM      2  C   UNL     1       6.252 -19.837   5.080  1.00  0.00     0.000 C 
BRANCH   2   3
ATOM      3  C   UNL     1       6.700 -19.450   3.660  1.00  0.00     0.000 C 
BRANCH   3   4
ATOM      4  C   UNL     1       8.221 -19.512   3.417  1.00  0.00     0.000 C 
BRANCH   4   5
ATOM      5  C   UNL     1       8.870 -18.175   3.001  1.00  0.00     0.001 C 
BRANCH   5   6
ATOM      6  C   UNL     1       9.882 -17.596   4.010  1.00  0.00     0.009 C 
BRANCH   6   7
ATOM      7  C   UNL     1       9.277 -17.153   5.362  1.00  0.00     0.032 C 
ATOM      8  C   UNL     1       9.649 -18.102   6.510  1.00  0.00     0.014 C 
BRANCH   7   9
ATOM      9  C   UNL     1       9.730 -15.756   5.687  1.00  0.00     0.044 C 
ATOM     10  O   UNL     1       9.032 -15.011   6.426  1.00  0.00    -0.550 OA
ATOM     11  O   UNL     1      10.934 -15.282   5.181  1.00  0.00    -0.550 OA
ENDBRANCH   7   9
ENDBRANCH   6   7
ENDBRANCH   5   6
ENDBRANCH   4   5
ENDBRANCH   3   4
ENDBRANCH   2   3
ENDBRANCH   1   2
BRANCH   1  12
ATOM     12  C   UNL     1       3.912 -20.678   5.545  1.00  0.00     0.000 C 
BRANCH  12  13
ATOM     13  C   UNL     1       3.899 -19.289   6.194  1.00  0.00    -0.000 C 
BRANCH  13  14
ATOM     14  C   UNL     1       2.833 -18.390   5.549  1.00  0.00    -0.000 C 
BRANCH  14  15
ATOM     15  C   UNL     1       1.999 -19.118   4.479  1.00  0.00    -0.000 C 
BRANCH  15  16
ATOM     16  C   UNL     1       1.978 -18.445   3.094  1.00  0.00    -0.000 C 
BRANCH  16  17
ATOM     17  C   UNL     1       3.374 -18.353   2.452  1.00  0.00    -0.000 C 
BRANCH  17  18
ATOM     18  C   UNL     1       3.539 -19.313   1.264  1.00  0.00    -0.003 C 
ATOM     19  C   UNL     1       3.662 -20.775   1.695  1.00  0.00     0.004 C 
ENDBRANCH  17  18
ENDBRANCH  16  17
ENDBRANCH  15  16
ENDBRANCH  14  15
ENDBRANCH  13  14
ENDBRANCH  12  13
ENDBRANCH   1  12
TORSDOF 14
ENDMDL
MODEL 2
REMARK VINA RESULT:    -2.982      1.894      2.859
REMARK INTER + INTRA:          -7.391
REMARK INTER:                  -6.073
REMARK INTRA:                  -1.318
REMARK UNBOUND:                -1.968
REMARK SMILES CCCCCCCCCCCCCC[C@@H](C)C(=O)[O-]
REMARK SMILES IDX 9 1 10 2 11 3 12 4 13 5 14 6 15 7 16 8 17 9 18 10 19 11 8 12
REMARK SMILES IDX 7 13 6 14 5 15 4 16 3 17 2 18 1 19
REMARK H PARENT
REMARK Flexibility Score: inf
ROOT
ATOM      1  C   UNL     1       5.584 -19.269   7.219  1.00  0.00     0.000 C 
ENDROOT
BRANCH   1   2
ATOM      2  C   UNL     1       4.768 -18.259   8.040  1.00  0.00     0.000 C 
BRANCH   2   3
ATOM      3  C   UNL     1       5.488 -16.910   8.214  1.00  0.00     0.000 C 
BRANCH   3   4
ATOM      4  C   UNL     1       7.026 -16.997   8.292  1.00  0.00     0.000 C 
BRANCH   4   5
ATOM      5  C   UNL     1       7.781 -15.924   7.482  1.00  0.00     0.001 C 
BRANCH   5   6
ATOM      6  C   UNL     1       8.994 -16.440   6.681  1.00  0.00     0.009 C 
BRANCH   6   7
ATOM      7  C   UNL     1       9.962 -15.343   6.181  1.00  0.00     0.032 C 
ATOM      8  C   UNL     1      10.983 -14.931   7.251  1.00  0.00     0.014 C 
BRANCH   7   9
ATOM      9  C   UNL     1      10.679 -15.823   4.949  1.00  0.00     0.044 C 
ATOM     10  O   UNL     1      10.036 -16.310   3.982  1.00  0.00    -0.550 OA
ATOM     11  O   UNL     1      12.062 -15.719   4.866  1.00  0.00    -0.550 OA
ENDBRANCH   7   9
ENDBRANCH   6   7
ENDBRANCH   5   6
ENDBRANCH   4   5
ENDBRANCH   3   4
ENDBRANCH   2   3
ENDBRANCH   1   2
BRANCH   1  12
ATOM     12  C   UNL     1       5.022 -19.402   5.799  1.00  0.00     0.000 C 
BRANCH  12  13
ATOM     13  C   UNL     1       3.787 -20.311   5.778  1.00  0.00    -0.000 C 
BRANCH  13  14
ATOM     14  C   UNL     1       2.554 -19.553   5.265  1.00  0.00    -0.000 C 
BRANCH  14  15
ATOM     15  C   UNL     1       2.897 -18.172   4.678  1.00  0.00    -0.000 C 
BRANCH  15  16
ATOM     16  C   UNL     1       2.621 -18.015   3.170  1.00  0.00    -0.000 C 
BRANCH  16  17
ATOM     17  C   UNL     1       3.833 -18.384   2.298  1.00  0.00    -0.000 C 
BRANCH  17  18
ATOM     18  C   UNL     1       3.473 -19.374   1.179  1.00  0.00    -0.003 C 
ATOM     19  C   UNL     1       2.463 -20.431   1.624  1.00  0.00     0.004 C 
ENDBRANCH  17  18
ENDBRANCH  16  17
ENDBRANCH  15  16
ENDBRANCH  14  15
ENDBRANCH  13  14
ENDBRANCH  12  13
ENDBRANCH   1  12
TORSDOF 14
ENDMDL
MODEL 3
REMARK VINA RESULT:    -2.954      1.275      2.007
REMARK INTER + INTRA:          -7.339
REMARK INTER:                  -5.680
REMARK INTRA:                  -1.659
REMARK UNBOUND:                -1.968
REMARK SMILES CCCCCCCCCCCCCC[C@@H](C)C(=O)[O-]
REMARK SMILES IDX 9 1 10 2 11 3 12 4 13 5 14 6 15 7 16 8 17 9 18 10 19 11 8 12
REMARK SMILES IDX 7 13 6 14 5 15 4 16 3 17 2 18 1 19
REMARK H PARENT
REMARK Flexibility Score: inf
ROOT
ATOM      1  C   UNL     1       6.173 -20.108   3.937  1.00  0.00     0.000 C 
ENDROOT
BRANCH   1   2
ATOM      2  C   UNL     1       7.687 -19.994   4.165  1.00  0.00     0.000 C 
BRANCH   2   3
ATOM      3  C   UNL     1       8.270 -18.662   3.660  1.00  0.00     0.000 C 
BRANCH   3   4
ATOM      4  C   UNL     1       9.052 -17.852   4.713  1.00  0.00     0.000 C 
BRANCH   4   5
ATOM      5  C   UNL     1       8.769 -18.242   6.179  1.00  0.00     0.001 C 
BRANCH   5   6
ATOM      6  C   UNL     1       8.511 -17.059   7.134  1.00  0.00     0.009 C 
BRANCH   6   7
ATOM      7  C   UNL     1       9.052 -15.695   6.646  1.00  0.00     0.032 C 
ATOM      8  C   UNL     1       8.102 -14.536   6.977  1.00  0.00     0.014 C 
BRANCH   7   9
ATOM      9  C   UNL     1      10.403 -15.439   7.258  1.00  0.00     0.044 C 
ATOM     10  O   UNL     1      10.607 -15.668   8.479  1.00  0.00    -0.550 OA
ATOM     11  O   UNL     1      11.441 -14.957   6.469  1.00  0.00    -0.550 OA
ENDBRANCH   7   9
ENDBRANCH   6   7
ENDBRANCH   5   6
ENDBRANCH   4   5
ENDBRANCH   3   4
ENDBRANCH   2   3
ENDBRANCH   1   2
BRANCH   1  12
ATOM     12  C   UNL     1       5.400 -19.799   5.225  1.00  0.00     0.000 C 
BRANCH  12  13
ATOM     13  C   UNL     1       3.950 -20.289   5.127  1.00  0.00    -0.000 C 
BRANCH  13  14
ATOM     14  C   UNL     1       2.963 -19.124   5.297  1.00  0.00    -0.000 C 
BRANCH  14  15
ATOM     15  C   UNL     1       2.223 -18.767   3.996  1.00  0.00    -0.000 C 
BRANCH  15  16
ATOM     16  C   UNL     1       2.995 -17.842   3.036  1.00  0.00    -0.000 C 
BRANCH  16  17
ATOM     17  C   UNL     1       3.663 -18.603   1.878  1.00  0.00    -0.000 C 
BRANCH  17  18
ATOM     18  C   UNL     1       2.838 -19.815   1.417  1.00  0.00    -0.003 C 
ATOM     19  C   UNL     1       3.626 -21.124   1.472  1.00  0.00     0.004 C 
ENDBRANCH  17  18
ENDBRANCH  16  17
ENDBRANCH  15  16
ENDBRANCH  14  15
ENDBRANCH  13  14
ENDBRANCH  12  13
ENDBRANCH   1  12
TORSDOF 14
ENDMDL
MODEL 4
REMARK VINA RESULT:    -2.952      1.935      3.514
REMARK INTER + INTRA:          -7.335
REMARK INTER:                  -5.613
REMARK INTRA:                  -1.723
REMARK UNBOUND:                -1.968
REMARK SMILES CCCCCCCCCCCCCC[C@@H](C)C(=O)[O-]
REMARK SMILES IDX 9 1 10 2 11 3 12 4 13 5 14 6 15 7 16 8 17 9 18 10 19 11 8 12
REMARK SMILES IDX 7 13 6 14 5 15 4 16 3 17 2 18 1 19
REMARK H PARENT
REMARK Flexibility Score: inf
ROOT
ATOM      1  C   UNL     1       6.545 -19.601   5.969  1.00  0.00     0.000 C 
ENDROOT
BRANCH   1   2
ATOM      2  C   UNL     1       5.847 -19.443   7.329  1.00  0.00     0.000 C 
BRANCH   2   3
ATOM      3  C   UNL     1       6.564 -18.446   8.256  1.00  0.00     0.000 C 
BRANCH   3   4
ATOM      4  C   UNL     1       5.921 -17.047   8.331  1.00  0.00     0.000 C 
BRANCH   4   5
ATOM      5  C   UNL     1       6.863 -15.876   7.985  1.00  0.00     0.001 C 
BRANCH   5   6
ATOM      6  C   UNL     1       8.121 -16.263   7.181  1.00  0.00     0.009 C 
BRANCH   6   7
ATOM      7  C   UNL     1       9.118 -15.108   6.931  1.00  0.00     0.032 C 
ATOM      8  C   UNL     1       9.824 -14.655   8.217  1.00  0.00     0.014 C 
BRANCH   7   9
ATOM      9  C   UNL     1      10.139 -15.531   5.910  1.00  0.00     0.044 C 
ATOM     10  O   UNL     1       9.819 -16.302   4.966  1.00  0.00    -0.550 OA
ATOM     11  O   UNL     1      11.443 -15.060   5.996  1.00  0.00    -0.550 OA
ENDBRANCH   7   9
ENDBRANCH   6   7
ENDBRANCH   5   6
ENDBRANCH   4   5
ENDBRANCH   3   4
ENDBRANCH   2   3
ENDBRANCH   1   2
BRANCH   1  12
ATOM     12  C   UNL     1       5.618 -20.277   4.952  1.00  0.00     0.000 C 
BRANCH  12  13
ATOM     13  C   UNL     1       5.786 -19.659   3.559  1.00  0.00    -0.000 C 
BRANCH  13  14
ATOM     14  C   UNL     1       4.488 -19.775   2.745  1.00  0.00    -0.000 C 
BRANCH  14  15
ATOM     15  C   UNL     1       3.880 -18.408   2.383  1.00  0.00    -0.000 C 
BRANCH  15  16
ATOM     16  C   UNL     1       2.789 -17.902   3.345  1.00  0.00    -0.000 C 
BRANCH  16  17
ATOM     17  C   UNL     1       2.071 -19.041   4.090  1.00  0.00    -0.000 C 
BRANCH  17  18
ATOM     18  C   UNL     1       2.222 -18.935   5.615  1.00  0.00    -0.003 C 
ATOM     19  C   UNL     1       2.926 -17.650   6.053  1.00  0.00     0.004 C 
ENDBRANCH  17  18
ENDBRANCH  16  17
ENDBRANCH  15  16
ENDBRANCH  14  15
ENDBRANCH  13  14
ENDBRANCH  12  13
ENDBRANCH   1  12
TORSDOF 14
ENDMDL
MODEL 5
REMARK VINA RESULT:    -2.935      1.395      3.116
REMARK INTER + INTRA:          -7.305
REMARK INTER:                  -5.532
REMARK INTRA:                  -1.773
REMARK UNBOUND:                -1.968
REMARK SMILES CCCCCCCCCCCCCC[C@@H](C)C(=O)[O-]
REMARK SMILES IDX 9 1 10 2 11 3 12 4 13 5 14 6 15 7 16 8 17 9 18 10 19 11 8 12
REMARK SMILES IDX 7 13 6 14 5 15 4 16 3 17 2 18 1 19
REMARK H PARENT
REMARK Flexibility Score: inf
ROOT
ATOM      1  C   UNL     1       4.478 -19.737   2.662  1.00  0.00     0.000 C 
ENDROOT
BRANCH   1   2
ATOM      2  C   UNL     1       5.798 -19.548   3.426  1.00  0.00     0.000 C 
BRANCH   2   3
ATOM      3  C   UNL     1       5.729 -20.059   4.875  1.00  0.00     0.000 C 
BRANCH   3   4
ATOM      4  C   UNL     1       6.880 -19.590   5.787  1.00  0.00     0.000 C 
BRANCH   4   5
ATOM      5  C   UNL     1       8.242 -19.424   5.084  1.00  0.00     0.001 C 
BRANCH   5   6
ATOM      6  C   UNL     1       9.213 -18.435   5.762  1.00  0.00     0.009 C 
BRANCH   6   7
ATOM      7  C   UNL     1       9.037 -16.957   5.346  1.00  0.00     0.032 C 
ATOM      8  C   UNL     1       9.008 -16.007   6.552  1.00  0.00     0.014 C 
BRANCH   7   9
ATOM      9  C   UNL     1      10.145 -16.559   4.408  1.00  0.00     0.044 C 
ATOM     10  O   UNL     1      10.506 -15.355   4.319  1.00  0.00    -0.550 OA
ATOM     11  O   UNL     1      10.787 -17.524   3.643  1.00  0.00    -0.550 OA
ENDBRANCH   7   9
ENDBRANCH   6   7
ENDBRANCH   5   6
ENDBRANCH   4   5
ENDBRANCH   3   4
ENDBRANCH   2   3
ENDBRANCH   1   2
BRANCH   1  12
ATOM     12  C   UNL     1       3.918 -18.390   2.192  1.00  0.00     0.000 C 
BRANCH  12  13
ATOM     13  C   UNL     1       2.665 -18.007   2.988  1.00  0.00    -0.000 C 
BRANCH  13  14
ATOM     14  C   UNL     1       1.542 -19.032   2.775  1.00  0.00    -0.000 C 
BRANCH  14  15
ATOM     15  C   UNL     1       0.978 -19.590   4.094  1.00  0.00    -0.000 C 
BRANCH  15  16
ATOM     16  C   UNL     1       1.853 -20.654   4.783  1.00  0.00    -0.000 C 
BRANCH  16  17
ATOM     17  C   UNL     1       2.253 -20.264   6.217  1.00  0.00    -0.000 C 
BRANCH  17  18
ATOM     18  C   UNL     1       1.946 -18.792   6.533  1.00  0.00    -0.003 C 
ATOM     19  C   UNL     1       3.202 -17.922   6.587  1.00  0.00     0.004 C 
ENDBRANCH  17  18
ENDBRANCH  16  17
ENDBRANCH  15  16
ENDBRANCH  14  15
ENDBRANCH  13  14
ENDBRANCH  12  13
ENDBRANCH   1  12
TORSDOF 14
ENDMDL
MODEL 6
REMARK VINA RESULT:    -2.922      3.304      6.892
REMARK INTER + INTRA:          -7.281
REMARK INTER:                  -5.602
REMARK INTRA:                  -1.679
REMARK UNBOUND:                -1.968
REMARK SMILES CCCCCCCCCCCCCC[C@@H](C)C(=O)[O-]
REMARK SMILES IDX 9 1 10 2 11 3 12 4 13 5 14 6 15 7 16 8 17 9 18 10 19 11 8 12
REMARK SMILES IDX 7 13 6 14 5 15 4 16 3 17 2 18 1 19
REMARK H PARENT
REMARK Flexibility Score: inf
ROOT
ATOM      1  C   UNL     1       8.998 -18.211   4.099  1.00  0.00     0.000 C 
ENDROOT
BRANCH   1   2
ATOM      2  C   UNL     1       8.588 -18.917   5.400  1.00  0.00     0.000 C 
BRANCH   2   3
ATOM      3  C   UNL     1       7.279 -19.714   5.260  1.00  0.00     0.000 C 
BRANCH   3   4
ATOM      4  C   UNL     1       6.896 -20.092   3.816  1.00  0.00     0.000 C 
BRANCH   4   5
ATOM      5  C   UNL     1       5.487 -20.697   3.651  1.00  0.00     0.001 C 
BRANCH   5   6
ATOM      6  C   UNL     1       4.463 -19.790   2.939  1.00  0.00     0.009 C 
BRANCH   6   7
ATOM      7  C   UNL     1       3.185 -19.484   3.753  1.00  0.00     0.032 C 
ATOM      8  C   UNL     1       3.496 -19.063   5.196  1.00  0.00     0.014 C 
BRANCH   7   9
ATOM      9  C   UNL     1       2.394 -18.404   3.066  1.00  0.00     0.044 C 
ATOM     10  O   UNL     1       2.857 -17.236   2.964  1.00  0.00    -0.550 OA
ATOM     11  O   UNL     1       1.147 -18.694   2.525  1.00  0.00    -0.550 OA
ENDBRANCH   7   9
ENDBRANCH   6   7
ENDBRANCH   5   6
ENDBRANCH   4   5
ENDBRANCH   3   4
ENDBRANCH   2   3
ENDBRANCH   1   2
BRANCH   1  12
ATOM     12  C   UNL     1       9.777 -16.924   4.395  1.00  0.00     0.000 C 
BRANCH  12  13
ATOM     13  C   UNL     1      10.706 -17.108   5.601  1.00  0.00    -0.000 C 
BRANCH  13  14
ATOM     14  C   UNL     1      10.433 -16.042   6.672  1.00  0.00    -0.000 C 
BRANCH  14  15
ATOM     15  C   UNL     1       9.300 -15.075   6.286  1.00  0.00    -0.000 C 
BRANCH  15  16
ATOM     16  C   UNL     1       8.084 -15.079   7.232  1.00  0.00    -0.000 C 
BRANCH  16  17
ATOM     17  C   UNL     1       8.057 -16.301   8.167  1.00  0.00    -0.000 C 
BRANCH  17  18
ATOM     18  C   UNL     1       6.766 -17.123   8.025  1.00  0.00    -0.003 C 
ATOM     19  C   UNL     1       5.510 -16.312   8.342  1.00  0.00     0.004 C 
ENDBRANCH  17  18
ENDBRANCH  16  17
ENDBRANCH  15  16
ENDBRANCH  14  15
ENDBRANCH  13  14
ENDBRANCH  12  13
ENDBRANCH   1  12
TORSDOF 14
ENDMDL
MODEL 7
REMARK VINA RESULT:    -2.916      1.525      3.619
REMARK INTER + INTRA:          -7.270
REMARK INTER:                  -5.198
REMARK INTRA:                  -2.072
REMARK UNBOUND:                -1.968
REMARK SMILES CCCCCCCCCCCCCC[C@@H](C)C(=O)[O-]
REMARK SMILES IDX 9 1 10 2 11 3 12 4 13 5 14 6 15 7 16 8 17 9 18 10 19 11 8 12
REMARK SMILES IDX 7 13 6 14 5 15 4 16 3 17 2 18 1 19
REMARK H PARENT
REMARK Flexibility Score: inf
ROOT
ATOM      1  C   UNL     1       3.864 -18.390   2.349  1.00  0.00     0.000 C 
ENDROOT
BRANCH   1   2
ATOM      2  C   UNL     1       3.946 -19.875   1.965  1.00  0.00     0.000 C 
BRANCH   2   3
ATOM      3  C   UNL     1       4.782 -20.704   2.956  1.00  0.00     0.000 C 
BRANCH   3   4
ATOM      4  C   UNL     1       5.485 -19.887   4.058  1.00  0.00     0.000 C 
BRANCH   4   5
ATOM      5  C   UNL     1       7.022 -20.005   4.079  1.00  0.00     0.001 C 
BRANCH   5   6
ATOM      6  C   UNL     1       7.776 -18.889   3.327  1.00  0.00     0.009 C 
BRANCH   6   7
ATOM      7  C   UNL     1       9.314 -18.925   3.475  1.00  0.00     0.032 C 
ATOM      8  C   UNL     1      10.034 -18.915   2.119  1.00  0.00     0.014 C 
BRANCH   7   9
ATOM      9  C   UNL     1       9.771 -17.755   4.304  1.00  0.00     0.044 C 
ATOM     10  O   UNL     1       9.972 -17.887   5.541  1.00  0.00    -0.550 OA
ATOM     11  O   UNL     1       9.986 -16.521   3.704  1.00  0.00    -0.550 OA
ENDBRANCH   7   9
ENDBRANCH   6   7
ENDBRANCH   5   6
ENDBRANCH   4   5
ENDBRANCH   3   4
ENDBRANCH   2   3
ENDBRANCH   1   2
BRANCH   1  12
ATOM     12  C   UNL     1       2.475 -18.041   2.896  1.00  0.00     0.000 C 
BRANCH  12  13
ATOM     13  C   UNL     1       1.467 -19.156   2.592  1.00  0.00    -0.000 C 
BRANCH  13  14
ATOM     14  C   UNL     1       0.716 -19.581   3.862  1.00  0.00    -0.000 C 
BRANCH  14  15
ATOM     15  C   UNL     1       1.407 -20.735   4.612  1.00  0.00    -0.000 C 
BRANCH  15  16
ATOM     16  C   UNL     1       2.291 -20.308   5.799  1.00  0.00    -0.000 C 
BRANCH  16  17
ATOM     17  C   UNL     1       1.847 -18.975   6.427  1.00  0.00    -0.000 C 
BRANCH  17  18
ATOM     18  C   UNL     1       2.983 -17.941   6.476  1.00  0.00    -0.003 C 
ATOM     19  C   UNL     1       4.224 -18.458   7.205  1.00  0.00     0.004 C 
ENDBRANCH  17  18
ENDBRANCH  16  17
ENDBRANCH  15  16
ENDBRANCH  14  15
ENDBRANCH  13  14
ENDBRANCH  12  13
ENDBRANCH   1  12
TORSDOF 14
ENDMDL
MODEL 8
REMARK VINA RESULT:    -2.881      4.743      7.172
REMARK INTER + INTRA:          -7.206
REMARK INTER:                  -5.052
REMARK INTRA:                  -2.154
REMARK UNBOUND:                -1.968
REMARK SMILES CCCCCCCCCCCCCC[C@@H](C)C(=O)[O-]
REMARK SMILES IDX 9 1 10 2 11 3 12 4 13 5 14 6 15 7 16 8 17 9 18 10 19 11 8 12
REMARK SMILES IDX 7 13 6 14 5 15 4 16 3 17 2 18 1 19
REMARK H PARENT
REMARK Flexibility Score: inf
ROOT
ATOM      1  C   UNL     1       8.833 -17.879  10.028  1.00  0.00     0.000 C 
ENDROOT
BRANCH   1   2
ATOM      2  C   UNL     1       8.813 -16.445  10.579  1.00  0.00     0.000 C 
BRANCH   2   3
ATOM      3  C   UNL     1      10.164 -15.726  10.423  1.00  0.00     0.000 C 
BRANCH   3   4
ATOM      4  C   UNL     1      10.557 -15.385   8.972  1.00  0.00     0.000 C 
BRANCH   4   5
ATOM      5  C   UNL     1       9.534 -14.522   8.205  1.00  0.00     0.001 C 
BRANCH   5   6
ATOM      6  C   UNL     1       9.108 -15.078   6.831  1.00  0.00     0.009 C 
BRANCH   6   7
ATOM      7  C   UNL     1       9.938 -16.280   6.326  1.00  0.00     0.032 C 
ATOM      8  C   UNL     1       9.056 -17.448   5.861  1.00  0.00     0.014 C 
BRANCH   7   9
ATOM      9  C   UNL     1      10.837 -15.840   5.202  1.00  0.00     0.044 C 
ATOM     10  O   UNL     1      10.351 -15.365   4.142  1.00  0.00    -0.550 OA
ATOM     11  O   UNL     1      12.216 -15.944   5.335  1.00  0.00    -0.550 OA
ENDBRANCH   7   9
ENDBRANCH   6   7
ENDBRANCH   5   6
ENDBRANCH   4   5
ENDBRANCH   3   4
ENDBRANCH   2   3
ENDBRANCH   1   2
BRANCH   1  12
ATOM     12  C   UNL     1       7.491 -18.236   9.377  1.00  0.00     0.000 C 
BRANCH  12  13
ATOM     13  C   UNL     1       6.799 -16.986   8.821  1.00  0.00    -0.000 C 
BRANCH  13  14
ATOM     14  C   UNL     1       5.475 -16.719   9.551  1.00  0.00    -0.000 C 
BRANCH  14  15
ATOM     15  C   UNL     1       5.191 -17.733  10.675  1.00  0.00    -0.000 C 
BRANCH  15  16
ATOM     16  C   UNL     1       4.507 -17.149  11.925  1.00  0.00    -0.000 C 
BRANCH  16  17
ATOM     17  C   UNL     1       5.091 -15.790  12.349  1.00  0.00    -0.000 C 
BRANCH  17  18
ATOM     18  C   UNL     1       6.298 -15.936  13.289  1.00  0.00    -0.003 C 
ATOM     19  C   UNL     1       6.542 -14.690  14.140  1.00  0.00     0.004 C 
ENDBRANCH  17  18
ENDBRANCH  16  17
ENDBRANCH  15  16
ENDBRANCH  14  15
ENDBRANCH  13  14
ENDBRANCH  12  13
ENDBRANCH   1  12
TORSDOF 14
ENDMDL
MODEL 9
REMARK VINA RESULT:    -2.878      1.267      2.852
REMARK INTER + INTRA:          -7.201
REMARK INTER:                  -5.758
REMARK INTRA:                  -1.443
REMARK UNBOUND:                -1.968
REMARK SMILES CCCCCCCCCCCCCC[C@@H](C)C(=O)[O-]
REMARK SMILES IDX 9 1 10 2 11 3 12 4 13 5 14 6 15 7 16 8 17 9 18 10 19 11 8 12
REMARK SMILES IDX 7 13 6 14 5 15 4 16 3 17 2 18 1 19
REMARK H PARENT
REMARK Flexibility Score: inf
ROOT
ATOM      1  C   UNL     1       6.377 -20.253   4.069  1.00  0.00     0.000 C 
ENDROOT
BRANCH   1   2
ATOM      2  C   UNL     1       7.887 -20.108   3.828  1.00  0.00     0.000 C 
BRANCH   2   3
ATOM      3  C   UNL     1       8.275 -18.723   3.279  1.00  0.00     0.000 C 
BRANCH   3   4
ATOM      4  C   UNL     1       9.680 -18.234   3.680  1.00  0.00     0.000 C 
BRANCH   4   5
ATOM      5  C   UNL     1       9.716 -16.865   4.391  1.00  0.00     0.001 C 
BRANCH   5   6
ATOM      6  C   UNL     1       9.477 -16.911   5.914  1.00  0.00     0.009 C 
BRANCH   6   7
ATOM      7  C   UNL     1       9.026 -15.574   6.545  1.00  0.00     0.032 C 
ATOM      8  C   UNL     1       7.812 -15.742   7.469  1.00  0.00     0.014 C 
BRANCH   7   9
ATOM      9  C   UNL     1      10.169 -14.963   7.310  1.00  0.00     0.044 C 
ATOM     10  O   UNL     1       9.989 -14.495   8.465  1.00  0.00    -0.550 OA
ATOM     11  O   UNL     1      11.439 -14.925   6.746  1.00  0.00    -0.550 OA
ENDBRANCH   7   9
ENDBRANCH   6   7
ENDBRANCH   5   6
ENDBRANCH   4   5
ENDBRANCH   3   4
ENDBRANCH   2   3
ENDBRANCH   1   2
BRANCH   1  12
ATOM     12  C   UNL     1       5.600 -19.131   3.369  1.00  0.00     0.000 C 
BRANCH  12  13
ATOM     13  C   UNL     1       4.414 -19.694   2.577  1.00  0.00    -0.000 C 
BRANCH  13  14
ATOM     14  C   UNL     1       3.448 -18.575   2.161  1.00  0.00    -0.000 C 
BRANCH  14  15
ATOM     15  C   UNL     1       2.509 -18.136   3.300  1.00  0.00    -0.000 C 
BRANCH  15  16
ATOM     16  C   UNL     1       1.799 -19.284   4.042  1.00  0.00    -0.000 C 
BRANCH  16  17
ATOM     17  C   UNL     1       1.932 -19.180   5.571  1.00  0.00    -0.000 C 
BRANCH  17  18
ATOM     18  C   UNL     1       2.993 -18.155   6.002  1.00  0.00    -0.003 C 
ATOM     19  C   UNL     1       4.144 -18.786   6.786  1.00  0.00     0.004 C 
ENDBRANCH  17  18
ENDBRANCH  16  17
ENDBRANCH  15  16
ENDBRANCH  14  15
ENDBRANCH  13  14
ENDBRANCH  12  13
ENDBRANCH   1  12
TORSDOF 14
ENDMDL
