MODEL 1
REMARK VINA RESULT:    -8.361      0.000      0.000
REMARK INTER + INTRA:         -10.095
REMARK INTER:                 -10.071
REMARK INTRA:                  -0.024
REMARK UNBOUND:                -0.024
REMARK SMILES O=c1c(O)c(-c2ccc(O)c(O)c2)oc2cc(O)cc(O)c12
REMARK SMILES IDX 5 1 3 2 2 3 1 4 22 5 20 6 19 7 17 8 16 9 15 10 14 11 6 12
REMARK SMILES IDX 7 13 8 14 9 15 13 16 11 17 10 18 12 20 4 22 21 24 18 26
REMARK H PARENT 10 19 12 21 4 23 21 25 18 27
REMARK Flexibility Score: inf
ROOT
ATOM      1  C   UNL     1      21.454   3.497  27.369  1.00  0.00     0.180 A 
ATOM      2  C   UNL     1      21.424   3.898  26.019  1.00  0.00     0.208 A 
ATOM      3  C   UNL     1      20.769   3.083  25.084  1.00  0.00     0.238 A 
ATOM      4  O   UNL     1      20.726   3.438  23.874  1.00  0.00    -0.285 OA
ATOM      5  C   UNL     1      20.176   1.876  25.506  1.00  0.00     0.111 A 
ATOM      6  C   UNL     1      19.501   0.996  24.626  1.00  0.00     0.134 A 
ATOM      7  C   UNL     1      18.945  -0.193  25.123  1.00  0.00     0.093 A 
ATOM      8  C   UNL     1      19.050  -0.518  26.477  1.00  0.00     0.123 A 
ATOM      9  C   UNL     1      19.715   0.348  27.351  1.00  0.00     0.094 A 
ATOM     10  C   UNL     1      20.274   1.538  26.876  1.00  0.00     0.146 A 
ATOM     11  O   UNL     1      20.897   2.345  27.729  1.00  0.00    -0.452 OA
ENDROOT
BRANCH   1  12
ATOM     12  C   UNL     1      22.108   4.313  28.418  1.00  0.00     0.025 A 
ATOM     13  C   UNL     1      21.759   5.666  28.558  1.00  0.00     0.016 A 
ATOM     14  C   UNL     1      22.377   6.460  29.526  1.00  0.00     0.051 A 
ATOM     15  C   UNL     1      23.365   5.918  30.359  1.00  0.00     0.157 A 
ATOM     16  C   UNL     1      23.113   3.778  29.242  1.00  0.00     0.062 A 
ATOM     17  C   UNL     1      23.737   4.571  30.212  1.00  0.00     0.158 A 
BRANCH  15  18
ATOM     18  O   UNL     1      23.980   6.712  31.326  1.00  0.00    -0.504 OA
ATOM     19  H   UNL     1      24.968   6.929  31.286  1.00  0.00     0.293 HD
ENDBRANCH  15  18
BRANCH  17  20
ATOM     20  O   UNL     1      24.727   4.006  31.016  1.00  0.00    -0.504 OA
ATOM     21  H   UNL     1      25.074   4.468  31.847  1.00  0.00     0.293 HD
ENDBRANCH  17  20
ENDBRANCH   1  12
BRANCH   2  22
ATOM     22  O   UNL     1      22.062   5.075  25.619  1.00  0.00    -0.502 OA
ATOM     23  H   UNL     1      23.068   5.188  25.660  1.00  0.00     0.293 HD
ENDBRANCH   2  22
BRANCH   6  24
ATOM     24  O   UNL     1      19.379   1.291  23.268  1.00  0.00    -0.507 OA
ATOM     25  H   UNL     1      20.131   1.108  22.612  1.00  0.00     0.293 HD
ENDBRANCH   6  24
BRANCH   8  26
ATOM     26  O   UNL     1      18.489  -1.705  26.944  1.00  0.00    -0.508 OA
ATOM     27  H   UNL     1      18.922  -2.603  26.763  1.00  0.00     0.293 HD
ENDBRANCH   8  26
TORSDOF 6
ENDMDL
MODEL 2
REMARK VINA RESULT:    -7.842      1.879      2.005
REMARK INTER + INTRA:          -9.470
REMARK INTER:                  -9.349
REMARK INTRA:                  -0.121
REMARK UNBOUND:                -0.024
REMARK SMILES O=c1c(O)c(-c2ccc(O)c(O)c2)oc2cc(O)cc(O)c12
REMARK SMILES IDX 5 1 3 2 2 3 1 4 22 5 20 6 19 7 17 8 16 9 15 10 14 11 6 12
REMARK SMILES IDX 7 13 8 14 9 15 13 16 11 17 10 18 12 20 4 22 21 24 18 26
REMARK H PARENT 10 19 12 21 4 23 21 25 18 27
REMARK Flexibility Score: inf
ROOT
ATOM      1  C   UNL     1      21.703   2.240  27.531  1.00  0.00     0.180 A 
ATOM      2  C   UNL     1      22.551   1.481  26.702  1.00  0.00     0.208 A 
ATOM      3  C   UNL     1      21.999   0.441  25.938  1.00  0.00     0.238 A 
ATOM      4  O   UNL     1      22.746  -0.239  25.183  1.00  0.00    -0.285 OA
ATOM      5  C   UNL     1      20.619   0.164  26.031  1.00  0.00     0.111 A 
ATOM      6  C   UNL     1      19.985  -0.868  25.299  1.00  0.00     0.134 A 
ATOM      7  C   UNL     1      18.608  -1.087  25.454  1.00  0.00     0.093 A 
ATOM      8  C   UNL     1      17.855  -0.296  26.324  1.00  0.00     0.123 A 
ATOM      9  C   UNL     1      18.476   0.726  27.050  1.00  0.00     0.094 A 
ATOM     10  C   UNL     1      19.846   0.961  26.908  1.00  0.00     0.146 A 
ATOM     11  O   UNL     1      20.410   1.942  27.605  1.00  0.00    -0.452 OA
ENDROOT
BRANCH   1  12
ATOM     12  C   UNL     1      22.207   3.366  28.352  1.00  0.00     0.025 A 
ATOM     13  C   UNL     1      21.748   4.667  28.094  1.00  0.00     0.016 A 
ATOM     14  C   UNL     1      22.225   5.747  28.841  1.00  0.00     0.051 A 
ATOM     15  C   UNL     1      23.181   5.544  29.847  1.00  0.00     0.157 A 
ATOM     16  C   UNL     1      23.181   3.168  29.347  1.00  0.00     0.062 A 
ATOM     17  C   UNL     1      23.663   4.248  30.096  1.00  0.00     0.158 A 
BRANCH  15  18
ATOM     18  O   UNL     1      23.653   6.623  30.592  1.00  0.00    -0.504 OA
ATOM     19  H   UNL     1      23.364   7.573  30.393  1.00  0.00     0.293 HD
ENDBRANCH  15  18
BRANCH  17  20
ATOM     20  O   UNL     1      24.624   4.015  31.079  1.00  0.00    -0.504 OA
ATOM     21  H   UNL     1      24.557   4.420  32.005  1.00  0.00     0.293 HD
ENDBRANCH  17  20
ENDBRANCH   1  12
BRANCH   2  22
ATOM     22  O   UNL     1      23.923   1.744  26.664  1.00  0.00    -0.502 OA
ATOM     23  H   UNL     1      24.612   1.077  26.992  1.00  0.00     0.293 HD
ENDBRANCH   2  22
BRANCH   6  24
ATOM     24  O   UNL     1      20.710  -1.676  24.422  1.00  0.00    -0.507 OA
ATOM     25  H   UNL     1      20.873  -2.659  24.612  1.00  0.00     0.293 HD
ENDBRANCH   6  24
BRANCH   8  26
ATOM     26  O   UNL     1      16.488  -0.534  26.461  1.00  0.00    -0.508 OA
ATOM     27  H   UNL     1      15.813   0.221  26.430  1.00  0.00     0.293 HD
ENDBRANCH   8  26
TORSDOF 6
ENDMDL
MODEL 3
REMARK VINA RESULT:    -7.722      1.526      2.912
REMARK INTER + INTRA:          -9.326
REMARK INTER:                  -9.002
REMARK INTRA:                  -0.325
REMARK UNBOUND:                -0.024
REMARK SMILES O=c1c(O)c(-c2ccc(O)c(O)c2)oc2cc(O)cc(O)c12
REMARK SMILES IDX 5 1 3 2 2 3 1 4 22 5 20 6 19 7 17 8 16 9 15 10 14 11 6 12
REMARK SMILES IDX 7 13 8 14 9 15 13 16 11 17 10 18 12 20 4 22 21 24 18 26
REMARK H PARENT 10 19 12 21 4 23 21 25 18 27
REMARK Flexibility Score: inf
ROOT
ATOM      1  C   UNL     1      21.520   3.697  27.187  1.00  0.00     0.180 A 
ATOM      2  C   UNL     1      20.257   3.088  27.324  1.00  0.00     0.208 A 
ATOM      3  C   UNL     1      19.733   2.364  26.242  1.00  0.00     0.238 A 
ATOM      4  O   UNL     1      18.608   1.805  26.357  1.00  0.00    -0.285 OA
ATOM      5  C   UNL     1      20.466   2.278  25.040  1.00  0.00     0.111 A 
ATOM      6  C   UNL     1      20.007   1.572  23.903  1.00  0.00     0.134 A 
ATOM      7  C   UNL     1      20.791   1.541  22.740  1.00  0.00     0.093 A 
ATOM      8  C   UNL     1      22.021   2.200  22.692  1.00  0.00     0.123 A 
ATOM      9  C   UNL     1      22.480   2.899  23.813  1.00  0.00     0.094 A 
ATOM     10  C   UNL     1      21.714   2.940  24.982  1.00  0.00     0.146 A 
ATOM     11  O   UNL     1      22.176   3.608  26.034  1.00  0.00    -0.452 OA
ENDROOT
BRANCH   1  12
ATOM     12  C   UNL     1      22.148   4.461  28.290  1.00  0.00     0.025 A 
ATOM     13  C   UNL     1      21.878   5.832  28.421  1.00  0.00     0.016 A 
ATOM     14  C   UNL     1      22.474   6.578  29.440  1.00  0.00     0.051 A 
ATOM     15  C   UNL     1      23.364   5.966  30.334  1.00  0.00     0.157 A 
ATOM     16  C   UNL     1      23.057   3.856  29.176  1.00  0.00     0.062 A 
ATOM     17  C   UNL     1      23.659   4.600  30.196  1.00  0.00     0.158 A 
BRANCH  15  18
ATOM     18  O   UNL     1      23.958   6.712  31.352  1.00  0.00    -0.504 OA
ATOM     19  H   UNL     1      23.422   7.054  32.141  1.00  0.00     0.293 HD
ENDBRANCH  15  18
BRANCH  17  20
ATOM     20  O   UNL     1      24.552   3.966  31.061  1.00  0.00    -0.504 OA
ATOM     21  H   UNL     1      25.477   4.334  31.245  1.00  0.00     0.293 HD
ENDBRANCH  17  20
ENDBRANCH   1  12
BRANCH   2  22
ATOM     22  O   UNL     1      19.530   3.230  28.508  1.00  0.00    -0.502 OA
ATOM     23  H   UNL     1      19.533   2.522  29.234  1.00  0.00     0.293 HD
ENDBRANCH   2  22
BRANCH   6  24
ATOM     24  O   UNL     1      18.782   0.902  23.918  1.00  0.00    -0.507 OA
ATOM     25  H   UNL     1      17.910   1.380  23.719  1.00  0.00     0.293 HD
ENDBRANCH   6  24
BRANCH   8  26
ATOM     26  O   UNL     1      22.780   2.154  21.524  1.00  0.00    -0.508 OA
ATOM     27  H   UNL     1      22.392   2.428  20.629  1.00  0.00     0.293 HD
ENDBRANCH   8  26
TORSDOF 6
ENDMDL
MODEL 4
REMARK VINA RESULT:    -7.639      2.155      2.786
REMARK INTER + INTRA:          -9.226
REMARK INTER:                  -9.152
REMARK INTRA:                  -0.074
REMARK UNBOUND:                -0.024
REMARK SMILES O=c1c(O)c(-c2ccc(O)c(O)c2)oc2cc(O)cc(O)c12
REMARK SMILES IDX 5 1 3 2 2 3 1 4 22 5 20 6 19 7 17 8 16 9 15 10 14 11 6 12
REMARK SMILES IDX 7 13 8 14 9 15 13 16 11 17 10 18 12 20 4 22 21 24 18 26
REMARK H PARENT 10 19 12 21 4 23 21 25 18 27
REMARK Flexibility Score: inf
ROOT
ATOM      1  C   UNL     1      21.816   2.575  27.628  1.00  0.00     0.180 A 
ATOM      2  C   UNL     1      20.462   2.188  27.602  1.00  0.00     0.208 A 
ATOM      3  C   UNL     1      20.083   1.099  26.803  1.00  0.00     0.238 A 
ATOM      4  O   UNL     1      18.875   0.736  26.781  1.00  0.00    -0.285 OA
ATOM      5  C   UNL     1      21.055   0.430  26.032  1.00  0.00     0.111 A 
ATOM      6  C   UNL     1      20.755  -0.675  25.198  1.00  0.00     0.134 A 
ATOM      7  C   UNL     1      21.777  -1.281  24.452  1.00  0.00     0.093 A 
ATOM      8  C   UNL     1      23.089  -0.808  24.524  1.00  0.00     0.123 A 
ATOM      9  C   UNL     1      23.391   0.282  25.347  1.00  0.00     0.094 A 
ATOM     10  C   UNL     1      22.387   0.900  26.099  1.00  0.00     0.146 A 
ATOM     11  O   UNL     1      22.703   1.930  26.876  1.00  0.00    -0.452 OA
ENDROOT
BRANCH   1  12
ATOM     12  C   UNL     1      22.297   3.702  28.461  1.00  0.00     0.025 A 
ATOM     13  C   UNL     1      21.763   4.985  28.261  1.00  0.00     0.016 A 
ATOM     14  C   UNL     1      22.215   6.066  29.020  1.00  0.00     0.051 A 
ATOM     15  C   UNL     1      23.220   5.884  29.980  1.00  0.00     0.157 A 
ATOM     16  C   UNL     1      23.319   3.527  29.411  1.00  0.00     0.062 A 
ATOM     17  C   UNL     1      23.777   4.609  30.172  1.00  0.00     0.158 A 
BRANCH  15  18
ATOM     18  O   UNL     1      23.669   6.965  30.738  1.00  0.00    -0.504 OA
ATOM     19  H   UNL     1      23.387   7.915  30.526  1.00  0.00     0.293 HD
ENDBRANCH  15  18
BRANCH  17  20
ATOM     20  O   UNL     1      24.788   4.399  31.109  1.00  0.00    -0.504 OA
ATOM     21  H   UNL     1      24.814   3.576  31.698  1.00  0.00     0.293 HD
ENDBRANCH  17  20
ENDBRANCH   1  12
BRANCH   2  22
ATOM     22  O   UNL     1      19.511   2.899  28.339  1.00  0.00    -0.502 OA
ATOM     23  H   UNL     1      18.663   3.263  27.921  1.00  0.00     0.293 HD
ENDBRANCH   2  22
BRANCH   6  24
ATOM     24  O   UNL     1      19.454  -1.172  25.104  1.00  0.00    -0.507 OA
ATOM     25  H   UNL     1      19.197  -1.865  24.410  1.00  0.00     0.293 HD
ENDBRANCH   6  24
BRANCH   8  26
ATOM     26  O   UNL     1      24.086  -1.428  23.774  1.00  0.00    -0.508 OA
ATOM     27  H   UNL     1      24.434  -1.018  22.915  1.00  0.00     0.293 HD
ENDBRANCH   8  26
TORSDOF 6
ENDMDL
MODEL 5
REMARK VINA RESULT:    -7.622      2.117      2.885
REMARK INTER + INTRA:          -9.206
REMARK INTER:                  -8.926
REMARK INTRA:                  -0.280
REMARK UNBOUND:                -0.024
REMARK SMILES O=c1c(O)c(-c2ccc(O)c(O)c2)oc2cc(O)cc(O)c12
REMARK SMILES IDX 5 1 3 2 2 3 1 4 22 5 20 6 19 7 17 8 16 9 15 10 14 11 6 12
REMARK SMILES IDX 7 13 8 14 9 15 13 16 11 17 10 18 12 20 4 22 21 24 18 26
REMARK H PARENT 10 19 12 21 4 23 21 25 18 27
REMARK Flexibility Score: inf
ROOT
ATOM      1  C   UNL     1      20.599   2.553  27.528  1.00  0.00     0.180 A 
ATOM      2  C   UNL     1      21.388   1.551  26.932  1.00  0.00     0.208 A 
ATOM      3  C   UNL     1      20.764   0.381  26.470  1.00  0.00     0.238 A 
ATOM      4  O   UNL     1      21.460  -0.518  25.923  1.00  0.00    -0.285 OA
ATOM      5  C   UNL     1      19.373   0.224  26.631  1.00  0.00     0.111 A 
ATOM      6  C   UNL     1      18.668  -0.925  26.197  1.00  0.00     0.134 A 
ATOM      7  C   UNL     1      17.283  -1.010  26.402  1.00  0.00     0.093 A 
ATOM      8  C   UNL     1      16.590   0.027  27.029  1.00  0.00     0.123 A 
ATOM      9  C   UNL     1      17.281   1.165  27.459  1.00  0.00     0.094 A 
ATOM     10  C   UNL     1      18.660   1.270  27.263  1.00  0.00     0.146 A 
ATOM     11  O   UNL     1      19.291   2.364  27.676  1.00  0.00    -0.452 OA
ENDROOT
BRANCH   1  12
ATOM     12  C   UNL     1      21.180   3.823  28.022  1.00  0.00     0.025 A 
ATOM     13  C   UNL     1      21.289   4.040  29.404  1.00  0.00     0.016 A 
ATOM     14  C   UNL     1      21.816   5.238  29.893  1.00  0.00     0.051 A 
ATOM     15  C   UNL     1      22.226   6.244  29.007  1.00  0.00     0.157 A 
ATOM     16  C   UNL     1      21.574   4.841  27.136  1.00  0.00     0.062 A 
ATOM     17  C   UNL     1      22.099   6.044  27.622  1.00  0.00     0.158 A 
BRANCH  15  18
ATOM     18  O   UNL     1      22.752   7.438  29.497  1.00  0.00    -0.504 OA
ATOM     19  H   UNL     1      22.915   7.579  30.487  1.00  0.00     0.293 HD
ENDBRANCH  15  18
BRANCH  17  20
ATOM     20  O   UNL     1      22.485   7.031  26.715  1.00  0.00    -0.504 OA
ATOM     21  H   UNL     1      22.592   6.842  25.726  1.00  0.00     0.293 HD
ENDBRANCH  17  20
ENDBRANCH   1  12
BRANCH   2  22
ATOM     22  O   UNL     1      22.772   1.711  26.829  1.00  0.00    -0.502 OA
ATOM     23  H   UNL     1      23.193   2.524  26.396  1.00  0.00     0.293 HD
ENDBRANCH   2  22
BRANCH   6  24
ATOM     24  O   UNL     1      19.331  -1.979  25.567  1.00  0.00    -0.507 OA
ATOM     25  H   UNL     1      19.003  -2.368  24.690  1.00  0.00     0.293 HD
ENDBRANCH   6  24
BRANCH   8  26
ATOM     26  O   UNL     1      15.214  -0.083  27.221  1.00  0.00    -0.508 OA
ATOM     27  H   UNL     1      14.774   0.215  28.084  1.00  0.00     0.293 HD
ENDBRANCH   8  26
TORSDOF 6
ENDMDL
MODEL 6
REMARK VINA RESULT:    -7.621     13.129     14.918
REMARK INTER + INTRA:          -9.205
REMARK INTER:                  -9.224
REMARK INTRA:                   0.019
REMARK UNBOUND:                -0.024
REMARK SMILES O=c1c(O)c(-c2ccc(O)c(O)c2)oc2cc(O)cc(O)c12
REMARK SMILES IDX 5 1 3 2 2 3 1 4 22 5 20 6 19 7 17 8 16 9 15 10 14 11 6 12
REMARK SMILES IDX 7 13 8 14 9 15 13 16 11 17 10 18 12 20 4 22 21 24 18 26
REMARK H PARENT 10 19 12 21 4 23 21 25 18 27
REMARK Flexibility Score: inf
ROOT
ATOM      1  C   UNL     1       8.043   5.710  28.374  1.00  0.00     0.180 A 
ATOM      2  C   UNL     1       7.656   4.381  28.634  1.00  0.00     0.208 A 
ATOM      3  C   UNL     1       7.909   3.837  29.903  1.00  0.00     0.238 A 
ATOM      4  O   UNL     1       7.556   2.652  30.151  1.00  0.00    -0.285 OA
ATOM      5  C   UNL     1       8.559   4.619  30.879  1.00  0.00     0.111 A 
ATOM      6  C   UNL     1       8.854   4.145  32.180  1.00  0.00     0.134 A 
ATOM      7  C   UNL     1       9.513   4.982  33.093  1.00  0.00     0.093 A 
ATOM      8  C   UNL     1       9.881   6.280  32.732  1.00  0.00     0.123 A 
ATOM      9  C   UNL     1       9.592   6.754  31.448  1.00  0.00     0.094 A 
ATOM     10  C   UNL     1       8.934   5.936  30.525  1.00  0.00     0.146 A 
ATOM     11  O   UNL     1       8.667   6.413  29.314  1.00  0.00    -0.452 OA
ENDROOT
BRANCH   1  12
ATOM     12  C   UNL     1       7.793   6.361  27.067  1.00  0.00     0.025 A 
ATOM     13  C   UNL     1       8.811   7.119  26.468  1.00  0.00     0.016 A 
ATOM     14  C   UNL     1       8.592   7.758  25.245  1.00  0.00     0.051 A 
ATOM     15  C   UNL     1       7.345   7.663  24.612  1.00  0.00     0.157 A 
ATOM     16  C   UNL     1       6.537   6.283  26.439  1.00  0.00     0.062 A 
ATOM     17  C   UNL     1       6.313   6.926  25.215  1.00  0.00     0.158 A 
BRANCH  15  18
ATOM     18  O   UNL     1       7.129   8.300  23.391  1.00  0.00    -0.504 OA
ATOM     19  H   UNL     1       7.588   7.991  22.542  1.00  0.00     0.293 HD
ENDBRANCH  15  18
BRANCH  17  20
ATOM     20  O   UNL     1       5.057   6.824  24.617  1.00  0.00    -0.504 OA
ATOM     21  H   UNL     1       4.906   7.048  23.641  1.00  0.00     0.293 HD
ENDBRANCH  17  20
ENDBRANCH   1  12
BRANCH   2  22
ATOM     22  O   UNL     1       7.057   3.612  27.634  1.00  0.00    -0.502 OA
ATOM     23  H   UNL     1       6.383   3.998  26.983  1.00  0.00     0.293 HD
ENDBRANCH   2  22
BRANCH   6  24
ATOM     24  O   UNL     1       8.499   2.853  32.572  1.00  0.00    -0.507 OA
ATOM     25  H   UNL     1       7.951   2.680  33.407  1.00  0.00     0.293 HD
ENDBRANCH   6  24
BRANCH   8  26
ATOM     26  O   UNL     1      10.535   7.091  33.658  1.00  0.00    -0.508 OA
ATOM     27  H   UNL     1      10.245   7.129  34.628  1.00  0.00     0.293 HD
ENDBRANCH   8  26
TORSDOF 6
ENDMDL
MODEL 7
REMARK VINA RESULT:    -7.386     13.877     15.355
REMARK INTER + INTRA:          -8.922
REMARK INTER:                  -9.046
REMARK INTRA:                   0.124
REMARK UNBOUND:                -0.024
REMARK SMILES O=c1c(O)c(-c2ccc(O)c(O)c2)oc2cc(O)cc(O)c12
REMARK SMILES IDX 5 1 3 2 2 3 1 4 22 5 20 6 19 7 17 8 16 9 15 10 14 11 6 12
REMARK SMILES IDX 7 13 8 14 9 15 13 16 11 17 10 18 12 20 4 22 21 24 18 26
REMARK H PARENT 10 19 12 21 4 23 21 25 18 27
REMARK Flexibility Score: inf
ROOT
ATOM      1  C   UNL     1       7.103   4.590  28.065  1.00  0.00     0.180 A 
ATOM      2  C   UNL     1       7.709   4.870  29.305  1.00  0.00     0.208 A 
ATOM      3  C   UNL     1       7.650   3.906  30.322  1.00  0.00     0.238 A 
ATOM      4  O   UNL     1       8.200   4.141  31.433  1.00  0.00    -0.285 OA
ATOM      5  C   UNL     1       6.972   2.692  30.092  1.00  0.00     0.111 A 
ATOM      6  C   UNL     1       6.863   1.669  31.066  1.00  0.00     0.134 A 
ATOM      7  C   UNL     1       6.161   0.492  30.763  1.00  0.00     0.093 A 
ATOM      8  C   UNL     1       5.569   0.317  29.511  1.00  0.00     0.123 A 
ATOM      9  C   UNL     1       5.674   1.324  28.545  1.00  0.00     0.094 A 
ATOM     10  C   UNL     1       6.370   2.503  28.826  1.00  0.00     0.146 A 
ATOM     11  O   UNL     1       6.458   3.441  27.889  1.00  0.00    -0.452 OA
ENDROOT
BRANCH   1  12
ATOM     12  C   UNL     1       7.139   5.550  26.937  1.00  0.00     0.025 A 
ATOM     13  C   UNL     1       8.332   6.233  26.650  1.00  0.00     0.016 A 
ATOM     14  C   UNL     1       8.385   7.157  25.604  1.00  0.00     0.051 A 
ATOM     15  C   UNL     1       7.241   7.424  24.839  1.00  0.00     0.157 A 
ATOM     16  C   UNL     1       5.989   5.835  26.180  1.00  0.00     0.062 A 
ATOM     17  C   UNL     1       6.038   6.762  25.133  1.00  0.00     0.158 A 
BRANCH  15  18
ATOM     18  O   UNL     1       7.297   8.346  23.795  1.00  0.00    -0.504 OA
ATOM     19  H   UNL     1       6.477   8.580  23.249  1.00  0.00     0.293 HD
ENDBRANCH  15  18
BRANCH  17  20
ATOM     20  O   UNL     1       4.879   7.017  24.399  1.00  0.00    -0.504 OA
ATOM     21  H   UNL     1       4.447   7.932  24.375  1.00  0.00     0.293 HD
ENDBRANCH  17  20
ENDBRANCH   1  12
BRANCH   2  22
ATOM     22  O   UNL     1       8.334   6.101  29.523  1.00  0.00    -0.502 OA
ATOM     23  H   UNL     1       8.990   6.501  28.862  1.00  0.00     0.293 HD
ENDBRANCH   2  22
BRANCH   6  24
ATOM     24  O   UNL     1       7.443   1.813  32.327  1.00  0.00    -0.507 OA
ATOM     25  H   UNL     1       7.606   2.725  32.738  1.00  0.00     0.293 HD
ENDBRANCH   6  24
BRANCH   8  26
ATOM     26  O   UNL     1       4.878  -0.861  29.235  1.00  0.00    -0.508 OA
ATOM     27  H   UNL     1       5.351  -1.679  28.869  1.00  0.00     0.293 HD
ENDBRANCH   8  26
TORSDOF 6
ENDMDL
MODEL 8
REMARK VINA RESULT:    -7.219      3.016      7.286
REMARK INTER + INTRA:          -8.720
REMARK INTER:                  -8.871
REMARK INTRA:                   0.151
REMARK UNBOUND:                -0.024
REMARK SMILES O=c1c(O)c(-c2ccc(O)c(O)c2)oc2cc(O)cc(O)c12
REMARK SMILES IDX 5 1 3 2 2 3 1 4 22 5 20 6 19 7 17 8 16 9 15 10 14 11 6 12
REMARK SMILES IDX 7 13 8 14 9 15 13 16 11 17 10 18 12 20 4 22 21 24 18 26
REMARK H PARENT 10 19 12 21 4 23 21 25 18 27
REMARK Flexibility Score: inf
ROOT
ATOM      1  C   UNL     1      17.652   0.210  26.613  1.00  0.00     0.180 A 
ATOM      2  C   UNL     1      18.019  -0.334  25.367  1.00  0.00     0.208 A 
ATOM      3  C   UNL     1      19.170   0.152  24.728  1.00  0.00     0.238 A 
ATOM      4  O   UNL     1      19.515  -0.336  23.617  1.00  0.00    -0.285 OA
ATOM      5  C   UNL     1      19.919   1.183  25.331  1.00  0.00     0.111 A 
ATOM      6  C   UNL     1      21.088   1.731  24.751  1.00  0.00     0.134 A 
ATOM      7  C   UNL     1      21.774   2.763  25.410  1.00  0.00     0.093 A 
ATOM      8  C   UNL     1      21.315   3.256  26.633  1.00  0.00     0.123 A 
ATOM      9  C   UNL     1      20.161   2.717  27.211  1.00  0.00     0.094 A 
ATOM     10  C   UNL     1      19.464   1.688  26.571  1.00  0.00     0.146 A 
ATOM     11  O   UNL     1      18.374   1.192  27.145  1.00  0.00    -0.452 OA
ENDROOT
BRANCH   1  12
ATOM     12  C   UNL     1      16.462  -0.264  27.359  1.00  0.00     0.025 A 
ATOM     13  C   UNL     1      15.712   0.651  28.114  1.00  0.00     0.016 A 
ATOM     14  C   UNL     1      14.599   0.223  28.842  1.00  0.00     0.051 A 
ATOM     15  C   UNL     1      14.229  -1.129  28.838  1.00  0.00     0.157 A 
ATOM     16  C   UNL     1      16.100  -1.622  27.373  1.00  0.00     0.062 A 
ATOM     17  C   UNL     1      14.987  -2.055  28.103  1.00  0.00     0.158 A 
BRANCH  15  18
ATOM     18  O   UNL     1      13.116  -1.552  29.563  1.00  0.00    -0.504 OA
ATOM     19  H   UNL     1      13.088  -2.462  30.009  1.00  0.00     0.293 HD
ENDBRANCH  15  18
BRANCH  17  20
ATOM     20  O   UNL     1      14.653  -3.409  28.090  1.00  0.00    -0.504 OA
ATOM     21  H   UNL     1      15.111  -4.071  27.477  1.00  0.00     0.293 HD
ENDBRANCH  17  20
ENDBRANCH   1  12
BRANCH   2  22
ATOM     22  O   UNL     1      17.232  -1.321  24.768  1.00  0.00    -0.502 OA
ATOM     23  H   UNL     1      17.553  -2.275  24.654  1.00  0.00     0.293 HD
ENDBRANCH   2  22
BRANCH   6  24
ATOM     24  O   UNL     1      21.573   1.261  23.529  1.00  0.00    -0.507 OA
ATOM     25  H   UNL     1      21.169   0.452  23.071  1.00  0.00     0.293 HD
ENDBRANCH   6  24
BRANCH   8  26
ATOM     26  O   UNL     1      22.014   4.282  27.266  1.00  0.00    -0.508 OA
ATOM     27  H   UNL     1      21.575   5.170  27.476  1.00  0.00     0.293 HD
ENDBRANCH   8  26
TORSDOF 6
ENDMDL
MODEL 9
REMARK VINA RESULT:    -7.186      2.225      3.596
REMARK INTER + INTRA:          -8.680
REMARK INTER:                  -8.367
REMARK INTRA:                  -0.313
REMARK UNBOUND:                -0.024
REMARK SMILES O=c1c(O)c(-c2ccc(O)c(O)c2)oc2cc(O)cc(O)c12
REMARK SMILES IDX 5 1 3 2 2 3 1 4 22 5 20 6 19 7 17 8 16 9 15 10 14 11 6 12
REMARK SMILES IDX 7 13 8 14 9 15 13 16 11 17 10 18 12 20 4 22 21 24 18 26
REMARK H PARENT 10 19 12 21 4 23 21 25 18 27
REMARK Flexibility Score: inf
ROOT
ATOM      1  C   UNL     1      21.774   2.000  26.745  1.00  0.00     0.180 A 
ATOM      2  C   UNL     1      21.123   0.759  26.884  1.00  0.00     0.208 A 
ATOM      3  C   UNL     1      20.958  -0.052  25.750  1.00  0.00     0.238 A 
ATOM      4  O   UNL     1      20.387  -1.171  25.865  1.00  0.00    -0.285 OA
ATOM      5  C   UNL     1      21.427   0.397  24.499  1.00  0.00     0.111 A 
ATOM      6  C   UNL     1      21.298  -0.357  23.308  1.00  0.00     0.134 A 
ATOM      7  C   UNL     1      21.782   0.165  22.098  1.00  0.00     0.093 A 
ATOM      8  C   UNL     1      22.390   1.421  22.057  1.00  0.00     0.123 A 
ATOM      9  C   UNL     1      22.522   2.170  23.231  1.00  0.00     0.094 A 
ATOM     10  C   UNL     1      22.048   1.668  24.446  1.00  0.00     0.146 A 
ATOM     11  O   UNL     1      22.189   2.398  25.547  1.00  0.00    -0.452 OA
ENDROOT
BRANCH   1  12
ATOM     12  C   UNL     1      22.002   2.902  27.898  1.00  0.00     0.025 A 
ATOM     13  C   UNL     1      21.174   4.022  28.072  1.00  0.00     0.016 A 
ATOM     14  C   UNL     1      21.383   4.898  29.139  1.00  0.00     0.051 A 
ATOM     15  C   UNL     1      22.434   4.676  30.040  1.00  0.00     0.157 A 
ATOM     16  C   UNL     1      23.067   2.693  28.792  1.00  0.00     0.062 A 
ATOM     17  C   UNL     1      23.281   3.570  29.861  1.00  0.00     0.158 A 
BRANCH  15  18
ATOM     18  O   UNL     1      22.639   5.551  31.106  1.00  0.00    -0.504 OA
ATOM     19  H   UNL     1      23.564   5.720  31.483  1.00  0.00     0.293 HD
ENDBRANCH  15  18
BRANCH  17  20
ATOM     20  O   UNL     1      24.344   3.330  30.732  1.00  0.00    -0.504 OA
ATOM     21  H   UNL     1      25.301   3.267  30.410  1.00  0.00     0.293 HD
ENDBRANCH  17  20
ENDBRANCH   1  12
BRANCH   2  22
ATOM     22  O   UNL     1      20.625   0.358  28.127  1.00  0.00    -0.502 OA
ATOM     23  H   UNL     1      20.776   0.898  28.971  1.00  0.00     0.293 HD
ENDBRANCH   2  22
BRANCH   6  24
ATOM     24  O   UNL     1      20.694  -1.615  23.316  1.00  0.00    -0.507 OA
ATOM     25  H   UNL     1      19.887  -1.823  22.738  1.00  0.00     0.293 HD
ENDBRANCH   6  24
BRANCH   8  26
ATOM     26  O   UNL     1      22.862   1.916  20.842  1.00  0.00    -0.508 OA
ATOM     27  H   UNL     1      23.782   1.674  20.494  1.00  0.00     0.293 HD
ENDBRANCH   8  26
TORSDOF 6
ENDMDL
