MODEL 1
REMARK VINA RESULT:    -3.400      0.000      0.000
REMARK INTER + INTRA:          -7.398
REMARK INTER:                  -5.983
REMARK INTRA:                  -1.415
REMARK UNBOUND:                -1.415
REMARK SMILES CCCCCCCCCCCCCCC(=O)[O-]
REMARK SMILES IDX 9 1 10 2 11 3 12 4 13 5 14 6 15 7 16 8 17 9 8 10 7 11 6 12
REMARK SMILES IDX 5 13 4 14 3 15 2 16 1 17
REMARK H PARENT
REMARK Flexibility Score: inf
ROOT
ATOM      1  C   UNL     1     -96.469 -41.027  90.295  1.00  0.00     0.000 C 
ENDROOT
BRANCH   1   2
ATOM      2  C   UNL     1     -97.529 -40.347  89.406  1.00  0.00     0.000 C 
BRANCH   2   3
ATOM      3  C   UNL     1     -97.261 -40.495  87.891  1.00  0.00     0.000 C 
BRANCH   3   4
ATOM      4  C   UNL     1     -96.439 -41.742  87.524  1.00  0.00     0.000 C 
BRANCH   4   5
ATOM      5  C   UNL     1     -97.323 -42.977  87.277  1.00  0.00     0.006 C 
BRANCH   5   6
ATOM      6  C   UNL     1     -98.686 -42.600  86.682  1.00  0.00     0.053 C 
BRANCH   6   7
ATOM      7  C   UNL     1     -99.814 -43.060  87.554  1.00  0.00     0.041 C 
ATOM      8  O   UNL     1    -100.934 -43.336  87.048  1.00  0.00    -0.550 OA
ATOM      9  O   UNL     1     -99.638 -43.152  88.928  1.00  0.00    -0.550 OA
ENDBRANCH   6   7
ENDBRANCH   5   6
ENDBRANCH   4   5
ENDBRANCH   3   4
ENDBRANCH   2   3
ENDBRANCH   1   2
BRANCH   1  10
ATOM     10  C   UNL     1     -97.040 -41.854  91.461  1.00  0.00     0.000 C 
BRANCH  10  11
ATOM     11  C   UNL     1     -96.370 -41.607  92.831  1.00  0.00    -0.000 C 
BRANCH  11  12
ATOM     12  C   UNL     1     -97.248 -40.888  93.871  1.00  0.00    -0.000 C 
BRANCH  12  13
ATOM     13  C   UNL     1     -98.753 -41.073  93.615  1.00  0.00    -0.000 C 
BRANCH  13  14
ATOM     14  C   UNL     1     -99.486 -39.736  93.416  1.00  0.00    -0.000 C 
BRANCH  14  15
ATOM     15  C   UNL     1    -100.188 -39.647  92.050  1.00  0.00    -0.000 C 
BRANCH  15  16
ATOM     16  C   UNL     1    -100.090 -38.245  91.429  1.00  0.00    -0.003 C 
ATOM     17  C   UNL     1    -100.661 -37.153  92.334  1.00  0.00     0.004 C 
ENDBRANCH  15  16
ENDBRANCH  14  15
ENDBRANCH  13  14
ENDBRANCH  12  13
ENDBRANCH  11  12
ENDBRANCH  10  11
ENDBRANCH   1  10
TORSDOF 13
ENDMDL
MODEL 2
REMARK VINA RESULT:    -3.371      3.499      6.461
REMARK INTER + INTRA:          -7.347
REMARK INTER:                  -6.007
REMARK INTRA:                  -1.340
REMARK UNBOUND:                -1.415
REMARK SMILES CCCCCCCCCCCCCCC(=O)[O-]
REMARK SMILES IDX 9 1 10 2 11 3 12 4 13 5 14 6 15 7 16 8 17 9 8 10 7 11 6 12
REMARK SMILES IDX 5 13 4 14 3 15 2 16 1 17
REMARK H PARENT
REMARK Flexibility Score: inf
ROOT
ATOM      1  C   UNL     1     -97.703 -41.318  91.914  1.00  0.00     0.000 C 
ENDROOT
BRANCH   1   2
ATOM      2  C   UNL     1     -98.624 -40.345  92.676  1.00  0.00     0.000 C 
BRANCH   2   3
ATOM      3  C   UNL     1     -99.893 -39.943  91.891  1.00  0.00     0.000 C 
BRANCH   3   4
ATOM      4  C   UNL     1     -99.931 -38.459  91.487  1.00  0.00     0.000 C 
BRANCH   4   5
ATOM      5  C   UNL     1    -101.148 -37.721  92.070  1.00  0.00     0.006 C 
BRANCH   5   6
ATOM      6  C   UNL     1    -100.742 -36.691  93.132  1.00  0.00     0.053 C 
BRANCH   6   7
ATOM      7  C   UNL     1    -101.575 -35.449  93.042  1.00  0.00     0.041 C 
ATOM      8  O   UNL     1    -101.312 -34.455  93.769  1.00  0.00    -0.550 OA
ATOM      9  O   UNL     1    -102.663 -35.402  92.180  1.00  0.00    -0.550 OA
ENDBRANCH   6   7
ENDBRANCH   5   6
ENDBRANCH   4   5
ENDBRANCH   3   4
ENDBRANCH   2   3
ENDBRANCH   1   2
BRANCH   1  10
ATOM     10  C   UNL     1     -98.432 -42.475  91.206  1.00  0.00     0.000 C 
BRANCH  10  11
ATOM     11  C   UNL     1     -97.533 -43.386  90.341  1.00  0.00    -0.000 C 
BRANCH  11  12
ATOM     12  C   UNL     1     -96.095 -42.879  90.128  1.00  0.00    -0.000 C 
BRANCH  12  13
ATOM     13  C   UNL     1     -95.801 -42.510  88.664  1.00  0.00    -0.000 C 
BRANCH  13  14
ATOM     14  C   UNL     1     -97.082 -42.335  87.831  1.00  0.00    -0.000 C 
BRANCH  14  15
ATOM     15  C   UNL     1     -97.312 -40.876  87.403  1.00  0.00    -0.000 C 
BRANCH  15  16
ATOM     16  C   UNL     1     -97.631 -39.957  88.592  1.00  0.00    -0.003 C 
ATOM     17  C   UNL     1     -96.910 -38.611  88.512  1.00  0.00     0.004 C 
ENDBRANCH  15  16
ENDBRANCH  14  15
ENDBRANCH  13  14
ENDBRANCH  12  13
ENDBRANCH  11  12
ENDBRANCH  10  11
ENDBRANCH   1  10
TORSDOF 13
ENDMDL
MODEL 3
REMARK VINA RESULT:    -3.323     13.400     15.343
REMARK INTER + INTRA:          -7.264
REMARK INTER:                  -5.451
REMARK INTRA:                  -1.813
REMARK UNBOUND:                -1.415
REMARK SMILES CCCCCCCCCCCCCCC(=O)[O-]
REMARK SMILES IDX 9 1 10 2 11 3 12 4 13 5 14 6 15 7 16 8 17 9 8 10 7 11 6 12
REMARK SMILES IDX 5 13 4 14 3 15 2 16 1 17
REMARK H PARENT
REMARK Flexibility Score: inf
ROOT
ATOM      1  C   UNL     1     -98.491 -30.307  79.361  1.00  0.00     0.000 C 
ENDROOT
BRANCH   1   2
ATOM      2  C   UNL     1     -99.831 -30.062  80.082  1.00  0.00     0.000 C 
BRANCH   2   3
ATOM      3  C   UNL     1    -100.290 -28.586  80.059  1.00  0.00     0.000 C 
BRANCH   3   4
ATOM      4  C   UNL     1    -100.146 -27.868  81.412  1.00  0.00     0.000 C 
BRANCH   4   5
ATOM      5  C   UNL     1     -99.882 -28.844  82.571  1.00  0.00     0.006 C 
BRANCH   5   6
ATOM      6  C   UNL     1    -100.844 -28.618  83.745  1.00  0.00     0.053 C 
BRANCH   6   7
ATOM      7  C   UNL     1    -101.683 -29.831  84.012  1.00  0.00     0.041 C 
ATOM      8  O   UNL     1    -101.941 -30.175  85.195  1.00  0.00    -0.550 OA
ATOM      9  O   UNL     1    -102.151 -30.598  82.954  1.00  0.00    -0.550 OA
ENDBRANCH   6   7
ENDBRANCH   5   6
ENDBRANCH   4   5
ENDBRANCH   3   4
ENDBRANCH   2   3
ENDBRANCH   1   2
BRANCH   1  10
ATOM     10  C   UNL     1     -97.769 -29.032  78.890  1.00  0.00     0.000 C 
BRANCH  10  11
ATOM     11  C   UNL     1     -96.455 -28.707  79.634  1.00  0.00    -0.000 C 
BRANCH  11  12
ATOM     12  C   UNL     1     -96.538 -27.539  80.633  1.00  0.00    -0.000 C 
BRANCH  12  13
ATOM     13  C   UNL     1     -96.397 -27.991  82.097  1.00  0.00    -0.000 C 
BRANCH  13  14
ATOM     14  C   UNL     1     -96.502 -26.821  83.088  1.00  0.00    -0.000 C 
BRANCH  14  15
ATOM     15  C   UNL     1     -96.561 -27.291  84.552  1.00  0.00    -0.000 C 
BRANCH  15  16
ATOM     16  C   UNL     1     -96.912 -28.782  84.676  1.00  0.00    -0.003 C 
ATOM     17  C   UNL     1     -95.884 -29.567  85.492  1.00  0.00     0.004 C 
ENDBRANCH  15  16
ENDBRANCH  14  15
ENDBRANCH  13  14
ENDBRANCH  12  13
ENDBRANCH  11  12
ENDBRANCH  10  11
ENDBRANCH   1  10
TORSDOF 13
ENDMDL
MODEL 4
REMARK VINA RESULT:    -3.320      1.952      4.216
REMARK INTER + INTRA:          -7.258
REMARK INTER:                  -5.735
REMARK INTRA:                  -1.523
REMARK UNBOUND:                -1.415
REMARK SMILES CCCCCCCCCCCCCCC(=O)[O-]
REMARK SMILES IDX 9 1 10 2 11 3 12 4 13 5 14 6 15 7 16 8 17 9 8 10 7 11 6 12
REMARK SMILES IDX 5 13 4 14 3 15 2 16 1 17
REMARK H PARENT
REMARK Flexibility Score: inf
ROOT
ATOM      1  C   UNL     1     -99.217 -39.855  93.007  1.00  0.00     0.000 C 
ENDROOT
BRANCH   1   2
ATOM      2  C   UNL     1     -98.598 -41.263  92.907  1.00  0.00     0.000 C 
BRANCH   2   3
ATOM      3  C   UNL     1     -97.119 -41.262  92.457  1.00  0.00     0.000 C 
BRANCH   3   4
ATOM      4  C   UNL     1     -96.893 -41.861  91.058  1.00  0.00     0.000 C 
BRANCH   4   5
ATOM      5  C   UNL     1     -96.778 -40.782  89.968  1.00  0.00     0.006 C 
BRANCH   5   6
ATOM      6  C   UNL     1     -97.916 -40.877  88.943  1.00  0.00     0.053 C 
BRANCH   6   7
ATOM      7  C   UNL     1     -97.488 -41.614  87.710  1.00  0.00     0.041 C 
ATOM      8  O   UNL     1     -98.348 -42.138  86.954  1.00  0.00    -0.550 OA
ATOM      9  O   UNL     1     -96.138 -41.751  87.416  1.00  0.00    -0.550 OA
ENDBRANCH   6   7
ENDBRANCH   5   6
ENDBRANCH   4   5
ENDBRANCH   3   4
ENDBRANCH   2   3
ENDBRANCH   1   2
BRANCH   1  10
ATOM     10  C   UNL     1     -99.891 -39.353  91.717  1.00  0.00     0.000 C 
BRANCH  10  11
ATOM     11  C   UNL     1    -100.136 -37.830  91.654  1.00  0.00    -0.000 C 
BRANCH  11  12
ATOM     12  C   UNL     1    -101.556 -37.376  92.040  1.00  0.00    -0.000 C 
BRANCH  12  13
ATOM     13  C   UNL     1    -101.585 -35.976  92.675  1.00  0.00    -0.000 C 
BRANCH  13  14
ATOM     14  C   UNL     1    -100.410 -35.741  93.639  1.00  0.00    -0.000 C 
BRANCH  14  15
ATOM     15  C   UNL     1    -100.789 -36.002  95.106  1.00  0.00    -0.000 C 
BRANCH  15  16
ATOM     16  C   UNL     1    -100.337 -37.387  95.593  1.00  0.00    -0.003 C 
ATOM     17  C   UNL     1    -101.471 -38.414  95.598  1.00  0.00     0.004 C 
ENDBRANCH  15  16
ENDBRANCH  14  15
ENDBRANCH  13  14
ENDBRANCH  12  13
ENDBRANCH  11  12
ENDBRANCH  10  11
ENDBRANCH   1  10
TORSDOF 13
ENDMDL
MODEL 5
REMARK VINA RESULT:    -3.307      3.378      6.563
REMARK INTER + INTRA:          -7.236
REMARK INTER:                  -6.150
REMARK INTRA:                  -1.086
REMARK UNBOUND:                -1.415
REMARK SMILES CCCCCCCCCCCCCCC(=O)[O-]
REMARK SMILES IDX 9 1 10 2 11 3 12 4 13 5 14 6 15 7 16 8 17 9 8 10 7 11 6 12
REMARK SMILES IDX 5 13 4 14 3 15 2 16 1 17
REMARK H PARENT
REMARK Flexibility Score: inf
ROOT
ATOM      1  C   UNL     1     -98.244 -41.000  94.189  1.00  0.00     0.000 C 
ENDROOT
BRANCH   1   2
ATOM      2  C   UNL     1     -99.222 -39.825  93.991  1.00  0.00     0.000 C 
BRANCH   2   3
ATOM      3  C   UNL     1    -100.061 -39.924  92.697  1.00  0.00     0.000 C 
BRANCH   3   4
ATOM      4  C   UNL     1    -101.142 -38.836  92.571  1.00  0.00     0.000 C 
BRANCH   4   5
ATOM      5  C   UNL     1    -100.578 -37.504  92.048  1.00  0.00     0.006 C 
BRANCH   5   6
ATOM      6  C   UNL     1    -100.584 -36.413  93.127  1.00  0.00     0.053 C 
BRANCH   6   7
ATOM      7  C   UNL     1    -101.748 -35.483  92.965  1.00  0.00     0.041 C 
ATOM      8  O   UNL     1    -102.586 -35.671  92.044  1.00  0.00    -0.550 OA
ATOM      9  O   UNL     1    -101.888 -34.391  93.810  1.00  0.00    -0.550 OA
ENDBRANCH   6   7
ENDBRANCH   5   6
ENDBRANCH   4   5
ENDBRANCH   3   4
ENDBRANCH   2   3
ENDBRANCH   1   2
BRANCH   1  10
ATOM     10  C   UNL     1     -96.868 -40.812  93.526  1.00  0.00     0.000 C 
BRANCH  10  11
ATOM     11  C   UNL     1     -96.523 -41.838  92.425  1.00  0.00    -0.000 C 
BRANCH  11  12
ATOM     12  C   UNL     1     -96.473 -41.274  90.994  1.00  0.00    -0.000 C 
BRANCH  12  13
ATOM     13  C   UNL     1     -97.852 -41.246  90.312  1.00  0.00    -0.000 C 
BRANCH  13  14
ATOM     14  C   UNL     1     -98.052 -39.998  89.437  1.00  0.00    -0.000 C 
BRANCH  14  15
ATOM     15  C   UNL     1     -97.196 -40.031  88.159  1.00  0.00    -0.000 C 
BRANCH  15  16
ATOM     16  C   UNL     1     -97.338 -41.355  87.390  1.00  0.00    -0.003 C 
ATOM     17  C   UNL     1     -96.053 -42.184  87.395  1.00  0.00     0.004 C 
ENDBRANCH  15  16
ENDBRANCH  14  15
ENDBRANCH  13  14
ENDBRANCH  12  13
ENDBRANCH  11  12
ENDBRANCH  10  11
ENDBRANCH   1  10
TORSDOF 13
ENDMDL
MODEL 6
REMARK VINA RESULT:    -3.247     15.105     17.017
REMARK INTER + INTRA:          -7.130
REMARK INTER:                  -4.871
REMARK INTRA:                  -2.259
REMARK UNBOUND:                -1.415
REMARK SMILES CCCCCCCCCCCCCCC(=O)[O-]
REMARK SMILES IDX 9 1 10 2 11 3 12 4 13 5 14 6 15 7 16 8 17 9 8 10 7 11 6 12
REMARK SMILES IDX 5 13 4 14 3 15 2 16 1 17
REMARK H PARENT
REMARK Flexibility Score: inf
ROOT
ATOM      1  C   UNL     1     -96.411 -25.787  78.830  1.00  0.00     0.000 C 
ENDROOT
BRANCH   1   2
ATOM      2  C   UNL     1     -95.333 -25.910  79.924  1.00  0.00     0.000 C 
BRANCH   2   3
ATOM      3  C   UNL     1     -95.878 -25.735  81.360  1.00  0.00     0.000 C 
BRANCH   3   4
ATOM      4  C   UNL     1     -95.955 -27.047  82.160  1.00  0.00     0.000 C 
BRANCH   4   5
ATOM      5  C   UNL     1     -96.930 -26.956  83.346  1.00  0.00     0.006 C 
BRANCH   5   6
ATOM      6  C   UNL     1     -97.177 -28.325  83.994  1.00  0.00     0.053 C 
BRANCH   6   7
ATOM      7  C   UNL     1     -96.251 -28.565  85.147  1.00  0.00     0.041 C 
ATOM      8  O   UNL     1     -95.868 -27.603  85.864  1.00  0.00    -0.550 OA
ATOM      9  O   UNL     1     -95.784 -29.846  85.408  1.00  0.00    -0.550 OA
ENDBRANCH   6   7
ENDBRANCH   5   6
ENDBRANCH   4   5
ENDBRANCH   3   4
ENDBRANCH   2   3
ENDBRANCH   1   2
BRANCH   1  10
ATOM     10  C   UNL     1     -96.725 -27.096  78.083  1.00  0.00     0.000 C 
BRANCH  10  11
ATOM     11  C   UNL     1     -96.113 -28.370  78.704  1.00  0.00    -0.000 C 
BRANCH  11  12
ATOM     12  C   UNL     1     -97.109 -29.511  78.979  1.00  0.00    -0.000 C 
BRANCH  12  13
ATOM     13  C   UNL     1     -97.995 -29.250  80.209  1.00  0.00    -0.000 C 
BRANCH  13  14
ATOM     14  C   UNL     1     -99.481 -29.095  79.843  1.00  0.00    -0.000 C 
BRANCH  14  15
ATOM     15  C   UNL     1     -99.902 -27.623  79.698  1.00  0.00    -0.000 C 
BRANCH  15  16
ATOM     16  C   UNL     1     -99.607 -26.800  80.962  1.00  0.00    -0.003 C 
ATOM     17  C   UNL     1     -99.586 -25.294  80.698  1.00  0.00     0.004 C 
ENDBRANCH  15  16
ENDBRANCH  14  15
ENDBRANCH  13  14
ENDBRANCH  12  13
ENDBRANCH  11  12
ENDBRANCH  10  11
ENDBRANCH   1  10
TORSDOF 13
ENDMDL
MODEL 7
REMARK VINA RESULT:    -3.235      2.174      4.032
REMARK INTER + INTRA:          -7.109
REMARK INTER:                  -5.702
REMARK INTRA:                  -1.407
REMARK UNBOUND:                -1.415
REMARK SMILES CCCCCCCCCCCCCCC(=O)[O-]
REMARK SMILES IDX 9 1 10 2 11 3 12 4 13 5 14 6 15 7 16 8 17 9 8 10 7 11 6 12
REMARK SMILES IDX 5 13 4 14 3 15 2 16 1 17
REMARK H PARENT
REMARK Flexibility Score: inf
ROOT
ATOM      1  C   UNL     1     -99.681 -39.395  91.998  1.00  0.00     0.000 C 
ENDROOT
BRANCH   1   2
ATOM      2  C   UNL     1     -98.801 -40.243  92.936  1.00  0.00     0.000 C 
BRANCH   2   3
ATOM      3  C   UNL     1     -97.806 -41.164  92.194  1.00  0.00     0.000 C 
BRANCH   3   4
ATOM      4  C   UNL     1     -98.058 -41.260  90.680  1.00  0.00     0.000 C 
BRANCH   4   5
ATOM      5  C   UNL     1     -96.885 -40.708  89.852  1.00  0.00     0.006 C 
BRANCH   5   6
ATOM      6  C   UNL     1     -97.296 -40.401  88.406  1.00  0.00     0.053 C 
BRANCH   6   7
ATOM      7  C   UNL     1     -97.126 -41.597  87.519  1.00  0.00     0.041 C 
ATOM      8  O   UNL     1     -98.105 -42.048  86.868  1.00  0.00    -0.550 OA
ATOM      9  O   UNL     1     -95.894 -42.233  87.438  1.00  0.00    -0.550 OA
ENDBRANCH   6   7
ENDBRANCH   5   6
ENDBRANCH   4   5
ENDBRANCH   3   4
ENDBRANCH   2   3
ENDBRANCH   1   2
BRANCH   1  10
ATOM     10  C   UNL     1    -101.135 -39.210  92.469  1.00  0.00     0.000 C 
BRANCH  10  11
ATOM     11  C   UNL     1    -101.411 -39.626  93.930  1.00  0.00    -0.000 C 
BRANCH  11  12
ATOM     12  C   UNL     1    -101.743 -38.470  94.891  1.00  0.00    -0.000 C 
BRANCH  12  13
ATOM     13  C   UNL     1    -100.489 -37.815  95.496  1.00  0.00    -0.000 C 
BRANCH  13  14
ATOM     14  C   UNL     1    -100.495 -36.284  95.353  1.00  0.00    -0.000 C 
BRANCH  14  15
ATOM     15  C   UNL     1    -100.383 -35.829  93.888  1.00  0.00    -0.000 C 
BRANCH  15  16
ATOM     16  C   UNL     1    -101.592 -34.995  93.437  1.00  0.00    -0.003 C 
ATOM     17  C   UNL     1    -102.460 -35.717  92.406  1.00  0.00     0.004 C 
ENDBRANCH  15  16
ENDBRANCH  14  15
ENDBRANCH  13  14
ENDBRANCH  12  13
ENDBRANCH  11  12
ENDBRANCH  10  11
ENDBRANCH   1  10
TORSDOF 13
ENDMDL
MODEL 8
REMARK VINA RESULT:    -3.233      3.819      7.368
REMARK INTER + INTRA:          -7.105
REMARK INTER:                  -6.102
REMARK INTRA:                  -1.002
REMARK UNBOUND:                -1.415
REMARK SMILES CCCCCCCCCCCCCCC(=O)[O-]
REMARK SMILES IDX 9 1 10 2 11 3 12 4 13 5 14 6 15 7 16 8 17 9 8 10 7 11 6 12
REMARK SMILES IDX 5 13 4 14 3 15 2 16 1 17
REMARK H PARENT
REMARK Flexibility Score: inf
ROOT
ATOM      1  C   UNL     1     -99.502 -39.869  91.833  1.00  0.00     0.000 C 
ENDROOT
BRANCH   1   2
ATOM      2  C   UNL     1     -99.733 -40.017  93.350  1.00  0.00     0.000 C 
BRANCH   2   3
ATOM      3  C   UNL     1    -100.287 -38.741  94.023  1.00  0.00     0.000 C 
BRANCH   3   4
ATOM      4  C   UNL     1    -101.199 -37.902  93.112  1.00  0.00     0.000 C 
BRANCH   4   5
ATOM      5  C   UNL     1    -100.570 -36.551  92.732  1.00  0.00     0.006 C 
BRANCH   5   6
ATOM      6  C   UNL     1    -100.620 -35.547  93.891  1.00  0.00     0.053 C 
BRANCH   6   7
ATOM      7  C   UNL     1    -101.710 -34.536  93.698  1.00  0.00     0.041 C 
ATOM      8  O   UNL     1    -101.891 -33.628  94.551  1.00  0.00    -0.550 OA
ATOM      9  O   UNL     1    -102.547 -34.619  92.593  1.00  0.00    -0.550 OA
ENDBRANCH   6   7
ENDBRANCH   5   6
ENDBRANCH   4   5
ENDBRANCH   3   4
ENDBRANCH   2   3
ENDBRANCH   1   2
BRANCH   1  10
ATOM     10  C   UNL     1     -98.859 -41.093  91.156  1.00  0.00     0.000 C 
BRANCH  10  11
ATOM     11  C   UNL     1     -97.325 -41.196  91.304  1.00  0.00    -0.000 C 
BRANCH  11  12
ATOM     12  C   UNL     1     -96.531 -41.107  89.988  1.00  0.00    -0.000 C 
BRANCH  12  13
ATOM     13  C   UNL     1     -97.180 -40.165  88.959  1.00  0.00    -0.000 C 
BRANCH  13  14
ATOM     14  C   UNL     1     -96.974 -40.640  87.512  1.00  0.00    -0.000 C 
BRANCH  14  15
ATOM     15  C   UNL     1     -97.143 -42.162  87.361  1.00  0.00    -0.000 C 
BRANCH  15  16
ATOM     16  C   UNL     1     -98.545 -42.551  86.868  1.00  0.00    -0.003 C 
ATOM     17  C   UNL     1     -99.467 -43.006  88.000  1.00  0.00     0.004 C 
ENDBRANCH  15  16
ENDBRANCH  14  15
ENDBRANCH  13  14
ENDBRANCH  12  13
ENDBRANCH  11  12
ENDBRANCH  10  11
ENDBRANCH   1  10
TORSDOF 13
ENDMDL
MODEL 9
REMARK VINA RESULT:    -3.198     15.318     17.354
REMARK INTER + INTRA:          -7.044
REMARK INTER:                  -5.055
REMARK INTRA:                  -1.988
REMARK UNBOUND:                -1.415
REMARK SMILES CCCCCCCCCCCCCCC(=O)[O-]
REMARK SMILES IDX 9 1 10 2 11 3 12 4 13 5 14 6 15 7 16 8 17 9 8 10 7 11 6 12
REMARK SMILES IDX 5 13 4 14 3 15 2 16 1 17
REMARK H PARENT
REMARK Flexibility Score: inf
ROOT
ATOM      1  C   UNL     1     -98.915 -29.171  80.329  1.00  0.00     0.000 C 
ENDROOT
BRANCH   1   2
ATOM      2  C   UNL     1     -99.490 -27.762  80.085  1.00  0.00     0.000 C 
BRANCH   2   3
ATOM      3  C   UNL     1     -99.283 -26.791  81.269  1.00  0.00     0.000 C 
BRANCH   3   4
ATOM      4  C   UNL     1     -98.731 -27.465  82.537  1.00  0.00     0.000 C 
BRANCH   4   5
ATOM      5  C   UNL     1     -97.303 -27.003  82.875  1.00  0.00     0.006 C 
BRANCH   5   6
ATOM      6  C   UNL     1     -96.370 -28.185  83.169  1.00  0.00     0.053 C 
BRANCH   6   7
ATOM      7  C   UNL     1     -96.248 -28.439  84.640  1.00  0.00     0.041 C 
ATOM      8  O   UNL     1     -95.913 -29.577  85.062  1.00  0.00    -0.550 OA
ATOM      9  O   UNL     1     -96.537 -27.428  85.547  1.00  0.00    -0.550 OA
ENDBRANCH   6   7
ENDBRANCH   5   6
ENDBRANCH   4   5
ENDBRANCH   3   4
ENDBRANCH   2   3
ENDBRANCH   1   2
BRANCH   1  10
ATOM     10  C   UNL     1     -97.705 -29.536  79.449  1.00  0.00     0.000 C 
BRANCH  10  11
ATOM     11  C   UNL     1     -96.506 -28.568  79.546  1.00  0.00    -0.000 C 
BRANCH  11  12
ATOM     12  C   UNL     1     -96.101 -27.888  78.226  1.00  0.00    -0.000 C 
BRANCH  12  13
ATOM     13  C   UNL     1     -95.617 -26.441  78.420  1.00  0.00    -0.000 C 
BRANCH  13  14
ATOM     14  C   UNL     1     -96.246 -25.769  79.651  1.00  0.00    -0.000 C 
BRANCH  14  15
ATOM     15  C   UNL     1     -95.263 -24.841  80.384  1.00  0.00    -0.000 C 
BRANCH  15  16
ATOM     16  C   UNL     1     -94.053 -25.598  80.954  1.00  0.00    -0.003 C 
ATOM     17  C   UNL     1     -92.860 -24.684  81.237  1.00  0.00     0.004 C 
ENDBRANCH  15  16
ENDBRANCH  14  15
ENDBRANCH  13  14
ENDBRANCH  12  13
ENDBRANCH  11  12
ENDBRANCH  10  11
ENDBRANCH   1  10
TORSDOF 13
ENDMDL
