MODEL 1
REMARK VINA RESULT:    -5.673      0.000      0.000
REMARK INTER + INTRA:          -7.896
REMARK INTER:                  -8.326
REMARK INTRA:                   0.430
REMARK UNBOUND:                 0.430
REMARK SMILES Cc1cc2c(C(C)C)c(O)c(O)c(C=O)c2c(O)c1-c1c(C)cc2c(C(C)C)c(O)c(O)c(C=O)c2c1O
REMARK SMILES IDX 1 1 2 2 3 3 4 4 16 5 13 6 11 7 9 8 5 9 17 10 19 11 20 12
REMARK SMILES IDX 37 13 21 14 36 15 23 16 22 17 24 18 33 19 25 20 31 21 29 22
REMARK SMILES IDX 38 23 34 25 35 26 26 27 27 28 28 29 32 30 30 32 18 34 6 36
REMARK SMILES IDX 7 37 8 38 14 39 15 40 10 41 12 43
REMARK H PARENT 38 24 32 31 30 33 18 35 10 42 12 44
REMARK Flexibility Score: inf
ROOT
ATOM      1  C   UNL     1      -2.473  -9.108  -5.406  1.00  0.00     0.045 C 
ATOM      2  C   UNL     1      -2.862  -7.655  -5.277  1.00  0.00    -0.039 A 
ATOM      3  C   UNL     1      -4.170  -7.265  -5.571  1.00  0.00     0.013 A 
ATOM      4  C   UNL     1      -4.595  -5.925  -5.463  1.00  0.00    -0.006 A 
ATOM      5  C   UNL     1      -3.681  -4.966  -4.927  1.00  0.00     0.039 A 
ATOM      6  C   UNL     1      -4.153  -3.656  -4.622  1.00  0.00     0.072 A 
ATOM      7  C   UNL     1      -5.467  -3.286  -4.961  1.00  0.00     0.169 A 
ATOM      8  C   UNL     1      -6.324  -4.198  -5.586  1.00  0.00     0.162 A 
ATOM      9  C   UNL     1      -5.907  -5.519  -5.867  1.00  0.00     0.008 A 
ATOM     10  C   UNL     1      -2.318  -5.342  -4.741  1.00  0.00     0.132 A 
ATOM     11  C   UNL     1      -1.920  -6.685  -4.900  1.00  0.00     0.031 A 
ENDROOT
BRANCH  11  12
ATOM     12  C   UNL     1      -0.506  -7.082  -4.670  1.00  0.00     0.031 A 
ATOM     13  C   UNL     1      -0.064  -7.412  -3.370  1.00  0.00     0.132 A 
ATOM     14  C   UNL     1       0.398  -7.091  -5.744  1.00  0.00    -0.039 A 
ATOM     15  C   UNL     1       1.289  -7.814  -3.144  1.00  0.00     0.039 A 
ATOM     16  C   UNL     1       1.726  -7.455  -5.524  1.00  0.00     0.013 A 
ATOM     17  C   UNL     1      -0.033  -6.659  -7.125  1.00  0.00     0.045 C 
ATOM     18  C   UNL     1       2.185  -7.876  -4.256  1.00  0.00    -0.006 A 
ATOM     19  C   UNL     1       1.787  -8.116  -1.840  1.00  0.00     0.072 A 
ATOM     20  C   UNL     1       3.533  -8.313  -4.071  1.00  0.00     0.008 A 
ATOM     21  C   UNL     1       3.158  -8.396  -1.659  1.00  0.00     0.169 A 
ATOM     22  C   UNL     1       4.023  -8.452  -2.755  1.00  0.00     0.162 A 
BRANCH  13  23
ATOM     23  O   UNL     1      -0.967  -7.323  -2.304  1.00  0.00    -0.507 OA
ATOM     24  H   UNL     1      -1.444  -8.116  -1.896  1.00  0.00     0.293 HD
ENDBRANCH  13  23
BRANCH  19  25
ATOM     25  C   UNL     1       0.910  -8.140  -0.653  1.00  0.00     0.264 C 
ATOM     26  O   UNL     1       1.111  -8.965   0.277  1.00  0.00    -0.298 OA
ENDBRANCH  19  25
BRANCH  20  27
ATOM     27  C   UNL     1       4.458  -8.617  -5.264  1.00  0.00     0.017 C 
ATOM     28  C   UNL     1       3.654  -9.125  -6.464  1.00  0.00     0.012 C 
ATOM     29  C   UNL     1       5.371  -7.441  -5.660  1.00  0.00     0.012 C 
ENDBRANCH  20  27
BRANCH  21  30
ATOM     30  O   UNL     1       3.692  -8.658  -0.391  1.00  0.00    -0.504 OA
ATOM     31  H   UNL     1       4.681  -8.649  -0.177  1.00  0.00     0.293 HD
ENDBRANCH  21  30
BRANCH  22  32
ATOM     32  O   UNL     1       5.388  -8.653  -2.538  1.00  0.00    -0.504 OA
ATOM     33  H   UNL     1       6.007  -9.046  -3.236  1.00  0.00     0.293 HD
ENDBRANCH  22  32
ENDBRANCH  11  12
BRANCH  10  34
ATOM     34  O   UNL     1      -1.354  -4.373  -4.438  1.00  0.00    -0.507 OA
ATOM     35  H   UNL     1      -0.406  -4.588  -4.157  1.00  0.00     0.293 HD
ENDBRANCH  10  34
BRANCH   9  36
ATOM     36  C   UNL     1      -6.900  -6.434  -6.613  1.00  0.00     0.017 C 
ATOM     37  C   UNL     1      -8.299  -6.407  -5.983  1.00  0.00     0.012 C 
ATOM     38  C   UNL     1      -6.377  -7.863  -6.870  1.00  0.00     0.012 C 
ENDBRANCH   9  36
BRANCH   6  39
ATOM     39  C   UNL     1      -3.342  -2.686  -3.856  1.00  0.00     0.264 C 
ATOM     40  O   UNL     1      -3.008  -1.586  -4.371  1.00  0.00    -0.298 OA
ENDBRANCH   6  39
BRANCH   8  41
ATOM     41  O   UNL     1      -7.623  -3.794  -5.915  1.00  0.00    -0.504 OA
ATOM     42  H   UNL     1      -8.227  -4.321  -6.535  1.00  0.00     0.293 HD
ENDBRANCH   8  41
BRANCH   7  43
ATOM     43  O   UNL     1      -5.966  -2.010  -4.671  1.00  0.00    -0.504 OA
ATOM     44  H   UNL     1      -5.780  -1.187  -5.228  1.00  0.00     0.293 HD
ENDBRANCH   7  43
TORSDOF 11
ENDMDL
MODEL 2
REMARK VINA RESULT:    -5.527      1.538      3.000
REMARK INTER + INTRA:          -7.681
REMARK INTER:                  -7.219
REMARK INTRA:                  -0.462
REMARK UNBOUND:                 0.430
REMARK SMILES Cc1cc2c(C(C)C)c(O)c(O)c(C=O)c2c(O)c1-c1c(C)cc2c(C(C)C)c(O)c(O)c(C=O)c2c1O
REMARK SMILES IDX 1 1 2 2 3 3 4 4 16 5 13 6 11 7 9 8 5 9 17 10 19 11 20 12
REMARK SMILES IDX 37 13 21 14 36 15 23 16 22 17 24 18 33 19 25 20 31 21 29 22
REMARK SMILES IDX 38 23 34 25 35 26 26 27 27 28 28 29 32 30 30 32 18 34 6 36
REMARK SMILES IDX 7 37 8 38 14 39 15 40 10 41 12 43
REMARK H PARENT 38 24 32 31 30 33 18 35 10 42 12 44
REMARK Flexibility Score: inf
ROOT
ATOM      1  C   UNL     1      -0.288  -3.732  -5.036  1.00  0.00     0.045 C 
ATOM      2  C   UNL     1      -1.462  -4.679  -5.095  1.00  0.00    -0.039 A 
ATOM      3  C   UNL     1      -2.750  -4.168  -5.267  1.00  0.00     0.013 A 
ATOM      4  C   UNL     1      -3.884  -5.002  -5.337  1.00  0.00    -0.006 A 
ATOM      5  C   UNL     1      -3.685  -6.416  -5.345  1.00  0.00     0.039 A 
ATOM      6  C   UNL     1      -4.793  -7.269  -5.618  1.00  0.00     0.072 A 
ATOM      7  C   UNL     1      -6.083  -6.724  -5.753  1.00  0.00     0.169 A 
ATOM      8  C   UNL     1      -6.288  -5.345  -5.635  1.00  0.00     0.162 A 
ATOM      9  C   UNL     1      -5.209  -4.463  -5.406  1.00  0.00     0.008 A 
ATOM     10  C   UNL     1      -2.387  -6.931  -5.053  1.00  0.00     0.132 A 
ATOM     11  C   UNL     1      -1.282  -6.062  -4.947  1.00  0.00     0.031 A 
ENDROOT
BRANCH  11  12
ATOM     12  C   UNL     1       0.076  -6.604  -4.678  1.00  0.00     0.031 A 
ATOM     13  C   UNL     1       0.450  -6.965  -3.365  1.00  0.00     0.132 A 
ATOM     14  C   UNL     1       0.998  -6.721  -5.730  1.00  0.00    -0.039 A 
ATOM     15  C   UNL     1       1.747  -7.505  -3.103  1.00  0.00     0.039 A 
ATOM     16  C   UNL     1       2.274  -7.222  -5.474  1.00  0.00     0.013 A 
ATOM     17  C   UNL     1       0.648  -6.262  -7.125  1.00  0.00     0.045 C 
ATOM     18  C   UNL     1       2.657  -7.674  -4.192  1.00  0.00    -0.006 A 
ATOM     19  C   UNL     1       2.180  -7.843  -1.784  1.00  0.00     0.072 A 
ATOM     20  C   UNL     1       3.946  -8.250  -3.971  1.00  0.00     0.008 A 
ATOM     21  C   UNL     1       3.508  -8.264  -1.568  1.00  0.00     0.169 A 
ATOM     22  C   UNL     1       4.388  -8.425  -2.642  1.00  0.00     0.162 A 
BRANCH  13  23
ATOM     23  O   UNL     1      -0.463  -6.768  -2.323  1.00  0.00    -0.507 OA
ATOM     24  H   UNL     1      -1.332  -7.276  -2.225  1.00  0.00     0.293 HD
ENDBRANCH  13  23
BRANCH  19  25
ATOM     25  C   UNL     1       1.278  -7.760  -0.619  1.00  0.00     0.264 C 
ATOM     26  O   UNL     1       1.069  -8.769   0.104  1.00  0.00    -0.298 OA
ENDBRANCH  19  25
BRANCH  20  27
ATOM     27  C   UNL     1       4.861  -8.664  -5.138  1.00  0.00     0.017 C 
ATOM     28  C   UNL     1       4.035  -9.124  -6.343  1.00  0.00     0.012 C 
ATOM     29  C   UNL     1       5.885  -7.585  -5.541  1.00  0.00     0.012 C 
ENDBRANCH  20  27
BRANCH  21  30
ATOM     30  O   UNL     1       3.983  -8.567  -0.285  1.00  0.00    -0.504 OA
ATOM     31  H   UNL     1       4.804  -8.149   0.131  1.00  0.00     0.293 HD
ENDBRANCH  21  30
BRANCH  22  32
ATOM     32  O   UNL     1       5.719  -8.767  -2.390  1.00  0.00    -0.504 OA
ATOM     33  H   UNL     1       6.453  -8.681  -3.083  1.00  0.00     0.293 HD
ENDBRANCH  22  32
ENDBRANCH  11  12
BRANCH  10  34
ATOM     34  O   UNL     1      -2.207  -8.302  -4.828  1.00  0.00    -0.507 OA
ATOM     35  H   UNL     1      -2.920  -8.910  -4.446  1.00  0.00     0.293 HD
ENDBRANCH  10  34
BRANCH   9  36
ATOM     36  C   UNL     1      -5.540  -2.966  -5.229  1.00  0.00     0.017 C 
ATOM     37  C   UNL     1      -5.383  -2.179  -6.538  1.00  0.00     0.012 C 
ATOM     38  C   UNL     1      -4.835  -2.297  -4.030  1.00  0.00     0.012 C 
ENDBRANCH   9  36
BRANCH   6  39
ATOM     39  C   UNL     1      -4.629  -8.716  -5.874  1.00  0.00     0.264 C 
ATOM     40  O   UNL     1      -4.253  -9.125  -7.005  1.00  0.00    -0.298 OA
ENDBRANCH   6  39
BRANCH   8  41
ATOM     41  O   UNL     1      -7.586  -4.838  -5.769  1.00  0.00    -0.504 OA
ATOM     42  H   UNL     1      -8.251  -5.191  -6.447  1.00  0.00     0.293 HD
ENDBRANCH   8  41
BRANCH   7  43
ATOM     43  O   UNL     1      -7.195  -7.532  -6.027  1.00  0.00    -0.504 OA
ATOM     44  H   UNL     1      -7.304  -8.080  -6.870  1.00  0.00     0.293 HD
ENDBRANCH   7  43
TORSDOF 11
ENDMDL
MODEL 3
REMARK VINA RESULT:    -5.229      1.670      3.191
REMARK INTER + INTRA:          -7.244
REMARK INTER:                  -7.179
REMARK INTRA:                  -0.065
REMARK UNBOUND:                 0.430
REMARK SMILES Cc1cc2c(C(C)C)c(O)c(O)c(C=O)c2c(O)c1-c1c(C)cc2c(C(C)C)c(O)c(O)c(C=O)c2c1O
REMARK SMILES IDX 1 1 2 2 3 3 4 4 16 5 13 6 11 7 9 8 5 9 17 10 19 11 20 12
REMARK SMILES IDX 37 13 21 14 36 15 23 16 22 17 24 18 33 19 25 20 31 21 29 22
REMARK SMILES IDX 38 23 34 25 35 26 26 27 27 28 28 29 32 30 30 32 18 34 6 36
REMARK SMILES IDX 7 37 8 38 14 39 15 40 10 41 12 43
REMARK H PARENT 38 24 32 31 30 33 18 35 10 42 12 44
REMARK Flexibility Score: inf
ROOT
ATOM      1  C   UNL     1      -1.376  -2.922  -4.750  1.00  0.00     0.045 C 
ATOM      2  C   UNL     1      -2.548  -3.830  -5.033  1.00  0.00    -0.039 A 
ATOM      3  C   UNL     1      -3.825  -3.283  -5.169  1.00  0.00     0.013 A 
ATOM      4  C   UNL     1      -4.957  -4.078  -5.442  1.00  0.00    -0.006 A 
ATOM      5  C   UNL     1      -4.760  -5.470  -5.697  1.00  0.00     0.039 A 
ATOM      6  C   UNL     1      -5.856  -6.249  -6.170  1.00  0.00     0.072 A 
ATOM      7  C   UNL     1      -7.137  -5.674  -6.264  1.00  0.00     0.169 A 
ATOM      8  C   UNL     1      -7.345  -4.337  -5.908  1.00  0.00     0.162 A 
ATOM      9  C   UNL     1      -6.276  -3.522  -5.474  1.00  0.00     0.008 A 
ATOM     10  C   UNL     1      -3.479  -6.043  -5.442  1.00  0.00     0.132 A 
ATOM     11  C   UNL     1      -2.378  -5.220  -5.129  1.00  0.00     0.031 A 
ENDROOT
BRANCH  11  12
ATOM     12  C   UNL     1      -1.036  -5.815  -4.901  1.00  0.00     0.031 A 
ATOM     13  C   UNL     1      -0.758  -6.501  -3.698  1.00  0.00     0.132 A 
ATOM     14  C   UNL     1      -0.032  -5.662  -5.870  1.00  0.00    -0.039 A 
ATOM     15  C   UNL     1       0.524  -7.093  -3.479  1.00  0.00     0.039 A 
ATOM     16  C   UNL     1       1.229  -6.214  -5.650  1.00  0.00     0.013 A 
ATOM     17  C   UNL     1      -0.281  -4.860  -7.125  1.00  0.00     0.045 C 
ATOM     18  C   UNL     1       1.519  -6.980  -4.499  1.00  0.00    -0.006 A 
ATOM     19  C   UNL     1       0.859  -7.758  -2.260  1.00  0.00     0.072 A 
ATOM     20  C   UNL     1       2.797  -7.596  -4.330  1.00  0.00     0.008 A 
ATOM     21  C   UNL     1       2.174  -8.224  -2.053  1.00  0.00     0.169 A 
ATOM     22  C   UNL     1       3.138  -8.107  -3.059  1.00  0.00     0.162 A 
BRANCH  13  23
ATOM     23  O   UNL     1      -1.753  -6.575  -2.715  1.00  0.00    -0.507 OA
ATOM     24  H   UNL     1      -2.148  -7.440  -2.372  1.00  0.00     0.293 HD
ENDBRANCH  13  23
BRANCH  19  25
ATOM     25  C   UNL     1      -0.132  -7.974  -1.188  1.00  0.00     0.264 C 
ATOM     26  O   UNL     1      -0.299  -9.118  -0.689  1.00  0.00    -0.298 OA
ENDBRANCH  19  25
BRANCH  20  27
ATOM     27  C   UNL     1       3.808  -7.700  -5.487  1.00  0.00     0.017 C 
ATOM     28  C   UNL     1       3.849  -9.124  -6.050  1.00  0.00     0.012 C 
ATOM     29  C   UNL     1       3.585  -6.663  -6.605  1.00  0.00     0.012 C 
ENDBRANCH  20  27
BRANCH  21  30
ATOM     30  O   UNL     1       2.553  -8.846  -0.856  1.00  0.00    -0.504 OA
ATOM     31  H   UNL     1       1.960  -8.918  -0.040  1.00  0.00     0.293 HD
ENDBRANCH  21  30
BRANCH  22  32
ATOM     32  O   UNL     1       4.450  -8.505  -2.797  1.00  0.00    -0.504 OA
ATOM     33  H   UNL     1       5.254  -8.108  -3.270  1.00  0.00     0.293 HD
ENDBRANCH  22  32
ENDBRANCH  11  12
BRANCH  10  34
ATOM     34  O   UNL     1      -3.312  -7.433  -5.461  1.00  0.00    -0.507 OA
ATOM     35  H   UNL     1      -2.432  -7.899  -5.280  1.00  0.00     0.293 HD
ENDBRANCH  10  34
BRANCH   9  36
ATOM     36  C   UNL     1      -6.611  -2.078  -5.044  1.00  0.00     0.017 C 
ATOM     37  C   UNL     1      -6.467  -1.081  -6.202  1.00  0.00     0.012 C 
ATOM     38  C   UNL     1      -5.901  -1.617  -3.755  1.00  0.00     0.012 C 
ENDBRANCH   9  36
BRANCH   6  39
ATOM     39  C   UNL     1      -5.683  -7.627  -6.676  1.00  0.00     0.264 C 
ATOM     40  O   UNL     1      -6.149  -8.606  -6.034  1.00  0.00    -0.298 OA
ENDBRANCH   6  39
BRANCH   8  41
ATOM     41  O   UNL     1      -8.634  -3.800  -6.008  1.00  0.00    -0.504 OA
ATOM     42  H   UNL     1      -9.220  -3.918  -6.826  1.00  0.00     0.293 HD
ENDBRANCH   8  41
BRANCH   7  43
ATOM     43  O   UNL     1      -8.235  -6.407  -6.731  1.00  0.00    -0.504 OA
ATOM     44  H   UNL     1      -9.172  -6.328  -6.357  1.00  0.00     0.293 HD
ENDBRANCH   7  43
TORSDOF 11
ENDMDL
MODEL 4
REMARK VINA RESULT:    -4.738      1.591      3.035
REMARK INTER + INTRA:          -6.523
REMARK INTER:                  -6.836
REMARK INTRA:                   0.313
REMARK UNBOUND:                 0.430
REMARK SMILES Cc1cc2c(C(C)C)c(O)c(O)c(C=O)c2c(O)c1-c1c(C)cc2c(C(C)C)c(O)c(O)c(C=O)c2c1O
REMARK SMILES IDX 1 1 2 2 3 3 4 4 16 5 13 6 11 7 9 8 5 9 17 10 19 11 20 12
REMARK SMILES IDX 37 13 21 14 36 15 23 16 22 17 24 18 33 19 25 20 31 21 29 22
REMARK SMILES IDX 38 23 34 25 35 26 26 27 27 28 28 29 32 30 30 32 18 34 6 36
REMARK SMILES IDX 7 37 8 38 14 39 15 40 10 41 12 43
REMARK H PARENT 38 24 32 31 30 33 18 35 10 42 12 44
REMARK Flexibility Score: inf
ROOT
ATOM      1  C   UNL     1      -2.092  -9.091  -4.511  1.00  0.00     0.045 C 
ATOM      2  C   UNL     1      -2.411  -7.629  -4.704  1.00  0.00    -0.039 A 
ATOM      3  C   UNL     1      -3.652  -7.259  -5.228  1.00  0.00     0.013 A 
ATOM      4  C   UNL     1      -4.011  -5.910  -5.425  1.00  0.00    -0.006 A 
ATOM      5  C   UNL     1      -3.114  -4.897  -4.965  1.00  0.00     0.039 A 
ATOM      6  C   UNL     1      -3.545  -3.539  -4.970  1.00  0.00     0.072 A 
ATOM      7  C   UNL     1      -4.787  -3.197  -5.536  1.00  0.00     0.169 A 
ATOM      8  C   UNL     1      -5.614  -4.183  -6.084  1.00  0.00     0.162 A 
ATOM      9  C   UNL     1      -5.241  -5.546  -6.061  1.00  0.00     0.008 A 
ATOM     10  C   UNL     1      -1.806  -5.275  -4.541  1.00  0.00     0.132 A 
ATOM     11  C   UNL     1      -1.469  -6.636  -4.397  1.00  0.00     0.031 A 
ENDROOT
BRANCH  11  12
ATOM     12  C   UNL     1      -0.116  -7.028  -3.920  1.00  0.00     0.031 A 
ATOM     13  C   UNL     1       0.955  -7.140  -4.833  1.00  0.00     0.132 A 
ATOM     14  C   UNL     1       0.084  -7.323  -2.562  1.00  0.00    -0.039 A 
ATOM     15  C   UNL     1       2.262  -7.496  -4.378  1.00  0.00     0.039 A 
ATOM     16  C   UNL     1       1.351  -7.698  -2.118  1.00  0.00     0.013 A 
ATOM     17  C   UNL     1      -1.065  -7.293  -1.583  1.00  0.00     0.045 C 
ATOM     18  C   UNL     1       2.466  -7.737  -2.985  1.00  0.00    -0.006 A 
ATOM     19  C   UNL     1       3.363  -7.661  -5.275  1.00  0.00     0.072 A 
ATOM     20  C   UNL     1       3.769  -8.055  -2.492  1.00  0.00     0.008 A 
ATOM     21  C   UNL     1       4.602  -8.125  -4.787  1.00  0.00     0.169 A 
ATOM     22  C   UNL     1       4.787  -8.357  -3.420  1.00  0.00     0.162 A 
BRANCH  13  23
ATOM     23  O   UNL     1       0.711  -6.913  -6.193  1.00  0.00    -0.507 OA
ATOM     24  H   UNL     1      -0.045  -7.339  -6.713  1.00  0.00     0.293 HD
ENDBRANCH  13  23
BRANCH  19  25
ATOM     25  C   UNL     1       3.249  -7.367  -6.716  1.00  0.00     0.264 C 
ATOM     26  O   UNL     1       3.158  -6.178  -7.123  1.00  0.00    -0.298 OA
ENDBRANCH  19  25
BRANCH  20  27
ATOM     27  C   UNL     1       4.080  -8.091  -0.984  1.00  0.00     0.017 C 
ATOM     28  C   UNL     1       5.316  -8.949  -0.702  1.00  0.00     0.012 C 
ATOM     29  C   UNL     1       4.208  -6.697  -0.340  1.00  0.00     0.012 C 
ENDBRANCH  20  27
BRANCH  21  30
ATOM     30  O   UNL     1       5.694  -8.337  -5.639  1.00  0.00    -0.504 OA
ATOM     31  H   UNL     1       6.661  -8.275  -5.351  1.00  0.00     0.293 HD
ENDBRANCH  21  30
BRANCH  22  32
ATOM     32  O   UNL     1       5.999  -8.890  -2.977  1.00  0.00    -0.504 OA
ATOM     33  H   UNL     1       6.265  -9.857  -3.124  1.00  0.00     0.293 HD
ENDBRANCH  22  32
ENDBRANCH  11  12
BRANCH  10  34
ATOM     34  O   UNL     1      -0.832  -4.298  -4.303  1.00  0.00    -0.507 OA
ATOM     35  H   UNL     1      -0.834  -3.682  -3.500  1.00  0.00     0.293 HD
ENDBRANCH  10  34
BRANCH   9  36
ATOM     36  C   UNL     1      -6.188  -6.554  -6.744  1.00  0.00     0.017 C 
ATOM     37  C   UNL     1      -7.502  -6.730  -5.970  1.00  0.00     0.012 C 
ATOM     38  C   UNL     1      -5.524  -7.893  -7.125  1.00  0.00     0.012 C 
ENDBRANCH   9  36
BRANCH   6  39
ATOM     39  C   UNL     1      -2.777  -2.467  -4.301  1.00  0.00     0.264 C 
ATOM     40  O   UNL     1      -2.043  -1.693  -4.972  1.00  0.00    -0.298 OA
ENDBRANCH   6  39
BRANCH   8  41
ATOM     41  O   UNL     1      -6.840  -3.807  -6.644  1.00  0.00    -0.504 OA
ATOM     42  H   UNL     1      -6.926  -3.100  -7.366  1.00  0.00     0.293 HD
ENDBRANCH   8  41
BRANCH   7  43
ATOM     43  O   UNL     1      -5.244  -1.873  -5.553  1.00  0.00    -0.504 OA
ATOM     44  H   UNL     1      -5.946  -1.522  -6.192  1.00  0.00     0.293 HD
ENDBRANCH   7  43
TORSDOF 11
ENDMDL
MODEL 5
REMARK VINA RESULT:    -4.057      1.569      9.128
REMARK INTER + INTRA:          -5.524
REMARK INTER:                  -6.945
REMARK INTRA:                   1.420
REMARK UNBOUND:                 0.430
REMARK SMILES Cc1cc2c(C(C)C)c(O)c(O)c(C=O)c2c(O)c1-c1c(C)cc2c(C(C)C)c(O)c(O)c(C=O)c2c1O
REMARK SMILES IDX 1 1 2 2 3 3 4 4 16 5 13 6 11 7 9 8 5 9 17 10 19 11 20 12
REMARK SMILES IDX 37 13 21 14 36 15 23 16 22 17 24 18 33 19 25 20 31 21 29 22
REMARK SMILES IDX 38 23 34 25 35 26 26 27 27 28 28 29 32 30 30 32 18 34 6 36
REMARK SMILES IDX 7 37 8 38 14 39 15 40 10 41 12 43
REMARK H PARENT 38 24 32 31 30 33 18 35 10 42 12 44
REMARK Flexibility Score: inf
ROOT
ATOM      1  C   UNL     1      -1.593  -6.565  -1.759  1.00  0.00     0.045 C 
ATOM      2  C   UNL     1      -0.451  -6.842  -2.706  1.00  0.00    -0.039 A 
ATOM      3  C   UNL     1       0.790  -7.224  -2.193  1.00  0.00     0.013 A 
ATOM      4  C   UNL     1       1.892  -7.503  -3.027  1.00  0.00    -0.006 A 
ATOM      5  C   UNL     1       1.689  -7.501  -4.441  1.00  0.00     0.039 A 
ATOM      6  C   UNL     1       2.731  -7.975  -5.290  1.00  0.00     0.072 A 
ATOM      7  C   UNL     1       3.980  -8.321  -4.744  1.00  0.00     0.169 A 
ATOM      8  C   UNL     1       4.208  -8.216  -3.367  1.00  0.00     0.162 A 
ATOM      9  C   UNL     1       3.187  -7.790  -2.488  1.00  0.00     0.008 A 
ATOM     10  C   UNL     1       0.459  -6.998  -4.960  1.00  0.00     0.132 A 
ATOM     11  C   UNL     1      -0.607  -6.688  -4.092  1.00  0.00     0.031 A 
ENDROOT
BRANCH  11  12
ATOM     12  C   UNL     1      -1.901  -6.199  -4.637  1.00  0.00     0.031 A 
ATOM     13  C   UNL     1      -2.180  -4.816  -4.671  1.00  0.00     0.132 A 
ATOM     14  C   UNL     1      -2.860  -7.122  -5.085  1.00  0.00    -0.039 A 
ATOM     15  C   UNL     1      -3.414  -4.337  -5.212  1.00  0.00     0.039 A 
ATOM     16  C   UNL     1      -4.077  -6.661  -5.587  1.00  0.00     0.013 A 
ATOM     17  C   UNL     1      -2.618  -8.608  -4.978  1.00  0.00     0.045 C 
ATOM     18  C   UNL     1      -4.358  -5.282  -5.718  1.00  0.00    -0.006 A 
ATOM     19  C   UNL     1      -3.753  -2.949  -5.226  1.00  0.00     0.072 A 
ATOM     20  C   UNL     1      -5.582  -4.835  -6.303  1.00  0.00     0.008 A 
ATOM     21  C   UNL     1      -5.029  -2.543  -5.667  1.00  0.00     0.169 A 
ATOM     22  C   UNL     1      -5.944  -3.479  -6.159  1.00  0.00     0.162 A 
BRANCH  13  23
ATOM     23  O   UNL     1      -1.237  -3.922  -4.149  1.00  0.00    -0.507 OA
ATOM     24  H   UNL     1      -1.023  -3.834  -3.165  1.00  0.00     0.293 HD
ENDBRANCH  13  23
BRANCH  19  25
ATOM     25  C   UNL     1      -2.805  -1.908  -4.784  1.00  0.00     0.264 C 
ATOM     26  O   UNL     1      -3.219  -0.771  -4.433  1.00  0.00    -0.298 OA
ENDBRANCH  19  25
BRANCH  20  27
ATOM     27  C   UNL     1      -6.515  -5.794  -7.066  1.00  0.00     0.017 C 
ATOM     28  C   UNL     1      -5.921  -7.204  -7.123  1.00  0.00     0.012 C 
ATOM     29  C   UNL     1      -7.959  -5.817  -6.529  1.00  0.00     0.012 C 
ENDBRANCH  20  27
BRANCH  21  30
ATOM     30  O   UNL     1      -5.414  -1.196  -5.659  1.00  0.00    -0.504 OA
ATOM     31  H   UNL     1      -5.240  -0.550  -6.417  1.00  0.00     0.293 HD
ENDBRANCH  21  30
BRANCH  22  32
ATOM     32  O   UNL     1      -7.227  -3.058  -6.513  1.00  0.00    -0.504 OA
ATOM     33  H   UNL     1      -7.896  -2.696  -5.844  1.00  0.00     0.293 HD
ENDBRANCH  22  32
ENDBRANCH  11  12
BRANCH  10  34
ATOM     34  O   UNL     1       0.315  -6.769  -6.334  1.00  0.00    -0.507 OA
ATOM     35  H   UNL     1       1.042  -6.382  -6.921  1.00  0.00     0.293 HD
ENDBRANCH  10  34
BRANCH   9  36
ATOM     36  C   UNL     1       3.549  -7.647  -0.995  1.00  0.00     0.017 C 
ATOM     37  C   UNL     1       4.998  -7.180  -0.792  1.00  0.00     0.012 C 
ATOM     38  C   UNL     1       3.180  -8.870  -0.131  1.00  0.00     0.012 C 
ENDBRANCH   9  36
BRANCH   6  39
ATOM     39  C   UNL     1       2.519  -8.224  -6.732  1.00  0.00     0.264 C 
ATOM     40  O   UNL     1       1.553  -8.932  -7.122  1.00  0.00    -0.298 OA
ENDBRANCH   6  39
BRANCH   8  41
ATOM     41  O   UNL     1       5.465  -8.563  -2.859  1.00  0.00    -0.504 OA
ATOM     42  H   UNL     1       5.870  -9.486  -2.965  1.00  0.00     0.293 HD
ENDBRANCH   8  41
BRANCH   7  43
ATOM     43  O   UNL     1       5.024  -8.796  -5.548  1.00  0.00    -0.504 OA
ATOM     44  H   UNL     1       5.937  -9.057  -5.198  1.00  0.00     0.293 HD
ENDBRANCH   7  43
TORSDOF 11
ENDMDL
MODEL 6
REMARK VINA RESULT:    -3.848      3.562     10.466
REMARK INTER + INTRA:          -5.218
REMARK INTER:                  -6.557
REMARK INTRA:                   1.339
REMARK UNBOUND:                 0.430
REMARK SMILES Cc1cc2c(C(C)C)c(O)c(O)c(C=O)c2c(O)c1-c1c(C)cc2c(C(C)C)c(O)c(O)c(C=O)c2c1O
REMARK SMILES IDX 1 1 2 2 3 3 4 4 16 5 13 6 11 7 9 8 5 9 17 10 19 11 20 12
REMARK SMILES IDX 37 13 21 14 36 15 23 16 22 17 24 18 33 19 25 20 31 21 29 22
REMARK SMILES IDX 38 23 34 25 35 26 26 27 27 28 28 29 32 30 30 32 18 34 6 36
REMARK SMILES IDX 7 37 8 38 14 39 15 40 10 41 12 43
REMARK H PARENT 38 24 32 31 30 33 18 35 10 42 12 44
REMARK Flexibility Score: inf
ROOT
ATOM      1  C   UNL     1      -3.133  -1.639  -3.778  1.00  0.00     0.045 C 
ATOM      2  C   UNL     1      -3.258  -2.950  -4.515  1.00  0.00    -0.039 A 
ATOM      3  C   UNL     1      -2.340  -3.971  -4.262  1.00  0.00     0.013 A 
ATOM      4  C   UNL     1      -2.409  -5.220  -4.913  1.00  0.00    -0.006 A 
ATOM      5  C   UNL     1      -3.523  -5.475  -5.770  1.00  0.00     0.039 A 
ATOM      6  C   UNL     1      -3.718  -6.793  -6.276  1.00  0.00     0.072 A 
ATOM      7  C   UNL     1      -2.757  -7.790  -6.029  1.00  0.00     0.169 A 
ATOM      8  C   UNL     1      -1.612  -7.504  -5.279  1.00  0.00     0.162 A 
ATOM      9  C   UNL     1      -1.402  -6.221  -4.726  1.00  0.00     0.008 A 
ATOM     10  C   UNL     1      -4.388  -4.396  -6.116  1.00  0.00     0.132 A 
ATOM     11  C   UNL     1      -4.262  -3.147  -5.475  1.00  0.00     0.031 A 
ENDROOT
BRANCH  11  12
ATOM     12  C   UNL     1      -5.189  -2.034  -5.810  1.00  0.00     0.031 A 
ATOM     13  C   UNL     1      -6.573  -2.164  -5.564  1.00  0.00     0.132 A 
ATOM     14  C   UNL     1      -4.687  -0.866  -6.406  1.00  0.00    -0.039 A 
ATOM     15  C   UNL     1      -7.468  -1.090  -5.865  1.00  0.00     0.039 A 
ATOM     16  C   UNL     1      -5.560   0.173  -6.727  1.00  0.00     0.013 A 
ATOM     17  C   UNL     1      -3.224  -0.740  -6.755  1.00  0.00     0.045 C 
ATOM     18  C   UNL     1      -6.937   0.116  -6.418  1.00  0.00    -0.006 A 
ATOM     19  C   UNL     1      -8.879  -1.197  -5.672  1.00  0.00     0.072 A 
ATOM     20  C   UNL     1      -7.798   1.222  -6.691  1.00  0.00     0.008 A 
ATOM     21  C   UNL     1      -9.727  -0.151  -6.092  1.00  0.00     0.169 A 
ATOM     22  C   UNL     1      -9.193   1.023  -6.631  1.00  0.00     0.162 A 
BRANCH  13  23
ATOM     23  O   UNL     1      -7.057  -3.368  -5.039  1.00  0.00    -0.507 OA
ATOM     24  H   UNL     1      -7.849  -3.436  -4.413  1.00  0.00     0.293 HD
ENDBRANCH  13  23
BRANCH  19  25
ATOM     25  C   UNL     1      -9.496  -2.383  -5.045  1.00  0.00     0.264 C 
ATOM     26  O   UNL     1     -10.258  -3.135  -5.708  1.00  0.00    -0.298 OA
ENDBRANCH  19  25
BRANCH  20  27
ATOM     27  C   UNL     1      -7.243   2.610  -7.063  1.00  0.00     0.017 C 
ATOM     28  C   UNL     1      -8.366   3.649  -7.125  1.00  0.00     0.012 C 
ATOM     29  C   UNL     1      -6.092   3.085  -6.155  1.00  0.00     0.012 C 
ENDBRANCH  20  27
BRANCH  21  30
ATOM     30  O   UNL     1     -11.119  -0.234  -5.956  1.00  0.00    -0.504 OA
ATOM     31  H   UNL     1     -11.590  -0.795  -5.259  1.00  0.00     0.293 HD
ENDBRANCH  21  30
BRANCH  22  32
ATOM     32  O   UNL     1     -10.059   2.009  -7.111  1.00  0.00    -0.504 OA
ATOM     33  H   UNL     1     -10.774   1.826  -7.805  1.00  0.00     0.293 HD
ENDBRANCH  22  32
ENDBRANCH  11  12
BRANCH  10  34
ATOM     34  O   UNL     1      -5.346  -4.555  -7.125  1.00  0.00    -0.507 OA
ATOM     35  H   UNL     1      -5.974  -5.346  -7.188  1.00  0.00     0.293 HD
ENDBRANCH  10  34
BRANCH   9  36
ATOM     36  C   UNL     1      -0.081  -5.981  -3.965  1.00  0.00     0.017 C 
ATOM     37  C   UNL     1       1.146  -6.387  -4.793  1.00  0.00     0.012 C 
ATOM     38  C   UNL     1      -0.061  -6.550  -2.531  1.00  0.00     0.012 C 
ENDBRANCH   9  36
BRANCH   6  39
ATOM     39  C   UNL     1      -4.960  -7.194  -6.971  1.00  0.00     0.264 C 
ATOM     40  O   UNL     1      -6.005  -7.448  -6.314  1.00  0.00    -0.298 OA
ENDBRANCH   6  39
BRANCH   8  41
ATOM     41  O   UNL     1      -0.673  -8.519  -5.058  1.00  0.00    -0.504 OA
ATOM     42  H   UNL     1      -0.646  -9.073  -4.210  1.00  0.00     0.293 HD
ENDBRANCH   8  41
BRANCH   7  43
ATOM     43  O   UNL     1      -2.920  -9.098  -6.506  1.00  0.00    -0.504 OA
ATOM     44  H   UNL     1      -2.847  -9.926  -5.929  1.00  0.00     0.293 HD
ENDBRANCH   7  43
TORSDOF 11
ENDMDL
