MODEL 1
REMARK VINA RESULT:    -4.140      0.000      0.000
REMARK INTER + INTRA:          -6.827
REMARK INTER:                  -6.318
REMARK INTRA:                  -0.509
REMARK UNBOUND:                -0.509
REMARK SMILES CCCCCCCCCCC(=O)[O-]
REMARK SMILES IDX 7 1 8 2 9 3 10 4 11 5 12 6 13 7 6 8 5 9 4 10 3 11 2 12 1 13
REMARK H PARENT
REMARK Flexibility Score: inf
ROOT
ATOM      1  C   UNL     1      44.285  66.608  48.310  1.00  0.00     0.000 C 
ENDROOT
BRANCH   1   2
ATOM      2  C   UNL     1      43.136  67.430  47.702  1.00  0.00     0.000 C 
BRANCH   2   3
ATOM      3  C   UNL     1      41.734  66.805  47.860  1.00  0.00     0.006 C 
BRANCH   3   4
ATOM      4  C   UNL     1      41.149  66.215  46.567  1.00  0.00     0.053 C 
BRANCH   4   5
ATOM      5  C   UNL     1      41.443  64.753  46.437  1.00  0.00     0.041 C 
ATOM      6  O   UNL     1      40.594  63.900  46.804  1.00  0.00    -0.550 OA
ATOM      7  O   UNL     1      42.671  64.332  45.939  1.00  0.00    -0.550 OA
ENDBRANCH   4   5
ENDBRANCH   3   4
ENDBRANCH   2   3
ENDBRANCH   1   2
BRANCH   1   8
ATOM      8  C   UNL     1      44.347  66.712  49.844  1.00  0.00     0.000 C 
BRANCH   8   9
ATOM      9  C   UNL     1      45.321  65.699  50.466  1.00  0.00    -0.000 C 
BRANCH   9  10
ATOM     10  C   UNL     1      45.027  65.432  51.949  1.00  0.00    -0.000 C 
BRANCH  10  11
ATOM     11  C   UNL     1      44.038  66.462  52.507  1.00  0.00    -0.000 C 
BRANCH  11  12
ATOM     12  C   UNL     1      42.947  65.781  53.343  1.00  0.00    -0.003 C 
ATOM     13  C   UNL     1      43.531  64.674  54.215  1.00  0.00     0.004 C 
ENDBRANCH  11  12
ENDBRANCH  10  11
ENDBRANCH   9  10
ENDBRANCH   8   9
ENDBRANCH   1   8
TORSDOF 9
ENDMDL
MODEL 2
REMARK VINA RESULT:    -3.996      1.265      2.070
REMARK INTER + INTRA:          -6.608
REMARK INTER:                  -6.115
REMARK INTRA:                  -0.493
REMARK UNBOUND:                -0.509
REMARK SMILES CCCCCCCCCCC(=O)[O-]
REMARK SMILES IDX 7 1 8 2 9 3 10 4 11 5 12 6 13 7 6 8 5 9 4 10 3 11 2 12 1 13
REMARK H PARENT
REMARK Flexibility Score: inf
ROOT
ATOM      1  C   UNL     1      44.582  67.264  50.439  1.00  0.00     0.000 C 
ENDROOT
BRANCH   1   2
ATOM      2  C   UNL     1      43.817  67.214  49.105  1.00  0.00     0.000 C 
BRANCH   2   3
ATOM      3  C   UNL     1      44.374  66.211  48.072  1.00  0.00     0.006 C 
BRANCH   3   4
ATOM      4  C   UNL     1      43.750  66.326  46.672  1.00  0.00     0.053 C 
BRANCH   4   5
ATOM      5  C   UNL     1      43.033  65.073  46.275  1.00  0.00     0.041 C 
ATOM      6  O   UNL     1      43.549  64.283  45.442  1.00  0.00    -0.550 OA
ATOM      7  O   UNL     1      41.778  64.793  46.801  1.00  0.00    -0.550 OA
ENDBRANCH   4   5
ENDBRANCH   3   4
ENDBRANCH   2   3
ENDBRANCH   1   2
BRANCH   1   8
ATOM      8  C   UNL     1      45.301  65.943  50.764  1.00  0.00     0.000 C 
BRANCH   8   9
ATOM      9  C   UNL     1      44.788  65.293  52.059  1.00  0.00    -0.000 C 
BRANCH   9  10
ATOM     10  C   UNL     1      43.881  66.230  52.869  1.00  0.00    -0.000 C 
BRANCH  10  11
ATOM     11  C   UNL     1      42.831  65.434  53.653  1.00  0.00    -0.000 C 
BRANCH  11  12
ATOM     12  C   UNL     1      43.489  64.339  54.501  1.00  0.00    -0.003 C 
ATOM     13  C   UNL     1      43.286  64.596  55.990  1.00  0.00     0.004 C 
ENDBRANCH  11  12
ENDBRANCH  10  11
ENDBRANCH   9  10
ENDBRANCH   8   9
ENDBRANCH   1   8
TORSDOF 9
ENDMDL
MODEL 3
REMARK VINA RESULT:    -3.902      9.575     11.126
REMARK INTER + INTRA:          -6.464
REMARK INTER:                  -6.105
REMARK INTRA:                  -0.359
REMARK UNBOUND:                -0.509
REMARK SMILES CCCCCCCCCCC(=O)[O-]
REMARK SMILES IDX 7 1 8 2 9 3 10 4 11 5 12 6 13 7 6 8 5 9 4 10 3 11 2 12 1 13
REMARK H PARENT
REMARK Flexibility Score: inf
ROOT
ATOM      1  C   UNL     1      37.275  62.990  56.166  1.00  0.00     0.000 C 
ENDROOT
BRANCH   1   2
ATOM      2  C   UNL     1      36.183  62.119  55.522  1.00  0.00     0.000 C 
BRANCH   2   3
ATOM      3  C   UNL     1      36.197  60.636  55.947  1.00  0.00     0.006 C 
BRANCH   3   4
ATOM      4  C   UNL     1      37.428  59.847  55.471  1.00  0.00     0.053 C 
BRANCH   4   5
ATOM      5  C   UNL     1      37.356  58.406  55.868  1.00  0.00     0.041 C 
ATOM      6  O   UNL     1      37.674  58.052  57.034  1.00  0.00    -0.550 OA
ATOM      7  O   UNL     1      36.969  57.447  54.939  1.00  0.00    -0.550 OA
ENDBRANCH   4   5
ENDBRANCH   3   4
ENDBRANCH   2   3
ENDBRANCH   1   2
BRANCH   1   8
ATOM      8  C   UNL     1      37.112  64.486  55.844  1.00  0.00     0.000 C 
BRANCH   8   9
ATOM      9  C   UNL     1      36.103  64.741  54.714  1.00  0.00    -0.000 C 
BRANCH   9  10
ATOM     10  C   UNL     1      34.959  65.671  55.143  1.00  0.00    -0.000 C 
BRANCH  10  11
ATOM     11  C   UNL     1      34.634  66.685  54.039  1.00  0.00    -0.000 C 
BRANCH  11  12
ATOM     12  C   UNL     1      33.166  67.123  54.109  1.00  0.00    -0.003 C 
ATOM     13  C   UNL     1      32.364  66.221  55.042  1.00  0.00     0.004 C 
ENDBRANCH  11  12
ENDBRANCH  10  11
ENDBRANCH   9  10
ENDBRANCH   8   9
ENDBRANCH   1   8
TORSDOF 9
ENDMDL
MODEL 4
REMARK VINA RESULT:    -3.885      9.720     11.605
REMARK INTER + INTRA:          -6.437
REMARK INTER:                  -6.122
REMARK INTRA:                  -0.316
REMARK UNBOUND:                -0.509
REMARK SMILES CCCCCCCCCCC(=O)[O-]
REMARK SMILES IDX 7 1 8 2 9 3 10 4 11 5 12 6 13 7 6 8 5 9 4 10 3 11 2 12 1 13
REMARK H PARENT
REMARK Flexibility Score: inf
ROOT
ATOM      1  C   UNL     1      35.709  64.750  55.936  1.00  0.00     0.000 C 
ENDROOT
BRANCH   1   2
ATOM      2  C   UNL     1      36.395  63.657  55.097  1.00  0.00     0.000 C 
BRANCH   2   3
ATOM      3  C   UNL     1      36.144  62.213  55.578  1.00  0.00     0.006 C 
BRANCH   3   4
ATOM      4  C   UNL     1      37.420  61.404  55.861  1.00  0.00     0.053 C 
BRANCH   4   5
ATOM      5  C   UNL     1      37.135  59.942  56.005  1.00  0.00     0.041 C 
ATOM      6  O   UNL     1      37.200  59.181  55.005  1.00  0.00    -0.550 OA
ATOM      7  O   UNL     1      36.765  59.424  57.241  1.00  0.00    -0.550 OA
ENDBRANCH   4   5
ENDBRANCH   3   4
ENDBRANCH   2   3
ENDBRANCH   1   2
BRANCH   1   8
ATOM      8  C   UNL     1      35.062  65.847  55.073  1.00  0.00     0.000 C 
BRANCH   8   9
ATOM      9  C   UNL     1      33.555  65.992  55.333  1.00  0.00    -0.000 C 
BRANCH   9  10
ATOM     10  C   UNL     1      32.964  67.255  54.692  1.00  0.00    -0.000 C 
BRANCH  10  11
ATOM     11  C   UNL     1      31.619  66.953  54.020  1.00  0.00    -0.000 C 
BRANCH  11  12
ATOM     12  C   UNL     1      31.613  67.428  52.562  1.00  0.00    -0.003 C 
ATOM     13  C   UNL     1      33.032  67.560  52.018  1.00  0.00     0.004 C 
ENDBRANCH  11  12
ENDBRANCH  10  11
ENDBRANCH   9  10
ENDBRANCH   8   9
ENDBRANCH   1   8
TORSDOF 9
ENDMDL
MODEL 5
REMARK VINA RESULT:    -3.868      2.335      4.546
REMARK INTER + INTRA:          -6.412
REMARK INTER:                  -6.067
REMARK INTRA:                  -0.345
REMARK UNBOUND:                -0.509
REMARK SMILES CCCCCCCCCCC(=O)[O-]
REMARK SMILES IDX 7 1 8 2 9 3 10 4 11 5 12 6 13 7 6 8 5 9 4 10 3 11 2 12 1 13
REMARK H PARENT
REMARK Flexibility Score: inf
ROOT
ATOM      1  C   UNL     1      44.177  65.704  52.536  1.00  0.00     0.000 C 
ENDROOT
BRANCH   1   2
ATOM      2  C   UNL     1      45.158  65.076  51.531  1.00  0.00     0.000 C 
BRANCH   2   3
ATOM      3  C   UNL     1      45.408  65.910  50.257  1.00  0.00     0.006 C 
BRANCH   3   4
ATOM      4  C   UNL     1      44.331  66.966  49.964  1.00  0.00     0.053 C 
BRANCH   4   5
ATOM      5  C   UNL     1      43.800  66.852  48.569  1.00  0.00     0.041 C 
ATOM      6  O   UNL     1      44.582  66.621  47.610  1.00  0.00    -0.550 OA
ATOM      7  O   UNL     1      42.444  67.033  48.324  1.00  0.00    -0.550 OA
ENDBRANCH   4   5
ENDBRANCH   3   4
ENDBRANCH   2   3
ENDBRANCH   1   2
BRANCH   1   8
ATOM      8  C   UNL     1      43.742  64.722  53.638  1.00  0.00     0.000 C 
BRANCH   8   9
ATOM      9  C   UNL     1      42.826  65.375  54.685  1.00  0.00    -0.000 C 
BRANCH   9  10
ATOM     10  C   UNL     1      43.099  64.868  56.108  1.00  0.00    -0.000 C 
BRANCH  10  11
ATOM     11  C   UNL     1      44.014  63.638  56.085  1.00  0.00    -0.000 C 
BRANCH  11  12
ATOM     12  C   UNL     1      44.202  63.066  57.496  1.00  0.00    -0.003 C 
ATOM     13  C   UNL     1      45.664  63.128  57.927  1.00  0.00     0.004 C 
ENDBRANCH  11  12
ENDBRANCH  10  11
ENDBRANCH   9  10
ENDBRANCH   8   9
ENDBRANCH   1   8
TORSDOF 9
ENDMDL
MODEL 6
REMARK VINA RESULT:    -3.800      4.035      6.794
REMARK INTER + INTRA:          -6.308
REMARK INTER:                  -5.951
REMARK INTRA:                  -0.357
REMARK UNBOUND:                -0.509
REMARK SMILES CCCCCCCCCCC(=O)[O-]
REMARK SMILES IDX 7 1 8 2 9 3 10 4 11 5 12 6 13 7 6 8 5 9 4 10 3 11 2 12 1 13
REMARK H PARENT
REMARK Flexibility Score: inf
ROOT
ATOM      1  C   UNL     1      45.031  65.476  51.903  1.00  0.00     0.000 C 
ENDROOT
BRANCH   1   2
ATOM      2  C   UNL     1      43.898  66.372  52.433  1.00  0.00     0.000 C 
BRANCH   2   3
ATOM      3  C   UNL     1      43.157  65.823  53.670  1.00  0.00     0.006 C 
BRANCH   3   4
ATOM      4  C   UNL     1      43.583  64.408  54.092  1.00  0.00     0.053 C 
BRANCH   4   5
ATOM      5  C   UNL     1      43.612  64.254  55.581  1.00  0.00     0.041 C 
ATOM      6  O   UNL     1      43.078  65.122  56.320  1.00  0.00    -0.550 OA
ATOM      7  O   UNL     1      44.259  63.166  56.155  1.00  0.00    -0.550 OA
ENDBRANCH   4   5
ENDBRANCH   3   4
ENDBRANCH   2   3
ENDBRANCH   1   2
BRANCH   1   8
ATOM      8  C   UNL     1      45.497  65.876  50.492  1.00  0.00     0.000 C 
BRANCH   8   9
ATOM      9  C   UNL     1      44.427  66.658  49.715  1.00  0.00    -0.000 C 
BRANCH   9  10
ATOM     10  C   UNL     1      44.389  66.287  48.226  1.00  0.00    -0.000 C 
BRANCH  10  11
ATOM     11  C   UNL     1      43.070  66.732  47.583  1.00  0.00    -0.000 C 
BRANCH  11  12
ATOM     12  C   UNL     1      42.363  65.552  46.905  1.00  0.00    -0.003 C 
ATOM     13  C   UNL     1      41.403  66.031  45.822  1.00  0.00     0.004 C 
ENDBRANCH  11  12
ENDBRANCH  10  11
ENDBRANCH   9  10
ENDBRANCH   8   9
ENDBRANCH   1   8
TORSDOF 9
ENDMDL
MODEL 7
REMARK VINA RESULT:    -3.739      9.476     11.326
REMARK INTER + INTRA:          -6.216
REMARK INTER:                  -5.884
REMARK INTRA:                  -0.332
REMARK UNBOUND:                -0.509
REMARK SMILES CCCCCCCCCCC(=O)[O-]
REMARK SMILES IDX 7 1 8 2 9 3 10 4 11 5 12 6 13 7 6 8 5 9 4 10 3 11 2 12 1 13
REMARK H PARENT
REMARK Flexibility Score: inf
ROOT
ATOM      1  C   UNL     1      36.066  61.421  55.616  1.00  0.00     0.000 C 
ENDROOT
BRANCH   1   2
ATOM      2  C   UNL     1      37.131  62.506  55.848  1.00  0.00     0.000 C 
BRANCH   2   3
ATOM      3  C   UNL     1      36.577  63.936  56.021  1.00  0.00     0.006 C 
BRANCH   3   4
ATOM      4  C   UNL     1      36.177  64.628  54.708  1.00  0.00     0.053 C 
BRANCH   4   5
ATOM      5  C   UNL     1      35.203  65.742  54.938  1.00  0.00     0.041 C 
ATOM      6  O   UNL     1      34.081  65.507  55.457  1.00  0.00    -0.550 OA
ATOM      7  O   UNL     1      35.524  67.037  54.549  1.00  0.00    -0.550 OA
ENDBRANCH   4   5
ENDBRANCH   3   4
ENDBRANCH   2   3
ENDBRANCH   1   2
BRANCH   1   8
ATOM      8  C   UNL     1      36.472  60.054  56.194  1.00  0.00     0.000 C 
BRANCH   8   9
ATOM      9  C   UNL     1      37.214  59.177  55.173  1.00  0.00    -0.000 C 
BRANCH   9  10
ATOM     10  C   UNL     1      37.257  57.699  55.585  1.00  0.00    -0.000 C 
BRANCH  10  11
ATOM     11  C   UNL     1      37.709  57.548  57.042  1.00  0.00    -0.000 C 
BRANCH  11  12
ATOM     12  C   UNL     1      37.265  56.198  57.619  1.00  0.00    -0.003 C 
ATOM     13  C   UNL     1      36.630  55.320  56.546  1.00  0.00     0.004 C 
ENDBRANCH  11  12
ENDBRANCH  10  11
ENDBRANCH   9  10
ENDBRANCH   8   9
ENDBRANCH   1   8
TORSDOF 9
ENDMDL
MODEL 8
REMARK VINA RESULT:    -3.733      8.869     11.120
REMARK INTER + INTRA:          -6.205
REMARK INTER:                  -5.531
REMARK INTRA:                  -0.675
REMARK UNBOUND:                -0.509
REMARK SMILES CCCCCCCCCCC(=O)[O-]
REMARK SMILES IDX 7 1 8 2 9 3 10 4 11 5 12 6 13 7 6 8 5 9 4 10 3 11 2 12 1 13
REMARK H PARENT
REMARK Flexibility Score: inf
ROOT
ATOM      1  C   UNL     1      35.133  66.113  54.851  1.00  0.00     0.000 C 
ENDROOT
BRANCH   1   2
ATOM      2  C   UNL     1      35.842  64.753  54.730  1.00  0.00     0.000 C 
BRANCH   2   3
ATOM      3  C   UNL     1      36.417  64.199  56.050  1.00  0.00     0.006 C 
BRANCH   3   4
ATOM      4  C   UNL     1      37.856  63.667  55.945  1.00  0.00     0.053 C 
BRANCH   4   5
ATOM      5  C   UNL     1      38.841  64.766  55.692  1.00  0.00     0.041 C 
ATOM      6  O   UNL     1      39.753  64.616  54.838  1.00  0.00    -0.550 OA
ATOM      7  O   UNL     1      38.771  65.945  56.424  1.00  0.00    -0.550 OA
ENDBRANCH   4   5
ENDBRANCH   3   4
ENDBRANCH   2   3
ENDBRANCH   1   2
BRANCH   1   8
ATOM      8  C   UNL     1      33.697  65.992  55.389  1.00  0.00     0.000 C 
BRANCH   8   9
ATOM      9  C   UNL     1      32.805  67.169  54.965  1.00  0.00    -0.000 C 
BRANCH   9  10
ATOM     10  C   UNL     1      31.622  66.729  54.091  1.00  0.00    -0.000 C 
BRANCH  10  11
ATOM     11  C   UNL     1      31.644  67.446  52.736  1.00  0.00    -0.000 C 
BRANCH  11  12
ATOM     12  C   UNL     1      33.014  68.079  52.470  1.00  0.00    -0.003 C 
ATOM     13  C   UNL     1      33.817  67.258  51.465  1.00  0.00     0.004 C 
ENDBRANCH  11  12
ENDBRANCH  10  11
ENDBRANCH   9  10
ENDBRANCH   8   9
ENDBRANCH   1   8
TORSDOF 9
ENDMDL
MODEL 9
REMARK VINA RESULT:    -3.698      9.460     11.104
REMARK INTER + INTRA:          -6.153
REMARK INTER:                  -5.919
REMARK INTRA:                  -0.234
REMARK UNBOUND:                -0.509
REMARK SMILES CCCCCCCCCCC(=O)[O-]
REMARK SMILES IDX 7 1 8 2 9 3 10 4 11 5 12 6 13 7 6 8 5 9 4 10 3 11 2 12 1 13
REMARK H PARENT
REMARK Flexibility Score: inf
ROOT
ATOM      1  C   UNL     1      36.118  63.141  55.422  1.00  0.00     0.000 C 
ENDROOT
BRANCH   1   2
ATOM      2  C   UNL     1      36.883  64.464  55.252  1.00  0.00     0.000 C 
BRANCH   2   3
ATOM      3  C   UNL     1      35.995  65.717  55.109  1.00  0.00     0.006 C 
BRANCH   3   4
ATOM      4  C   UNL     1      34.579  65.566  55.688  1.00  0.00     0.053 C 
BRANCH   4   5
ATOM      5  C   UNL     1      33.563  66.313  54.883  1.00  0.00     0.041 C 
ATOM      6  O   UNL     1      33.928  67.181  54.048  1.00  0.00    -0.550 OA
ATOM      7  O   UNL     1      32.207  66.075  55.079  1.00  0.00    -0.550 OA
ENDBRANCH   4   5
ENDBRANCH   3   4
ENDBRANCH   2   3
ENDBRANCH   1   2
BRANCH   1   8
ATOM      8  C   UNL     1      37.036  61.964  55.797  1.00  0.00     0.000 C 
BRANCH   8   9
ATOM      9  C   UNL     1      36.293  60.619  55.824  1.00  0.00    -0.000 C 
BRANCH   9  10
ATOM     10  C   UNL     1      37.201  59.436  55.461  1.00  0.00    -0.000 C 
BRANCH  10  11
ATOM     11  C   UNL     1      37.467  58.552  56.685  1.00  0.00    -0.000 C 
BRANCH  11  12
ATOM     12  C   UNL     1      37.582  57.077  56.284  1.00  0.00    -0.003 C 
ATOM     13  C   UNL     1      37.276  56.159  57.464  1.00  0.00     0.004 C 
ENDBRANCH  11  12
ENDBRANCH  10  11
ENDBRANCH   9  10
ENDBRANCH   8   9
ENDBRANCH   1   8
TORSDOF 9
ENDMDL
