MODEL 1
REMARK VINA RESULT:    -4.678      0.000      0.000
REMARK INTER + INTRA:          -6.514
REMARK INTER:                  -6.318
REMARK INTRA:                  -0.195
REMARK UNBOUND:                -0.195
REMARK SMILES CCCCCCCC(=O)[O-]
REMARK SMILES IDX 5 1 6 2 7 3 8 4 9 5 10 6 4 7 3 8 2 9 1 10
REMARK H PARENT
REMARK Flexibility Score: inf
ROOT
ATOM      1  C   UNL     1      36.984  56.153  59.526  1.00  0.00     0.000 C 
ENDROOT
BRANCH   1   2
ATOM      2  C   UNL     1      37.848  55.291  60.469  1.00  0.00     0.006 C 
BRANCH   2   3
ATOM      3  C   UNL     1      39.360  55.540  60.354  1.00  0.00     0.053 C 
BRANCH   3   4
ATOM      4  C   UNL     1      40.157  54.303  60.636  1.00  0.00     0.041 C 
ATOM      5  O   UNL     1      41.234  54.088  60.020  1.00  0.00    -0.550 OA
ATOM      6  O   UNL     1      39.692  53.371  61.555  1.00  0.00    -0.550 OA
ENDBRANCH   3   4
ENDBRANCH   2   3
ENDBRANCH   1   2
BRANCH   1   7
ATOM      7  C   UNL     1      35.865  55.395  58.790  1.00  0.00     0.000 C 
BRANCH   7   8
ATOM      8  C   UNL     1      35.958  53.872  58.966  1.00  0.00    -0.000 C 
BRANCH   8   9
ATOM      9  C   UNL     1      34.949  53.153  58.063  1.00  0.00    -0.003 C 
ATOM     10  C   UNL     1      35.212  51.650  58.030  1.00  0.00     0.004 C 
ENDBRANCH   8   9
ENDBRANCH   7   8
ENDBRANCH   1   7
TORSDOF 6
ENDMDL
MODEL 2
REMARK VINA RESULT:    -4.610      2.569      3.967
REMARK INTER + INTRA:          -6.423
REMARK INTER:                  -6.091
REMARK INTRA:                  -0.332
REMARK UNBOUND:                -0.195
REMARK SMILES CCCCCCCC(=O)[O-]
REMARK SMILES IDX 5 1 6 2 7 3 8 4 9 5 10 6 4 7 3 8 2 9 1 10
REMARK H PARENT
REMARK Flexibility Score: inf
ROOT
ATOM      1  C   UNL     1      40.163  53.838  61.074  1.00  0.00     0.000 C 
ENDROOT
BRANCH   1   2
ATOM      2  C   UNL     1      41.233  54.200  60.022  1.00  0.00     0.006 C 
BRANCH   2   3
ATOM      3  C   UNL     1      42.522  54.799  60.605  1.00  0.00     0.053 C 
BRANCH   3   4
ATOM      4  C   UNL     1      42.931  56.051  59.893  1.00  0.00     0.041 C 
ATOM      5  O   UNL     1      44.042  56.589  60.144  1.00  0.00    -0.550 OA
ATOM      6  O   UNL     1      42.071  56.644  58.978  1.00  0.00    -0.550 OA
ENDBRANCH   3   4
ENDBRANCH   2   3
ENDBRANCH   1   2
BRANCH   1   7
ATOM      7  C   UNL     1      38.771  54.448  60.825  1.00  0.00     0.000 C 
BRANCH   7   8
ATOM      8  C   UNL     1      38.811  55.971  60.628  1.00  0.00    -0.000 C 
BRANCH   8   9
ATOM      9  C   UNL     1      37.642  56.442  59.757  1.00  0.00    -0.003 C 
ATOM     10  C   UNL     1      36.613  55.331  59.567  1.00  0.00     0.004 C 
ENDBRANCH   8   9
ENDBRANCH   7   8
ENDBRANCH   1   7
TORSDOF 6
ENDMDL
MODEL 3
REMARK VINA RESULT:    -4.587      1.693      2.105
REMARK INTER + INTRA:          -6.391
REMARK INTER:                  -6.232
REMARK INTRA:                  -0.158
REMARK UNBOUND:                -0.195
REMARK SMILES CCCCCCCC(=O)[O-]
REMARK SMILES IDX 5 1 6 2 7 3 8 4 9 5 10 6 4 7 3 8 2 9 1 10
REMARK H PARENT
REMARK Flexibility Score: inf
ROOT
ATOM      1  C   UNL     1      36.625  56.186  59.869  1.00  0.00     0.000 C 
ENDROOT
BRANCH   1   2
ATOM      2  C   UNL     1      38.054  55.691  60.174  1.00  0.00     0.006 C 
BRANCH   2   3
ATOM      3  C   UNL     1      38.994  56.767  60.741  1.00  0.00     0.053 C 
BRANCH   3   4
ATOM      4  C   UNL     1      40.166  57.017  59.843  1.00  0.00     0.041 C 
ATOM      5  O   UNL     1      41.268  56.452  60.068  1.00  0.00    -0.550 OA
ATOM      6  O   UNL     1      40.051  57.903  58.779  1.00  0.00    -0.550 OA
ENDBRANCH   3   4
ENDBRANCH   2   3
ENDBRANCH   1   2
BRANCH   1   7
ATOM      7  C   UNL     1      35.867  55.377  58.801  1.00  0.00     0.000 C 
BRANCH   7   8
ATOM      8  C   UNL     1      35.929  53.861  59.043  1.00  0.00    -0.000 C 
BRANCH   8   9
ATOM      9  C   UNL     1      34.973  53.117  58.104  1.00  0.00    -0.003 C 
ATOM     10  C   UNL     1      35.305  51.628  58.048  1.00  0.00     0.004 C 
ENDBRANCH   8   9
ENDBRANCH   7   8
ENDBRANCH   1   7
TORSDOF 6
ENDMDL
MODEL 4
REMARK VINA RESULT:    -4.569      3.174      4.542
REMARK INTER + INTRA:          -6.366
REMARK INTER:                  -6.004
REMARK INTRA:                  -0.363
REMARK UNBOUND:                -0.195
REMARK SMILES CCCCCCCC(=O)[O-]
REMARK SMILES IDX 5 1 6 2 7 3 8 4 9 5 10 6 4 7 3 8 2 9 1 10
REMARK H PARENT
REMARK Flexibility Score: inf
ROOT
ATOM      1  C   UNL     1      41.130  54.114  60.101  1.00  0.00     0.000 C 
ENDROOT
BRANCH   1   2
ATOM      2  C   UNL     1      42.441  54.786  60.561  1.00  0.00     0.006 C 
BRANCH   2   3
ATOM      3  C   UNL     1      43.097  55.691  59.506  1.00  0.00     0.053 C 
BRANCH   3   4
ATOM      4  C   UNL     1      42.260  56.894  59.198  1.00  0.00     0.041 C 
ATOM      5  O   UNL     1      42.059  57.237  58.003  1.00  0.00    -0.550 OA
ATOM      6  O   UNL     1      41.729  57.655  60.232  1.00  0.00    -0.550 OA
ENDBRANCH   3   4
ENDBRANCH   2   3
ENDBRANCH   1   2
BRANCH   1   7
ATOM      7  C   UNL     1      40.129  53.798  61.227  1.00  0.00     0.000 C 
BRANCH   7   8
ATOM      8  C   UNL     1      38.717  54.328  60.938  1.00  0.00    -0.000 C 
BRANCH   8   9
ATOM      9  C   UNL     1      38.746  55.831  60.640  1.00  0.00    -0.003 C 
ATOM     10  C   UNL     1      37.514  56.260  59.846  1.00  0.00     0.004 C 
ENDBRANCH   8   9
ENDBRANCH   7   8
ENDBRANCH   1   7
TORSDOF 6
ENDMDL
MODEL 5
REMARK VINA RESULT:    -4.538      1.629      2.603
REMARK INTER + INTRA:          -6.325
REMARK INTER:                  -6.177
REMARK INTRA:                  -0.148
REMARK UNBOUND:                -0.195
REMARK SMILES CCCCCCCC(=O)[O-]
REMARK SMILES IDX 5 1 6 2 7 3 8 4 9 5 10 6 4 7 3 8 2 9 1 10
REMARK H PARENT
REMARK Flexibility Score: inf
ROOT
ATOM      1  C   UNL     1      35.592  53.774  58.706  1.00  0.00     0.000 C 
ENDROOT
BRANCH   1   2
ATOM      2  C   UNL     1      36.509  54.676  59.558  1.00  0.00     0.006 C 
BRANCH   2   3
ATOM      3  C   UNL     1      37.654  53.933  60.266  1.00  0.00     0.053 C 
BRANCH   3   4
ATOM      4  C   UNL     1      38.837  54.820  60.503  1.00  0.00     0.041 C 
ATOM      5  O   UNL     1      38.670  56.026  60.825  1.00  0.00    -0.550 OA
ATOM      6  O   UNL     1      40.123  54.325  60.333  1.00  0.00    -0.550 OA
ENDBRANCH   3   4
ENDBRANCH   2   3
ENDBRANCH   1   2
BRANCH   1   7
ATOM      7  C   UNL     1      35.903  52.268  58.782  1.00  0.00     0.000 C 
BRANCH   7   8
ATOM      8  C   UNL     1      34.995  51.423  57.877  1.00  0.00    -0.000 C 
BRANCH   8   9
ATOM      9  C   UNL     1      35.789  50.301  57.199  1.00  0.00    -0.003 C 
ATOM     10  C   UNL     1      34.906  49.085  56.930  1.00  0.00     0.004 C 
ENDBRANCH   8   9
ENDBRANCH   7   8
ENDBRANCH   1   7
TORSDOF 6
ENDMDL
MODEL 6
REMARK VINA RESULT:    -4.496      3.017      5.968
REMARK INTER + INTRA:          -6.269
REMARK INTER:                  -6.124
REMARK INTRA:                  -0.146
REMARK UNBOUND:                -0.195
REMARK SMILES CCCCCCCC(=O)[O-]
REMARK SMILES IDX 5 1 6 2 7 3 8 4 9 5 10 6 4 7 3 8 2 9 1 10
REMARK H PARENT
REMARK Flexibility Score: inf
ROOT
ATOM      1  C   UNL     1      40.239  54.063  60.994  1.00  0.00     0.000 C 
ENDROOT
BRANCH   1   2
ATOM      2  C   UNL     1      39.006  54.908  60.612  1.00  0.00     0.006 C 
BRANCH   2   3
ATOM      3  C   UNL     1      37.758  54.087  60.251  1.00  0.00     0.053 C 
BRANCH   3   4
ATOM      4  C   UNL     1      36.683  54.935  59.644  1.00  0.00     0.041 C 
ATOM      5  O   UNL     1      35.814  54.417  58.895  1.00  0.00    -0.550 OA
ATOM      6  O   UNL     1      36.662  56.304  59.878  1.00  0.00    -0.550 OA
ENDBRANCH   3   4
ENDBRANCH   2   3
ENDBRANCH   1   2
BRANCH   1   7
ATOM      7  C   UNL     1      41.400  54.109  59.985  1.00  0.00     0.000 C 
BRANCH   7   8
ATOM      8  C   UNL     1      42.621  54.879  60.511  1.00  0.00    -0.000 C 
BRANCH   8   9
ATOM      9  C   UNL     1      43.079  55.937  59.501  1.00  0.00    -0.003 C 
ATOM     10  C   UNL     1      44.083  56.900  60.129  1.00  0.00     0.004 C 
ENDBRANCH   8   9
ENDBRANCH   7   8
ENDBRANCH   1   7
TORSDOF 6
ENDMDL
MODEL 7
REMARK VINA RESULT:    -4.446      3.251      5.767
REMARK INTER + INTRA:          -6.201
REMARK INTER:                  -5.792
REMARK INTRA:                  -0.409
REMARK UNBOUND:                -0.195
REMARK SMILES CCCCCCCC(=O)[O-]
REMARK SMILES IDX 5 1 6 2 7 3 8 4 9 5 10 6 4 7 3 8 2 9 1 10
REMARK H PARENT
REMARK Flexibility Score: inf
ROOT
ATOM      1  C   UNL     1      42.641  54.891  60.604  1.00  0.00     0.000 C 
ENDROOT
BRANCH   1   2
ATOM      2  C   UNL     1      41.391  54.254  59.964  1.00  0.00     0.006 C 
BRANCH   2   3
ATOM      3  C   UNL     1      40.263  53.926  60.955  1.00  0.00     0.053 C 
BRANCH   3   4
ATOM      4  C   UNL     1      38.985  54.622  60.603  1.00  0.00     0.041 C 
ATOM      5  O   UNL     1      38.896  55.874  60.705  1.00  0.00    -0.550 OA
ATOM      6  O   UNL     1      37.881  53.885  60.195  1.00  0.00    -0.550 OA
ENDBRANCH   3   4
ENDBRANCH   2   3
ENDBRANCH   1   2
BRANCH   1   7
ATOM      7  C   UNL     1      42.876  56.370  60.247  1.00  0.00     0.000 C 
BRANCH   7   8
ATOM      8  C   UNL     1      43.270  56.574  58.776  1.00  0.00    -0.000 C 
BRANCH   8   9
ATOM      9  C   UNL     1      42.481  57.730  58.152  1.00  0.00    -0.003 C 
ATOM     10  C   UNL     1      41.089  57.843  58.768  1.00  0.00     0.004 C 
ENDBRANCH   8   9
ENDBRANCH   7   8
ENDBRANCH   1   7
TORSDOF 6
ENDMDL
MODEL 8
REMARK VINA RESULT:    -4.438      2.701      5.673
REMARK INTER + INTRA:          -6.191
REMARK INTER:                  -5.733
REMARK INTRA:                  -0.458
REMARK UNBOUND:                -0.195
REMARK SMILES CCCCCCCC(=O)[O-]
REMARK SMILES IDX 5 1 6 2 7 3 8 4 9 5 10 6 4 7 3 8 2 9 1 10
REMARK H PARENT
REMARK Flexibility Score: inf
ROOT
ATOM      1  C   UNL     1      41.491  54.281  59.912  1.00  0.00     0.000 C 
ENDROOT
BRANCH   1   2
ATOM      2  C   UNL     1      40.232  54.202  60.800  1.00  0.00     0.006 C 
BRANCH   2   3
ATOM      3  C   UNL     1      39.228  55.345  60.584  1.00  0.00     0.053 C 
BRANCH   3   4
ATOM      4  C   UNL     1      37.886  54.840  60.152  1.00  0.00     0.041 C 
ATOM      5  O   UNL     1      37.596  53.621  60.282  1.00  0.00    -0.550 OA
ATOM      6  O   UNL     1      36.968  55.708  59.575  1.00  0.00    -0.550 OA
ENDBRANCH   3   4
ENDBRANCH   2   3
ENDBRANCH   1   2
BRANCH   1   7
ATOM      7  C   UNL     1      42.735  54.878  60.594  1.00  0.00     0.000 C 
BRANCH   7   8
ATOM      8  C   UNL     1      43.012  56.328  60.170  1.00  0.00    -0.000 C 
BRANCH   8   9
ATOM      9  C   UNL     1      42.450  56.608  58.772  1.00  0.00    -0.003 C 
ATOM     10  C   UNL     1      41.508  57.808  58.786  1.00  0.00     0.004 C 
ENDBRANCH   8   9
ENDBRANCH   7   8
ENDBRANCH   1   7
TORSDOF 6
ENDMDL
MODEL 9
REMARK VINA RESULT:    -4.398      1.620      2.198
REMARK INTER + INTRA:          -6.136
REMARK INTER:                  -5.894
REMARK INTRA:                  -0.242
REMARK UNBOUND:                -0.195
REMARK SMILES CCCCCCCC(=O)[O-]
REMARK SMILES IDX 5 1 6 2 7 3 8 4 9 5 10 6 4 7 3 8 2 9 1 10
REMARK H PARENT
REMARK Flexibility Score: inf
ROOT
ATOM      1  C   UNL     1      38.206  54.088  60.356  1.00  0.00     0.000 C 
ENDROOT
BRANCH   1   2
ATOM      2  C   UNL     1      39.551  54.348  61.067  1.00  0.00     0.006 C 
BRANCH   2   3
ATOM      3  C   UNL     1      40.792  54.055  60.209  1.00  0.00     0.053 C 
BRANCH   3   4
ATOM      4  C   UNL     1      41.755  55.202  60.205  1.00  0.00     0.041 C 
ATOM      5  O   UNL     1      41.386  56.338  59.808  1.00  0.00    -0.550 OA
ATOM      6  O   UNL     1      43.070  55.007  60.607  1.00  0.00    -0.550 OA
ENDBRANCH   3   4
ENDBRANCH   2   3
ENDBRANCH   1   2
BRANCH   1   7
ATOM      7  C   UNL     1      37.444  55.352  59.919  1.00  0.00     0.000 C 
BRANCH   7   8
ATOM      8  C   UNL     1      36.173  55.037  59.115  1.00  0.00    -0.000 C 
BRANCH   8   9
ATOM      9  C   UNL     1      35.878  53.533  59.123  1.00  0.00    -0.003 C 
ATOM     10  C   UNL     1      34.835  53.170  58.071  1.00  0.00     0.004 C 
ENDBRANCH   8   9
ENDBRANCH   7   8
ENDBRANCH   1   7
TORSDOF 6
ENDMDL
