MODEL 1
REMARK VINA RESULT:    -1.985      0.000      0.000
REMARK INTER + INTRA:          -1.985
REMARK INTER:                  -1.985
REMARK INTRA:                   0.000
REMARK UNBOUND:                 0.000
REMARK SMILES CC(=O)[O-]
REMARK SMILES IDX 1 1 2 2 3 3 4 4
REMARK H PARENT
REMARK Flexibility Score: inf
ROOT
ATOM      1  C   UNL     1     127.760 138.886 136.769  1.00  0.00     0.063 C 
ATOM      2  C   UNL     1     127.768 140.361 136.552  1.00  0.00     0.038 C 
ATOM      3  O   UNL     1     128.631 141.079 137.124  1.00  0.00    -0.550 OA
ATOM      4  O   UNL     1     126.859 140.943 135.678  1.00  0.00    -0.550 OA
ENDROOT
TORSDOF 0
ENDMDL
MODEL 2
REMARK VINA RESULT:    -1.845     19.425     19.619
REMARK INTER + INTRA:          -1.845
REMARK INTER:                  -1.845
REMARK INTRA:                   0.000
REMARK UNBOUND:                 0.000
REMARK SMILES CC(=O)[O-]
REMARK SMILES IDX 1 1 2 2 3 3 4 4
REMARK H PARENT
REMARK Flexibility Score: inf
ROOT
ATOM      1  C   UNL     1     138.344 144.489 119.412  1.00  0.00     0.063 C 
ATOM      2  C   UNL     1     138.371 143.528 120.551  1.00  0.00     0.038 C 
ATOM      3  O   UNL     1     137.450 143.539 121.410  1.00  0.00    -0.550 OA
ATOM      4  O   UNL     1     139.383 142.580 120.640  1.00  0.00    -0.550 OA
ENDROOT
TORSDOF 0
ENDMDL
MODEL 3
REMARK VINA RESULT:    -1.830     19.283     19.433
REMARK INTER + INTRA:          -1.830
REMARK INTER:                  -1.830
REMARK INTRA:                   0.000
REMARK UNBOUND:                 0.000
REMARK SMILES CC(=O)[O-]
REMARK SMILES IDX 1 1 2 2 3 3 4 4
REMARK H PARENT
REMARK Flexibility Score: inf
ROOT
ATOM      1  C   UNL     1     139.436 142.473 120.828  1.00  0.00     0.063 C 
ATOM      2  C   UNL     1     138.360 143.488 120.647  1.00  0.00     0.038 C 
ATOM      3  O   UNL     1     137.470 143.629 121.528  1.00  0.00    -0.550 OA
ATOM      4  O   UNL     1     138.363 144.318 119.533  1.00  0.00    -0.550 OA
ENDROOT
TORSDOF 0
ENDMDL
MODEL 4
REMARK VINA RESULT:    -1.829      4.861      5.373
REMARK INTER + INTRA:          -1.829
REMARK INTER:                  -1.829
REMARK INTRA:                   0.000
REMARK UNBOUND:                 0.000
REMARK SMILES CC(=O)[O-]
REMARK SMILES IDX 1 1 2 2 3 3 4 4
REMARK H PARENT
REMARK Flexibility Score: inf
ROOT
ATOM      1  C   UNL     1     132.651 143.603 136.430  1.00  0.00     0.063 C 
ATOM      2  C   UNL     1     131.980 142.844 135.337  1.00  0.00     0.038 C 
ATOM      3  O   UNL     1     132.454 142.864 134.170  1.00  0.00    -0.550 OA
ATOM      4  O   UNL     1     130.860 142.069 135.611  1.00  0.00    -0.550 OA
ENDROOT
TORSDOF 0
ENDMDL
MODEL 5
REMARK VINA RESULT:    -1.777     11.263     11.532
REMARK INTER + INTRA:          -1.777
REMARK INTER:                  -1.777
REMARK INTRA:                   0.000
REMARK UNBOUND:                 0.000
REMARK SMILES CC(=O)[O-]
REMARK SMILES IDX 1 1 2 2 3 3 4 4
REMARK H PARENT
REMARK Flexibility Score: inf
ROOT
ATOM      1  C   UNL     1     129.500 138.913 126.573  1.00  0.00     0.063 C 
ATOM      2  C   UNL     1     130.587 138.617 125.597  1.00  0.00     0.038 C 
ATOM      3  O   UNL     1     130.842 137.425 125.277  1.00  0.00    -0.550 OA
ATOM      4  O   UNL     1     131.288 139.655 124.998  1.00  0.00    -0.550 OA
ENDROOT
TORSDOF 0
ENDMDL
MODEL 6
REMARK VINA RESULT:    -1.756     22.392     22.495
REMARK INTER + INTRA:          -1.756
REMARK INTER:                  -1.756
REMARK INTRA:                   0.000
REMARK UNBOUND:                 0.000
REMARK SMILES CC(=O)[O-]
REMARK SMILES IDX 1 1 2 2 3 3 4 4
REMARK H PARENT
REMARK Flexibility Score: inf
ROOT
ATOM      1  C   UNL     1     142.660 141.982 121.453  1.00  0.00     0.063 C 
ATOM      2  C   UNL     1     142.873 141.833 119.986  1.00  0.00     0.038 C 
ATOM      3  O   UNL     1     143.017 142.852 119.261  1.00  0.00    -0.550 OA
ATOM      4  O   UNL     1     142.966 140.567 119.420  1.00  0.00    -0.550 OA
ENDROOT
TORSDOF 0
ENDMDL
MODEL 7
REMARK VINA RESULT:    -1.737     17.613     17.681
REMARK INTER + INTRA:          -1.737
REMARK INTER:                  -1.737
REMARK INTRA:                   0.000
REMARK UNBOUND:                 0.000
REMARK SMILES CC(=O)[O-]
REMARK SMILES IDX 1 1 2 2 3 3 4 4
REMARK H PARENT
REMARK Flexibility Score: inf
ROOT
ATOM      1  C   UNL     1     140.177 138.084 122.801  1.00  0.00     0.063 C 
ATOM      2  C   UNL     1     140.168 138.771 124.123  1.00  0.00     0.038 C 
ATOM      3  O   UNL     1     140.854 139.813 124.299  1.00  0.00    -0.550 OA
ATOM      4  O   UNL     1     139.364 138.295 125.151  1.00  0.00    -0.550 OA
ENDROOT
TORSDOF 0
ENDMDL
MODEL 8
REMARK VINA RESULT:    -1.736     19.699     19.795
REMARK INTER + INTRA:          -1.736
REMARK INTER:                  -1.736
REMARK INTRA:                   0.000
REMARK UNBOUND:                 0.000
REMARK SMILES CC(=O)[O-]
REMARK SMILES IDX 1 1 2 2 3 3 4 4
REMARK H PARENT
REMARK Flexibility Score: inf
ROOT
ATOM      1  C   UNL     1     141.202 141.864 120.590  1.00  0.00     0.063 C 
ATOM      2  C   UNL     1     139.770 141.883 121.001  1.00  0.00     0.038 C 
ATOM      3  O   UNL     1     139.320 140.990 121.768  1.00  0.00    -0.550 OA
ATOM      4  O   UNL     1     138.938 142.914 120.583  1.00  0.00    -0.550 OA
ENDROOT
TORSDOF 0
ENDMDL
