MODEL 1
REMARK VINA RESULT:    -3.860      0.000      0.000
REMARK INTER + INTRA:          -5.656
REMARK INTER:                  -4.988
REMARK INTRA:                  -0.668
REMARK UNBOUND:                -0.668
REMARK SMILES CCO[C@@H]1O[C@H](CO)[C@H](O)[C@H](O)[C@@H]1O
REMARK SMILES IDX 4 1 13 2 11 3 9 4 6 5 5 6 3 7 2 8 1 9 14 10 12 12 7 14 8 15
REMARK SMILES IDX 10 17
REMARK H PARENT 14 11 12 13 8 16 10 18
REMARK Flexibility Score: inf
ROOT
ATOM      1  C   UNL     1       8.046  -4.782   3.797  1.00  0.00     0.281 C 
ATOM      2  C   UNL     1       7.963  -6.174   3.146  1.00  0.00     0.202 C 
ATOM      3  C   UNL     1       8.823  -6.247   1.881  1.00  0.00     0.179 C 
ATOM      4  C   UNL     1      10.251  -5.771   2.200  1.00  0.00     0.177 C 
ATOM      5  C   UNL     1      10.293  -4.457   3.030  1.00  0.00     0.178 C 
ATOM      6  O   UNL     1       9.382  -4.423   4.125  1.00  0.00    -0.341 OA
ENDROOT
BRANCH   1   7
ATOM      7  O   UNL     1       7.432  -3.805   2.975  1.00  0.00    -0.350 OA
BRANCH   7   8
ATOM      8  C   UNL     1       6.593  -2.969   3.745  1.00  0.00     0.160 C 
ATOM      9  C   UNL     1       5.169  -3.502   3.689  1.00  0.00     0.035 C 
ENDBRANCH   7   8
ENDBRANCH   1   7
BRANCH   2  10
ATOM     10  O   UNL     1       6.631  -6.491   2.834  1.00  0.00    -0.385 OA
ATOM     11  H   UNL     1       6.080  -6.224   3.616  1.00  0.00     0.211 HD
ENDBRANCH   2  10
BRANCH   3  12
ATOM     12  O   UNL     1       8.264  -5.481   0.845  1.00  0.00    -0.387 OA
ATOM     13  H   UNL     1       8.703  -5.760   0.000  1.00  0.00     0.211 HD
ENDBRANCH   3  12
BRANCH   5  14
ATOM     14  C   UNL     1      10.309  -3.134   2.228  1.00  0.00     0.191 C 
BRANCH  14  15
ATOM     15  O   UNL     1       9.699  -3.265   0.979  1.00  0.00    -0.394 OA
ATOM     16  H   UNL     1      10.261  -3.897   0.459  1.00  0.00     0.210 HD
ENDBRANCH  14  15
ENDBRANCH   5  14
BRANCH   4  17
ATOM     17  O   UNL     1      11.001  -5.626   1.021  1.00  0.00    -0.387 OA
ATOM     18  H   UNL     1      11.913  -5.959   1.218  1.00  0.00     0.211 HD
ENDBRANCH   4  17
TORSDOF 7
ENDMDL
MODEL 2
REMARK VINA RESULT:    -3.809      1.377      3.521
REMARK INTER + INTRA:          -5.591
REMARK INTER:                  -4.890
REMARK INTRA:                  -0.700
REMARK UNBOUND:                -0.668
REMARK SMILES CCO[C@@H]1O[C@H](CO)[C@H](O)[C@H](O)[C@@H]1O
REMARK SMILES IDX 4 1 13 2 11 3 9 4 6 5 5 6 3 7 2 8 1 9 14 10 12 12 7 14 8 15
REMARK SMILES IDX 10 17
REMARK H PARENT 14 11 12 13 8 16 10 18
REMARK Flexibility Score: inf
ROOT
ATOM      1  C   UNL     1       9.035  -3.853   3.438  1.00  0.00     0.281 C 
ATOM      2  C   UNL     1       7.614  -3.690   4.008  1.00  0.00     0.202 C 
ATOM      3  C   UNL     1       6.707  -4.846   3.574  1.00  0.00     0.179 C 
ATOM      4  C   UNL     1       7.384  -6.186   3.908  1.00  0.00     0.177 C 
ATOM      5  C   UNL     1       8.881  -6.244   3.491  1.00  0.00     0.178 C 
ATOM      6  O   UNL     1       9.631  -5.081   3.831  1.00  0.00    -0.341 OA
ENDROOT
BRANCH   1   7
ATOM      7  O   UNL     1       9.032  -3.703   2.029  1.00  0.00    -0.350 OA
BRANCH   7   8
ATOM      8  C   UNL     1      10.152  -2.950   1.610  1.00  0.00     0.160 C 
ATOM      9  C   UNL     1      11.058  -3.831   0.764  1.00  0.00     0.035 C 
ENDBRANCH   7   8
ENDBRANCH   1   7
BRANCH   2  10
ATOM     10  O   UNL     1       7.057  -2.469   3.595  1.00  0.00    -0.385 OA
ATOM     11  H   UNL     1       7.075  -2.464   2.602  1.00  0.00     0.211 HD
ENDBRANCH   2  10
BRANCH   3  12
ATOM     12  O   UNL     1       6.411  -4.768   2.203  1.00  0.00    -0.387 OA
ATOM     13  H   UNL     1       5.425  -4.839   2.108  1.00  0.00     0.211 HD
ENDBRANCH   3  12
BRANCH   5  14
ATOM     14  C   UNL     1       9.180  -6.747   2.058  1.00  0.00     0.191 C 
BRANCH  14  15
ATOM     15  O   UNL     1       8.350  -6.153   1.105  1.00  0.00    -0.394 OA
ATOM     16  H   UNL     1       8.338  -5.182   1.312  1.00  0.00     0.210 HD
ENDBRANCH  14  15
ENDBRANCH   5  14
BRANCH   4  17
ATOM     17  O   UNL     1       6.678  -7.256   3.334  1.00  0.00    -0.387 OA
ATOM     18  H   UNL     1       5.741  -6.955   3.223  1.00  0.00     0.211 HD
ENDBRANCH   4  17
TORSDOF 7
ENDMDL
MODEL 3
REMARK VINA RESULT:    -3.804      1.812      4.391
REMARK INTER + INTRA:          -5.584
REMARK INTER:                  -4.957
REMARK INTRA:                  -0.627
REMARK UNBOUND:                -0.668
REMARK SMILES CCO[C@@H]1O[C@H](CO)[C@H](O)[C@H](O)[C@@H]1O
REMARK SMILES IDX 4 1 13 2 11 3 9 4 6 5 5 6 3 7 2 8 1 9 14 10 12 12 7 14 8 15
REMARK SMILES IDX 10 17
REMARK H PARENT 14 11 12 13 8 16 10 18
REMARK Flexibility Score: inf
ROOT
ATOM      1  C   UNL     1      11.574  -5.112   2.385  1.00  0.00     0.281 C 
ATOM      2  C   UNL     1      11.392  -3.803   1.595  1.00  0.00     0.202 C 
ATOM      3  C   UNL     1       9.911  -3.437   1.462  1.00  0.00     0.179 C 
ATOM      4  C   UNL     1       9.251  -3.446   2.851  1.00  0.00     0.177 C 
ATOM      5  C   UNL     1       9.614  -4.697   3.700  1.00  0.00     0.178 C 
ATOM      6  O   UNL     1      10.997  -5.038   3.681  1.00  0.00    -0.341 OA
ENDROOT
BRANCH   1   7
ATOM      7  O   UNL     1      11.069  -6.215   1.652  1.00  0.00    -0.350 OA
BRANCH   7   8
ATOM      8  C   UNL     1      11.562  -7.428   2.184  1.00  0.00     0.160 C 
ATOM      9  C   UNL     1      10.782  -8.589   1.588  1.00  0.00     0.035 C 
ENDBRANCH   7   8
ENDBRANCH   1   7
BRANCH   2  10
ATOM     10  O   UNL     1      11.970  -3.915   0.319  1.00  0.00    -0.385 OA
ATOM     11  H   UNL     1      11.792  -4.840   0.003  1.00  0.00     0.211 HD
ENDBRANCH   2  10
BRANCH   3  12
ATOM     12  O   UNL     1       9.248  -4.318   0.592  1.00  0.00    -0.387 OA
ATOM     13  H   UNL     1       8.892  -3.779  -0.162  1.00  0.00     0.211 HD
ENDBRANCH   3  12
BRANCH   5  14
ATOM     14  C   UNL     1       8.694  -5.931   3.541  1.00  0.00     0.191 C 
BRANCH  14  15
ATOM     15  O   UNL     1       8.166  -6.034   2.252  1.00  0.00    -0.394 OA
ATOM     16  H   UNL     1       7.710  -5.171   2.068  1.00  0.00     0.210 HD
ENDBRANCH  14  15
ENDBRANCH   5  14
BRANCH   4  17
ATOM     17  O   UNL     1       7.856  -3.322   2.739  1.00  0.00    -0.387 OA
ATOM     18  H   UNL     1       7.674  -2.403   2.419  1.00  0.00     0.211 HD
ENDBRANCH   4  17
TORSDOF 7
ENDMDL
MODEL 4
REMARK VINA RESULT:    -3.534      1.536      4.272
REMARK INTER + INTRA:          -5.235
REMARK INTER:                  -4.520
REMARK INTRA:                  -0.715
REMARK UNBOUND:                -0.668
REMARK SMILES CCO[C@@H]1O[C@H](CO)[C@H](O)[C@H](O)[C@@H]1O
REMARK SMILES IDX 4 1 13 2 11 3 9 4 6 5 5 6 3 7 2 8 1 9 14 10 12 12 7 14 8 15
REMARK SMILES IDX 10 17
REMARK H PARENT 14 11 12 13 8 16 10 18
REMARK Flexibility Score: inf
ROOT
ATOM      1  C   UNL     1      10.229  -6.036   3.141  1.00  0.00     0.281 C 
ATOM      2  C   UNL     1      10.709  -4.582   2.990  1.00  0.00     0.202 C 
ATOM      3  C   UNL     1       9.572  -3.668   2.523  1.00  0.00     0.179 C 
ATOM      4  C   UNL     1       8.353  -3.850   3.443  1.00  0.00     0.177 C 
ATOM      5  C   UNL     1       8.013  -5.340   3.731  1.00  0.00     0.178 C 
ATOM      6  O   UNL     1       9.141  -6.149   4.049  1.00  0.00    -0.341 OA
ENDROOT
BRANCH   1   7
ATOM      7  O   UNL     1       9.911  -6.595   1.878  1.00  0.00    -0.350 OA
BRANCH   7   8
ATOM      8  C   UNL     1      10.072  -7.998   1.904  1.00  0.00     0.160 C 
ATOM      9  C   UNL     1      11.556  -8.332   1.867  1.00  0.00     0.035 C 
ENDBRANCH   7   8
ENDBRANCH   1   7
BRANCH   2  10
ATOM     10  O   UNL     1      11.780  -4.510   2.084  1.00  0.00    -0.385 OA
ATOM     11  H   UNL     1      12.592  -4.297   2.614  1.00  0.00     0.211 HD
ENDBRANCH   2  10
BRANCH   3  12
ATOM     12  O   UNL     1       9.229  -3.932   1.186  1.00  0.00    -0.387 OA
ATOM     13  H   UNL     1       9.931  -3.525   0.614  1.00  0.00     0.211 HD
ENDBRANCH   3  12
BRANCH   5  14
ATOM     14  C   UNL     1       7.044  -6.031   2.742  1.00  0.00     0.191 C 
BRANCH  14  15
ATOM     15  O   UNL     1       7.170  -5.533   1.443  1.00  0.00    -0.394 OA
ATOM     16  H   UNL     1       6.530  -6.046   0.885  1.00  0.00     0.210 HD
ENDBRANCH  14  15
ENDBRANCH   5  14
BRANCH   4  17
ATOM     17  O   UNL     1       7.231  -3.188   2.917  1.00  0.00    -0.387 OA
ATOM     18  H   UNL     1       7.494  -2.838   2.028  1.00  0.00     0.211 HD
ENDBRANCH   4  17
TORSDOF 7
ENDMDL
MODEL 5
REMARK VINA RESULT:    -3.495      1.924      2.547
REMARK INTER + INTRA:          -5.185
REMARK INTER:                  -4.818
REMARK INTRA:                  -0.367
REMARK UNBOUND:                -0.668
REMARK SMILES CCO[C@@H]1O[C@H](CO)[C@H](O)[C@H](O)[C@@H]1O
REMARK SMILES IDX 4 1 13 2 11 3 9 4 6 5 5 6 3 7 2 8 1 9 14 10 12 12 7 14 8 15
REMARK SMILES IDX 10 17
REMARK H PARENT 14 11 12 13 8 16 10 18
REMARK Flexibility Score: inf
ROOT
ATOM      1  C   UNL     1       9.793  -4.793   3.088  1.00  0.00     0.281 C 
ATOM      2  C   UNL     1       9.767  -5.203   1.605  1.00  0.00     0.202 C 
ATOM      3  C   UNL     1      10.603  -4.246   0.750  1.00  0.00     0.179 C 
ATOM      4  C   UNL     1      12.011  -4.110   1.355  1.00  0.00     0.177 C 
ATOM      5  C   UNL     1      12.003  -3.888   2.894  1.00  0.00     0.178 C 
ATOM      6  O   UNL     1      11.115  -4.744   3.606  1.00  0.00    -0.341 OA
ENDROOT
BRANCH   1   7
ATOM      7  O   UNL     1       9.112  -3.565   3.282  1.00  0.00    -0.350 OA
BRANCH   7   8
ATOM      8  C   UNL     1       7.993  -3.749   4.125  1.00  0.00     0.160 C 
ATOM      9  C   UNL     1       6.912  -2.749   3.746  1.00  0.00     0.035 C 
ENDBRANCH   7   8
ENDBRANCH   1   7
BRANCH   2  10
ATOM     10  O   UNL     1       8.447  -5.237   1.127  1.00  0.00    -0.385 OA
ATOM     11  H   UNL     1       8.313  -6.130   0.712  1.00  0.00     0.211 HD
ENDBRANCH   2  10
BRANCH   3  12
ATOM     12  O   UNL     1       9.984  -2.989   0.646  1.00  0.00    -0.387 OA
ATOM     13  H   UNL     1      10.585  -2.327   1.076  1.00  0.00     0.211 HD
ENDBRANCH   3  12
BRANCH   5  14
ATOM     14  C   UNL     1      11.935  -2.420   3.380  1.00  0.00     0.191 C 
BRANCH  14  15
ATOM     15  O   UNL     1      13.122  -1.726   3.134  1.00  0.00    -0.394 OA
ATOM     16  H   UNL     1      13.373  -1.928   2.196  1.00  0.00     0.210 HD
ENDBRANCH  14  15
ENDBRANCH   5  14
BRANCH   4  17
ATOM     17  O   UNL     1      12.727  -3.082   0.719  1.00  0.00    -0.387 OA
ATOM     18  H   UNL     1      13.255  -3.505  -0.005  1.00  0.00     0.211 HD
ENDBRANCH   4  17
TORSDOF 7
ENDMDL
MODEL 6
REMARK VINA RESULT:    -3.339      2.173      4.591
REMARK INTER + INTRA:          -4.982
REMARK INTER:                  -4.535
REMARK INTRA:                  -0.448
REMARK UNBOUND:                -0.668
REMARK SMILES CCO[C@@H]1O[C@H](CO)[C@H](O)[C@H](O)[C@@H]1O
REMARK SMILES IDX 4 1 13 2 11 3 9 4 6 5 5 6 3 7 2 8 1 9 14 10 12 12 7 14 8 15
REMARK SMILES IDX 10 17
REMARK H PARENT 14 11 12 13 8 16 10 18
REMARK Flexibility Score: inf
ROOT
ATOM      1  C   UNL     1      11.498  -4.573   3.571  1.00  0.00     0.281 C 
ATOM      2  C   UNL     1      12.171  -3.354   2.915  1.00  0.00     0.202 C 
ATOM      3  C   UNL     1      11.673  -3.151   1.481  1.00  0.00     0.179 C 
ATOM      4  C   UNL     1      10.135  -3.119   1.469  1.00  0.00     0.177 C 
ATOM      5  C   UNL     1       9.487  -4.258   2.306  1.00  0.00     0.178 C 
ATOM      6  O   UNL     1      10.081  -4.458   3.585  1.00  0.00    -0.341 OA
ENDROOT
BRANCH   1   7
ATOM      7  O   UNL     1      11.916  -5.775   2.947  1.00  0.00    -0.350 OA
BRANCH   7   8
ATOM      8  C   UNL     1      11.888  -6.845   3.869  1.00  0.00     0.160 C 
ATOM      9  C   UNL     1      11.689  -8.150   3.114  1.00  0.00     0.035 C 
ENDBRANCH   7   8
ENDBRANCH   1   7
BRANCH   2  10
ATOM     10  O   UNL     1      13.568  -3.506   2.915  1.00  0.00    -0.385 OA
ATOM     11  H   UNL     1      13.752  -4.480   2.984  1.00  0.00     0.211 HD
ENDBRANCH   2  10
BRANCH   3  12
ATOM     12  O   UNL     1      12.155  -4.159   0.630  1.00  0.00    -0.387 OA
ATOM     13  H   UNL     1      12.713  -3.720  -0.063  1.00  0.00     0.211 HD
ENDBRANCH   3  12
BRANCH   5  14
ATOM     14  C   UNL     1       9.206  -5.587   1.564  1.00  0.00     0.191 C 
BRANCH  14  15
ATOM     15  O   UNL     1       8.026  -5.538   0.820  1.00  0.00    -0.394 OA
ATOM     16  H   UNL     1       7.467  -6.295   1.135  1.00  0.00     0.210 HD
ENDBRANCH  14  15
ENDBRANCH   5  14
BRANCH   4  17
ATOM     17  O   UNL     1       9.648  -3.146   0.151  1.00  0.00    -0.387 OA
ATOM     18  H   UNL     1      10.337  -3.596  -0.400  1.00  0.00     0.211 HD
ENDBRANCH   4  17
TORSDOF 7
ENDMDL
MODEL 7
REMARK VINA RESULT:    -3.271      1.820      2.471
REMARK INTER + INTRA:          -4.895
REMARK INTER:                  -4.544
REMARK INTRA:                  -0.351
REMARK UNBOUND:                -0.668
REMARK SMILES CCO[C@@H]1O[C@H](CO)[C@H](O)[C@H](O)[C@@H]1O
REMARK SMILES IDX 4 1 13 2 11 3 9 4 6 5 5 6 3 7 2 8 1 9 14 10 12 12 7 14 8 15
REMARK SMILES IDX 10 17
REMARK H PARENT 14 11 12 13 8 16 10 18
REMARK Flexibility Score: inf
ROOT
ATOM      1  C   UNL     1       8.602  -4.702   2.620  1.00  0.00     0.281 C 
ATOM      2  C   UNL     1       9.392  -5.300   3.798  1.00  0.00     0.202 C 
ATOM      3  C   UNL     1      10.886  -5.393   3.473  1.00  0.00     0.179 C 
ATOM      4  C   UNL     1      11.394  -4.025   2.987  1.00  0.00     0.177 C 
ATOM      5  C   UNL     1      10.464  -3.359   1.934  1.00  0.00     0.178 C 
ATOM      6  O   UNL     1       9.077  -3.414   2.256  1.00  0.00    -0.341 OA
ENDROOT
BRANCH   1   7
ATOM      7  O   UNL     1       8.601  -5.588   1.513  1.00  0.00    -0.350 OA
BRANCH   7   8
ATOM      8  C   UNL     1       7.279  -5.843   1.086  1.00  0.00     0.160 C 
ATOM      9  C   UNL     1       6.307  -5.366   2.154  1.00  0.00     0.035 C 
ENDBRANCH   7   8
ENDBRANCH   1   7
BRANCH   2  10
ATOM     10  O   UNL     1       8.897  -6.573   4.125  1.00  0.00    -0.385 OA
ATOM     11  H   UNL     1       9.398  -7.229   3.572  1.00  0.00     0.211 HD
ENDBRANCH   2  10
BRANCH   3  12
ATOM     12  O   UNL     1      11.132  -6.385   2.510  1.00  0.00    -0.387 OA
ATOM     13  H   UNL     1      10.264  -6.820   2.302  1.00  0.00     0.211 HD
ENDBRANCH   3  12
BRANCH   5  14
ATOM     14  C   UNL     1      10.745  -3.700   0.450  1.00  0.00     0.191 C 
BRANCH  14  15
ATOM     15  O   UNL     1       9.626  -3.496  -0.360  1.00  0.00    -0.394 OA
ATOM     16  H   UNL     1       9.867  -3.839  -1.259  1.00  0.00     0.210 HD
ENDBRANCH  14  15
ENDBRANCH   5  14
BRANCH   4  17
ATOM     17  O   UNL     1      12.701  -4.131   2.483  1.00  0.00    -0.387 OA
ATOM     18  H   UNL     1      13.151  -3.269   2.668  1.00  0.00     0.211 HD
ENDBRANCH   4  17
TORSDOF 7
ENDMDL
MODEL 8
REMARK VINA RESULT:    -3.235      2.522      5.134
REMARK INTER + INTRA:          -4.849
REMARK INTER:                  -4.430
REMARK INTRA:                  -0.419
REMARK UNBOUND:                -0.668
REMARK SMILES CCO[C@@H]1O[C@H](CO)[C@H](O)[C@H](O)[C@@H]1O
REMARK SMILES IDX 4 1 13 2 11 3 9 4 6 5 5 6 3 7 2 8 1 9 14 10 12 12 7 14 8 15
REMARK SMILES IDX 10 17
REMARK H PARENT 14 11 12 13 8 16 10 18
REMARK Flexibility Score: inf
ROOT
ATOM      1  C   UNL     1      12.049  -3.870   3.704  1.00  0.00     0.281 C 
ATOM      2  C   UNL     1      11.607  -2.626   2.912  1.00  0.00     0.202 C 
ATOM      3  C   UNL     1      10.905  -3.019   1.609  1.00  0.00     0.179 C 
ATOM      4  C   UNL     1       9.778  -4.021   1.912  1.00  0.00     0.177 C 
ATOM      5  C   UNL     1      10.210  -5.163   2.876  1.00  0.00     0.178 C 
ATOM      6  O   UNL     1      10.956  -4.727   4.007  1.00  0.00    -0.341 OA
ENDROOT
BRANCH   1   7
ATOM      7  O   UNL     1      13.078  -4.562   3.019  1.00  0.00    -0.350 OA
BRANCH   7   8
ATOM      8  C   UNL     1      14.220  -4.688   3.842  1.00  0.00     0.160 C 
ATOM      9  C   UNL     1      15.387  -3.959   3.194  1.00  0.00     0.035 C 
ENDBRANCH   7   8
ENDBRANCH   1   7
BRANCH   2  10
ATOM     10  O   UNL     1      12.712  -1.807   2.628  1.00  0.00    -0.385 OA
ATOM     11  H   UNL     1      12.679  -1.605   1.656  1.00  0.00     0.211 HD
ENDBRANCH   2  10
BRANCH   3  12
ATOM     12  O   UNL     1      11.816  -3.560   0.688  1.00  0.00    -0.387 OA
ATOM     13  H   UNL     1      11.381  -4.347   0.268  1.00  0.00     0.211 HD
ENDBRANCH   3  12
BRANCH   5  14
ATOM     14  C   UNL     1      10.808  -6.431   2.219  1.00  0.00     0.191 C 
BRANCH  14  15
ATOM     15  O   UNL     1       9.842  -7.187   1.552  1.00  0.00    -0.394 OA
ATOM     16  H   UNL     1      10.042  -7.102   0.584  1.00  0.00     0.210 HD
ENDBRANCH  14  15
ENDBRANCH   5  14
BRANCH   4  17
ATOM     17  O   UNL     1       9.258  -4.559   0.723  1.00  0.00    -0.387 OA
ATOM     18  H   UNL     1       9.646  -5.465   0.623  1.00  0.00     0.211 HD
ENDBRANCH   4  17
TORSDOF 7
ENDMDL
MODEL 9
REMARK VINA RESULT:    -3.214      2.300      4.400
REMARK INTER + INTRA:          -4.822
REMARK INTER:                  -4.146
REMARK INTRA:                  -0.676
REMARK UNBOUND:                -0.668
REMARK SMILES CCO[C@@H]1O[C@H](CO)[C@H](O)[C@H](O)[C@@H]1O
REMARK SMILES IDX 4 1 13 2 11 3 9 4 6 5 5 6 3 7 2 8 1 9 14 10 12 12 7 14 8 15
REMARK SMILES IDX 10 17
REMARK H PARENT 14 11 12 13 8 16 10 18
REMARK Flexibility Score: inf
ROOT
ATOM      1  C   UNL     1      11.086  -3.144   2.022  1.00  0.00     0.281 C 
ATOM      2  C   UNL     1       9.730  -3.579   1.438  1.00  0.00     0.202 C 
ATOM      3  C   UNL     1       9.358  -4.993   1.894  1.00  0.00     0.179 C 
ATOM      4  C   UNL     1       9.457  -5.084   3.426  1.00  0.00     0.177 C 
ATOM      5  C   UNL     1      10.759  -4.457   4.000  1.00  0.00     0.178 C 
ATOM      6  O   UNL     1      11.096  -3.190   3.442  1.00  0.00    -0.341 OA
ENDROOT
BRANCH   1   7
ATOM      7  O   UNL     1      12.141  -3.912   1.469  1.00  0.00    -0.350 OA
BRANCH   7   8
ATOM      8  C   UNL     1      13.227  -3.078   1.118  1.00  0.00     0.160 C 
ATOM      9  C   UNL     1      14.235  -3.066   2.257  1.00  0.00     0.035 C 
ENDBRANCH   7   8
ENDBRANCH   1   7
BRANCH   2  10
ATOM     10  O   UNL     1       9.759  -3.525   0.034  1.00  0.00    -0.385 OA
ATOM     11  H   UNL     1      10.710  -3.413  -0.230  1.00  0.00     0.211 HD
ENDBRANCH   2  10
BRANCH   3  12
ATOM     12  O   UNL     1      10.183  -5.954   1.286  1.00  0.00    -0.387 OA
ATOM     13  H   UNL     1       9.916  -6.012   0.332  1.00  0.00     0.211 HD
ENDBRANCH   3  12
BRANCH   5  14
ATOM     14  C   UNL     1      11.981  -5.397   4.125  1.00  0.00     0.191 C 
BRANCH  14  15
ATOM     15  O   UNL     1      12.037  -6.333   3.090  1.00  0.00    -0.394 OA
ATOM     16  H   UNL     1      11.440  -5.992   2.374  1.00  0.00     0.210 HD
ENDBRANCH  14  15
ENDBRANCH   5  14
BRANCH   4  17
ATOM     17  O   UNL     1       9.329  -6.416   3.854  1.00  0.00    -0.387 OA
ATOM     18  H   UNL     1       9.800  -6.485   4.723  1.00  0.00     0.211 HD
ENDBRANCH   4  17
TORSDOF 7
ENDMDL
