MODEL 1
REMARK VINA RESULT:    -2.778      0.000      0.000
REMARK INTER + INTRA:         -13.256
REMARK INTER:                  -7.244
REMARK INTRA:                  -6.013
REMARK UNBOUND:                -6.013
REMARK SMILES CCCCCCCCCCCCCCCCCCCCCCCCCCCCCO
REMARK SMILES IDX 16 1 15 2 14 3 13 4 12 5 11 6 10 7 9 8 8 9 7 10 6 11 5 12
REMARK SMILES IDX 4 13 3 14 2 15 1 16 17 17 18 18 19 19 20 20 21 21 22 22
REMARK SMILES IDX 23 23 24 24 25 25 26 26 27 27 28 28 29 29 30 30
REMARK H PARENT 30 31
REMARK Flexibility Score: inf
ROOT
ATOM      1  C   UNL     1     115.827 114.785 112.953  1.00  0.00     0.000 C 
ENDROOT
BRANCH   1   2
ATOM      2  C   UNL     1     114.433 115.432 113.054  1.00  0.00     0.000 C 
BRANCH   2   3
ATOM      3  C   UNL     1     114.066 116.364 111.883  1.00  0.00     0.000 C 
BRANCH   3   4
ATOM      4  C   UNL     1     113.635 117.766 112.350  1.00  0.00     0.000 C 
BRANCH   4   5
ATOM      5  C   UNL     1     114.079 118.076 113.788  1.00  0.00     0.000 C 
BRANCH   5   6
ATOM      6  C   UNL     1     115.070 119.251 113.862  1.00  0.00     0.000 C 
BRANCH   6   7
ATOM      7  C   UNL     1     116.516 118.838 113.538  1.00  0.00     0.000 C 
BRANCH   7   8
ATOM      8  C   UNL     1     117.158 119.603 112.368  1.00  0.00    -0.000 C 
BRANCH   8   9
ATOM      9  C   UNL     1     118.694 119.657 112.461  1.00  0.00    -0.000 C 
BRANCH   9  10
ATOM     10  C   UNL     1     119.215 119.103 113.797  1.00  0.00    -0.000 C 
BRANCH  10  11
ATOM     11  C   UNL     1     120.181 120.073 114.494  1.00  0.00    -0.000 C 
BRANCH  11  12
ATOM     12  C   UNL     1     119.656 120.470 115.884  1.00  0.00    -0.000 C 
BRANCH  12  13
ATOM     13  C   UNL     1     118.684 119.422 116.464  1.00  0.00    -0.000 C 
BRANCH  13  14
ATOM     14  C   UNL     1     117.360 120.018 116.976  1.00  0.00    -0.000 C 
BRANCH  14  15
ATOM     15  C   UNL     1     116.922 119.433 118.325  1.00  0.00    -0.003 C 
ATOM     16  C   UNL     1     118.099 118.792 119.056  1.00  0.00     0.004 C 
ENDBRANCH  14  15
ENDBRANCH  13  14
ENDBRANCH  12  13
ENDBRANCH  11  12
ENDBRANCH  10  11
ENDBRANCH   9  10
ENDBRANCH   8   9
ENDBRANCH   7   8
ENDBRANCH   6   7
ENDBRANCH   5   6
ENDBRANCH   4   5
ENDBRANCH   3   4
ENDBRANCH   2   3
ENDBRANCH   1   2
BRANCH   1  17
ATOM     17  C   UNL     1     116.733 115.473 111.917  1.00  0.00     0.000 C 
BRANCH  17  18
ATOM     18  C   UNL     1     118.132 115.794 112.485  1.00  0.00     0.000 C 
BRANCH  18  19
ATOM     19  C   UNL     1     119.254 114.894 111.940  1.00  0.00     0.000 C 
BRANCH  19  20
ATOM     20  C   UNL     1     120.015 114.150 113.048  1.00  0.00     0.000 C 
BRANCH  20  21
ATOM     21  C   UNL     1     119.118 113.746 114.234  1.00  0.00     0.000 C 
BRANCH  21  22
ATOM     22  C   UNL     1     119.608 114.208 115.624  1.00  0.00     0.000 C 
BRANCH  22  23
ATOM     23  C   UNL     1     119.246 115.656 116.004  1.00  0.00     0.000 C 
BRANCH  23  24
ATOM     24  C   UNL     1     117.968 115.805 116.853  1.00  0.00     0.000 C 
BRANCH  24  25
ATOM     25  C   UNL     1     116.773 116.406 116.082  1.00  0.00     0.000 C 
BRANCH  25  26
ATOM     26  C   UNL     1     115.424 115.838 116.547  1.00  0.00     0.000 C 
BRANCH  26  27
ATOM     27  C   UNL     1     115.609 114.472 117.224  1.00  0.00     0.002 C 
BRANCH  27  28
ATOM     28  C   UNL     1     115.127 113.303 116.344  1.00  0.00     0.028 C 
BRANCH  28  29
ATOM     29  C   UNL     1     113.723 112.806 116.701  1.00  0.00     0.156 C 
BRANCH  29  30
ATOM     30  O   UNL     1     112.754 113.637 116.121  1.00  0.00    -0.396 OA
ATOM     31  H   UNL     1     112.565 113.257 115.223  1.00  0.00     0.210 HD
ENDBRANCH  29  30
ENDBRANCH  28  29
ENDBRANCH  27  28
ENDBRANCH  26  27
ENDBRANCH  25  26
ENDBRANCH  24  25
ENDBRANCH  23  24
ENDBRANCH  22  23
ENDBRANCH  21  22
ENDBRANCH  20  21
ENDBRANCH  19  20
ENDBRANCH  18  19
ENDBRANCH  17  18
ENDBRANCH   1  17
TORSDOF 28
ENDMDL
MODEL 2
REMARK VINA RESULT:    -2.484      2.377      6.822
REMARK INTER + INTRA:         -12.491
REMARK INTER:                  -7.118
REMARK INTRA:                  -5.372
REMARK UNBOUND:                -6.013
REMARK SMILES CCCCCCCCCCCCCCCCCCCCCCCCCCCCCO
REMARK SMILES IDX 16 1 15 2 14 3 13 4 12 5 11 6 10 7 9 8 8 9 7 10 6 11 5 12
REMARK SMILES IDX 4 13 3 14 2 15 1 16 17 17 18 18 19 19 20 20 21 21 22 22
REMARK SMILES IDX 23 23 24 24 25 25 26 26 27 27 28 28 29 29 30 30
REMARK H PARENT 30 31
REMARK Flexibility Score: inf
ROOT
ATOM      1  C   UNL     1     114.937 117.740 117.185  1.00  0.00     0.000 C 
ENDROOT
BRANCH   1   2
ATOM      2  C   UNL     1     116.444 117.443 117.063  1.00  0.00     0.000 C 
BRANCH   2   3
ATOM      3  C   UNL     1     116.834 116.554 115.867  1.00  0.00     0.000 C 
BRANCH   3   4
ATOM      4  C   UNL     1     118.024 115.628 116.176  1.00  0.00     0.000 C 
BRANCH   4   5
ATOM      5  C   UNL     1     119.261 115.945 115.321  1.00  0.00     0.000 C 
BRANCH   5   6
ATOM      6  C   UNL     1     118.966 115.898 113.812  1.00  0.00     0.000 C 
BRANCH   6   7
ATOM      7  C   UNL     1     119.446 114.595 113.148  1.00  0.00     0.000 C 
BRANCH   7   8
ATOM      8  C   UNL     1     118.538 114.074 112.020  1.00  0.00    -0.000 C 
BRANCH   8   9
ATOM      9  C   UNL     1     117.147 114.734 112.021  1.00  0.00    -0.000 C 
BRANCH   9  10
ATOM     10  C   UNL     1     116.196 114.084 113.038  1.00  0.00    -0.000 C 
BRANCH  10  11
ATOM     11  C   UNL     1     114.851 113.685 112.410  1.00  0.00    -0.000 C 
BRANCH  11  12
ATOM     12  C   UNL     1     113.678 114.083 113.320  1.00  0.00    -0.000 C 
BRANCH  12  13
ATOM     13  C   UNL     1     114.132 114.940 114.520  1.00  0.00    -0.000 C 
BRANCH  13  14
ATOM     14  C   UNL     1     113.641 114.414 115.881  1.00  0.00    -0.000 C 
BRANCH  14  15
ATOM     15  C   UNL     1     114.196 113.024 116.221  1.00  0.00    -0.003 C 
ATOM     16  C   UNL     1     115.590 113.122 116.837  1.00  0.00     0.004 C 
ENDBRANCH  14  15
ENDBRANCH  13  14
ENDBRANCH  12  13
ENDBRANCH  11  12
ENDBRANCH  10  11
ENDBRANCH   9  10
ENDBRANCH   8   9
ENDBRANCH   7   8
ENDBRANCH   6   7
ENDBRANCH   5   6
ENDBRANCH   4   5
ENDBRANCH   3   4
ENDBRANCH   2   3
ENDBRANCH   1   2
BRANCH   1  17
ATOM     17  C   UNL     1     114.604 119.230 116.993  1.00  0.00     0.000 C 
BRANCH  17  18
ATOM     18  C   UNL     1     114.238 119.563 115.531  1.00  0.00     0.000 C 
BRANCH  18  19
ATOM     19  C   UNL     1     113.786 118.348 114.703  1.00  0.00     0.000 C 
BRANCH  19  20
ATOM     20  C   UNL     1     113.465 118.706 113.243  1.00  0.00     0.000 C 
BRANCH  20  21
ATOM     21  C   UNL     1     114.389 118.005 112.229  1.00  0.00     0.000 C 
BRANCH  21  22
ATOM     22  C   UNL     1     115.877 117.918 112.635  1.00  0.00     0.000 C 
BRANCH  22  23
ATOM     23  C   UNL     1     116.665 119.238 112.536  1.00  0.00     0.000 C 
BRANCH  23  24
ATOM     24  C   UNL     1     118.168 119.077 112.239  1.00  0.00     0.000 C 
BRANCH  24  25
ATOM     25  C   UNL     1     119.087 119.611 113.358  1.00  0.00     0.000 C 
BRANCH  25  26
ATOM     26  C   UNL     1     118.427 119.552 114.744  1.00  0.00     0.000 C 
BRANCH  26  27
ATOM     27  C   UNL     1     119.487 119.583 115.856  1.00  0.00     0.002 C 
BRANCH  27  28
ATOM     28  C   UNL     1     120.486 120.744 115.691  1.00  0.00     0.028 C 
BRANCH  28  29
ATOM     29  C   UNL     1     121.519 120.827 116.820  1.00  0.00     0.156 C 
BRANCH  29  30
ATOM     30  O   UNL     1     121.040 120.174 117.964  1.00  0.00    -0.396 OA
ATOM     31  H   UNL     1     120.269 120.710 118.286  1.00  0.00     0.210 HD
ENDBRANCH  29  30
ENDBRANCH  28  29
ENDBRANCH  27  28
ENDBRANCH  26  27
ENDBRANCH  25  26
ENDBRANCH  24  25
ENDBRANCH  23  24
ENDBRANCH  22  23
ENDBRANCH  21  22
ENDBRANCH  20  21
ENDBRANCH  19  20
ENDBRANCH  18  19
ENDBRANCH  17  18
ENDBRANCH   1  17
TORSDOF 28
ENDMDL
MODEL 3
REMARK VINA RESULT:    -2.443      2.437      5.952
REMARK INTER + INTRA:         -12.383
REMARK INTER:                  -7.453
REMARK INTRA:                  -4.930
REMARK UNBOUND:                -6.013
REMARK SMILES CCCCCCCCCCCCCCCCCCCCCCCCCCCCCO
REMARK SMILES IDX 16 1 15 2 14 3 13 4 12 5 11 6 10 7 9 8 8 9 7 10 6 11 5 12
REMARK SMILES IDX 4 13 3 14 2 15 1 16 17 17 18 18 19 19 20 20 21 21 22 22
REMARK SMILES IDX 23 23 24 24 25 25 26 26 27 27 28 28 29 29 30 30
REMARK H PARENT 30 31
REMARK Flexibility Score: inf
ROOT
ATOM      1  C   UNL     1     116.908 119.278 113.348  1.00  0.00     0.000 C 
ENDROOT
BRANCH   1   2
ATOM      2  C   UNL     1     118.367 118.864 113.082  1.00  0.00     0.000 C 
BRANCH   2   3
ATOM      3  C   UNL     1     118.832 117.604 113.836  1.00  0.00     0.000 C 
BRANCH   3   4
ATOM      4  C   UNL     1     118.318 116.302 113.196  1.00  0.00     0.000 C 
BRANCH   4   5
ATOM      5  C   UNL     1     119.303 115.714 112.174  1.00  0.00     0.000 C 
BRANCH   5   6
ATOM      6  C   UNL     1     119.911 114.379 112.637  1.00  0.00     0.000 C 
BRANCH   6   7
ATOM      7  C   UNL     1     119.241 113.824 113.907  1.00  0.00     0.000 C 
BRANCH   7   8
ATOM      8  C   UNL     1     120.202 113.142 114.897  1.00  0.00    -0.000 C 
BRANCH   8   9
ATOM      9  C   UNL     1     119.996 113.611 116.348  1.00  0.00    -0.000 C 
BRANCH   9  10
ATOM     10  C   UNL     1     119.497 115.063 116.424  1.00  0.00    -0.000 C 
BRANCH  10  11
ATOM     11  C   UNL     1     118.230 115.201 117.282  1.00  0.00    -0.000 C 
BRANCH  11  12
ATOM     12  C   UNL     1     117.563 113.834 117.505  1.00  0.00    -0.000 C 
BRANCH  12  13
ATOM     13  C   UNL     1     116.370 113.603 116.554  1.00  0.00    -0.000 C 
BRANCH  13  14
ATOM     14  C   UNL     1     115.325 112.611 117.097  1.00  0.00    -0.000 C 
BRANCH  14  15
ATOM     15  C   UNL     1     113.941 113.246 117.289  1.00  0.00    -0.003 C 
ATOM     16  C   UNL     1     114.038 114.559 118.062  1.00  0.00     0.004 C 
ENDBRANCH  14  15
ENDBRANCH  13  14
ENDBRANCH  12  13
ENDBRANCH  11  12
ENDBRANCH  10  11
ENDBRANCH   9  10
ENDBRANCH   8   9
ENDBRANCH   7   8
ENDBRANCH   6   7
ENDBRANCH   5   6
ENDBRANCH   4   5
ENDBRANCH   3   4
ENDBRANCH   2   3
ENDBRANCH   1   2
BRANCH   1  17
ATOM     17  C   UNL     1     116.000 119.097 112.118  1.00  0.00     0.000 C 
BRANCH  17  18
ATOM     18  C   UNL     1     114.502 119.159 112.484  1.00  0.00     0.000 C 
BRANCH  18  19
ATOM     19  C   UNL     1     113.750 117.831 112.286  1.00  0.00     0.000 C 
BRANCH  19  20
ATOM     20  C   UNL     1     114.694 116.631 112.115  1.00  0.00     0.000 C 
BRANCH  20  21
ATOM     21  C   UNL     1     114.380 115.470 113.079  1.00  0.00     0.000 C 
BRANCH  21  22
ATOM     22  C   UNL     1     114.216 115.865 114.563  1.00  0.00     0.000 C 
BRANCH  22  23
ATOM     23  C   UNL     1     115.394 116.650 115.170  1.00  0.00     0.000 C 
BRANCH  23  24
ATOM     24  C   UNL     1     115.012 117.618 116.307  1.00  0.00     0.000 C 
BRANCH  24  25
ATOM     25  C   UNL     1     113.656 118.325 116.096  1.00  0.00     0.000 C 
BRANCH  25  26
ATOM     26  C   UNL     1     112.598 117.892 117.122  1.00  0.00     0.000 C 
BRANCH  26  27
ATOM     27  C   UNL     1     112.093 119.097 117.929  1.00  0.00     0.002 C 
BRANCH  27  28
ATOM     28  C   UNL     1     110.659 119.510 117.544  1.00  0.00     0.028 C 
BRANCH  28  29
ATOM     29  C   UNL     1     110.599 120.488 116.366  1.00  0.00     0.156 C 
BRANCH  29  30
ATOM     30  O   UNL     1     109.619 120.083 115.450  1.00  0.00    -0.396 OA
ATOM     31  H   UNL     1     108.774 120.006 115.964  1.00  0.00     0.210 HD
ENDBRANCH  29  30
ENDBRANCH  28  29
ENDBRANCH  27  28
ENDBRANCH  26  27
ENDBRANCH  25  26
ENDBRANCH  24  25
ENDBRANCH  23  24
ENDBRANCH  22  23
ENDBRANCH  21  22
ENDBRANCH  20  21
ENDBRANCH  19  20
ENDBRANCH  18  19
ENDBRANCH  17  18
ENDBRANCH   1  17
TORSDOF 28
ENDMDL
MODEL 4
REMARK VINA RESULT:    -2.435      2.709      5.810
REMARK INTER + INTRA:         -12.361
REMARK INTER:                  -6.778
REMARK INTRA:                  -5.583
REMARK UNBOUND:                -6.013
REMARK SMILES CCCCCCCCCCCCCCCCCCCCCCCCCCCCCO
REMARK SMILES IDX 16 1 15 2 14 3 13 4 12 5 11 6 10 7 9 8 8 9 7 10 6 11 5 12
REMARK SMILES IDX 4 13 3 14 2 15 1 16 17 17 18 18 19 19 20 20 21 21 22 22
REMARK SMILES IDX 23 23 24 24 25 25 26 26 27 27 28 28 29 29 30 30
REMARK H PARENT 30 31
REMARK Flexibility Score: inf
ROOT
ATOM      1  C   UNL     1     116.254 118.355 112.251  1.00  0.00     0.000 C 
ENDROOT
BRANCH   1   2
ATOM      2  C   UNL     1     115.028 118.115 113.152  1.00  0.00     0.000 C 
BRANCH   2   3
ATOM      3  C   UNL     1     114.515 116.663 113.174  1.00  0.00     0.000 C 
BRANCH   3   4
ATOM      4  C   UNL     1     115.435 115.694 112.410  1.00  0.00     0.000 C 
BRANCH   4   5
ATOM      5  C   UNL     1     115.325 114.247 112.916  1.00  0.00     0.000 C 
BRANCH   5   6
ATOM      6  C   UNL     1     113.885 113.707 112.860  1.00  0.00     0.000 C 
BRANCH   6   7
ATOM      7  C   UNL     1     113.343 113.302 114.242  1.00  0.00     0.000 C 
BRANCH   7   8
ATOM      8  C   UNL     1     114.343 113.469 115.400  1.00  0.00    -0.000 C 
BRANCH   8   9
ATOM      9  C   UNL     1     113.679 113.975 116.694  1.00  0.00    -0.000 C 
BRANCH   9  10
ATOM     10  C   UNL     1     113.688 115.510 116.790  1.00  0.00    -0.000 C 
BRANCH  10  11
ATOM     11  C   UNL     1     112.952 116.022 118.037  1.00  0.00    -0.000 C 
BRANCH  11  12
ATOM     12  C   UNL     1     113.649 117.263 118.618  1.00  0.00    -0.000 C 
BRANCH  12  13
ATOM     13  C   UNL     1     112.882 118.565 118.307  1.00  0.00    -0.000 C 
BRANCH  13  14
ATOM     14  C   UNL     1     112.705 118.837 116.803  1.00  0.00    -0.000 C 
BRANCH  14  15
ATOM     15  C   UNL     1     113.114 120.260 116.400  1.00  0.00    -0.003 C 
ATOM     16  C   UNL     1     112.939 120.480 114.899  1.00  0.00     0.004 C 
ENDBRANCH  14  15
ENDBRANCH  13  14
ENDBRANCH  12  13
ENDBRANCH  11  12
ENDBRANCH  10  11
ENDBRANCH   9  10
ENDBRANCH   8   9
ENDBRANCH   7   8
ENDBRANCH   6   7
ENDBRANCH   5   6
ENDBRANCH   4   5
ENDBRANCH   3   4
ENDBRANCH   2   3
ENDBRANCH   1   2
BRANCH   1  17
ATOM     17  C   UNL     1     117.304 119.273 112.901  1.00  0.00     0.000 C 
BRANCH  17  18
ATOM     18  C   UNL     1     118.679 118.586 113.034  1.00  0.00     0.000 C 
BRANCH  18  19
ATOM     19  C   UNL     1     118.794 117.255 112.270  1.00  0.00     0.000 C 
BRANCH  19  20
ATOM     20  C   UNL     1     119.048 116.055 113.196  1.00  0.00     0.000 C 
BRANCH  20  21
ATOM     21  C   UNL     1     118.891 116.398 114.691  1.00  0.00     0.000 C 
BRANCH  21  22
ATOM     22  C   UNL     1     117.685 115.743 115.399  1.00  0.00     0.000 C 
BRANCH  22  23
ATOM     23  C   UNL     1     117.095 116.546 116.574  1.00  0.00     0.000 C 
BRANCH  23  24
ATOM     24  C   UNL     1     116.567 117.946 116.204  1.00  0.00     0.000 C 
BRANCH  24  25
ATOM     25  C   UNL     1     116.573 118.946 117.380  1.00  0.00     0.000 C 
BRANCH  25  26
ATOM     26  C   UNL     1     117.409 120.201 117.085  1.00  0.00     0.000 C 
BRANCH  26  27
ATOM     27  C   UNL     1     118.809 119.820 116.582  1.00  0.00     0.002 C 
BRANCH  27  28
ATOM     28  C   UNL     1     119.924 120.652 117.243  1.00  0.00     0.028 C 
BRANCH  28  29
ATOM     29  C   UNL     1     120.963 121.182 116.250  1.00  0.00     0.156 C 
BRANCH  29  30
ATOM     30  O   UNL     1     121.049 120.332 115.139  1.00  0.00    -0.396 OA
ATOM     31  H   UNL     1     122.009 120.299 114.888  1.00  0.00     0.210 HD
ENDBRANCH  29  30
ENDBRANCH  28  29
ENDBRANCH  27  28
ENDBRANCH  26  27
ENDBRANCH  25  26
ENDBRANCH  24  25
ENDBRANCH  23  24
ENDBRANCH  22  23
ENDBRANCH  21  22
ENDBRANCH  20  21
ENDBRANCH  19  20
ENDBRANCH  18  19
ENDBRANCH  17  18
ENDBRANCH   1  17
TORSDOF 28
ENDMDL
MODEL 5
REMARK VINA RESULT:    -2.413      2.383      5.315
REMARK INTER + INTRA:         -12.306
REMARK INTER:                  -6.419
REMARK INTRA:                  -5.887
REMARK UNBOUND:                -6.013
REMARK SMILES CCCCCCCCCCCCCCCCCCCCCCCCCCCCCO
REMARK SMILES IDX 16 1 15 2 14 3 13 4 12 5 11 6 10 7 9 8 8 9 7 10 6 11 5 12
REMARK SMILES IDX 4 13 3 14 2 15 1 16 17 17 18 18 19 19 20 20 21 21 22 22
REMARK SMILES IDX 23 23 24 24 25 25 26 26 27 27 28 28 29 29 30 30
REMARK H PARENT 30 31
REMARK Flexibility Score: inf
ROOT
ATOM      1  C   UNL     1     116.575 119.018 114.125  1.00  0.00     0.000 C 
ENDROOT
BRANCH   1   2
ATOM      2  C   UNL     1     118.088 119.262 113.977  1.00  0.00     0.000 C 
BRANCH   2   3
ATOM      3  C   UNL     1     118.976 118.050 114.317  1.00  0.00     0.000 C 
BRANCH   3   4
ATOM      4  C   UNL     1     118.414 116.727 113.767  1.00  0.00     0.000 C 
BRANCH   4   5
ATOM      5  C   UNL     1     119.151 116.247 112.506  1.00  0.00     0.000 C 
BRANCH   5   6
ATOM      6  C   UNL     1     119.512 114.752 112.564  1.00  0.00     0.000 C 
BRANCH   6   7
ATOM      7  C   UNL     1     119.002 114.062 113.841  1.00  0.00     0.000 C 
BRANCH   7   8
ATOM      8  C   UNL     1     120.062 113.241 114.597  1.00  0.00    -0.000 C 
BRANCH   8   9
ATOM      9  C   UNL     1     120.054 113.508 116.113  1.00  0.00    -0.000 C 
BRANCH   9  10
ATOM     10  C   UNL     1     118.879 114.404 116.539  1.00  0.00    -0.000 C 
BRANCH  10  11
ATOM     11  C   UNL     1     119.349 115.699 117.217  1.00  0.00    -0.000 C 
BRANCH  11  12
ATOM     12  C   UNL     1     118.231 116.306 118.081  1.00  0.00    -0.000 C 
BRANCH  12  13
ATOM     13  C   UNL     1     117.954 117.782 117.727  1.00  0.00    -0.000 C 
BRANCH  13  14
ATOM     14  C   UNL     1     116.942 118.467 118.664  1.00  0.00    -0.000 C 
BRANCH  14  15
ATOM     15  C   UNL     1     116.673 117.664 119.943  1.00  0.00    -0.003 C 
ATOM     16  C   UNL     1     115.183 117.374 120.108  1.00  0.00     0.004 C 
ENDBRANCH  14  15
ENDBRANCH  13  14
ENDBRANCH  12  13
ENDBRANCH  11  12
ENDBRANCH  10  11
ENDBRANCH   9  10
ENDBRANCH   8   9
ENDBRANCH   7   8
ENDBRANCH   6   7
ENDBRANCH   5   6
ENDBRANCH   4   5
ENDBRANCH   3   4
ENDBRANCH   2   3
ENDBRANCH   1   2
BRANCH   1  17
ATOM     17  C   UNL     1     115.840 118.980 112.773  1.00  0.00     0.000 C 
BRANCH  17  18
ATOM     18  C   UNL     1     114.358 118.576 112.925  1.00  0.00     0.000 C 
BRANCH  18  19
ATOM     19  C   UNL     1     113.996 117.242 112.250  1.00  0.00     0.000 C 
BRANCH  19  20
ATOM     20  C   UNL     1     115.226 116.368 111.958  1.00  0.00     0.000 C 
BRANCH  20  21
ATOM     21  C   UNL     1     115.232 115.044 112.747  1.00  0.00     0.000 C 
BRANCH  21  22
ATOM     22  C   UNL     1     114.587 115.104 114.148  1.00  0.00     0.000 C 
BRANCH  22  23
ATOM     23  C   UNL     1     115.542 115.473 115.299  1.00  0.00     0.000 C 
BRANCH  23  24
ATOM     24  C   UNL     1     114.882 116.213 116.479  1.00  0.00     0.000 C 
BRANCH  24  25
ATOM     25  C   UNL     1     113.609 116.996 116.092  1.00  0.00     0.000 C 
BRANCH  25  26
ATOM     26  C   UNL     1     113.306 118.148 117.061  1.00  0.00     0.000 C 
BRANCH  26  27
ATOM     27  C   UNL     1     113.964 119.451 116.584  1.00  0.00     0.002 C 
BRANCH  27  28
ATOM     28  C   UNL     1     113.046 120.276 115.662  1.00  0.00     0.028 C 
BRANCH  28  29
ATOM     29  C   UNL     1     112.077 121.189 116.420  1.00  0.00     0.156 C 
BRANCH  29  30
ATOM     30  O   UNL     1     112.625 122.472 116.554  1.00  0.00    -0.396 OA
ATOM     31  H   UNL     1     112.208 122.868 117.363  1.00  0.00     0.210 HD
ENDBRANCH  29  30
ENDBRANCH  28  29
ENDBRANCH  27  28
ENDBRANCH  26  27
ENDBRANCH  25  26
ENDBRANCH  24  25
ENDBRANCH  23  24
ENDBRANCH  22  23
ENDBRANCH  21  22
ENDBRANCH  20  21
ENDBRANCH  19  20
ENDBRANCH  18  19
ENDBRANCH  17  18
ENDBRANCH   1  17
TORSDOF 28
ENDMDL
MODEL 6
REMARK VINA RESULT:    -2.373      1.687      6.012
REMARK INTER + INTRA:         -12.201
REMARK INTER:                  -7.037
REMARK INTRA:                  -5.164
REMARK UNBOUND:                -6.013
REMARK SMILES CCCCCCCCCCCCCCCCCCCCCCCCCCCCCO
REMARK SMILES IDX 16 1 15 2 14 3 13 4 12 5 11 6 10 7 9 8 8 9 7 10 6 11 5 12
REMARK SMILES IDX 4 13 3 14 2 15 1 16 17 17 18 18 19 19 20 20 21 21 22 22
REMARK SMILES IDX 23 23 24 24 25 25 26 26 27 27 28 28 29 29 30 30
REMARK H PARENT 30 31
REMARK Flexibility Score: inf
ROOT
ATOM      1  C   UNL     1     120.097 120.210 116.181  1.00  0.00     0.000 C 
ENDROOT
BRANCH   1   2
ATOM      2  C   UNL     1     119.312 121.173 117.092  1.00  0.00     0.000 C 
BRANCH   2   3
ATOM      3  C   UNL     1     117.975 120.620 117.620  1.00  0.00     0.000 C 
BRANCH   3   4
ATOM      4  C   UNL     1     117.843 119.098 117.430  1.00  0.00     0.000 C 
BRANCH   4   5
ATOM      5  C   UNL     1     116.821 118.720 116.347  1.00  0.00     0.000 C 
BRANCH   5   6
ATOM      6  C   UNL     1     117.242 117.477 115.543  1.00  0.00     0.000 C 
BRANCH   6   7
ATOM      7  C   UNL     1     118.185 116.548 116.328  1.00  0.00     0.000 C 
BRANCH   7   8
ATOM      8  C   UNL     1     119.009 115.583 115.458  1.00  0.00    -0.000 C 
BRANCH   8   9
ATOM      9  C   UNL     1     118.825 115.833 113.950  1.00  0.00    -0.000 C 
BRANCH   9  10
ATOM     10  C   UNL     1     118.235 114.612 113.225  1.00  0.00    -0.000 C 
BRANCH  10  11
ATOM     11  C   UNL     1     116.699 114.600 113.256  1.00  0.00    -0.000 C 
BRANCH  11  12
ATOM     12  C   UNL     1     116.123 114.187 111.892  1.00  0.00    -0.000 C 
BRANCH  12  13
ATOM     13  C   UNL     1     114.581 114.212 111.877  1.00  0.00    -0.000 C 
BRANCH  13  14
ATOM     14  C   UNL     1     113.951 114.588 113.230  1.00  0.00    -0.000 C 
BRANCH  14  15
ATOM     15  C   UNL     1     113.333 113.387 113.957  1.00  0.00    -0.003 C 
ATOM     16  C   UNL     1     113.663 113.413 115.447  1.00  0.00     0.004 C 
ENDBRANCH  14  15
ENDBRANCH  13  14
ENDBRANCH  12  13
ENDBRANCH  11  12
ENDBRANCH  10  11
ENDBRANCH   9  10
ENDBRANCH   8   9
ENDBRANCH   7   8
ENDBRANCH   6   7
ENDBRANCH   5   6
ENDBRANCH   4   5
ENDBRANCH   3   4
ENDBRANCH   2   3
ENDBRANCH   1   2
BRANCH   1  17
ATOM     17  C   UNL     1     120.018 120.596 114.694  1.00  0.00     0.000 C 
BRANCH  17  18
ATOM     18  C   UNL     1     119.463 119.450 113.822  1.00  0.00     0.000 C 
BRANCH  18  19
ATOM     19  C   UNL     1     118.935 119.902 112.449  1.00  0.00     0.000 C 
BRANCH  19  20
ATOM     20  C   UNL     1     117.421 119.693 112.294  1.00  0.00     0.000 C 
BRANCH  20  21
ATOM     21  C   UNL     1     117.045 118.252 111.898  1.00  0.00     0.000 C 
BRANCH  21  22
ATOM     22  C   UNL     1     115.537 117.921 111.949  1.00  0.00     0.000 C 
BRANCH  22  23
ATOM     23  C   UNL     1     114.664 118.940 112.707  1.00  0.00     0.000 C 
BRANCH  23  24
ATOM     24  C   UNL     1     113.877 118.361 113.899  1.00  0.00     0.000 C 
BRANCH  24  25
ATOM     25  C   UNL     1     113.250 119.435 114.814  1.00  0.00     0.000 C 
BRANCH  25  26
ATOM     26  C   UNL     1     113.123 118.968 116.272  1.00  0.00     0.000 C 
BRANCH  26  27
ATOM     27  C   UNL     1     113.474 117.478 116.402  1.00  0.00     0.002 C 
BRANCH  27  28
ATOM     28  C   UNL     1     112.709 116.787 117.546  1.00  0.00     0.028 C 
BRANCH  28  29
ATOM     29  C   UNL     1     113.561 115.788 118.336  1.00  0.00     0.156 C 
BRANCH  29  30
ATOM     30  O   UNL     1     114.921 115.986 118.059  1.00  0.00    -0.396 OA
ATOM     31  H   UNL     1     115.382 115.146 118.319  1.00  0.00     0.210 HD
ENDBRANCH  29  30
ENDBRANCH  28  29
ENDBRANCH  27  28
ENDBRANCH  26  27
ENDBRANCH  25  26
ENDBRANCH  24  25
ENDBRANCH  23  24
ENDBRANCH  22  23
ENDBRANCH  21  22
ENDBRANCH  20  21
ENDBRANCH  19  20
ENDBRANCH  18  19
ENDBRANCH  17  18
ENDBRANCH   1  17
TORSDOF 28
ENDMDL
MODEL 7
REMARK VINA RESULT:    -2.270      1.652      5.082
REMARK INTER + INTRA:         -11.931
REMARK INTER:                  -6.807
REMARK INTRA:                  -5.124
REMARK UNBOUND:                -6.013
REMARK SMILES CCCCCCCCCCCCCCCCCCCCCCCCCCCCCO
REMARK SMILES IDX 16 1 15 2 14 3 13 4 12 5 11 6 10 7 9 8 8 9 7 10 6 11 5 12
REMARK SMILES IDX 4 13 3 14 2 15 1 16 17 17 18 18 19 19 20 20 21 21 22 22
REMARK SMILES IDX 23 23 24 24 25 25 26 26 27 27 28 28 29 29 30 30
REMARK H PARENT 30 31
REMARK Flexibility Score: inf
ROOT
ATOM      1  C   UNL     1     117.934 118.047 114.265  1.00  0.00     0.000 C 
ENDROOT
BRANCH   1   2
ATOM      2  C   UNL     1     119.091 118.426 113.322  1.00  0.00     0.000 C 
BRANCH   2   3
ATOM      3  C   UNL     1     118.997 117.825 111.907  1.00  0.00     0.000 C 
BRANCH   3   4
ATOM      4  C   UNL     1     118.223 116.494 111.875  1.00  0.00     0.000 C 
BRANCH   4   5
ATOM      5  C   UNL     1     119.045 115.316 112.419  1.00  0.00     0.000 C 
BRANCH   5   6
ATOM      6  C   UNL     1     118.180 114.282 113.161  1.00  0.00     0.000 C 
BRANCH   6   7
ATOM      7  C   UNL     1     118.338 114.357 114.690  1.00  0.00     0.000 C 
BRANCH   7   8
ATOM      8  C   UNL     1     117.018 114.290 115.478  1.00  0.00    -0.000 C 
BRANCH   8   9
ATOM      9  C   UNL     1     116.737 115.573 116.281  1.00  0.00    -0.000 C 
BRANCH   9  10
ATOM     10  C   UNL     1     115.236 115.903 116.343  1.00  0.00    -0.000 C 
BRANCH  10  11
ATOM     11  C   UNL     1     114.958 117.221 117.081  1.00  0.00    -0.000 C 
BRANCH  11  12
ATOM     12  C   UNL     1     115.772 117.307 118.382  1.00  0.00    -0.000 C 
BRANCH  12  13
ATOM     13  C   UNL     1     116.239 118.746 118.686  1.00  0.00    -0.000 C 
BRANCH  13  14
ATOM     14  C   UNL     1     117.726 118.996 118.376  1.00  0.00    -0.000 C 
BRANCH  14  15
ATOM     15  C   UNL     1     118.608 117.768 118.641  1.00  0.00    -0.003 C 
ATOM     16  C   UNL     1     119.604 117.548 117.505  1.00  0.00     0.004 C 
ENDBRANCH  14  15
ENDBRANCH  13  14
ENDBRANCH  12  13
ENDBRANCH  11  12
ENDBRANCH  10  11
ENDBRANCH   9  10
ENDBRANCH   8   9
ENDBRANCH   7   8
ENDBRANCH   6   7
ENDBRANCH   5   6
ENDBRANCH   4   5
ENDBRANCH   3   4
ENDBRANCH   2   3
ENDBRANCH   1   2
BRANCH   1  17
ATOM     17  C   UNL     1     117.134 119.269 114.751  1.00  0.00     0.000 C 
BRANCH  17  18
ATOM     18  C   UNL     1     115.674 119.247 114.254  1.00  0.00     0.000 C 
BRANCH  18  19
ATOM     19  C   UNL     1     115.521 118.886 112.766  1.00  0.00     0.000 C 
BRANCH  19  20
ATOM     20  C   UNL     1     114.053 118.748 112.333  1.00  0.00     0.000 C 
BRANCH  20  21
ATOM     21  C   UNL     1     113.662 117.304 111.964  1.00  0.00     0.000 C 
BRANCH  21  22
ATOM     22  C   UNL     1     114.352 116.197 112.790  1.00  0.00     0.000 C 
BRANCH  22  23
ATOM     23  C   UNL     1     114.715 114.920 112.009  1.00  0.00     0.000 C 
BRANCH  23  24
ATOM     24  C   UNL     1     114.502 113.603 112.781  1.00  0.00     0.000 C 
BRANCH  24  25
ATOM     25  C   UNL     1     113.276 113.621 113.719  1.00  0.00     0.000 C 
BRANCH  25  26
ATOM     26  C   UNL     1     113.598 113.090 115.123  1.00  0.00     0.000 C 
BRANCH  26  27
ATOM     27  C   UNL     1     112.508 112.118 115.603  1.00  0.00     0.002 C 
BRANCH  27  28
ATOM     28  C   UNL     1     111.977 112.469 117.006  1.00  0.00     0.028 C 
BRANCH  28  29
ATOM     29  C   UNL     1     110.451 112.390 117.120  1.00  0.00     0.156 C 
BRANCH  29  30
ATOM     30  O   UNL     1     109.903 111.882 115.935  1.00  0.00    -0.396 OA
ATOM     31  H   UNL     1     110.525 112.144 115.207  1.00  0.00     0.210 HD
ENDBRANCH  29  30
ENDBRANCH  28  29
ENDBRANCH  27  28
ENDBRANCH  26  27
ENDBRANCH  25  26
ENDBRANCH  24  25
ENDBRANCH  23  24
ENDBRANCH  22  23
ENDBRANCH  21  22
ENDBRANCH  20  21
ENDBRANCH  19  20
ENDBRANCH  18  19
ENDBRANCH  17  18
ENDBRANCH   1  17
TORSDOF 28
ENDMDL
