MODEL 1
REMARK VINA RESULT:    -6.151      0.000      0.000
REMARK INTER + INTRA:          -8.284
REMARK INTER:                  -7.769
REMARK INTRA:                  -0.515
REMARK UNBOUND:                -0.515
REMARK SMILES O=C(C=Cc1ccc(O)cc1)c1ccc(O)cc1O
REMARK SMILES IDX 4 1 3 2 5 3 6 4 7 5 8 6 11 7 10 8 9 9 2 11 1 12 12 13 18 14
REMARK SMILES IDX 13 15 17 16 14 17 15 18 19 19 16 21
REMARK H PARENT 9 10 19 20 16 22
REMARK Flexibility Score: inf
ROOT
ATOM      1  C   UNL     1      -7.046  62.800  -9.796  1.00  0.00     0.012 C 
ATOM      2  C   UNL     1      -6.163  63.024  -8.813  1.00  0.00     0.053 C 
ENDROOT
BRANCH   1   3
ATOM      3  C   UNL     1      -7.591  63.867 -10.671  1.00  0.00    -0.025 A 
ATOM      4  C   UNL     1      -8.563  64.788 -10.227  1.00  0.00     0.012 A 
ATOM      5  C   UNL     1      -9.038  65.785 -11.086  1.00  0.00     0.047 A 
ATOM      6  C   UNL     1      -8.546  65.885 -12.390  1.00  0.00     0.115 A 
ATOM      7  C   UNL     1      -7.092  63.987 -11.978  1.00  0.00     0.012 A 
ATOM      8  C   UNL     1      -7.569  64.984 -12.834  1.00  0.00     0.047 A 
BRANCH   6   9
ATOM      9  O   UNL     1      -9.029  66.881 -13.234  1.00  0.00    -0.508 OA
ATOM     10  H   UNL     1      -9.618  66.663 -14.030  1.00  0.00     0.293 HD
ENDBRANCH   6   9
ENDBRANCH   1   3
BRANCH   2  11
ATOM     11  C   UNL     1      -5.653  61.938  -7.949  1.00  0.00     0.189 C 
ATOM     12  O   UNL     1      -6.198  61.716  -6.831  1.00  0.00    -0.289 OA
BRANCH  11  13
ATOM     13  C   UNL     1      -4.476  61.131  -8.348  1.00  0.00     0.064 A 
ATOM     14  C   UNL     1      -4.599  59.992  -9.174  1.00  0.00     0.130 A 
ATOM     15  C   UNL     1      -3.205  61.495  -7.869  1.00  0.00     0.020 A 
ATOM     16  C   UNL     1      -3.454  59.267  -9.539  1.00  0.00     0.093 A 
ATOM     17  C   UNL     1      -2.072  60.762  -8.232  1.00  0.00     0.047 A 
ATOM     18  C   UNL     1      -2.192  59.651  -9.070  1.00  0.00     0.119 A 
BRANCH  14  19
ATOM     19  O   UNL     1      -5.853  59.565  -9.612  1.00  0.00    -0.507 OA
ATOM     20  H   UNL     1      -5.954  58.878 -10.350  1.00  0.00     0.293 HD
ENDBRANCH  14  19
BRANCH  18  21
ATOM     21  O   UNL     1      -1.053  58.933  -9.427  1.00  0.00    -0.508 OA
ATOM     22  H   UNL     1      -0.459  59.228 -10.193  1.00  0.00     0.293 HD
ENDBRANCH  18  21
ENDBRANCH  11  13
ENDBRANCH   2  11
TORSDOF 6
ENDMDL
MODEL 2
REMARK VINA RESULT:    -5.810      1.671      7.443
REMARK INTER + INTRA:          -7.854
REMARK INTER:                  -7.265
REMARK INTRA:                  -0.589
REMARK UNBOUND:                -0.515
REMARK SMILES O=C(C=Cc1ccc(O)cc1)c1ccc(O)cc1O
REMARK SMILES IDX 4 1 3 2 5 3 6 4 7 5 8 6 11 7 10 8 9 9 2 11 1 12 12 13 18 14
REMARK SMILES IDX 13 15 17 16 14 17 15 18 19 19 16 21
REMARK H PARENT 9 10 19 20 16 22
REMARK Flexibility Score: inf
ROOT
ATOM      1  C   UNL     1      -5.646  62.865  -8.319  1.00  0.00     0.012 C 
ATOM      2  C   UNL     1      -6.965  62.727  -8.516  1.00  0.00     0.053 C 
ENDROOT
BRANCH   1   3
ATOM      3  C   UNL     1      -4.675  61.751  -8.448  1.00  0.00    -0.025 A 
ATOM      4  C   UNL     1      -3.373  61.815  -7.910  1.00  0.00     0.012 A 
ATOM      5  C   UNL     1      -2.496  60.733  -8.045  1.00  0.00     0.047 A 
ATOM      6  C   UNL     1      -2.906  59.573  -8.707  1.00  0.00     0.115 A 
ATOM      7  C   UNL     1      -5.082  60.573  -9.097  1.00  0.00     0.012 A 
ATOM      8  C   UNL     1      -4.203  59.494  -9.231  1.00  0.00     0.047 A 
BRANCH   6   9
ATOM      9  O   UNL     1      -2.022  58.505  -8.836  1.00  0.00    -0.508 OA
ATOM     10  H   UNL     1      -2.136  57.654  -8.296  1.00  0.00     0.293 HD
ENDBRANCH   6   9
ENDBRANCH   1   3
BRANCH   2  11
ATOM     11  C   UNL     1      -7.906  63.857  -8.362  1.00  0.00     0.189 C 
ATOM     12  O   UNL     1      -8.414  64.103  -7.233  1.00  0.00    -0.289 OA
BRANCH  11  13
ATOM     13  C   UNL     1      -8.307  64.684  -9.526  1.00  0.00     0.064 A 
ATOM     14  C   UNL     1      -8.823  65.989  -9.370  1.00  0.00     0.130 A 
ATOM     15  C   UNL     1      -8.193  64.143 -10.818  1.00  0.00     0.020 A 
ATOM     16  C   UNL     1      -9.175  66.740 -10.501  1.00  0.00     0.093 A 
ATOM     17  C   UNL     1      -8.553  64.896 -11.938  1.00  0.00     0.047 A 
ATOM     18  C   UNL     1      -9.040  66.196 -11.784  1.00  0.00     0.119 A 
BRANCH  14  19
ATOM     19  O   UNL     1      -9.011  66.530  -8.098  1.00  0.00    -0.507 OA
ATOM     20  H   UNL     1      -9.396  65.982  -7.338  1.00  0.00     0.293 HD
ENDBRANCH  14  19
BRANCH  18  21
ATOM     21  O   UNL     1      -9.390  66.937 -12.911  1.00  0.00    -0.508 OA
ATOM     22  H   UNL     1      -8.848  66.891 -13.765  1.00  0.00     0.293 HD
ENDBRANCH  18  21
ENDBRANCH  11  13
ENDBRANCH   2  11
TORSDOF 6
ENDMDL
MODEL 3
REMARK VINA RESULT:    -5.788      2.525      7.366
REMARK INTER + INTRA:          -7.826
REMARK INTER:                  -7.201
REMARK INTRA:                  -0.626
REMARK UNBOUND:                -0.515
REMARK SMILES O=C(C=Cc1ccc(O)cc1)c1ccc(O)cc1O
REMARK SMILES IDX 4 1 3 2 5 3 6 4 7 5 8 6 11 7 10 8 9 9 2 11 1 12 12 13 18 14
REMARK SMILES IDX 13 15 17 16 14 17 15 18 19 19 16 21
REMARK H PARENT 9 10 19 20 16 22
REMARK Flexibility Score: inf
ROOT
ATOM      1  C   UNL     1      -5.447  62.492  -8.041  1.00  0.00     0.012 C 
ATOM      2  C   UNL     1      -6.529  63.207  -8.377  1.00  0.00     0.053 C 
ENDROOT
BRANCH   1   3
ATOM      3  C   UNL     1      -4.574  62.814  -6.885  1.00  0.00    -0.025 A 
ATOM      4  C   UNL     1      -3.387  62.103  -6.611  1.00  0.00     0.012 A 
ATOM      5  C   UNL     1      -2.589  62.452  -5.516  1.00  0.00     0.047 A 
ATOM      6  C   UNL     1      -2.956  63.516  -4.688  1.00  0.00     0.115 A 
ATOM      7  C   UNL     1      -4.924  63.892  -6.055  1.00  0.00     0.012 A 
ATOM      8  C   UNL     1      -4.126  64.237  -4.961  1.00  0.00     0.047 A 
BRANCH   6   9
ATOM      9  O   UNL     1      -2.153  63.850  -3.600  1.00  0.00    -0.508 OA
ATOM     10  H   UNL     1      -2.553  64.152  -2.719  1.00  0.00     0.293 HD
ENDBRANCH   6   9
ENDBRANCH   1   3
BRANCH   2  11
ATOM     11  C   UNL     1      -7.366  62.867  -9.547  1.00  0.00     0.189 C 
ATOM     12  O   UNL     1      -7.709  61.669  -9.747  1.00  0.00    -0.289 OA
BRANCH  11  13
ATOM     13  C   UNL     1      -7.774  63.904 -10.525  1.00  0.00     0.064 A 
ATOM     14  C   UNL     1      -7.345  63.870 -11.870  1.00  0.00     0.130 A 
ATOM     15  C   UNL     1      -8.589  64.966 -10.094  1.00  0.00     0.020 A 
ATOM     16  C   UNL     1      -7.769  64.865 -12.764  1.00  0.00     0.093 A 
ATOM     17  C   UNL     1      -9.000  65.955 -10.990  1.00  0.00     0.047 A 
ATOM     18  C   UNL     1      -8.596  65.906 -12.326  1.00  0.00     0.119 A 
BRANCH  14  19
ATOM     19  O   UNL     1      -6.482  62.867 -12.314  1.00  0.00    -0.507 OA
ATOM     20  H   UNL     1      -6.736  62.242 -13.070  1.00  0.00     0.293 HD
ENDBRANCH  14  19
BRANCH  18  21
ATOM     21  O   UNL     1      -9.017  66.898 -13.209  1.00  0.00    -0.508 OA
ATOM     22  H   UNL     1      -9.741  66.723 -13.896  1.00  0.00     0.293 HD
ENDBRANCH  18  21
ENDBRANCH  11  13
ENDBRANCH   2  11
TORSDOF 6
ENDMDL
MODEL 4
REMARK VINA RESULT:    -5.693      1.366      2.023
REMARK INTER + INTRA:          -7.706
REMARK INTER:                  -7.223
REMARK INTRA:                  -0.483
REMARK UNBOUND:                -0.515
REMARK SMILES O=C(C=Cc1ccc(O)cc1)c1ccc(O)cc1O
REMARK SMILES IDX 4 1 3 2 5 3 6 4 7 5 8 6 11 7 10 8 9 9 2 11 1 12 12 13 18 14
REMARK SMILES IDX 13 15 17 16 14 17 15 18 19 19 16 21
REMARK H PARENT 9 10 19 20 16 22
REMARK Flexibility Score: inf
ROOT
ATOM      1  C   UNL     1      -6.909  62.408 -10.321  1.00  0.00     0.012 C 
ATOM      2  C   UNL     1      -6.015  62.519  -9.329  1.00  0.00     0.053 C 
ENDROOT
BRANCH   1   3
ATOM      3  C   UNL     1      -7.477  63.568 -11.051  1.00  0.00    -0.025 A 
ATOM      4  C   UNL     1      -7.161  63.845 -12.397  1.00  0.00     0.012 A 
ATOM      5  C   UNL     1      -7.732  64.944 -13.047  1.00  0.00     0.047 A 
ATOM      6  C   UNL     1      -8.629  65.774 -12.371  1.00  0.00     0.115 A 
ATOM      7  C   UNL     1      -8.393  64.400 -10.386  1.00  0.00     0.012 A 
ATOM      8  C   UNL     1      -8.961  65.499 -11.038  1.00  0.00     0.047 A 
BRANCH   6   9
ATOM      9  O   UNL     1      -9.188  66.866 -13.031  1.00  0.00    -0.508 OA
ATOM     10  H   UNL     1      -9.940  66.753 -13.702  1.00  0.00     0.293 HD
ENDBRANCH   6   9
ENDBRANCH   1   3
BRANCH   2  11
ATOM     11  C   UNL     1      -5.484  61.340  -8.612  1.00  0.00     0.189 C 
ATOM     12  O   UNL     1      -6.226  60.337  -8.414  1.00  0.00    -0.289 OA
BRANCH  11  13
ATOM     13  C   UNL     1      -4.103  61.330  -8.073  1.00  0.00     0.064 A 
ATOM     14  C   UNL     1      -3.042  60.692  -8.753  1.00  0.00     0.130 A 
ATOM     15  C   UNL     1      -3.848  61.950  -6.837  1.00  0.00     0.020 A 
ATOM     16  C   UNL     1      -1.748  60.721  -8.212  1.00  0.00     0.093 A 
ATOM     17  C   UNL     1      -2.557  61.968  -6.304  1.00  0.00     0.047 A 
ATOM     18  C   UNL     1      -1.504  61.359  -6.990  1.00  0.00     0.119 A 
BRANCH  14  19
ATOM     19  O   UNL     1      -3.274  60.010  -9.948  1.00  0.00    -0.507 OA
ATOM     20  H   UNL     1      -4.152  60.094 -10.447  1.00  0.00     0.293 HD
ENDBRANCH  14  19
BRANCH  18  21
ATOM     21  O   UNL     1      -0.222  61.389  -6.447  1.00  0.00    -0.508 OA
ATOM     22  H   UNL     1       0.045  62.079  -5.756  1.00  0.00     0.293 HD
ENDBRANCH  18  21
ENDBRANCH  11  13
ENDBRANCH   2  11
TORSDOF 6
ENDMDL
MODEL 5
REMARK VINA RESULT:    -5.688      3.098      7.317
REMARK INTER + INTRA:          -7.699
REMARK INTER:                  -7.042
REMARK INTRA:                  -0.658
REMARK UNBOUND:                -0.515
REMARK SMILES O=C(C=Cc1ccc(O)cc1)c1ccc(O)cc1O
REMARK SMILES IDX 4 1 3 2 5 3 6 4 7 5 8 6 11 7 10 8 9 9 2 11 1 12 12 13 18 14
REMARK SMILES IDX 13 15 17 16 14 17 15 18 19 19 16 21
REMARK H PARENT 9 10 19 20 16 22
REMARK Flexibility Score: inf
ROOT
ATOM      1  C   UNL     1      -4.257  62.722  -6.936  1.00  0.00     0.012 C 
ATOM      2  C   UNL     1      -5.361  61.963  -6.920  1.00  0.00     0.053 C 
ENDROOT
BRANCH   1   3
ATOM      3  C   UNL     1      -3.550  63.173  -5.713  1.00  0.00    -0.025 A 
ATOM      4  C   UNL     1      -3.963  64.299  -4.970  1.00  0.00     0.012 A 
ATOM      5  C   UNL     1      -3.272  64.679  -3.815  1.00  0.00     0.047 A 
ATOM      6  C   UNL     1      -2.170  63.939  -3.378  1.00  0.00     0.115 A 
ATOM      7  C   UNL     1      -2.451  62.428  -5.255  1.00  0.00     0.012 A 
ATOM      8  C   UNL     1      -1.762  62.810  -4.101  1.00  0.00     0.047 A 
BRANCH   6   9
ATOM      9  O   UNL     1      -1.491  64.330  -2.227  1.00  0.00    -0.508 OA
ATOM     10  H   UNL     1      -1.522  65.286  -1.891  1.00  0.00     0.293 HD
ENDBRANCH   6   9
ENDBRANCH   1   3
BRANCH   2  11
ATOM     11  C   UNL     1      -6.049  61.546  -8.160  1.00  0.00     0.189 C 
ATOM     12  O   UNL     1      -5.868  60.383  -8.619  1.00  0.00    -0.289 OA
BRANCH  11  13
ATOM     13  C   UNL     1      -6.915  62.487  -8.909  1.00  0.00     0.064 A 
ATOM     14  C   UNL     1      -7.035  62.432 -10.316  1.00  0.00     0.130 A 
ATOM     15  C   UNL     1      -7.616  63.480  -8.203  1.00  0.00     0.020 A 
ATOM     16  C   UNL     1      -7.878  63.334 -10.981  1.00  0.00     0.093 A 
ATOM     17  C   UNL     1      -8.448  64.378  -8.875  1.00  0.00     0.047 A 
ATOM     18  C   UNL     1      -8.585  64.306 -10.263  1.00  0.00     0.119 A 
BRANCH  14  19
ATOM     19  O   UNL     1      -6.301  61.502 -11.054  1.00  0.00    -0.507 OA
ATOM     20  H   UNL     1      -6.598  61.199 -11.974  1.00  0.00     0.293 HD
ENDBRANCH  14  19
BRANCH  18  21
ATOM     21  O   UNL     1      -9.422  65.205 -10.919  1.00  0.00    -0.508 OA
ATOM     22  H   UNL     1     -10.135  65.725 -10.423  1.00  0.00     0.293 HD
ENDBRANCH  18  21
ENDBRANCH  11  13
ENDBRANCH   2  11
TORSDOF 6
ENDMDL
MODEL 6
REMARK VINA RESULT:    -5.656      2.634      7.947
REMARK INTER + INTRA:          -7.659
REMARK INTER:                  -7.069
REMARK INTRA:                  -0.590
REMARK UNBOUND:                -0.515
REMARK SMILES O=C(C=Cc1ccc(O)cc1)c1ccc(O)cc1O
REMARK SMILES IDX 4 1 3 2 5 3 6 4 7 5 8 6 11 7 10 8 9 9 2 11 1 12 12 13 18 14
REMARK SMILES IDX 13 15 17 16 14 17 15 18 19 19 16 21
REMARK H PARENT 9 10 19 20 16 22
REMARK Flexibility Score: inf
ROOT
ATOM      1  C   UNL     1      -3.054  59.394  -9.619  1.00  0.00     0.012 C 
ATOM      2  C   UNL     1      -4.051  59.867  -8.859  1.00  0.00     0.053 C 
ENDROOT
BRANCH   1   3
ATOM      3  C   UNL     1      -1.756  58.926  -9.076  1.00  0.00    -0.025 A 
ATOM      4  C   UNL     1      -0.855  59.787  -8.416  1.00  0.00     0.012 A 
ATOM      5  C   UNL     1       0.353  59.296  -7.909  1.00  0.00     0.047 A 
ATOM      6  C   UNL     1       0.674  57.943  -8.042  1.00  0.00     0.115 A 
ATOM      7  C   UNL     1      -1.429  57.564  -9.190  1.00  0.00     0.012 A 
ATOM      8  C   UNL     1      -0.221  57.077  -8.683  1.00  0.00     0.047 A 
BRANCH   6   9
ATOM      9  O   UNL     1       1.881  57.469  -7.534  1.00  0.00    -0.508 OA
ATOM     10  H   UNL     1       2.358  57.941  -6.774  1.00  0.00     0.293 HD
ENDBRANCH   6   9
ENDBRANCH   1   3
BRANCH   2  11
ATOM     11  C   UNL     1      -5.326  60.341  -9.437  1.00  0.00     0.189 C 
ATOM     12  O   UNL     1      -5.807  59.768 -10.454  1.00  0.00    -0.289 OA
BRANCH  11  13
ATOM     13  C   UNL     1      -6.033  61.517  -8.874  1.00  0.00     0.064 A 
ATOM     14  C   UNL     1      -6.778  62.399  -9.687  1.00  0.00     0.130 A 
ATOM     15  C   UNL     1      -5.937  61.774  -7.495  1.00  0.00     0.020 A 
ATOM     16  C   UNL     1      -7.442  63.490  -9.107  1.00  0.00     0.093 A 
ATOM     17  C   UNL     1      -6.597  62.867  -6.928  1.00  0.00     0.047 A 
ATOM     18  C   UNL     1      -7.354  63.724  -7.730  1.00  0.00     0.119 A 
BRANCH  14  19
ATOM     19  O   UNL     1      -6.838  62.210 -11.068  1.00  0.00    -0.507 OA
ATOM     20  H   UNL     1      -7.146  62.946 -11.693  1.00  0.00     0.293 HD
ENDBRANCH  14  19
BRANCH  18  21
ATOM     21  O   UNL     1      -8.010  64.807  -7.150  1.00  0.00    -0.508 OA
ATOM     22  H   UNL     1      -8.919  65.112  -7.475  1.00  0.00     0.293 HD
ENDBRANCH  18  21
ENDBRANCH  11  13
ENDBRANCH   2  11
TORSDOF 6
ENDMDL
MODEL 7
REMARK VINA RESULT:    -5.648      2.159      2.989
REMARK INTER + INTRA:          -7.649
REMARK INTER:                  -7.031
REMARK INTRA:                  -0.618
REMARK UNBOUND:                -0.515
REMARK SMILES O=C(C=Cc1ccc(O)cc1)c1ccc(O)cc1O
REMARK SMILES IDX 4 1 3 2 5 3 6 4 7 5 8 6 11 7 10 8 9 9 2 11 1 12 12 13 18 14
REMARK SMILES IDX 13 15 17 16 14 17 15 18 19 19 16 21
REMARK H PARENT 9 10 19 20 16 22
REMARK Flexibility Score: inf
ROOT
ATOM      1  C   UNL     1      -7.185  63.019  -9.471  1.00  0.00     0.012 C 
ATOM      2  C   UNL     1      -5.980  63.112  -8.891  1.00  0.00     0.053 C 
ENDROOT
BRANCH   1   3
ATOM      3  C   UNL     1      -7.703  64.003 -10.453  1.00  0.00    -0.025 A 
ATOM      4  C   UNL     1      -8.682  64.962 -10.120  1.00  0.00     0.012 A 
ATOM      5  C   UNL     1      -9.131  65.878 -11.077  1.00  0.00     0.047 A 
ATOM      6  C   UNL     1      -8.605  65.859 -12.371  1.00  0.00     0.115 A 
ATOM      7  C   UNL     1      -7.170  64.004 -11.752  1.00  0.00     0.012 A 
ATOM      8  C   UNL     1      -7.620  64.921 -12.707  1.00  0.00     0.047 A 
BRANCH   6   9
ATOM      9  O   UNL     1      -9.062  66.777 -13.314  1.00  0.00    -0.508 OA
ATOM     10  H   UNL     1      -8.484  67.069 -14.094  1.00  0.00     0.293 HD
ENDBRANCH   6   9
ENDBRANCH   1   3
BRANCH   2  11
ATOM     11  C   UNL     1      -5.503  62.120  -7.903  1.00  0.00     0.189 C 
ATOM     12  O   UNL     1      -5.991  60.956  -7.895  1.00  0.00    -0.289 OA
BRANCH  11  13
ATOM     13  C   UNL     1      -4.491  62.483  -6.883  1.00  0.00     0.064 A 
ATOM     14  C   UNL     1      -3.313  61.725  -6.699  1.00  0.00     0.130 A 
ATOM     15  C   UNL     1      -4.722  63.597  -6.057  1.00  0.00     0.020 A 
ATOM     16  C   UNL     1      -2.375  62.114  -5.731  1.00  0.00     0.093 A 
ATOM     17  C   UNL     1      -3.786  63.972  -5.091  1.00  0.00     0.047 A 
ATOM     18  C   UNL     1      -2.610  63.237  -4.928  1.00  0.00     0.119 A 
BRANCH  14  19
ATOM     19  O   UNL     1      -3.084  60.575  -7.456  1.00  0.00    -0.507 OA
ATOM     20  H   UNL     1      -3.368  59.658  -7.131  1.00  0.00     0.293 HD
ENDBRANCH  14  19
BRANCH  18  21
ATOM     21  O   UNL     1      -1.683  63.627  -3.963  1.00  0.00    -0.508 OA
ATOM     22  H   UNL     1      -1.975  63.967  -3.055  1.00  0.00     0.293 HD
ENDBRANCH  18  21
ENDBRANCH  11  13
ENDBRANCH   2  11
TORSDOF 6
ENDMDL
MODEL 8
REMARK VINA RESULT:    -5.623      5.191      6.817
REMARK INTER + INTRA:          -7.617
REMARK INTER:                  -7.023
REMARK INTRA:                  -0.594
REMARK UNBOUND:                -0.515
REMARK SMILES O=C(C=Cc1ccc(O)cc1)c1ccc(O)cc1O
REMARK SMILES IDX 4 1 3 2 5 3 6 4 7 5 8 6 11 7 10 8 9 9 2 11 1 12 12 13 18 14
REMARK SMILES IDX 13 15 17 16 14 17 15 18 19 19 16 21
REMARK H PARENT 9 10 19 20 16 22
REMARK Flexibility Score: inf
ROOT
ATOM      1  C   UNL     1      -4.803  62.955  -6.402  1.00  0.00     0.012 C 
ATOM      2  C   UNL     1      -4.465  64.036  -5.686  1.00  0.00     0.053 C 
ENDROOT
BRANCH   1   3
ATOM      3  C   UNL     1      -5.899  62.938  -7.401  1.00  0.00    -0.025 A 
ATOM      4  C   UNL     1      -7.090  63.675  -7.232  1.00  0.00     0.012 A 
ATOM      5  C   UNL     1      -8.091  63.638  -8.208  1.00  0.00     0.047 A 
ATOM      6  C   UNL     1      -7.916  62.878  -9.367  1.00  0.00     0.115 A 
ATOM      7  C   UNL     1      -5.728  62.190  -8.577  1.00  0.00     0.012 A 
ATOM      8  C   UNL     1      -6.730  62.155  -9.551  1.00  0.00     0.047 A 
BRANCH   6   9
ATOM      9  O   UNL     1      -8.922  62.849 -10.330  1.00  0.00    -0.508 OA
ATOM     10  H   UNL     1      -9.561  63.627 -10.453  1.00  0.00     0.293 HD
ENDBRANCH   6   9
ENDBRANCH   1   3
BRANCH   2  11
ATOM     11  C   UNL     1      -3.377  64.011  -4.686  1.00  0.00     0.189 C 
ATOM     12  O   UNL     1      -2.544  63.062  -4.687  1.00  0.00    -0.289 OA
BRANCH  11  13
ATOM     13  C   UNL     1      -3.271  65.058  -3.642  1.00  0.00     0.064 A 
ATOM     14  C   UNL     1      -2.813  64.767  -2.338  1.00  0.00     0.130 A 
ATOM     15  C   UNL     1      -3.663  66.372  -3.952  1.00  0.00     0.020 A 
ATOM     16  C   UNL     1      -2.715  65.794  -1.387  1.00  0.00     0.093 A 
ATOM     17  C   UNL     1      -3.569  67.386  -2.995  1.00  0.00     0.047 A 
ATOM     18  C   UNL     1      -3.091  67.103  -1.714  1.00  0.00     0.119 A 
BRANCH  14  19
ATOM     19  O   UNL     1      -2.479  63.461  -1.978  1.00  0.00    -0.507 OA
ATOM     20  H   UNL     1      -2.290  63.206  -1.016  1.00  0.00     0.293 HD
ENDBRANCH  14  19
BRANCH  18  21
ATOM     21  O   UNL     1      -2.998  68.125  -0.773  1.00  0.00    -0.508 OA
ATOM     22  H   UNL     1      -2.279  68.836  -0.832  1.00  0.00     0.293 HD
ENDBRANCH  18  21
ENDBRANCH  11  13
ENDBRANCH   2  11
TORSDOF 6
ENDMDL
MODEL 9
REMARK VINA RESULT:    -5.583      4.777      7.615
REMARK INTER + INTRA:          -7.567
REMARK INTER:                  -7.010
REMARK INTRA:                  -0.557
REMARK UNBOUND:                -0.515
REMARK SMILES O=C(C=Cc1ccc(O)cc1)c1ccc(O)cc1O
REMARK SMILES IDX 4 1 3 2 5 3 6 4 7 5 8 6 11 7 10 8 9 9 2 11 1 12 12 13 18 14
REMARK SMILES IDX 13 15 17 16 14 17 15 18 19 19 16 21
REMARK H PARENT 9 10 19 20 16 22
REMARK Flexibility Score: inf
ROOT
ATOM      1  C   UNL     1      -3.353  63.820  -4.810  1.00  0.00     0.012 C 
ATOM      2  C   UNL     1      -4.349  63.839  -5.707  1.00  0.00     0.053 C 
ENDROOT
BRANCH   1   3
ATOM      3  C   UNL     1      -3.021  64.964  -3.926  1.00  0.00    -0.025 A 
ATOM      4  C   UNL     1      -3.797  66.141  -3.884  1.00  0.00     0.012 A 
ATOM      5  C   UNL     1      -3.450  67.188  -3.023  1.00  0.00     0.047 A 
ATOM      6  C   UNL     1      -2.336  67.074  -2.188  1.00  0.00     0.115 A 
ATOM      7  C   UNL     1      -1.912  64.854  -3.070  1.00  0.00     0.012 A 
ATOM      8  C   UNL     1      -1.568  65.902  -2.212  1.00  0.00     0.047 A 
BRANCH   6   9
ATOM      9  O   UNL     1      -2.003  68.125  -1.338  1.00  0.00    -0.508 OA
ATOM     10  H   UNL     1      -2.404  69.049  -1.454  1.00  0.00     0.293 HD
ENDBRANCH   6   9
ENDBRANCH   1   3
BRANCH   2  11
ATOM     11  C   UNL     1      -4.641  62.685  -6.584  1.00  0.00     0.189 C 
ATOM     12  O   UNL     1      -3.916  61.653  -6.527  1.00  0.00    -0.289 OA
BRANCH  11  13
ATOM     13  C   UNL     1      -5.746  62.734  -7.571  1.00  0.00     0.064 A 
ATOM     14  C   UNL     1      -5.704  61.996  -8.775  1.00  0.00     0.130 A 
ATOM     15  C   UNL     1      -6.856  63.558  -7.313  1.00  0.00     0.020 A 
ATOM     16  C   UNL     1      -6.780  62.061  -9.673  1.00  0.00     0.093 A 
ATOM     17  C   UNL     1      -7.919  63.622  -8.217  1.00  0.00     0.047 A 
ATOM     18  C   UNL     1      -7.887  62.872  -9.395  1.00  0.00     0.119 A 
BRANCH  14  19
ATOM     19  O   UNL     1      -4.588  61.220  -9.092  1.00  0.00    -0.507 OA
ATOM     20  H   UNL     1      -4.660  60.400  -9.683  1.00  0.00     0.293 HD
ENDBRANCH  14  19
BRANCH  18  21
ATOM     21  O   UNL     1      -8.956  62.942 -10.284  1.00  0.00    -0.508 OA
ATOM     22  H   UNL     1      -8.922  63.529 -11.109  1.00  0.00     0.293 HD
ENDBRANCH  18  21
ENDBRANCH  11  13
ENDBRANCH   2  11
TORSDOF 6
ENDMDL
