MODEL 1
REMARK VINA RESULT:    -6.393      0.000      0.000
REMARK INTER + INTRA:         -10.297
REMARK INTER:                  -8.823
REMARK INTRA:                  -1.474
REMARK UNBOUND:                -1.474
REMARK SMILES CC[C@H](CC[C@H](C)[C@H]1CC[C@@H]2[C@@H]3CC=C4C[C@@H](O)CC[C@]4(C)[C@@H]3CC[C@]21C)C(C)C
REMARK SMILES IDX 5 1 4 2 3 3 2 4 1 5 28 6 29 7 30 8 6 9 7 10 8 11 9 12 26 13
REMARK SMILES IDX 10 14 11 15 25 16 27 17 12 18 24 19 23 20 13 21 21 22 14 23
REMARK SMILES IDX 15 24 20 25 22 26 16 27 19 28 17 29 18 30
REMARK H PARENT 18 31
REMARK Flexibility Score: inf
ROOT
ATOM      1  C   UNL     1      19.370  -0.792 -17.569  1.00  0.00     0.004 C 
ENDROOT
BRANCH   1   2
ATOM      2  C   UNL     1      19.340   0.454 -16.659  1.00  0.00     0.004 C 
BRANCH   2   3
ATOM      3  C   UNL     1      19.960   0.229 -15.246  1.00  0.00    -0.009 C 
BRANCH   3   4
ATOM      4  C   UNL     1      20.490  -1.223 -15.064  1.00  0.00     0.000 C 
ATOM      5  C   UNL     1      22.010  -1.315 -14.901  1.00  0.00     0.004 C 
ENDBRANCH   3   4
BRANCH   3   6
ATOM      6  C   UNL     1      21.060   1.287 -14.872  1.00  0.00    -0.014 C 
ATOM      7  C   UNL     1      21.821   1.809 -16.106  1.00  0.00     0.007 C 
ATOM      8  C   UNL     1      20.462   2.492 -14.121  1.00  0.00     0.007 C 
ENDBRANCH   3   6
ENDBRANCH   2   3
ENDBRANCH   1   2
BRANCH   1   9
ATOM      9  C   UNL     1      20.208  -0.641 -18.869  1.00  0.00    -0.011 C 
ATOM     10  C   UNL     1      21.710  -0.882 -18.600  1.00  0.00     0.008 C 
BRANCH   9  11
ATOM     11  C   UNL     1      19.842   0.654 -19.691  1.00  0.00    -0.002 C 
ATOM     12  C   UNL     1      20.881   1.812 -19.604  1.00  0.00     0.005 C 
ATOM     13  C   UNL     1      19.577   0.486 -21.231  1.00  0.00    -0.026 C 
ATOM     14  C   UNL     1      21.403   2.088 -21.022  1.00  0.00     0.005 C 
ATOM     15  C   UNL     1      20.927   0.895 -21.832  1.00  0.00    -0.001 C 
ATOM     16  C   UNL     1      19.246  -0.926 -21.764  1.00  0.00     0.007 C 
ATOM     17  C   UNL     1      18.402   1.445 -21.597  1.00  0.00     0.012 C 
ATOM     18  C   UNL     1      20.998   0.945 -23.378  1.00  0.00     0.000 C 
ATOM     19  C   UNL     1      19.231  -0.974 -23.310  1.00  0.00     0.005 C 
ATOM     20  C   UNL     1      20.531  -0.421 -23.991  1.00  0.00     0.003 C 
ATOM     21  C   UNL     1      20.375   2.209 -24.037  1.00  0.00     0.031 C 
ATOM     22  C   UNL     1      20.444  -0.331 -25.567  1.00  0.00    -0.008 C 
ATOM     23  C   UNL     1      19.493   1.955 -25.232  1.00  0.00    -0.027 C 
ATOM     24  C   UNL     1      19.523   0.822 -25.963  1.00  0.00    -0.065 C 
ATOM     25  C   UNL     1      19.936  -1.683 -26.178  1.00  0.00     0.014 C 
ATOM     26  C   UNL     1      21.855  -0.045 -26.150  1.00  0.00     0.016 C 
ATOM     27  C   UNL     1      18.879   0.851 -27.338  1.00  0.00     0.063 C 
ATOM     28  C   UNL     1      19.518  -1.577 -27.649  1.00  0.00     0.033 C 
ATOM     29  C   UNL     1      18.404  -0.534 -27.798  1.00  0.00     0.118 C 
BRANCH  29  30
ATOM     30  O   UNL     1      17.943  -0.484 -29.125  1.00  0.00    -0.393 OA
ATOM     31  H   UNL     1      18.195  -1.339 -29.564  1.00  0.00     0.210 HD
ENDBRANCH  29  30
ENDBRANCH   9  11
ENDBRANCH   1   9
TORSDOF 7
ENDMDL
MODEL 2
REMARK VINA RESULT:    -6.351      2.152      4.060
REMARK INTER + INTRA:         -10.238
REMARK INTER:                  -9.574
REMARK INTRA:                  -0.664
REMARK UNBOUND:                -1.474
REMARK SMILES CC[C@H](CC[C@H](C)[C@H]1CC[C@@H]2[C@@H]3CC=C4C[C@@H](O)CC[C@]4(C)[C@@H]3CC[C@]21C)C(C)C
REMARK SMILES IDX 5 1 4 2 3 3 2 4 1 5 28 6 29 7 30 8 6 9 7 10 8 11 9 12 26 13
REMARK SMILES IDX 10 14 11 15 25 16 27 17 12 18 24 19 23 20 13 21 21 22 14 23
REMARK SMILES IDX 15 24 20 25 22 26 16 27 19 28 17 29 18 30
REMARK H PARENT 18 31
REMARK Flexibility Score: inf
ROOT
ATOM      1  C   UNL     1      22.695   3.098 -20.944  1.00  0.00     0.004 C 
ENDROOT
BRANCH   1   2
ATOM      2  C   UNL     1      22.602   2.956 -19.410  1.00  0.00     0.004 C 
BRANCH   2   3
ATOM      3  C   UNL     1      21.398   2.097 -18.919  1.00  0.00    -0.009 C 
BRANCH   3   4
ATOM      4  C   UNL     1      21.411   0.665 -19.530  1.00  0.00     0.000 C 
ATOM      5  C   UNL     1      20.033   0.160 -19.965  1.00  0.00     0.004 C 
ENDBRANCH   3   4
BRANCH   3   6
ATOM      6  C   UNL     1      21.265   2.044 -17.354  1.00  0.00    -0.014 C 
ATOM      7  C   UNL     1      19.841   2.380 -16.871  1.00  0.00     0.007 C 
ATOM      8  C   UNL     1      21.660   0.664 -16.793  1.00  0.00     0.007 C 
ENDBRANCH   3   6
ENDBRANCH   2   3
ENDBRANCH   1   2
BRANCH   1   9
ATOM      9  C   UNL     1      23.945   2.442 -21.593  1.00  0.00    -0.011 C 
ATOM     10  C   UNL     1      25.247   3.125 -21.119  1.00  0.00     0.008 C 
BRANCH   9  11
ATOM     11  C   UNL     1      23.792   2.229 -23.148  1.00  0.00    -0.002 C 
ATOM     12  C   UNL     1      24.729   1.147 -23.766  1.00  0.00     0.005 C 
ATOM     13  C   UNL     1      22.365   1.863 -23.694  1.00  0.00    -0.026 C 
ATOM     14  C   UNL     1      23.845   0.054 -24.386  1.00  0.00     0.005 C 
ATOM     15  C   UNL     1      22.459   0.340 -23.835  1.00  0.00    -0.001 C 
ATOM     16  C   UNL     1      21.142   2.166 -22.799  1.00  0.00     0.007 C 
ATOM     17  C   UNL     1      22.190   2.617 -25.049  1.00  0.00     0.012 C 
ATOM     18  C   UNL     1      21.230  -0.365 -24.460  1.00  0.00     0.000 C 
ATOM     19  C   UNL     1      19.840   1.555 -23.368  1.00  0.00     0.005 C 
ATOM     20  C   UNL     1      19.925   0.020 -23.681  1.00  0.00     0.003 C 
ATOM     21  C   UNL     1      21.122  -0.275 -26.010  1.00  0.00     0.031 C 
ATOM     22  C   UNL     1      18.645  -0.561 -24.403  1.00  0.00    -0.008 C 
ATOM     23  C   UNL     1      19.757   0.068 -26.550  1.00  0.00    -0.027 C 
ATOM     24  C   UNL     1      18.612  -0.078 -25.853  1.00  0.00    -0.065 C 
ATOM     25  C   UNL     1      17.336  -0.141 -23.649  1.00  0.00     0.014 C 
ATOM     26  C   UNL     1      18.712  -2.113 -24.412  1.00  0.00     0.016 C 
ATOM     27  C   UNL     1      17.307  -0.067 -26.629  1.00  0.00     0.063 C 
ATOM     28  C   UNL     1      16.054  -0.383 -24.453  1.00  0.00     0.033 C 
ATOM     29  C   UNL     1      16.116   0.391 -25.775  1.00  0.00     0.118 C 
BRANCH  29  30
ATOM     30  O   UNL     1      14.914   0.254 -26.489  1.00  0.00    -0.393 OA
ATOM     31  H   UNL     1      14.828  -0.698 -26.757  1.00  0.00     0.210 HD
ENDBRANCH  29  30
ENDBRANCH   9  11
ENDBRANCH   1   9
TORSDOF 7
ENDMDL
MODEL 3
REMARK VINA RESULT:    -6.247      1.650      3.367
REMARK INTER + INTRA:         -10.095
REMARK INTER:                  -8.445
REMARK INTRA:                  -1.649
REMARK UNBOUND:                -1.474
REMARK SMILES CC[C@H](CC[C@H](C)[C@H]1CC[C@@H]2[C@@H]3CC=C4C[C@@H](O)CC[C@]4(C)[C@@H]3CC[C@]21C)C(C)C
REMARK SMILES IDX 5 1 4 2 3 3 2 4 1 5 28 6 29 7 30 8 6 9 7 10 8 11 9 12 26 13
REMARK SMILES IDX 10 14 11 15 25 16 27 17 12 18 24 19 23 20 13 21 21 22 14 23
REMARK SMILES IDX 15 24 20 25 22 26 16 27 19 28 17 29 18 30
REMARK H PARENT 18 31
REMARK Flexibility Score: inf
ROOT
ATOM      1  C   UNL     1      22.296   2.970 -17.339  1.00  0.00     0.004 C 
ENDROOT
BRANCH   1   2
ATOM      2  C   UNL     1      21.732   2.990 -15.903  1.00  0.00     0.004 C 
BRANCH   2   3
ATOM      3  C   UNL     1      21.971   1.672 -15.104  1.00  0.00    -0.009 C 
BRANCH   3   4
ATOM      4  C   UNL     1      20.747   0.713 -15.177  1.00  0.00     0.000 C 
ATOM      5  C   UNL     1      19.471   1.282 -14.550  1.00  0.00     0.004 C 
ENDBRANCH   3   4
BRANCH   3   6
ATOM      6  C   UNL     1      23.298   0.932 -15.504  1.00  0.00    -0.014 C 
ATOM      7  C   UNL     1      24.447   1.205 -14.514  1.00  0.00     0.007 C 
ATOM      8  C   UNL     1      23.093  -0.592 -15.608  1.00  0.00     0.007 C 
ENDBRANCH   3   6
ENDBRANCH   2   3
ENDBRANCH   1   2
BRANCH   1   9
ATOM      9  C   UNL     1      21.244   2.737 -18.459  1.00  0.00    -0.011 C 
ATOM     10  C   UNL     1      19.805   2.820 -17.903  1.00  0.00     0.008 C 
BRANCH   9  11
ATOM     11  C   UNL     1      21.573   1.489 -19.365  1.00  0.00    -0.002 C 
ATOM     12  C   UNL     1      21.263   0.103 -18.725  1.00  0.00     0.005 C 
ATOM     13  C   UNL     1      20.898   1.421 -20.782  1.00  0.00    -0.026 C 
ATOM     14  C   UNL     1      20.219  -0.602 -19.604  1.00  0.00     0.005 C 
ATOM     15  C   UNL     1      19.706   0.493 -20.522  1.00  0.00    -0.001 C 
ATOM     16  C   UNL     1      20.338   2.729 -21.386  1.00  0.00     0.007 C 
ATOM     17  C   UNL     1      21.959   0.834 -21.763  1.00  0.00     0.012 C 
ATOM     18  C   UNL     1      18.854   0.116 -21.758  1.00  0.00     0.000 C 
ATOM     19  C   UNL     1      19.514   2.470 -22.669  1.00  0.00     0.005 C 
ATOM     20  C   UNL     1      18.372   1.407 -22.505  1.00  0.00     0.003 C 
ATOM     21  C   UNL     1      19.454  -0.990 -22.674  1.00  0.00     0.031 C 
ATOM     22  C   UNL     1      17.639   1.038 -23.856  1.00  0.00    -0.008 C 
ATOM     23  C   UNL     1      19.397  -0.712 -24.154  1.00  0.00    -0.027 C 
ATOM     24  C   UNL     1      18.563   0.183 -24.722  1.00  0.00    -0.065 C 
ATOM     25  C   UNL     1      17.195   2.329 -24.625  1.00  0.00     0.014 C 
ATOM     26  C   UNL     1      16.364   0.207 -23.544  1.00  0.00     0.016 C 
ATOM     27  C   UNL     1      18.337   0.086 -26.221  1.00  0.00     0.063 C 
ATOM     28  C   UNL     1      16.775   2.071 -26.076  1.00  0.00     0.033 C 
ATOM     29  C   UNL     1      17.936   1.429 -26.846  1.00  0.00     0.118 C 
BRANCH  29  30
ATOM     30  O   UNL     1      17.604   1.265 -28.201  1.00  0.00    -0.393 OA
ATOM     31  H   UNL     1      17.791   0.321 -28.446  1.00  0.00     0.210 HD
ENDBRANCH  29  30
ENDBRANCH   9  11
ENDBRANCH   1   9
TORSDOF 7
ENDMDL
MODEL 4
REMARK VINA RESULT:    -5.969     13.704     15.941
REMARK INTER + INTRA:          -9.711
REMARK INTER:                  -8.057
REMARK INTRA:                  -1.653
REMARK UNBOUND:                -1.474
REMARK SMILES CC[C@H](CC[C@H](C)[C@H]1CC[C@@H]2[C@@H]3CC=C4C[C@@H](O)CC[C@]4(C)[C@@H]3CC[C@]21C)C(C)C
REMARK SMILES IDX 5 1 4 2 3 3 2 4 1 5 28 6 29 7 30 8 6 9 7 10 8 11 9 12 26 13
REMARK SMILES IDX 10 14 11 15 25 16 27 17 12 18 24 19 23 20 13 21 21 22 14 23
REMARK SMILES IDX 15 24 20 25 22 26 16 27 19 28 17 29 18 30
REMARK H PARENT 18 31
REMARK Flexibility Score: inf
ROOT
ATOM      1  C   UNL     1      25.116 -15.131 -26.838  1.00  0.00     0.004 C 
ENDROOT
BRANCH   1   2
ATOM      2  C   UNL     1      25.764 -14.558 -25.560  1.00  0.00     0.004 C 
BRANCH   2   3
ATOM      3  C   UNL     1      26.571 -13.243 -25.786  1.00  0.00    -0.009 C 
BRANCH   3   4
ATOM      4  C   UNL     1      26.371 -12.673 -27.220  1.00  0.00     0.000 C 
ATOM      5  C   UNL     1      27.545 -12.940 -28.167  1.00  0.00     0.004 C 
ENDBRANCH   3   4
BRANCH   3   6
ATOM      6  C   UNL     1      26.295 -12.147 -24.695  1.00  0.00    -0.014 C 
ATOM      7  C   UNL     1      26.111 -10.743 -25.303  1.00  0.00     0.007 C 
ATOM      8  C   UNL     1      25.050 -12.481 -23.851  1.00  0.00     0.007 C 
ENDBRANCH   3   6
ENDBRANCH   2   3
ENDBRANCH   1   2
BRANCH   1   9
ATOM      9  C   UNL     1      23.562 -15.171 -26.829  1.00  0.00    -0.011 C 
ATOM     10  C   UNL     1      23.012 -15.885 -28.084  1.00  0.00     0.008 C 
BRANCH   9  11
ATOM     11  C   UNL     1      22.911 -13.780 -26.472  1.00  0.00    -0.002 C 
ATOM     12  C   UNL     1      22.881 -12.743 -27.635  1.00  0.00     0.005 C 
ATOM     13  C   UNL     1      21.440 -13.786 -25.921  1.00  0.00    -0.026 C 
ATOM     14  C   UNL     1      21.412 -12.398 -27.925  1.00  0.00     0.005 C 
ATOM     15  C   UNL     1      20.627 -13.463 -27.179  1.00  0.00    -0.001 C 
ATOM     16  C   UNL     1      20.883 -15.107 -25.342  1.00  0.00     0.007 C 
ATOM     17  C   UNL     1      21.364 -12.687 -24.816  1.00  0.00     0.012 C 
ATOM     18  C   UNL     1      19.102 -13.286 -26.979  1.00  0.00     0.000 C 
ATOM     19  C   UNL     1      19.368 -15.019 -25.046  1.00  0.00     0.005 C 
ATOM     20  C   UNL     1      18.495 -14.540 -26.260  1.00  0.00     0.003 C 
ATOM     21  C   UNL     1      18.657 -11.914 -26.398  1.00  0.00     0.031 C 
ATOM     22  C   UNL     1      16.974 -14.306 -25.904  1.00  0.00    -0.008 C 
ATOM     23  C   UNL     1      17.632 -11.975 -25.294  1.00  0.00    -0.027 C 
ATOM     24  C   UNL     1      16.834 -13.037 -25.064  1.00  0.00    -0.065 C 
ATOM     25  C   UNL     1      16.378 -15.542 -25.146  1.00  0.00     0.014 C 
ATOM     26  C   UNL     1      16.159 -14.113 -27.213  1.00  0.00     0.016 C 
ATOM     27  C   UNL     1      15.607 -12.825 -24.194  1.00  0.00     0.063 C 
ATOM     28  C   UNL     1      15.021 -15.268 -24.487  1.00  0.00     0.033 C 
ATOM     29  C   UNL     1      15.152 -14.111 -23.490  1.00  0.00     0.118 C 
BRANCH  29  30
ATOM     30  O   UNL     1      13.941 -13.901 -22.810  1.00  0.00    -0.393 OA
ATOM     31  H   UNL     1      13.268 -13.599 -23.475  1.00  0.00     0.210 HD
ENDBRANCH  29  30
ENDBRANCH   9  11
ENDBRANCH   1   9
TORSDOF 7
ENDMDL
MODEL 5
REMARK VINA RESULT:    -5.818      3.216      8.701
REMARK INTER + INTRA:          -9.503
REMARK INTER:                  -7.838
REMARK INTRA:                  -1.665
REMARK UNBOUND:                -1.474
REMARK SMILES CC[C@H](CC[C@H](C)[C@H]1CC[C@@H]2[C@@H]3CC=C4C[C@@H](O)CC[C@]4(C)[C@@H]3CC[C@]21C)C(C)C
REMARK SMILES IDX 5 1 4 2 3 3 2 4 1 5 28 6 29 7 30 8 6 9 7 10 8 11 9 12 26 13
REMARK SMILES IDX 10 14 11 15 25 16 27 17 12 18 24 19 23 20 13 21 21 22 14 23
REMARK SMILES IDX 15 24 20 25 22 26 16 27 19 28 17 29 18 30
REMARK H PARENT 18 31
REMARK Flexibility Score: inf
ROOT
ATOM      1  C   UNL     1      18.408   0.600 -24.998  1.00  0.00     0.004 C 
ENDROOT
BRANCH   1   2
ATOM      2  C   UNL     1      18.193  -0.750 -25.716  1.00  0.00     0.004 C 
BRANCH   2   3
ATOM      3  C   UNL     1      19.512  -1.476 -26.119  1.00  0.00    -0.009 C 
BRANCH   3   4
ATOM      4  C   UNL     1      20.734  -0.513 -26.123  1.00  0.00     0.000 C 
ATOM      5  C   UNL     1      21.818  -0.877 -25.104  1.00  0.00     0.004 C 
ENDBRANCH   3   4
BRANCH   3   6
ATOM      6  C   UNL     1      19.804  -2.761 -25.262  1.00  0.00    -0.014 C 
ATOM      7  C   UNL     1      18.689  -3.054 -24.239  1.00  0.00     0.007 C 
ATOM      8  C   UNL     1      19.995  -4.007 -26.148  1.00  0.00     0.007 C 
ENDBRANCH   3   6
ENDBRANCH   2   3
ENDBRANCH   1   2
BRANCH   1   9
ATOM      9  C   UNL     1      18.508   0.515 -23.449  1.00  0.00    -0.011 C 
ATOM     10  C   UNL     1      17.194   0.972 -22.776  1.00  0.00     0.008 C 
BRANCH   9  11
ATOM     11  C   UNL     1      19.839   1.141 -22.882  1.00  0.00    -0.002 C 
ATOM     12  C   UNL     1      19.875   2.698 -22.836  1.00  0.00     0.005 C 
ATOM     13  C   UNL     1      20.294   0.701 -21.444  1.00  0.00    -0.026 C 
ATOM     14  C   UNL     1      20.051   3.125 -21.371  1.00  0.00     0.005 C 
ATOM     15  C   UNL     1      19.780   1.857 -20.580  1.00  0.00    -0.001 C 
ATOM     16  C   UNL     1      19.706  -0.604 -20.861  1.00  0.00     0.007 C 
ATOM     17  C   UNL     1      21.849   0.575 -21.478  1.00  0.00     0.012 C 
ATOM     18  C   UNL     1      20.150   1.802 -19.077  1.00  0.00     0.000 C 
ATOM     19  C   UNL     1      20.070  -0.789 -19.369  1.00  0.00     0.005 C 
ATOM     20  C   UNL     1      19.707   0.433 -18.455  1.00  0.00     0.003 C 
ATOM     21  C   UNL     1      21.599   2.247 -18.726  1.00  0.00     0.031 C 
ATOM     22  C   UNL     1      20.220   0.297 -16.966  1.00  0.00    -0.008 C 
ATOM     23  C   UNL     1      22.339   1.357 -17.761  1.00  0.00    -0.027 C 
ATOM     24  C   UNL     1      21.737   0.482 -16.929  1.00  0.00    -0.065 C 
ATOM     25  C   UNL     1      19.816  -1.089 -16.357  1.00  0.00     0.014 C 
ATOM     26  C   UNL     1      19.577   1.408 -16.091  1.00  0.00     0.016 C 
ATOM     27  C   UNL     1      22.547  -0.055 -15.763  1.00  0.00     0.063 C 
ATOM     28  C   UNL     1      20.544  -1.427 -15.052  1.00  0.00     0.033 C 
ATOM     29  C   UNL     1      22.059  -1.431 -15.288  1.00  0.00     0.118 C 
BRANCH  29  30
ATOM     30  O   UNL     1      22.743  -1.826 -14.127  1.00  0.00    -0.393 OA
ATOM     31  H   UNL     1      23.054  -1.004 -13.664  1.00  0.00     0.210 HD
ENDBRANCH  29  30
ENDBRANCH   9  11
ENDBRANCH   1   9
TORSDOF 7
ENDMDL
MODEL 6
REMARK VINA RESULT:    -5.791      3.190      8.763
REMARK INTER + INTRA:          -9.465
REMARK INTER:                  -7.317
REMARK INTRA:                  -2.148
REMARK UNBOUND:                -1.474
REMARK SMILES CC[C@H](CC[C@H](C)[C@H]1CC[C@@H]2[C@@H]3CC=C4C[C@@H](O)CC[C@]4(C)[C@@H]3CC[C@]21C)C(C)C
REMARK SMILES IDX 5 1 4 2 3 3 2 4 1 5 28 6 29 7 30 8 6 9 7 10 8 11 9 12 26 13
REMARK SMILES IDX 10 14 11 15 25 16 27 17 12 18 24 19 23 20 13 21 21 22 14 23
REMARK SMILES IDX 15 24 20 25 22 26 16 27 19 28 17 29 18 30
REMARK H PARENT 18 31
REMARK Flexibility Score: inf
ROOT
ATOM      1  C   UNL     1      18.487  -1.481 -24.330  1.00  0.00     0.004 C 
ENDROOT
BRANCH   1   2
ATOM      2  C   UNL     1      19.983  -1.517 -24.707  1.00  0.00     0.004 C 
BRANCH   2   3
ATOM      3  C   UNL     1      20.315  -0.840 -26.072  1.00  0.00    -0.009 C 
BRANCH   3   4
ATOM      4  C   UNL     1      19.095  -0.071 -26.656  1.00  0.00     0.000 C 
ATOM      5  C   UNL     1      18.605  -0.610 -28.003  1.00  0.00     0.004 C 
ENDBRANCH   3   4
BRANCH   3   6
ATOM      6  C   UNL     1      21.591   0.075 -26.020  1.00  0.00    -0.014 C 
ATOM      7  C   UNL     1      21.250   1.547 -25.720  1.00  0.00     0.007 C 
ATOM      8  C   UNL     1      22.604  -0.416 -24.968  1.00  0.00     0.007 C 
ENDBRANCH   3   6
ENDBRANCH   2   3
ENDBRANCH   1   2
BRANCH   1   9
ATOM      9  C   UNL     1      18.129  -0.546 -23.140  1.00  0.00    -0.011 C 
ATOM     10  C   UNL     1      16.754   0.125 -23.349  1.00  0.00     0.008 C 
BRANCH   9  11
ATOM     11  C   UNL     1      19.317   0.404 -22.724  1.00  0.00    -0.002 C 
ATOM     12  C   UNL     1      18.990   1.928 -22.752  1.00  0.00     0.005 C 
ATOM     13  C   UNL     1      19.971   0.174 -21.314  1.00  0.00    -0.026 C 
ATOM     14  C   UNL     1      19.173   2.478 -21.329  1.00  0.00     0.005 C 
ATOM     15  C   UNL     1      19.268   1.236 -20.460  1.00  0.00    -0.001 C 
ATOM     16  C   UNL     1      19.751  -1.190 -20.622  1.00  0.00     0.007 C 
ATOM     17  C   UNL     1      21.504   0.407 -21.482  1.00  0.00     0.012 C 
ATOM     18  C   UNL     1      19.755   1.365 -18.996  1.00  0.00     0.000 C 
ATOM     19  C   UNL     1      20.261  -1.189 -19.162  1.00  0.00     0.005 C 
ATOM     20  C   UNL     1      19.694  -0.026 -18.275  1.00  0.00     0.003 C 
ATOM     21  C   UNL     1      21.082   2.152 -18.797  1.00  0.00     0.031 C 
ATOM     22  C   UNL     1      20.337   0.056 -16.834  1.00  0.00    -0.008 C 
ATOM     23  C   UNL     1      22.081   1.520 -17.863  1.00  0.00    -0.027 C 
ATOM     24  C   UNL     1      21.767   0.586 -16.942  1.00  0.00    -0.065 C 
ATOM     25  C   UNL     1      20.316  -1.344 -16.129  1.00  0.00     0.014 C 
ATOM     26  C   UNL     1      19.520   1.044 -15.956  1.00  0.00     0.016 C 
ATOM     27  C   UNL     1      22.767   0.326 -15.830  1.00  0.00     0.063 C 
ATOM     28  C   UNL     1      21.202  -1.420 -14.880  1.00  0.00     0.033 C 
ATOM     29  C   UNL     1      22.653  -1.092 -15.252  1.00  0.00     0.118 C 
BRANCH  29  30
ATOM     30  O   UNL     1      23.498  -1.242 -14.139  1.00  0.00    -0.393 OA
ATOM     31  H   UNL     1      23.203  -2.050 -13.643  1.00  0.00     0.210 HD
ENDBRANCH  29  30
ENDBRANCH   9  11
ENDBRANCH   1   9
TORSDOF 7
ENDMDL
MODEL 7
REMARK VINA RESULT:    -5.727      1.237      2.144
REMARK INTER + INTRA:          -9.377
REMARK INTER:                  -9.053
REMARK INTRA:                  -0.324
REMARK UNBOUND:                -1.474
REMARK SMILES CC[C@H](CC[C@H](C)[C@H]1CC[C@@H]2[C@@H]3CC=C4C[C@@H](O)CC[C@]4(C)[C@@H]3CC[C@]21C)C(C)C
REMARK SMILES IDX 5 1 4 2 3 3 2 4 1 5 28 6 29 7 30 8 6 9 7 10 8 11 9 12 26 13
REMARK SMILES IDX 10 14 11 15 25 16 27 17 12 18 24 19 23 20 13 21 21 22 14 23
REMARK SMILES IDX 15 24 20 25 22 26 16 27 19 28 17 29 18 30
REMARK H PARENT 18 31
REMARK Flexibility Score: inf
ROOT
ATOM      1  C   UNL     1      21.519   1.258 -17.632  1.00  0.00     0.004 C 
ENDROOT
BRANCH   1   2
ATOM      2  C   UNL     1      21.089   1.508 -16.171  1.00  0.00     0.004 C 
BRANCH   2   3
ATOM      3  C   UNL     1      20.556   0.241 -15.435  1.00  0.00    -0.009 C 
BRANCH   3   4
ATOM      4  C   UNL     1      19.003   0.149 -15.479  1.00  0.00     0.000 C 
ATOM      5  C   UNL     1      18.295   1.504 -15.397  1.00  0.00     0.004 C 
ENDBRANCH   3   4
BRANCH   3   6
ATOM      6  C   UNL     1      21.219  -1.094 -15.932  1.00  0.00    -0.014 C 
ATOM      7  C   UNL     1      22.113  -1.744 -14.858  1.00  0.00     0.007 C 
ATOM      8  C   UNL     1      20.163  -2.124 -16.378  1.00  0.00     0.007 C 
ENDBRANCH   3   6
ENDBRANCH   2   3
ENDBRANCH   1   2
BRANCH   1   9
ATOM      9  C   UNL     1      20.397   1.448 -18.692  1.00  0.00    -0.011 C 
ATOM     10  C   UNL     1      19.749   0.098 -19.071  1.00  0.00     0.008 C 
BRANCH   9  11
ATOM     11  C   UNL     1      20.832   2.377 -19.889  1.00  0.00    -0.002 C 
ATOM     12  C   UNL     1      22.345   2.753 -19.923  1.00  0.00     0.005 C 
ATOM     13  C   UNL     1      20.526   1.875 -21.346  1.00  0.00    -0.026 C 
ATOM     14  C   UNL     1      22.937   2.218 -21.235  1.00  0.00     0.005 C 
ATOM     15  C   UNL     1      21.872   1.273 -21.766  1.00  0.00    -0.001 C 
ATOM     16  C   UNL     1      19.456   0.774 -21.529  1.00  0.00     0.007 C 
ATOM     17  C   UNL     1      20.102   3.125 -22.178  1.00  0.00     0.012 C 
ATOM     18  C   UNL     1      21.965   0.760 -23.223  1.00  0.00     0.000 C 
ATOM     19  C   UNL     1      19.422   0.230 -22.976  1.00  0.00     0.005 C 
ATOM     20  C   UNL     1      20.811  -0.258 -23.519  1.00  0.00     0.003 C 
ATOM     21  C   UNL     1      22.171   1.856 -24.308  1.00  0.00     0.031 C 
ATOM     22  C   UNL     1      20.796  -0.667 -25.046  1.00  0.00    -0.008 C 
ATOM     23  C   UNL     1      21.305   1.730 -25.535  1.00  0.00    -0.027 C 
ATOM     24  C   UNL     1      20.691   0.589 -25.910  1.00  0.00    -0.065 C 
ATOM     25  C   UNL     1      19.615  -1.652 -25.352  1.00  0.00     0.014 C 
ATOM     26  C   UNL     1      22.123  -1.390 -25.403  1.00  0.00     0.016 C 
ATOM     27  C   UNL     1      20.183   0.497 -27.339  1.00  0.00     0.063 C 
ATOM     28  C   UNL     1      19.336  -1.836 -26.848  1.00  0.00     0.033 C 
ATOM     29  C   UNL     1      19.009  -0.481 -27.486  1.00  0.00     0.118 C 
BRANCH  29  30
ATOM     30  O   UNL     1      18.663  -0.639 -28.839  1.00  0.00    -0.393 OA
ATOM     31  H   UNL     1      17.857  -1.217 -28.879  1.00  0.00     0.210 HD
ENDBRANCH  29  30
ENDBRANCH   9  11
ENDBRANCH   1   9
TORSDOF 7
ENDMDL
MODEL 8
REMARK VINA RESULT:    -5.694      3.158      7.910
REMARK INTER + INTRA:          -9.332
REMARK INTER:                  -8.033
REMARK INTRA:                  -1.299
REMARK UNBOUND:                -1.474
REMARK SMILES CC[C@H](CC[C@H](C)[C@H]1CC[C@@H]2[C@@H]3CC=C4C[C@@H](O)CC[C@]4(C)[C@@H]3CC[C@]21C)C(C)C
REMARK SMILES IDX 5 1 4 2 3 3 2 4 1 5 28 6 29 7 30 8 6 9 7 10 8 11 9 12 26 13
REMARK SMILES IDX 10 14 11 15 25 16 27 17 12 18 24 19 23 20 13 21 21 22 14 23
REMARK SMILES IDX 15 24 20 25 22 26 16 27 19 28 17 29 18 30
REMARK H PARENT 18 31
REMARK Flexibility Score: inf
ROOT
ATOM      1  C   UNL     1      18.579  -0.781 -26.649  1.00  0.00     0.004 C 
ENDROOT
BRANCH   1   2
ATOM      2  C   UNL     1      17.489   0.282 -26.901  1.00  0.00     0.004 C 
BRANCH   2   3
ATOM      3  C   UNL     1      16.502   0.482 -25.711  1.00  0.00    -0.009 C 
BRANCH   3   4
ATOM      4  C   UNL     1      16.772  -0.521 -24.552  1.00  0.00     0.000 C 
ATOM      5  C   UNL     1      16.649   0.093 -23.155  1.00  0.00     0.004 C 
ENDBRANCH   3   4
BRANCH   3   6
ATOM      6  C   UNL     1      16.453   1.960 -25.183  1.00  0.00    -0.014 C 
ATOM      7  C   UNL     1      17.734   2.749 -25.517  1.00  0.00     0.007 C 
ATOM      8  C   UNL     1      15.243   2.730 -25.749  1.00  0.00     0.007 C 
ENDBRANCH   3   6
ENDBRANCH   2   3
ENDBRANCH   1   2
BRANCH   1   9
ATOM      9  C   UNL     1      19.737  -0.798 -27.685  1.00  0.00    -0.011 C 
ATOM     10  C   UNL     1      19.765  -2.127 -28.473  1.00  0.00     0.008 C 
BRANCH   9  11
ATOM     11  C   UNL     1      21.110  -0.312 -27.082  1.00  0.00    -0.002 C 
ATOM     12  C   UNL     1      21.649   1.033 -27.657  1.00  0.00     0.005 C 
ATOM     13  C   UNL     1      21.196  -0.129 -25.524  1.00  0.00    -0.026 C 
ATOM     14  C   UNL     1      21.755   2.035 -26.498  1.00  0.00     0.005 C 
ATOM     15  C   UNL     1      20.979   1.381 -25.369  1.00  0.00    -0.001 C 
ATOM     16  C   UNL     1      20.138  -0.837 -24.648  1.00  0.00     0.007 C 
ATOM     17  C   UNL     1      22.612  -0.615 -25.087  1.00  0.00     0.012 C 
ATOM     18  C   UNL     1      21.102   1.943 -23.932  1.00  0.00     0.000 C 
ATOM     19  C   UNL     1      20.215  -0.389 -23.169  1.00  0.00     0.005 C 
ATOM     20  C   UNL     1      20.154   1.164 -22.956  1.00  0.00     0.003 C 
ATOM     21  C   UNL     1      22.555   2.147 -23.414  1.00  0.00     0.031 C 
ATOM     22  C   UNL     1      20.387   1.617 -21.460  1.00  0.00    -0.008 C 
ATOM     23  C   UNL     1      22.823   1.660 -22.013  1.00  0.00    -0.027 C 
ATOM     24  C   UNL     1      21.861   1.438 -21.095  1.00  0.00    -0.065 C 
ATOM     25  C   UNL     1      19.470   0.808 -20.479  1.00  0.00     0.014 C 
ATOM     26  C   UNL     1      20.032   3.122 -21.312  1.00  0.00     0.016 C 
ATOM     27  C   UNL     1      22.283   1.329 -19.641  1.00  0.00     0.063 C 
ATOM     28  C   UNL     1      19.863   0.953 -19.005  1.00  0.00     0.033 C 
ATOM     29  C   UNL     1      21.310   0.486 -18.804  1.00  0.00     0.118 C 
BRANCH  29  30
ATOM     30  O   UNL     1      21.662   0.527 -17.445  1.00  0.00    -0.393 OA
ATOM     31  H   UNL     1      22.308   1.272 -17.322  1.00  0.00     0.210 HD
ENDBRANCH  29  30
ENDBRANCH   9  11
ENDBRANCH   1   9
TORSDOF 7
ENDMDL
MODEL 9
REMARK VINA RESULT:    -5.620     13.573     16.091
REMARK INTER + INTRA:          -9.230
REMARK INTER:                  -7.712
REMARK INTRA:                  -1.518
REMARK UNBOUND:                -1.474
REMARK SMILES CC[C@H](CC[C@H](C)[C@H]1CC[C@@H]2[C@@H]3CC=C4C[C@@H](O)CC[C@]4(C)[C@@H]3CC[C@]21C)C(C)C
REMARK SMILES IDX 5 1 4 2 3 3 2 4 1 5 28 6 29 7 30 8 6 9 7 10 8 11 9 12 26 13
REMARK SMILES IDX 10 14 11 15 25 16 27 17 12 18 24 19 23 20 13 21 21 22 14 23
REMARK SMILES IDX 15 24 20 25 22 26 16 27 19 28 17 29 18 30
REMARK H PARENT 18 31
REMARK Flexibility Score: inf
ROOT
ATOM      1  C   UNL     1      23.609 -14.551 -26.165  1.00  0.00     0.004 C 
ENDROOT
BRANCH   1   2
ATOM      2  C   UNL     1      23.827 -13.062 -26.508  1.00  0.00     0.004 C 
BRANCH   2   3
ATOM      3  C   UNL     1      24.333 -12.198 -25.314  1.00  0.00    -0.009 C 
BRANCH   3   4
ATOM      4  C   UNL     1      23.782 -12.704 -23.950  1.00  0.00     0.000 C 
ATOM      5  C   UNL     1      22.390 -12.169 -23.603  1.00  0.00     0.004 C 
ENDBRANCH   3   4
BRANCH   3   6
ATOM      6  C   UNL     1      25.896 -12.044 -25.274  1.00  0.00    -0.014 C 
ATOM      7  C   UNL     1      26.576 -12.584 -26.548  1.00  0.00     0.007 C 
ATOM      8  C   UNL     1      26.322 -10.576 -25.077  1.00  0.00     0.007 C 
ENDBRANCH   3   6
ENDBRANCH   2   3
ENDBRANCH   1   2
BRANCH   1   9
ATOM      9  C   UNL     1      22.125 -15.011 -26.130  1.00  0.00    -0.011 C 
ATOM     10  C   UNL     1      21.947 -16.384 -26.816  1.00  0.00     0.008 C 
BRANCH   9  11
ATOM     11  C   UNL     1      21.118 -13.876 -26.562  1.00  0.00    -0.002 C 
ATOM     12  C   UNL     1      20.790 -13.823 -28.084  1.00  0.00     0.005 C 
ATOM     13  C   UNL     1      19.712 -13.848 -25.861  1.00  0.00    -0.026 C 
ATOM     14  C   UNL     1      19.281 -14.052 -28.252  1.00  0.00     0.005 C 
ATOM     15  C   UNL     1      18.828 -14.558 -26.893  1.00  0.00    -0.001 C 
ATOM     16  C   UNL     1      19.549 -14.602 -24.522  1.00  0.00     0.007 C 
ATOM     17  C   UNL     1      19.347 -12.348 -25.636  1.00  0.00     0.012 C 
ATOM     18  C   UNL     1      17.316 -14.622 -26.567  1.00  0.00     0.000 C 
ATOM     19  C   UNL     1      18.071 -14.672 -24.070  1.00  0.00     0.005 C 
ATOM     20  C   UNL     1      17.088 -15.249 -25.148  1.00  0.00     0.003 C 
ATOM     21  C   UNL     1      16.514 -13.318 -26.848  1.00  0.00     0.031 C 
ATOM     22  C   UNL     1      15.565 -15.172 -24.735  1.00  0.00    -0.008 C 
ATOM     23  C   UNL     1      15.558 -12.894 -25.763  1.00  0.00    -0.027 C 
ATOM     24  C   UNL     1      15.088 -13.722 -24.807  1.00  0.00    -0.065 C 
ATOM     25  C   UNL     1      15.342 -15.759 -23.299  1.00  0.00     0.014 C 
ATOM     26  C   UNL     1      14.714 -16.010 -25.729  1.00  0.00     0.016 C 
ATOM     27  C   UNL     1      13.860 -13.279 -24.031  1.00  0.00     0.063 C 
ATOM     28  C   UNL     1      13.970 -15.429 -22.702  1.00  0.00     0.033 C 
ATOM     29  C   UNL     1      13.785 -13.908 -22.633  1.00  0.00     0.118 C 
BRANCH  29  30
ATOM     30  O   UNL     1      12.571 -13.582 -22.007  1.00  0.00    -0.393 OA
ATOM     31  H   UNL     1      11.897 -14.257 -22.283  1.00  0.00     0.210 HD
ENDBRANCH  29  30
ENDBRANCH   9  11
ENDBRANCH   1   9
TORSDOF 7
ENDMDL
