MODEL 1
REMARK VINA RESULT:    -4.659      0.000      0.000
REMARK INTER + INTRA:          -5.234
REMARK INTER:                  -5.204
REMARK INTRA:                  -0.030
REMARK UNBOUND:                -0.030
REMARK SMILES O=C([O-])c1ccccc1C(=O)[O-]
REMARK SMILES IDX 4 1 9 2 5 3 8 4 6 5 7 6 2 7 1 8 3 9 10 10 11 11 12 12
REMARK H PARENT
REMARK Flexibility Score: inf
ROOT
ATOM      1  C   UNL     1      -5.876 -23.248  47.607  1.00  0.00     0.006 A 
ATOM      2  C   UNL     1      -6.702 -24.385  47.827  1.00  0.00     0.006 A 
ATOM      3  C   UNL     1      -6.477 -22.022  47.266  1.00  0.00     0.010 A 
ATOM      4  C   UNL     1      -8.101 -24.239  47.758  1.00  0.00     0.010 A 
ATOM      5  C   UNL     1      -7.864 -21.905  47.181  1.00  0.00     0.001 A 
ATOM      6  C   UNL     1      -8.674 -23.008  47.438  1.00  0.00     0.001 A 
ENDROOT
BRANCH   1   7
ATOM      7  C   UNL     1      -4.408 -23.280  47.797  1.00  0.00     0.072 C 
ATOM      8  O   UNL     1      -3.641 -22.900  46.873  1.00  0.00    -0.545 OA
ATOM      9  O   UNL     1      -3.859 -23.664  49.015  1.00  0.00    -0.545 OA
ENDBRANCH   1   7
BRANCH   2  10
ATOM     10  C   UNL     1      -6.150 -25.740  48.052  1.00  0.00     0.072 C 
ATOM     11  O   UNL     1      -6.409 -26.361  49.118  1.00  0.00    -0.545 OA
ATOM     12  O   UNL     1      -5.398 -26.372  47.070  1.00  0.00    -0.545 OA
ENDBRANCH   2  10
TORSDOF 2
ENDMDL
MODEL 2
REMARK VINA RESULT:    -4.627      0.074      3.135
REMARK INTER + INTRA:          -5.198
REMARK INTER:                  -5.236
REMARK INTRA:                   0.038
REMARK UNBOUND:                -0.030
REMARK SMILES O=C([O-])c1ccccc1C(=O)[O-]
REMARK SMILES IDX 4 1 9 2 5 3 8 4 6 5 7 6 2 7 1 8 3 9 10 10 11 11 12 12
REMARK H PARENT
REMARK Flexibility Score: inf
ROOT
ATOM      1  C   UNL     1      -6.716 -24.354  47.859  1.00  0.00     0.006 A 
ATOM      2  C   UNL     1      -5.888 -23.224  47.616  1.00  0.00     0.006 A 
ATOM      3  C   UNL     1      -8.114 -24.207  47.787  1.00  0.00     0.010 A 
ATOM      4  C   UNL     1      -6.486 -22.003  47.249  1.00  0.00     0.010 A 
ATOM      5  C   UNL     1      -8.687 -22.982  47.443  1.00  0.00     0.001 A 
ATOM      6  C   UNL     1      -7.874 -21.886  47.163  1.00  0.00     0.001 A 
ENDROOT
BRANCH   1   7
ATOM      7  C   UNL     1      -6.167 -25.706  48.112  1.00  0.00     0.072 C 
ATOM      8  O   UNL     1      -6.532 -26.359  49.125  1.00  0.00    -0.545 OA
ATOM      9  O   UNL     1      -5.295 -26.298  47.205  1.00  0.00    -0.545 OA
ENDBRANCH   1   7
BRANCH   2  10
ATOM     10  C   UNL     1      -4.420 -23.254  47.807  1.00  0.00     0.072 C 
ATOM     11  O   UNL     1      -3.652 -22.881  46.880  1.00  0.00    -0.545 OA
ATOM     12  O   UNL     1      -3.871 -23.629  49.027  1.00  0.00    -0.545 OA
ENDBRANCH   2  10
TORSDOF 2
ENDMDL
MODEL 3
REMARK VINA RESULT:    -4.528      9.984     11.984
REMARK INTER + INTRA:          -5.087
REMARK INTER:                  -4.891
REMARK INTRA:                  -0.196
REMARK UNBOUND:                -0.030
REMARK SMILES O=C([O-])c1ccccc1C(=O)[O-]
REMARK SMILES IDX 4 1 9 2 5 3 8 4 6 5 7 6 2 7 1 8 3 9 10 10 11 11 12 12
REMARK H PARENT
REMARK Flexibility Score: inf
ROOT
ATOM      1  C   UNL     1       5.518 -20.550  47.016  1.00  0.00     0.006 A 
ATOM      2  C   UNL     1       4.373 -21.212  46.492  1.00  0.00     0.006 A 
ATOM      3  C   UNL     1       6.608 -21.320  47.465  1.00  0.00     0.010 A 
ATOM      4  C   UNL     1       4.386 -22.616  46.380  1.00  0.00     0.010 A 
ATOM      5  C   UNL     1       6.590 -22.711  47.365  1.00  0.00     0.001 A 
ATOM      6  C   UNL     1       5.486 -23.357  46.812  1.00  0.00     0.001 A 
ENDROOT
BRANCH   1   7
ATOM      7  C   UNL     1       5.645 -19.076  47.040  1.00  0.00     0.072 C 
ATOM      8  O   UNL     1       5.311 -18.427  48.067  1.00  0.00    -0.545 OA
ATOM      9  O   UNL     1       6.194 -18.394  45.960  1.00  0.00    -0.545 OA
ENDBRANCH   1   7
BRANCH   2  10
ATOM     10  C   UNL     1       3.132 -20.492  46.129  1.00  0.00     0.072 C 
ATOM     11  O   UNL     1       2.160 -20.460  46.931  1.00  0.00    -0.545 OA
ATOM     12  O   UNL     1       3.043 -19.790  44.933  1.00  0.00    -0.545 OA
ENDBRANCH   2  10
TORSDOF 2
ENDMDL
MODEL 4
REMARK VINA RESULT:    -4.524      9.999     12.265
REMARK INTER + INTRA:          -5.083
REMARK INTER:                  -4.889
REMARK INTRA:                  -0.194
REMARK UNBOUND:                -0.030
REMARK SMILES O=C([O-])c1ccccc1C(=O)[O-]
REMARK SMILES IDX 4 1 9 2 5 3 8 4 6 5 7 6 2 7 1 8 3 9 10 10 11 11 12 12
REMARK H PARENT
REMARK Flexibility Score: inf
ROOT
ATOM      1  C   UNL     1       4.372 -21.208  46.469  1.00  0.00     0.006 A 
ATOM      2  C   UNL     1       5.519 -20.552  46.994  1.00  0.00     0.006 A 
ATOM      3  C   UNL     1       4.374 -22.612  46.366  1.00  0.00     0.010 A 
ATOM      4  C   UNL     1       6.602 -21.328  47.453  1.00  0.00     0.010 A 
ATOM      5  C   UNL     1       5.466 -23.360  46.807  1.00  0.00     0.001 A 
ATOM      6  C   UNL     1       6.572 -22.719  47.360  1.00  0.00     0.001 A 
ENDROOT
BRANCH   1   7
ATOM      7  C   UNL     1       3.138 -20.481  46.095  1.00  0.00     0.072 C 
ATOM      8  O   UNL     1       2.160 -20.442  46.888  1.00  0.00    -0.545 OA
ATOM      9  O   UNL     1       3.064 -19.779  44.898  1.00  0.00    -0.545 OA
ENDBRANCH   1   7
BRANCH   2  10
ATOM     10  C   UNL     1       5.659 -19.078  47.009  1.00  0.00     0.072 C 
ATOM     11  O   UNL     1       5.328 -18.421  48.032  1.00  0.00    -0.545 OA
ATOM     12  O   UNL     1       6.214 -18.407  45.927  1.00  0.00    -0.545 OA
ENDBRANCH   2  10
TORSDOF 2
ENDMDL
MODEL 5
REMARK VINA RESULT:    -4.256      9.416     11.376
REMARK INTER + INTRA:          -4.784
REMARK INTER:                  -4.549
REMARK INTRA:                  -0.235
REMARK UNBOUND:                -0.030
REMARK SMILES O=C([O-])c1ccccc1C(=O)[O-]
REMARK SMILES IDX 4 1 9 2 5 3 8 4 6 5 7 6 2 7 1 8 3 9 10 10 11 11 12 12
REMARK H PARENT
REMARK Flexibility Score: inf
ROOT
ATOM      1  C   UNL     1      -6.047 -34.307  46.217  1.00  0.00     0.006 A 
ATOM      2  C   UNL     1      -5.299 -35.390  46.755  1.00  0.00     0.006 A 
ATOM      3  C   UNL     1      -6.083 -34.129  44.821  1.00  0.00     0.010 A 
ATOM      4  C   UNL     1      -4.667 -36.291  45.876  1.00  0.00     0.010 A 
ATOM      5  C   UNL     1      -5.431 -35.020  43.968  1.00  0.00     0.001 A 
ATOM      6  C   UNL     1      -4.735 -36.105  44.495  1.00  0.00     0.001 A 
ENDROOT
BRANCH   1   7
ATOM      7  C   UNL     1      -6.856 -33.398  47.059  1.00  0.00     0.072 C 
ATOM      8  O   UNL     1      -8.042 -33.700  47.360  1.00  0.00    -0.545 OA
ATOM      9  O   UNL     1      -6.302 -32.236  47.583  1.00  0.00    -0.545 OA
ENDBRANCH   1   7
BRANCH   2  10
ATOM     10  C   UNL     1      -5.092 -35.571  48.210  1.00  0.00     0.072 C 
ATOM     11  O   UNL     1      -4.130 -34.998  48.789  1.00  0.00    -0.545 OA
ATOM     12  O   UNL     1      -5.987 -36.316  48.967  1.00  0.00    -0.545 OA
ENDBRANCH   2  10
TORSDOF 2
ENDMDL
MODEL 6
REMARK VINA RESULT:    -4.213      9.682     11.017
REMARK INTER + INTRA:          -4.736
REMARK INTER:                  -4.526
REMARK INTRA:                  -0.210
REMARK UNBOUND:                -0.030
REMARK SMILES O=C([O-])c1ccccc1C(=O)[O-]
REMARK SMILES IDX 4 1 9 2 5 3 8 4 6 5 7 6 2 7 1 8 3 9 10 10 11 11 12 12
REMARK H PARENT
REMARK Flexibility Score: inf
ROOT
ATOM      1  C   UNL     1      -4.564 -34.176  46.827  1.00  0.00     0.006 A 
ATOM      2  C   UNL     1      -5.550 -34.830  46.039  1.00  0.00     0.006 A 
ATOM      3  C   UNL     1      -4.962 -33.163  47.719  1.00  0.00     0.010 A 
ATOM      4  C   UNL     1      -6.905 -34.488  46.216  1.00  0.00     0.010 A 
ATOM      5  C   UNL     1      -6.308 -32.825  47.863  1.00  0.00     0.001 A 
ATOM      6  C   UNL     1      -7.278 -33.495  47.122  1.00  0.00     0.001 A 
ENDROOT
BRANCH   1   7
ATOM      7  C   UNL     1      -3.137 -34.569  46.807  1.00  0.00     0.072 C 
ATOM      8  O   UNL     1      -2.724 -35.496  47.554  1.00  0.00    -0.545 OA
ATOM      9  O   UNL     1      -2.249 -33.970  45.922  1.00  0.00    -0.545 OA
ENDBRANCH   1   7
BRANCH   2  10
ATOM     10  C   UNL     1      -5.207 -35.805  44.979  1.00  0.00     0.072 C 
ATOM     11  O   UNL     1      -5.133 -35.434  43.776  1.00  0.00    -0.545 OA
ATOM     12  O   UNL     1      -4.900 -37.121  45.299  1.00  0.00    -0.545 OA
ENDBRANCH   2  10
TORSDOF 2
ENDMDL
MODEL 7
REMARK VINA RESULT:    -4.186     10.719     11.321
REMARK INTER + INTRA:          -4.706
REMARK INTER:                  -4.494
REMARK INTRA:                  -0.212
REMARK UNBOUND:                -0.030
REMARK SMILES O=C([O-])c1ccccc1C(=O)[O-]
REMARK SMILES IDX 4 1 9 2 5 3 8 4 6 5 7 6 2 7 1 8 3 9 10 10 11 11 12 12
REMARK H PARENT
REMARK Flexibility Score: inf
ROOT
ATOM      1  C   UNL     1      -4.295 -34.863  45.948  1.00  0.00     0.006 A 
ATOM      2  C   UNL     1      -4.923 -34.874  47.224  1.00  0.00     0.006 A 
ATOM      3  C   UNL     1      -5.087 -34.690  44.797  1.00  0.00     0.010 A 
ATOM      4  C   UNL     1      -6.311 -34.650  47.306  1.00  0.00     0.010 A 
ATOM      5  C   UNL     1      -6.464 -34.491  44.900  1.00  0.00     0.001 A 
ATOM      6  C   UNL     1      -7.072 -34.460  46.153  1.00  0.00     0.001 A 
ENDROOT
BRANCH   1   7
ATOM      7  C   UNL     1      -2.827 -34.951  45.780  1.00  0.00     0.072 C 
ATOM      8  O   UNL     1      -2.293 -36.034  45.424  1.00  0.00    -0.545 OA
ATOM      9  O   UNL     1      -2.026 -33.827  45.949  1.00  0.00    -0.545 OA
ENDBRANCH   1   7
BRANCH   2  10
ATOM     10  C   UNL     1      -4.190 -35.189  48.471  1.00  0.00     0.072 C 
ATOM     11  O   UNL     1      -4.182 -36.366  48.921  1.00  0.00    -0.545 OA
ATOM     12  O   UNL     1      -3.451 -34.212  49.125  1.00  0.00    -0.545 OA
ENDBRANCH   2  10
TORSDOF 2
ENDMDL
MODEL 8
REMARK VINA RESULT:    -4.180     10.724     11.468
REMARK INTER + INTRA:          -4.699
REMARK INTER:                  -4.481
REMARK INTRA:                  -0.218
REMARK UNBOUND:                -0.030
REMARK SMILES O=C([O-])c1ccccc1C(=O)[O-]
REMARK SMILES IDX 4 1 9 2 5 3 8 4 6 5 7 6 2 7 1 8 3 9 10 10 11 11 12 12
REMARK H PARENT
REMARK Flexibility Score: inf
ROOT
ATOM      1  C   UNL     1      -4.933 -34.866  47.225  1.00  0.00     0.006 A 
ATOM      2  C   UNL     1      -4.302 -34.893  45.951  1.00  0.00     0.006 A 
ATOM      3  C   UNL     1      -6.321 -34.643  47.296  1.00  0.00     0.010 A 
ATOM      4  C   UNL     1      -5.091 -34.759  44.793  1.00  0.00     0.010 A 
ATOM      5  C   UNL     1      -7.081 -34.491  46.137  1.00  0.00     0.001 A 
ATOM      6  C   UNL     1      -6.469 -34.561  44.887  1.00  0.00     0.001 A 
ENDROOT
BRANCH   1   7
ATOM      7  C   UNL     1      -4.202 -35.138  48.483  1.00  0.00     0.072 C 
ATOM      8  O   UNL     1      -4.169 -36.305  48.958  1.00  0.00    -0.545 OA
ATOM      9  O   UNL     1      -3.491 -34.130  49.123  1.00  0.00    -0.545 OA
ENDBRANCH   1   7
BRANCH   2  10
ATOM     10  C   UNL     1      -2.833 -34.981  45.790  1.00  0.00     0.072 C 
ATOM     11  O   UNL     1      -2.293 -36.079  45.487  1.00  0.00    -0.545 OA
ATOM     12  O   UNL     1      -2.037 -33.848  45.905  1.00  0.00    -0.545 OA
ENDBRANCH   2  10
TORSDOF 2
ENDMDL
MODEL 9
REMARK VINA RESULT:    -4.163      1.632      3.400
REMARK INTER + INTRA:          -4.680
REMARK INTER:                  -5.082
REMARK INTRA:                   0.402
REMARK UNBOUND:                -0.030
REMARK SMILES O=C([O-])c1ccccc1C(=O)[O-]
REMARK SMILES IDX 4 1 9 2 5 3 8 4 6 5 7 6 2 7 1 8 3 9 10 10 11 11 12 12
REMARK H PARENT
REMARK Flexibility Score: inf
ROOT
ATOM      1  C   UNL     1      -7.160 -23.353  48.018  1.00  0.00     0.006 A 
ATOM      2  C   UNL     1      -7.404 -22.132  47.333  1.00  0.00     0.006 A 
ATOM      3  C   UNL     1      -8.251 -24.082  48.528  1.00  0.00     0.010 A 
ATOM      4  C   UNL     1      -8.734 -21.715  47.129  1.00  0.00     0.010 A 
ATOM      5  C   UNL     1      -9.560 -23.639  48.334  1.00  0.00     0.001 A 
ATOM      6  C   UNL     1      -9.801 -22.465  47.625  1.00  0.00     0.001 A 
ENDROOT
BRANCH   1   7
ATOM      7  C   UNL     1      -5.806 -23.935  48.154  1.00  0.00     0.072 C 
ATOM      8  O   UNL     1      -5.071 -23.612  49.125  1.00  0.00    -0.545 OA
ATOM      9  O   UNL     1      -5.351 -24.891  47.253  1.00  0.00    -0.545 OA
ENDBRANCH   1   7
BRANCH   2  10
ATOM     10  C   UNL     1      -6.314 -21.234  46.888  1.00  0.00     0.072 C 
ATOM     11  O   UNL     1      -6.487 -19.986  46.874  1.00  0.00    -0.545 OA
ATOM     12  O   UNL     1      -5.069 -21.747  46.545  1.00  0.00    -0.545 OA
ENDBRANCH   2  10
TORSDOF 2
ENDMDL
