MODEL 1
REMARK VINA RESULT:    -4.395      0.000      0.000
REMARK INTER + INTRA:          -4.674
REMARK INTER:                  -4.652
REMARK INTRA:                  -0.022
REMARK UNBOUND:                -0.022
REMARK SMILES O=C([O-])c1cccnc1
REMARK SMILES IDX 4 1 5 2 9 3 6 4 8 5 7 6 2 7 1 8 3 9
REMARK H PARENT
REMARK Flexibility Score: inf
ROOT
ATOM      1  C   UNL     1     -13.723  -3.752  29.850  1.00  0.00     0.016 A 
ATOM      2  C   UNL     1     -14.107  -3.944  28.513  1.00  0.00     0.013 A 
ATOM      3  C   UNL     1     -14.124  -4.703  30.804  1.00  0.00     0.120 A 
ATOM      4  C   UNL     1     -14.869  -5.059  28.155  1.00  0.00     0.021 A 
ATOM      5  N   UNL     1     -14.866  -5.780  30.429  1.00  0.00    -0.264 NA
ATOM      6  C   UNL     1     -15.242  -5.976  29.137  1.00  0.00     0.111 A 
ENDROOT
BRANCH   1   7
ATOM      7  C   UNL     1     -12.917  -2.579  30.250  1.00  0.00     0.073 C 
ATOM      8  O   UNL     1     -12.997  -1.498  29.608  1.00  0.00    -0.545 OA
ATOM      9  O   UNL     1     -12.059  -2.652  31.341  1.00  0.00    -0.545 OA
ENDBRANCH   1   7
TORSDOF 1
ENDMDL
MODEL 2
REMARK VINA RESULT:    -4.236      0.907      2.046
REMARK INTER + INTRA:          -4.506
REMARK INTER:                  -4.485
REMARK INTRA:                  -0.021
REMARK UNBOUND:                -0.022
REMARK SMILES O=C([O-])c1cccnc1
REMARK SMILES IDX 4 1 5 2 9 3 6 4 8 5 7 6 2 7 1 8 3 9
REMARK H PARENT
REMARK Flexibility Score: inf
ROOT
ATOM      1  C   UNL     1     -13.629  -3.803  30.465  1.00  0.00     0.016 A 
ATOM      2  C   UNL     1     -13.951  -4.625  31.558  1.00  0.00     0.013 A 
ATOM      3  C   UNL     1     -14.124  -4.152  29.198  1.00  0.00     0.120 A 
ATOM      4  C   UNL     1     -14.747  -5.758  31.372  1.00  0.00     0.021 A 
ATOM      5  N   UNL     1     -14.896  -5.262  29.044  1.00  0.00    -0.264 NA
ATOM      6  C   UNL     1     -15.215  -6.063  30.095  1.00  0.00     0.111 A 
ENDROOT
BRANCH   1   7
ATOM      7  C   UNL     1     -12.789  -2.599  30.640  1.00  0.00     0.073 C 
ATOM      8  O   UNL     1     -11.846  -2.591  31.477  1.00  0.00    -0.545 OA
ATOM      9  O   UNL     1     -13.027  -1.457  29.884  1.00  0.00    -0.545 OA
ENDBRANCH   1   7
TORSDOF 1
ENDMDL
MODEL 3
REMARK VINA RESULT:    -4.188      1.885      2.609
REMARK INTER + INTRA:          -4.455
REMARK INTER:                  -4.431
REMARK INTRA:                  -0.024
REMARK UNBOUND:                -0.022
REMARK SMILES O=C([O-])c1cccnc1
REMARK SMILES IDX 4 1 5 2 9 3 6 4 8 5 7 6 2 7 1 8 3 9
REMARK H PARENT
REMARK Flexibility Score: inf
ROOT
ATOM      1  C   UNL     1     -14.947  -5.462  28.969  1.00  0.00     0.016 A 
ATOM      2  C   UNL     1     -15.352  -6.517  28.133  1.00  0.00     0.013 A 
ATOM      3  C   UNL     1     -14.977  -5.661  30.359  1.00  0.00     0.120 A 
ATOM      4  C   UNL     1     -15.770  -7.729  28.688  1.00  0.00     0.021 A 
ATOM      5  N   UNL     1     -15.389  -6.852  30.873  1.00  0.00    -0.264 NA
ATOM      6  C   UNL     1     -15.782  -7.879  30.074  1.00  0.00     0.111 A 
ENDROOT
BRANCH   1   7
ATOM      7  C   UNL     1     -14.501  -4.171  28.402  1.00  0.00     0.073 C 
ATOM      8  O   UNL     1     -14.646  -3.926  27.175  1.00  0.00    -0.545 OA
ATOM      9  O   UNL     1     -13.913  -3.210  29.216  1.00  0.00    -0.545 OA
ENDBRANCH   1   7
TORSDOF 1
ENDMDL
MODEL 4
REMARK VINA RESULT:    -4.174      2.481      2.940
REMARK INTER + INTRA:          -4.440
REMARK INTER:                  -4.424
REMARK INTRA:                  -0.016
REMARK UNBOUND:                -0.022
REMARK SMILES O=C([O-])c1cccnc1
REMARK SMILES IDX 4 1 5 2 9 3 6 4 8 5 7 6 2 7 1 8 3 9
REMARK H PARENT
REMARK Flexibility Score: inf
ROOT
ATOM      1  C   UNL     1     -14.493  -5.185  30.353  1.00  0.00     0.016 A 
ATOM      2  C   UNL     1     -15.113  -6.136  29.526  1.00  0.00     0.013 A 
ATOM      3  C   UNL     1     -14.052  -3.982  29.776  1.00  0.00     0.120 A 
ATOM      4  C   UNL     1     -15.280  -5.877  28.164  1.00  0.00     0.021 A 
ATOM      5  N   UNL     1     -14.227  -3.755  28.446  1.00  0.00    -0.264 NA
ATOM      6  C   UNL     1     -14.826  -4.668  27.636  1.00  0.00     0.111 A 
ENDROOT
BRANCH   1   7
ATOM      7  C   UNL     1     -14.307  -5.439  31.798  1.00  0.00     0.073 C 
ATOM      8  O   UNL     1     -15.184  -5.083  32.630  1.00  0.00    -0.545 OA
ATOM      9  O   UNL     1     -13.161  -6.075  32.260  1.00  0.00    -0.545 OA
ENDBRANCH   1   7
TORSDOF 1
ENDMDL
MODEL 5
REMARK VINA RESULT:    -4.167      2.627      3.541
REMARK INTER + INTRA:          -4.432
REMARK INTER:                  -4.409
REMARK INTRA:                  -0.024
REMARK UNBOUND:                -0.022
REMARK SMILES O=C([O-])c1cccnc1
REMARK SMILES IDX 4 1 5 2 9 3 6 4 8 5 7 6 2 7 1 8 3 9
REMARK H PARENT
REMARK Flexibility Score: inf
ROOT
ATOM      1  C   UNL     1     -14.000  -4.228  29.678  1.00  0.00     0.016 A 
ATOM      2  C   UNL     1     -13.738  -2.931  29.206  1.00  0.00     0.013 A 
ATOM      3  C   UNL     1     -13.379  -4.646  30.867  1.00  0.00     0.120 A 
ATOM      4  C   UNL     1     -12.879  -2.088  29.915  1.00  0.00     0.021 A 
ATOM      5  N   UNL     1     -12.546  -3.804  31.538  1.00  0.00    -0.264 NA
ATOM      6  C   UNL     1     -12.286  -2.547  31.091  1.00  0.00     0.111 A 
ENDROOT
BRANCH   1   7
ATOM      7  C   UNL     1     -14.906  -5.137  28.943  1.00  0.00     0.073 C 
ATOM      8  O   UNL     1     -15.297  -4.849  27.780  1.00  0.00    -0.545 OA
ATOM      9  O   UNL     1     -15.341  -6.321  29.525  1.00  0.00    -0.545 OA
ENDBRANCH   1   7
TORSDOF 1
ENDMDL
MODEL 6
REMARK VINA RESULT:    -4.130      3.530      4.245
REMARK INTER + INTRA:          -4.393
REMARK INTER:                  -4.374
REMARK INTRA:                  -0.019
REMARK UNBOUND:                -0.022
REMARK SMILES O=C([O-])c1cccnc1
REMARK SMILES IDX 4 1 5 2 9 3 6 4 8 5 7 6 2 7 1 8 3 9
REMARK H PARENT
REMARK Flexibility Score: inf
ROOT
ATOM      1  C   UNL     1     -15.243  -6.338  29.448  1.00  0.00     0.016 A 
ATOM      2  C   UNL     1     -15.279  -6.125  28.059  1.00  0.00     0.013 A 
ATOM      3  C   UNL     1     -14.698  -5.333  30.264  1.00  0.00     0.120 A 
ATOM      4  C   UNL     1     -14.781  -4.937  27.519  1.00  0.00     0.021 A 
ATOM      5  N   UNL     1     -14.219  -4.185  29.712  1.00  0.00    -0.264 NA
ATOM      6  C   UNL     1     -14.250  -3.969  28.370  1.00  0.00     0.111 A 
ENDROOT
BRANCH   1   7
ATOM      7  C   UNL     1     -15.765  -7.588  30.040  1.00  0.00     0.073 C 
ATOM      8  O   UNL     1     -15.416  -8.708  29.582  1.00  0.00    -0.545 OA
ATOM      9  O   UNL     1     -16.649  -7.545  31.111  1.00  0.00    -0.545 OA
ENDBRANCH   1   7
TORSDOF 1
ENDMDL
MODEL 7
REMARK VINA RESULT:    -4.050      7.700      8.769
REMARK INTER + INTRA:          -4.309
REMARK INTER:                  -4.285
REMARK INTRA:                  -0.024
REMARK UNBOUND:                -0.022
REMARK SMILES O=C([O-])c1cccnc1
REMARK SMILES IDX 4 1 5 2 9 3 6 4 8 5 7 6 2 7 1 8 3 9
REMARK H PARENT
REMARK Flexibility Score: inf
ROOT
ATOM      1  C   UNL     1     -14.870 -10.128  35.061  1.00  0.00     0.016 A 
ATOM      2  C   UNL     1     -14.873  -9.624  36.372  1.00  0.00     0.013 A 
ATOM      3  C   UNL     1     -15.229  -9.266  34.012  1.00  0.00     0.120 A 
ATOM      4  C   UNL     1     -15.226  -8.293  36.610  1.00  0.00     0.021 A 
ATOM      5  N   UNL     1     -15.569  -7.974  34.271  1.00  0.00    -0.264 NA
ATOM      6  C   UNL     1     -15.575  -7.476  35.536  1.00  0.00     0.111 A 
ENDROOT
BRANCH   1   7
ATOM      7  C   UNL     1     -14.498 -11.533  34.787  1.00  0.00     0.073 C 
ATOM      8  O   UNL     1     -14.504 -11.979  33.609  1.00  0.00    -0.545 OA
ATOM      9  O   UNL     1     -14.139 -12.382  35.827  1.00  0.00    -0.545 OA
ENDBRANCH   1   7
TORSDOF 1
ENDMDL
MODEL 8
REMARK VINA RESULT:    -4.032      2.803      3.909
REMARK INTER + INTRA:          -4.290
REMARK INTER:                  -4.266
REMARK INTRA:                  -0.024
REMARK UNBOUND:                -0.022
REMARK SMILES O=C([O-])c1cccnc1
REMARK SMILES IDX 4 1 5 2 9 3 6 4 8 5 7 6 2 7 1 8 3 9
REMARK H PARENT
REMARK Flexibility Score: inf
ROOT
ATOM      1  C   UNL     1     -13.738  -4.530  30.878  1.00  0.00     0.016 A 
ATOM      2  C   UNL     1     -12.774  -3.756  31.546  1.00  0.00     0.013 A 
ATOM      3  C   UNL     1     -14.194  -4.093  29.624  1.00  0.00     0.120 A 
ATOM      4  C   UNL     1     -12.291  -2.583  30.963  1.00  0.00     0.021 A 
ATOM      5  N   UNL     1     -13.708  -2.946  29.078  1.00  0.00    -0.264 NA
ATOM      6  C   UNL     1     -12.775  -2.190  29.715  1.00  0.00     0.111 A 
ENDROOT
BRANCH   1   7
ATOM      7  C   UNL     1     -14.262  -5.777  31.478  1.00  0.00     0.073 C 
ATOM      8  O   UNL     1     -13.781  -6.221  32.555  1.00  0.00    -0.545 OA
ATOM      9  O   UNL     1     -15.293  -6.475  30.863  1.00  0.00    -0.545 OA
ENDBRANCH   1   7
TORSDOF 1
ENDMDL
MODEL 9
REMARK VINA RESULT:    -4.006      1.738      2.700
REMARK INTER + INTRA:          -4.262
REMARK INTER:                  -4.239
REMARK INTRA:                  -0.023
REMARK UNBOUND:                -0.022
REMARK SMILES O=C([O-])c1cccnc1
REMARK SMILES IDX 4 1 5 2 9 3 6 4 8 5 7 6 2 7 1 8 3 9
REMARK H PARENT
REMARK Flexibility Score: inf
ROOT
ATOM      1  C   UNL     1     -14.179  -4.833  30.218  1.00  0.00     0.016 A 
ATOM      2  C   UNL     1     -13.306  -4.840  31.319  1.00  0.00     0.013 A 
ATOM      3  C   UNL     1     -15.111  -5.878  30.097  1.00  0.00     0.120 A 
ATOM      4  C   UNL     1     -13.376  -5.868  32.262  1.00  0.00     0.021 A 
ATOM      5  N   UNL     1     -15.158  -6.867  31.030  1.00  0.00    -0.264 NA
ATOM      6  C   UNL     1     -14.318  -6.883  32.099  1.00  0.00     0.111 A 
ENDROOT
BRANCH   1   7
ATOM      7  C   UNL     1     -14.121  -3.754  29.208  1.00  0.00     0.073 C 
ATOM      8  O   UNL     1     -14.761  -3.854  28.128  1.00  0.00    -0.545 OA
ATOM      9  O   UNL     1     -13.359  -2.615  29.437  1.00  0.00    -0.545 OA
ENDBRANCH   1   7
TORSDOF 1
ENDMDL
