MODEL 1
REMARK VINA RESULT:    -4.418      0.000      0.000
REMARK INTER + INTRA:         -10.106
REMARK INTER:                  -8.550
REMARK INTRA:                  -1.557
REMARK UNBOUND:                -1.557
REMARK SMILES CCCCCCCCCCCCCCCCCC(=O)[O-]
REMARK SMILES IDX 10 1 11 2 12 3 13 4 14 5 15 6 16 7 17 8 18 9 19 10 20 11
REMARK SMILES IDX 9 12 8 13 7 14 6 15 5 16 4 17 3 18 2 19 1 20
REMARK H PARENT
REMARK Flexibility Score: inf
ROOT
ATOM      1  C   UNL     1      13.730   7.653   4.499  1.00  0.00     0.000 C 
ENDROOT
BRANCH   1   2
ATOM      2  C   UNL     1      14.335   8.630   3.476  1.00  0.00     0.000 C 
BRANCH   2   3
ATOM      3  C   UNL     1      14.811   7.925   2.195  1.00  0.00     0.000 C 
BRANCH   3   4
ATOM      4  C   UNL     1      16.289   7.511   2.259  1.00  0.00     0.000 C 
BRANCH   4   5
ATOM      5  C   UNL     1      16.526   6.202   1.494  1.00  0.00     0.000 C 
BRANCH   5   6
ATOM      6  C   UNL     1      15.461   6.001   0.406  1.00  0.00     0.000 C 
BRANCH   6   7
ATOM      7  C   UNL     1      15.845   4.908  -0.604  1.00  0.00     0.006 C 
BRANCH   7   8
ATOM      8  C   UNL     1      16.391   5.482  -1.918  1.00  0.00     0.053 C 
BRANCH   8   9
ATOM      9  C   UNL     1      15.668   6.741  -2.277  1.00  0.00     0.041 C 
ATOM     10  O   UNL     1      16.273   7.845  -2.265  1.00  0.00    -0.550 OA
ATOM     11  O   UNL     1      14.337   6.690  -2.675  1.00  0.00    -0.550 OA
ENDBRANCH   8   9
ENDBRANCH   7   8
ENDBRANCH   6   7
ENDBRANCH   5   6
ENDBRANCH   4   5
ENDBRANCH   3   4
ENDBRANCH   2   3
ENDBRANCH   1   2
BRANCH   1  12
ATOM     12  C   UNL     1      14.799   6.813   5.217  1.00  0.00     0.000 C 
BRANCH  12  13
ATOM     13  C   UNL     1      15.998   7.652   5.684  1.00  0.00    -0.000 C 
BRANCH  13  14
ATOM     14  C   UNL     1      17.321   6.968   5.316  1.00  0.00    -0.000 C 
BRANCH  14  15
ATOM     15  C   UNL     1      18.503   7.939   5.467  1.00  0.00    -0.000 C 
BRANCH  15  16
ATOM     16  C   UNL     1      18.176   9.362   4.981  1.00  0.00    -0.000 C 
BRANCH  16  17
ATOM     17  C   UNL     1      18.626   9.676   3.543  1.00  0.00    -0.000 C 
BRANCH  17  18
ATOM     18  C   UNL     1      17.969  10.945   2.974  1.00  0.00    -0.000 C 
BRANCH  18  19
ATOM     19  C   UNL     1      16.495  11.079   3.384  1.00  0.00    -0.003 C 
ATOM     20  C   UNL     1      15.825  12.313   2.778  1.00  0.00     0.004 C 
ENDBRANCH  18  19
ENDBRANCH  17  18
ENDBRANCH  16  17
ENDBRANCH  15  16
ENDBRANCH  14  15
ENDBRANCH  13  14
ENDBRANCH  12  13
ENDBRANCH   1  12
TORSDOF 16
ENDMDL
MODEL 2
REMARK VINA RESULT:    -4.332      0.976      2.121
REMARK INTER + INTRA:          -9.940
REMARK INTER:                  -7.930
REMARK INTRA:                  -2.011
REMARK UNBOUND:                -1.557
REMARK SMILES CCCCCCCCCCCCCCCCCC(=O)[O-]
REMARK SMILES IDX 10 1 11 2 12 3 13 4 14 5 15 6 16 7 17 8 18 9 19 10 20 11
REMARK SMILES IDX 9 12 8 13 7 14 6 15 5 16 4 17 3 18 2 19 1 20
REMARK H PARENT
REMARK Flexibility Score: inf
ROOT
ATOM      1  C   UNL     1      15.910   7.613   5.410  1.00  0.00     0.000 C 
ENDROOT
BRANCH   1   2
ATOM      2  C   UNL     1      14.554   7.130   4.865  1.00  0.00     0.000 C 
BRANCH   2   3
ATOM      3  C   UNL     1      13.986   8.063   3.785  1.00  0.00     0.000 C 
BRANCH   3   4
ATOM      4  C   UNL     1      15.000   8.373   2.672  1.00  0.00     0.000 C 
BRANCH   4   5
ATOM      5  C   UNL     1      14.875   7.368   1.520  1.00  0.00     0.000 C 
BRANCH   5   6
ATOM      6  C   UNL     1      16.186   6.594   1.322  1.00  0.00     0.000 C 
BRANCH   6   7
ATOM      7  C   UNL     1      16.125   5.620   0.133  1.00  0.00     0.006 C 
BRANCH   7   8
ATOM      8  C   UNL     1      15.111   6.053  -0.933  1.00  0.00     0.053 C 
BRANCH   8   9
ATOM      9  C   UNL     1      15.811   6.694  -2.089  1.00  0.00     0.041 C 
ATOM     10  O   UNL     1      15.764   7.942  -2.246  1.00  0.00    -0.550 OA
ATOM     11  O   UNL     1      16.558   5.918  -2.967  1.00  0.00    -0.550 OA
ENDBRANCH   8   9
ENDBRANCH   7   8
ENDBRANCH   6   7
ENDBRANCH   5   6
ENDBRANCH   4   5
ENDBRANCH   3   4
ENDBRANCH   2   3
ENDBRANCH   1   2
BRANCH   1  12
ATOM     12  C   UNL     1      17.078   6.720   4.964  1.00  0.00     0.000 C 
BRANCH  12  13
ATOM     13  C   UNL     1      18.210   7.513   4.293  1.00  0.00    -0.000 C 
BRANCH  13  14
ATOM     14  C   UNL     1      17.987   9.023   4.448  1.00  0.00    -0.000 C 
BRANCH  14  15
ATOM     15  C   UNL     1      18.740   9.805   3.360  1.00  0.00    -0.000 C 
BRANCH  15  16
ATOM     16  C   UNL     1      17.932  10.992   2.807  1.00  0.00    -0.000 C 
BRANCH  16  17
ATOM     17  C   UNL     1      16.686  11.367   3.629  1.00  0.00    -0.000 C 
BRANCH  17  18
ATOM     18  C   UNL     1      15.517  11.853   2.756  1.00  0.00    -0.000 C 
BRANCH  18  19
ATOM     19  C   UNL     1      15.286  13.367   2.870  1.00  0.00    -0.003 C 
ATOM     20  C   UNL     1      15.091  14.038   1.510  1.00  0.00     0.004 C 
ENDBRANCH  18  19
ENDBRANCH  17  18
ENDBRANCH  16  17
ENDBRANCH  15  16
ENDBRANCH  14  15
ENDBRANCH  13  14
ENDBRANCH  12  13
ENDBRANCH   1  12
TORSDOF 16
ENDMDL
MODEL 3
REMARK VINA RESULT:    -4.239      2.699      5.975
REMARK INTER + INTRA:          -9.760
REMARK INTER:                  -7.910
REMARK INTRA:                  -1.850
REMARK UNBOUND:                -1.557
REMARK SMILES CCCCCCCCCCCCCCCCCC(=O)[O-]
REMARK SMILES IDX 10 1 11 2 12 3 13 4 14 5 15 6 16 7 17 8 18 9 19 10 20 11
REMARK SMILES IDX 9 12 8 13 7 14 6 15 5 16 4 17 3 18 2 19 1 20
REMARK H PARENT
REMARK Flexibility Score: inf
ROOT
ATOM      1  C   UNL     1      16.416   6.869   4.896  1.00  0.00     0.000 C 
ENDROOT
BRANCH   1   2
ATOM      2  C   UNL     1      17.595   7.225   5.819  1.00  0.00     0.000 C 
BRANCH   2   3
ATOM      3  C   UNL     1      18.364   8.468   5.341  1.00  0.00     0.000 C 
BRANCH   3   4
ATOM      4  C   UNL     1      18.497   8.533   3.811  1.00  0.00     0.000 C 
BRANCH   4   5
ATOM      5  C   UNL     1      18.501   9.986   3.322  1.00  0.00     0.000 C 
BRANCH   5   6
ATOM      6  C   UNL     1      17.219  10.714   3.753  1.00  0.00     0.000 C 
BRANCH   6   7
ATOM      7  C   UNL     1      16.760  11.764   2.728  1.00  0.00     0.006 C 
BRANCH   7   8
ATOM      8  C   UNL     1      15.327  12.248   2.979  1.00  0.00     0.053 C 
BRANCH   8   9
ATOM      9  C   UNL     1      15.171  13.669   2.538  1.00  0.00     0.041 C 
ATOM     10  O   UNL     1      15.110  13.950   1.313  1.00  0.00    -0.550 OA
ATOM     11  O   UNL     1      15.041  14.679   3.483  1.00  0.00    -0.550 OA
ENDBRANCH   8   9
ENDBRANCH   7   8
ENDBRANCH   6   7
ENDBRANCH   5   6
ENDBRANCH   4   5
ENDBRANCH   3   4
ENDBRANCH   2   3
ENDBRANCH   1   2
BRANCH   1  12
ATOM     12  C   UNL     1      15.127   7.619   5.270  1.00  0.00     0.000 C 
BRANCH  12  13
ATOM     13  C   UNL     1      14.137   7.717   4.100  1.00  0.00    -0.000 C 
BRANCH  13  14
ATOM     14  C   UNL     1      14.727   8.545   2.951  1.00  0.00    -0.000 C 
BRANCH  14  15
ATOM     15  C   UNL     1      14.878   7.694   1.680  1.00  0.00    -0.000 C 
BRANCH  15  16
ATOM     16  C   UNL     1      16.174   6.865   1.664  1.00  0.00    -0.000 C 
BRANCH  16  17
ATOM     17  C   UNL     1      16.188   5.702   0.655  1.00  0.00    -0.000 C 
BRANCH  17  18
ATOM     18  C   UNL     1      15.147   5.870  -0.465  1.00  0.00    -0.000 C 
BRANCH  18  19
ATOM     19  C   UNL     1      15.787   6.219  -1.816  1.00  0.00    -0.003 C 
ATOM     20  C   UNL     1      15.550   7.674  -2.222  1.00  0.00     0.004 C 
ENDBRANCH  18  19
ENDBRANCH  17  18
ENDBRANCH  16  17
ENDBRANCH  15  16
ENDBRANCH  14  15
ENDBRANCH  13  14
ENDBRANCH  12  13
ENDBRANCH   1  12
TORSDOF 16
ENDMDL
MODEL 4
REMARK VINA RESULT:    -4.139      2.475      4.258
REMARK INTER + INTRA:          -9.567
REMARK INTER:                  -8.106
REMARK INTRA:                  -1.462
REMARK UNBOUND:                -1.557
REMARK SMILES CCCCCCCCCCCCCCCCCC(=O)[O-]
REMARK SMILES IDX 10 1 11 2 12 3 13 4 14 5 15 6 16 7 17 8 18 9 19 10 20 11
REMARK SMILES IDX 9 12 8 13 7 14 6 15 5 16 4 17 3 18 2 19 1 20
REMARK H PARENT
REMARK Flexibility Score: inf
ROOT
ATOM      1  C   UNL     1      16.701  10.359   3.892  1.00  0.00     0.000 C 
ENDROOT
BRANCH   1   2
ATOM      2  C   UNL     1      15.555   9.943   2.955  1.00  0.00     0.000 C 
BRANCH   2   3
ATOM      3  C   UNL     1      14.603   8.924   3.603  1.00  0.00     0.000 C 
BRANCH   3   4
ATOM      4  C   UNL     1      14.897   7.478   3.174  1.00  0.00     0.000 C 
BRANCH   4   5
ATOM      5  C   UNL     1      15.029   7.374   1.649  1.00  0.00     0.000 C 
BRANCH   5   6
ATOM      6  C   UNL     1      16.255   6.536   1.260  1.00  0.00     0.000 C 
BRANCH   6   7
ATOM      7  C   UNL     1      15.961   5.554   0.114  1.00  0.00     0.006 C 
BRANCH   7   8
ATOM      8  C   UNL     1      15.076   6.167  -0.979  1.00  0.00     0.053 C 
BRANCH   8   9
ATOM      9  C   UNL     1      15.917   6.683  -2.103  1.00  0.00     0.041 C 
ATOM     10  O   UNL     1      16.069   7.922  -2.264  1.00  0.00    -0.550 OA
ATOM     11  O   UNL     1      16.575   5.794  -2.944  1.00  0.00    -0.550 OA
ENDBRANCH   8   9
ENDBRANCH   7   8
ENDBRANCH   6   7
ENDBRANCH   5   6
ENDBRANCH   4   5
ENDBRANCH   3   4
ENDBRANCH   2   3
ENDBRANCH   1   2
BRANCH   1  12
ATOM     12  C   UNL     1      18.060   9.791   3.453  1.00  0.00     0.000 C 
BRANCH  12  13
ATOM     13  C   UNL     1      18.338   8.398   4.038  1.00  0.00    -0.000 C 
BRANCH  13  14
ATOM     14  C   UNL     1      17.747   8.268   5.448  1.00  0.00    -0.000 C 
BRANCH  14  15
ATOM     15  C   UNL     1      18.762   7.639   6.415  1.00  0.00    -0.000 C 
BRANCH  15  16
ATOM     16  C   UNL     1      19.890   8.607   6.813  1.00  0.00    -0.000 C 
BRANCH  16  17
ATOM     17  C   UNL     1      20.486   8.367   8.212  1.00  0.00    -0.000 C 
BRANCH  17  18
ATOM     18  C   UNL     1      21.963   8.785   8.313  1.00  0.00    -0.000 C 
BRANCH  18  19
ATOM     19  C   UNL     1      22.631   8.280   9.601  1.00  0.00    -0.003 C 
ATOM     20  C   UNL     1      21.968   7.017  10.153  1.00  0.00     0.004 C 
ENDBRANCH  18  19
ENDBRANCH  17  18
ENDBRANCH  16  17
ENDBRANCH  15  16
ENDBRANCH  14  15
ENDBRANCH  13  14
ENDBRANCH  12  13
ENDBRANCH   1  12
TORSDOF 16
ENDMDL
MODEL 5
REMARK VINA RESULT:    -3.905      2.843      6.092
REMARK INTER + INTRA:          -9.114
REMARK INTER:                  -7.793
REMARK INTRA:                  -1.322
REMARK UNBOUND:                -1.557
REMARK SMILES CCCCCCCCCCCCCCCCCC(=O)[O-]
REMARK SMILES IDX 10 1 11 2 12 3 13 4 14 5 15 6 16 7 17 8 18 9 19 10 20 11
REMARK SMILES IDX 9 12 8 13 7 14 6 15 5 16 4 17 3 18 2 19 1 20
REMARK H PARENT
REMARK Flexibility Score: inf
ROOT
ATOM      1  C   UNL     1      18.222   8.701   3.996  1.00  0.00     0.000 C 
ENDROOT
BRANCH   1   2
ATOM      2  C   UNL     1      18.117  10.111   3.388  1.00  0.00     0.000 C 
BRANCH   2   3
ATOM      3  C   UNL     1      16.679  10.655   3.401  1.00  0.00     0.000 C 
BRANCH   3   4
ATOM      4  C   UNL     1      16.603  12.142   3.023  1.00  0.00     0.000 C 
BRANCH   4   5
ATOM      5  C   UNL     1      15.179  12.529   2.601  1.00  0.00     0.000 C 
BRANCH   5   6
ATOM      6  C   UNL     1      15.073  14.039   2.346  1.00  0.00     0.000 C 
BRANCH   6   7
ATOM      7  C   UNL     1      15.135  14.393   0.851  1.00  0.00     0.006 C 
BRANCH   7   8
ATOM      8  C   UNL     1      13.825  14.086   0.116  1.00  0.00     0.053 C 
BRANCH   8   9
ATOM      9  C   UNL     1      13.978  14.336  -1.350  1.00  0.00     0.041 C 
ATOM     10  O   UNL     1      15.081  14.722  -1.816  1.00  0.00    -0.550 OA
ATOM     11  O   UNL     1      12.914  14.092  -2.212  1.00  0.00    -0.550 OA
ENDBRANCH   8   9
ENDBRANCH   7   8
ENDBRANCH   6   7
ENDBRANCH   5   6
ENDBRANCH   4   5
ENDBRANCH   3   4
ENDBRANCH   2   3
ENDBRANCH   1   2
BRANCH   1  12
ATOM     12  C   UNL     1      17.614   8.620   5.406  1.00  0.00     0.000 C 
BRANCH  12  13
ATOM     13  C   UNL     1      16.435   7.639   5.489  1.00  0.00    -0.000 C 
BRANCH  13  14
ATOM     14  C   UNL     1      16.160   6.995   4.124  1.00  0.00    -0.000 C 
BRANCH  14  15
ATOM     15  C   UNL     1      14.877   7.561   3.496  1.00  0.00    -0.000 C 
BRANCH  15  16
ATOM     16  C   UNL     1      14.960   7.677   1.964  1.00  0.00    -0.000 C 
BRANCH  16  17
ATOM     17  C   UNL     1      15.948   6.706   1.293  1.00  0.00    -0.000 C 
BRANCH  17  18
ATOM     18  C   UNL     1      15.356   6.010   0.056  1.00  0.00    -0.000 C 
BRANCH  18  19
ATOM     19  C   UNL     1      15.951   6.537  -1.258  1.00  0.00    -0.003 C 
ATOM     20  C   UNL     1      14.882   6.859  -2.302  1.00  0.00     0.004 C 
ENDBRANCH  18  19
ENDBRANCH  17  18
ENDBRANCH  16  17
ENDBRANCH  15  16
ENDBRANCH  14  15
ENDBRANCH  13  14
ENDBRANCH  12  13
ENDBRANCH   1  12
TORSDOF 16
ENDMDL
MODEL 6
REMARK VINA RESULT:    -3.900      5.168      8.373
REMARK INTER + INTRA:          -9.105
REMARK INTER:                  -8.014
REMARK INTRA:                  -1.092
REMARK UNBOUND:                -1.557
REMARK SMILES CCCCCCCCCCCCCCCCCC(=O)[O-]
REMARK SMILES IDX 10 1 11 2 12 3 13 4 14 5 15 6 16 7 17 8 18 9 19 10 20 11
REMARK SMILES IDX 9 12 8 13 7 14 6 15 5 16 4 17 3 18 2 19 1 20
REMARK H PARENT
REMARK Flexibility Score: inf
ROOT
ATOM      1  C   UNL     1      17.097   6.638   4.516  1.00  0.00     0.000 C 
ENDROOT
BRANCH   1   2
ATOM      2  C   UNL     1      18.187   7.632   4.079  1.00  0.00     0.000 C 
BRANCH   2   3
ATOM      3  C   UNL     1      18.553   8.631   5.189  1.00  0.00     0.000 C 
BRANCH   3   4
ATOM      4  C   UNL     1      19.223   7.958   6.397  1.00  0.00     0.000 C 
BRANCH   4   5
ATOM      5  C   UNL     1      20.274   8.880   7.027  1.00  0.00     0.000 C 
BRANCH   5   6
ATOM      6  C   UNL     1      20.681   8.379   8.420  1.00  0.00     0.000 C 
BRANCH   6   7
ATOM      7  C   UNL     1      22.151   8.684   8.753  1.00  0.00     0.006 C 
BRANCH   7   8
ATOM      8  C   UNL     1      22.934   7.434   9.172  1.00  0.00     0.053 C 
BRANCH   8   9
ATOM      9  C   UNL     1      22.187   6.679  10.225  1.00  0.00     0.041 C 
ATOM     10  O   UNL     1      21.903   5.464  10.054  1.00  0.00    -0.550 OA
ATOM     11  O   UNL     1      21.848   7.303  11.420  1.00  0.00    -0.550 OA
ENDBRANCH   8   9
ENDBRANCH   7   8
ENDBRANCH   6   7
ENDBRANCH   5   6
ENDBRANCH   4   5
ENDBRANCH   3   4
ENDBRANCH   2   3
ENDBRANCH   1   2
BRANCH   1  12
ATOM     12  C   UNL     1      15.990   7.303   5.349  1.00  0.00     0.000 C 
BRANCH  12  13
ATOM     13  C   UNL     1      14.596   7.133   4.728  1.00  0.00    -0.000 C 
BRANCH  13  14
ATOM     14  C   UNL     1      14.173   8.402   3.977  1.00  0.00    -0.000 C 
BRANCH  14  15
ATOM     15  C   UNL     1      14.932   8.535   2.648  1.00  0.00    -0.000 C 
BRANCH  15  16
ATOM     16  C   UNL     1      14.740   7.320   1.723  1.00  0.00    -0.000 C 
BRANCH  16  17
ATOM     17  C   UNL     1      16.037   6.760   1.111  1.00  0.00    -0.000 C 
BRANCH  17  18
ATOM     18  C   UNL     1      15.777   5.747  -0.017  1.00  0.00    -0.000 C 
BRANCH  18  19
ATOM     19  C   UNL     1      15.044   6.374  -1.213  1.00  0.00    -0.003 C 
ATOM     20  C   UNL     1      15.914   7.368  -1.983  1.00  0.00     0.004 C 
ENDBRANCH  18  19
ENDBRANCH  17  18
ENDBRANCH  16  17
ENDBRANCH  15  16
ENDBRANCH  14  15
ENDBRANCH  13  14
ENDBRANCH  12  13
ENDBRANCH   1  12
TORSDOF 16
ENDMDL
MODEL 7
REMARK VINA RESULT:    -3.846      1.949      4.252
REMARK INTER + INTRA:          -9.001
REMARK INTER:                  -7.137
REMARK INTRA:                  -1.864
REMARK UNBOUND:                -1.557
REMARK SMILES CCCCCCCCCCCCCCCCCC(=O)[O-]
REMARK SMILES IDX 10 1 11 2 12 3 13 4 14 5 15 6 16 7 17 8 18 9 19 10 20 11
REMARK SMILES IDX 9 12 8 13 7 14 6 15 5 16 4 17 3 18 2 19 1 20
REMARK H PARENT
REMARK Flexibility Score: inf
ROOT
ATOM      1  C   UNL     1      18.268   7.887   4.210  1.00  0.00     0.000 C 
ENDROOT
BRANCH   1   2
ATOM      2  C   UNL     1      17.226   6.913   4.787  1.00  0.00     0.000 C 
BRANCH   2   3
ATOM      3  C   UNL     1      16.143   7.628   5.611  1.00  0.00     0.000 C 
BRANCH   3   4
ATOM      4  C   UNL     1      14.719   7.290   5.141  1.00  0.00     0.000 C 
BRANCH   4   5
ATOM      5  C   UNL     1      14.283   8.216   4.000  1.00  0.00     0.000 C 
BRANCH   5   6
ATOM      6  C   UNL     1      14.256   7.464   2.661  1.00  0.00     0.000 C 
BRANCH   6   7
ATOM      7  C   UNL     1      15.475   7.779   1.780  1.00  0.00     0.006 C 
BRANCH   7   8
ATOM      8  C   UNL     1      16.234   6.518   1.348  1.00  0.00     0.053 C 
BRANCH   8   9
ATOM      9  C   UNL     1      15.733   6.034   0.025  1.00  0.00     0.041 C 
ATOM     10  O   UNL     1      15.347   4.844  -0.110  1.00  0.00    -0.550 OA
ATOM     11  O   UNL     1      15.643   6.913  -1.048  1.00  0.00    -0.550 OA
ENDBRANCH   8   9
ENDBRANCH   7   8
ENDBRANCH   6   7
ENDBRANCH   5   6
ENDBRANCH   4   5
ENDBRANCH   3   4
ENDBRANCH   2   3
ENDBRANCH   1   2
BRANCH   1  12
ATOM     12  C   UNL     1      18.007   9.344   4.623  1.00  0.00     0.000 C 
BRANCH  12  13
ATOM     13  C   UNL     1      17.799  10.275   3.419  1.00  0.00    -0.000 C 
BRANCH  13  14
ATOM     14  C   UNL     1      16.384  10.867   3.422  1.00  0.00    -0.000 C 
BRANCH  14  15
ATOM     15  C   UNL     1      16.362  12.245   2.742  1.00  0.00    -0.000 C 
BRANCH  15  16
ATOM     16  C   UNL     1      14.988  12.933   2.825  1.00  0.00    -0.000 C 
BRANCH  16  17
ATOM     17  C   UNL     1      14.939  14.355   2.239  1.00  0.00    -0.000 C 
BRANCH  17  18
ATOM     18  C   UNL     1      15.021  14.373   0.703  1.00  0.00    -0.000 C 
BRANCH  18  19
ATOM     19  C   UNL     1      13.774  14.994   0.054  1.00  0.00    -0.003 C 
ATOM     20  C   UNL     1      12.781  13.941  -0.439  1.00  0.00     0.004 C 
ENDBRANCH  18  19
ENDBRANCH  17  18
ENDBRANCH  16  17
ENDBRANCH  15  16
ENDBRANCH  14  15
ENDBRANCH  13  14
ENDBRANCH  12  13
ENDBRANCH   1  12
TORSDOF 16
ENDMDL
MODEL 8
REMARK VINA RESULT:    -3.829      3.459      6.315
REMARK INTER + INTRA:          -8.967
REMARK INTER:                  -7.636
REMARK INTRA:                  -1.330
REMARK UNBOUND:                -1.557
REMARK SMILES CCCCCCCCCCCCCCCCCC(=O)[O-]
REMARK SMILES IDX 10 1 11 2 12 3 13 4 14 5 15 6 16 7 17 8 18 9 19 10 20 11
REMARK SMILES IDX 9 12 8 13 7 14 6 15 5 16 4 17 3 18 2 19 1 20
REMARK H PARENT
REMARK Flexibility Score: inf
ROOT
ATOM      1  C   UNL     1      17.412  11.015   3.155  1.00  0.00     0.000 C 
ENDROOT
BRANCH   1   2
ATOM      2  C   UNL     1      15.898  10.742   3.128  1.00  0.00     0.000 C 
BRANCH   2   3
ATOM      3  C   UNL     1      15.066  12.034   3.087  1.00  0.00     0.000 C 
BRANCH   3   4
ATOM      4  C   UNL     1      15.748  13.155   2.287  1.00  0.00     0.000 C 
BRANCH   4   5
ATOM      5  C   UNL     1      14.708  14.097   1.667  1.00  0.00     0.000 C 
BRANCH   5   6
ATOM      6  C   UNL     1      15.272  14.791   0.419  1.00  0.00     0.000 C 
BRANCH   6   7
ATOM      7  C   UNL     1      14.296  14.757  -0.769  1.00  0.00     0.006 C 
BRANCH   7   8
ATOM      8  C   UNL     1      12.833  14.618  -0.329  1.00  0.00     0.053 C 
BRANCH   8   9
ATOM      9  C   UNL     1      11.949  14.403  -1.515  1.00  0.00     0.041 C 
ATOM     10  O   UNL     1      10.700  14.334  -1.372  1.00  0.00    -0.550 OA
ATOM     11  O   UNL     1      12.500  14.328  -2.789  1.00  0.00    -0.550 OA
ENDBRANCH   8   9
ENDBRANCH   7   8
ENDBRANCH   6   7
ENDBRANCH   5   6
ENDBRANCH   4   5
ENDBRANCH   3   4
ENDBRANCH   2   3
ENDBRANCH   1   2
BRANCH   1  12
ATOM     12  C   UNL     1      18.220   9.811   3.663  1.00  0.00     0.000 C 
BRANCH  12  13
ATOM     13  C   UNL     1      17.706   9.275   5.008  1.00  0.00    -0.000 C 
BRANCH  13  14
ATOM     14  C   UNL     1      18.243   7.864   5.278  1.00  0.00    -0.000 C 
BRANCH  14  15
ATOM     15  C   UNL     1      17.471   6.816   4.461  1.00  0.00    -0.000 C 
BRANCH  15  16
ATOM     16  C   UNL     1      15.961   7.104   4.391  1.00  0.00    -0.000 C 
BRANCH  16  17
ATOM     17  C   UNL     1      15.411   7.333   2.971  1.00  0.00    -0.000 C 
BRANCH  17  18
ATOM     18  C   UNL     1      16.381   6.871   1.871  1.00  0.00    -0.000 C 
BRANCH  18  19
ATOM     19  C   UNL     1      15.719   6.816   0.486  1.00  0.00    -0.003 C 
ATOM     20  C   UNL     1      15.629   5.394  -0.067  1.00  0.00     0.004 C 
ENDBRANCH  18  19
ENDBRANCH  17  18
ENDBRANCH  16  17
ENDBRANCH  15  16
ENDBRANCH  14  15
ENDBRANCH  13  14
ENDBRANCH  12  13
ENDBRANCH   1  12
TORSDOF 16
ENDMDL
MODEL 9
REMARK VINA RESULT:    -3.692      1.517      3.419
REMARK INTER + INTRA:          -8.702
REMARK INTER:                  -6.909
REMARK INTRA:                  -1.794
REMARK UNBOUND:                -1.557
REMARK SMILES CCCCCCCCCCCCCCCCCC(=O)[O-]
REMARK SMILES IDX 10 1 11 2 12 3 13 4 14 5 15 6 16 7 17 8 18 9 19 10 20 11
REMARK SMILES IDX 9 12 8 13 7 14 6 15 5 16 4 17 3 18 2 19 1 20
REMARK H PARENT
REMARK Flexibility Score: inf
ROOT
ATOM      1  C   UNL     1      17.601   7.760   4.877  1.00  0.00     0.000 C 
ENDROOT
BRANCH   1   2
ATOM      2  C   UNL     1      16.175   7.484   5.386  1.00  0.00     0.000 C 
BRANCH   2   3
ATOM      3  C   UNL     1      15.252   6.936   4.286  1.00  0.00     0.000 C 
BRANCH   3   4
ATOM      4  C   UNL     1      14.655   8.044   3.403  1.00  0.00     0.000 C 
BRANCH   4   5
ATOM      5  C   UNL     1      14.707   7.652   1.921  1.00  0.00     0.000 C 
BRANCH   5   6
ATOM      6  C   UNL     1      16.132   7.259   1.507  1.00  0.00     0.000 C 
BRANCH   6   7
ATOM      7  C   UNL     1      16.175   5.950   0.702  1.00  0.00     0.006 C 
BRANCH   7   8
ATOM      8  C   UNL     1      15.163   5.931  -0.450  1.00  0.00     0.053 C 
BRANCH   8   9
ATOM      9  C   UNL     1      15.755   6.548  -1.677  1.00  0.00     0.041 C 
ATOM     10  O   UNL     1      15.636   7.783  -1.886  1.00  0.00    -0.550 OA
ATOM     11  O   UNL     1      16.484   5.766  -2.565  1.00  0.00    -0.550 OA
ENDBRANCH   8   9
ENDBRANCH   7   8
ENDBRANCH   6   7
ENDBRANCH   5   6
ENDBRANCH   4   5
ENDBRANCH   3   4
ENDBRANCH   2   3
ENDBRANCH   1   2
BRANCH   1  12
ATOM     12  C   UNL     1      17.937   9.260   4.846  1.00  0.00     0.000 C 
BRANCH  12  13
ATOM     13  C   UNL     1      18.380   9.741   3.456  1.00  0.00    -0.000 C 
BRANCH  13  14
ATOM     14  C   UNL     1      17.692  11.061   3.088  1.00  0.00    -0.000 C 
BRANCH  14  15
ATOM     15  C   UNL     1      16.200  11.026   3.455  1.00  0.00    -0.000 C 
BRANCH  15  16
ATOM     16  C   UNL     1      15.362  12.042   2.659  1.00  0.00    -0.000 C 
BRANCH  16  17
ATOM     17  C   UNL     1      15.595  13.515   3.041  1.00  0.00    -0.000 C 
BRANCH  17  18
ATOM     18  C   UNL     1      14.720  14.488   2.234  1.00  0.00    -0.000 C 
BRANCH  18  19
ATOM     19  C   UNL     1      15.022  14.440   0.728  1.00  0.00    -0.003 C 
ATOM     20  C   UNL     1      13.768  14.613  -0.130  1.00  0.00     0.004 C 
ENDBRANCH  18  19
ENDBRANCH  17  18
ENDBRANCH  16  17
ENDBRANCH  15  16
ENDBRANCH  14  15
ENDBRANCH  13  14
ENDBRANCH  12  13
ENDBRANCH   1  12
TORSDOF 16
ENDMDL
