MODEL 1
REMARK VINA RESULT:    -4.868      0.000      0.000
REMARK INTER + INTRA:          -6.854
REMARK INTER:                  -6.576
REMARK INTRA:                  -0.278
REMARK UNBOUND:                -0.278
REMARK SMILES CCCCCCC=CC(=O)[O-]
REMARK SMILES IDX 5 1 6 2 7 3 8 4 9 5 10 6 11 7 4 8 3 9 2 10 1 11
REMARK H PARENT
REMARK Flexibility Score: inf
ROOT
ATOM      1  C   UNL     1      -3.626  -8.971  -8.325  1.00  0.00     0.004 C 
ENDROOT
BRANCH   1   2
ATOM      2  C   UNL     1      -5.155  -9.068  -8.408  1.00  0.00     0.027 C 
BRANCH   2   3
ATOM      3  C   UNL     1      -5.808  -7.825  -7.876  1.00  0.00    -0.025 C 
ATOM      4  C   UNL     1      -5.091  -6.838  -7.329  1.00  0.00     0.020 C 
BRANCH   4   5
ATOM      5  C   UNL     1      -5.720  -5.622  -6.791  1.00  0.00     0.064 C 
ATOM      6  O   UNL     1      -6.874  -5.690  -6.293  1.00  0.00    -0.545 OA
ATOM      7  O   UNL     1      -5.061  -4.399  -6.823  1.00  0.00    -0.545 OA
ENDBRANCH   4   5
ENDBRANCH   2   3
ENDBRANCH   1   2
BRANCH   1   8
ATOM      8  C   UNL     1      -2.959 -10.060  -9.173  1.00  0.00     0.000 C 
BRANCH   8   9
ATOM      9  C   UNL     1      -2.426 -11.197  -8.290  1.00  0.00    -0.000 C 
BRANCH   9  10
ATOM     10  C   UNL     1      -3.102 -12.544  -8.589  1.00  0.00    -0.003 C 
ATOM     11  C   UNL     1      -4.445 -12.386  -9.305  1.00  0.00     0.004 C 
ENDBRANCH   9  10
ENDBRANCH   8   9
ENDBRANCH   1   8
TORSDOF 6
ENDMDL
MODEL 2
REMARK VINA RESULT:    -4.769     14.159     15.364
REMARK INTER + INTRA:          -6.720
REMARK INTER:                  -6.443
REMARK INTRA:                  -0.277
REMARK UNBOUND:                -0.278
REMARK SMILES CCCCCCC=CC(=O)[O-]
REMARK SMILES IDX 5 1 6 2 7 3 8 4 9 5 10 6 11 7 4 8 3 9 2 10 1 11
REMARK H PARENT
REMARK Flexibility Score: inf
ROOT
ATOM      1  C   UNL     1      -2.850   0.257   4.680  1.00  0.00     0.004 C 
ENDROOT
BRANCH   1   2
ATOM      2  C   UNL     1      -4.171  -0.274   4.109  1.00  0.00     0.027 C 
BRANCH   2   3
ATOM      3  C   UNL     1      -4.757  -1.337   4.994  1.00  0.00    -0.025 C 
ATOM      4  C   UNL     1      -5.856  -1.112   5.722  1.00  0.00     0.020 C 
BRANCH   4   5
ATOM      5  C   UNL     1      -6.431  -2.139   6.604  1.00  0.00     0.064 C 
ATOM      6  O   UNL     1      -5.842  -2.437   7.675  1.00  0.00    -0.545 OA
ATOM      7  O   UNL     1      -7.617  -2.785   6.274  1.00  0.00    -0.545 OA
ENDBRANCH   4   5
ENDBRANCH   2   3
ENDBRANCH   1   2
BRANCH   1   8
ATOM      8  C   UNL     1      -1.662  -0.173   3.810  1.00  0.00     0.000 C 
BRANCH   8   9
ATOM      9  C   UNL     1      -0.505  -0.690   4.676  1.00  0.00    -0.000 C 
BRANCH   9  10
ATOM     10  C   UNL     1      -0.359  -2.219   4.614  1.00  0.00    -0.003 C 
ATOM     11  C   UNL     1       0.313  -2.698   3.327  1.00  0.00     0.004 C 
ENDBRANCH   9  10
ENDBRANCH   8   9
ENDBRANCH   1   8
TORSDOF 6
ENDMDL
MODEL 3
REMARK VINA RESULT:    -4.735      3.357      5.809
REMARK INTER + INTRA:          -6.674
REMARK INTER:                  -6.305
REMARK INTRA:                  -0.369
REMARK UNBOUND:                -0.278
REMARK SMILES CCCCCCC=CC(=O)[O-]
REMARK SMILES IDX 5 1 6 2 7 3 8 4 9 5 10 6 11 7 4 8 3 9 2 10 1 11
REMARK H PARENT
REMARK Flexibility Score: inf
ROOT
ATOM      1  C   UNL     1      -5.443  -6.751  -6.912  1.00  0.00     0.004 C 
ENDROOT
BRANCH   1   2
ATOM      2  C   UNL     1      -6.048  -7.536  -8.083  1.00  0.00     0.027 C 
BRANCH   2   3
ATOM      3  C   UNL     1      -4.991  -8.298  -8.830  1.00  0.00    -0.025 C 
ATOM      4  C   UNL     1      -3.923  -8.805  -8.206  1.00  0.00     0.020 C 
BRANCH   4   5
ATOM      5  C   UNL     1      -2.874  -9.541  -8.928  1.00  0.00     0.064 C 
ATOM      6  O   UNL     1      -2.387  -9.053  -9.981  1.00  0.00    -0.545 OA
ATOM      7  O   UNL     1      -2.411 -10.768  -8.467  1.00  0.00    -0.545 OA
ENDBRANCH   4   5
ENDBRANCH   2   3
ENDBRANCH   1   2
BRANCH   1   8
ATOM      8  C   UNL     1      -6.453  -5.749  -6.341  1.00  0.00     0.000 C 
BRANCH   8   9
ATOM      9  C   UNL     1      -7.096  -6.289  -5.055  1.00  0.00    -0.000 C 
BRANCH   9  10
ATOM     10  C   UNL     1      -8.604  -6.541  -5.211  1.00  0.00    -0.003 C 
ATOM     11  C   UNL     1      -8.932  -8.003  -5.515  1.00  0.00     0.004 C 
ENDBRANCH   9  10
ENDBRANCH   8   9
ENDBRANCH   1   8
TORSDOF 6
ENDMDL
MODEL 4
REMARK VINA RESULT:    -4.697      1.918      2.719
REMARK INTER + INTRA:          -6.623
REMARK INTER:                  -6.419
REMARK INTRA:                  -0.204
REMARK UNBOUND:                -0.278
REMARK SMILES CCCCCCC=CC(=O)[O-]
REMARK SMILES IDX 5 1 6 2 7 3 8 4 9 5 10 6 11 7 4 8 3 9 2 10 1 11
REMARK H PARENT
REMARK Flexibility Score: inf
ROOT
ATOM      1  C   UNL     1      -4.394  -8.234  -7.662  1.00  0.00     0.004 C 
ENDROOT
BRANCH   1   2
ATOM      2  C   UNL     1      -5.058  -6.874  -7.415  1.00  0.00     0.027 C 
BRANCH   2   3
ATOM      3  C   UNL     1      -6.485  -7.038  -6.976  1.00  0.00    -0.025 C 
ATOM      4  C   UNL     1      -6.930  -6.507  -5.832  1.00  0.00     0.020 C 
BRANCH   4   5
ATOM      5  C   UNL     1      -8.321  -6.672  -5.384  1.00  0.00     0.064 C 
ATOM      6  O   UNL     1      -9.084  -5.673  -5.349  1.00  0.00    -0.545 OA
ATOM      7  O   UNL     1      -8.807  -7.917  -5.000  1.00  0.00    -0.545 OA
ENDBRANCH   4   5
ENDBRANCH   2   3
ENDBRANCH   1   2
BRANCH   1   8
ATOM      8  C   UNL     1      -4.301  -8.537  -9.163  1.00  0.00     0.000 C 
BRANCH   8   9
ATOM      9  C   UNL     1      -2.959  -9.197  -9.509  1.00  0.00    -0.000 C 
BRANCH   9  10
ATOM     10  C   UNL     1      -3.018 -10.731  -9.435  1.00  0.00    -0.003 C 
ATOM     11  C   UNL     1      -2.288 -11.294  -8.215  1.00  0.00     0.004 C 
ENDBRANCH   9  10
ENDBRANCH   8   9
ENDBRANCH   1   8
TORSDOF 6
ENDMDL
MODEL 5
REMARK VINA RESULT:    -4.663     13.908     15.722
REMARK INTER + INTRA:          -6.577
REMARK INTER:                  -5.902
REMARK INTRA:                  -0.675
REMARK UNBOUND:                -0.278
REMARK SMILES CCCCCCC=CC(=O)[O-]
REMARK SMILES IDX 5 1 6 2 7 3 8 4 9 5 10 6 11 7 4 8 3 9 2 10 1 11
REMARK H PARENT
REMARK Flexibility Score: inf
ROOT
ATOM      1  C   UNL     1      -0.753   0.362   4.129  1.00  0.00     0.004 C 
ENDROOT
BRANCH   1   2
ATOM      2  C   UNL     1       0.588   0.635   4.822  1.00  0.00     0.027 C 
BRANCH   2   3
ATOM      3  C   UNL     1       1.584   1.226   3.867  1.00  0.00    -0.025 C 
ATOM      4  C   UNL     1       2.271   0.461   3.011  1.00  0.00     0.020 C 
BRANCH   4   5
ATOM      5  C   UNL     1       3.259   1.027   2.080  1.00  0.00     0.064 C 
ATOM      6  O   UNL     1       4.487   0.869   2.308  1.00  0.00    -0.545 OA
ATOM      7  O   UNL     1       2.860   1.731   0.950  1.00  0.00    -0.545 OA
ENDBRANCH   4   5
ENDBRANCH   2   3
ENDBRANCH   1   2
BRANCH   1   8
ATOM      8  C   UNL     1      -1.046  -1.141   4.069  1.00  0.00     0.000 C 
BRANCH   8   9
ATOM      9  C   UNL     1      -0.180  -1.911   5.077  1.00  0.00    -0.000 C 
BRANCH   9  10
ATOM     10  C   UNL     1       0.709  -2.969   4.404  1.00  0.00    -0.003 C 
ATOM     11  C   UNL     1       0.621  -2.932   2.878  1.00  0.00     0.004 C 
ENDBRANCH   9  10
ENDBRANCH   8   9
ENDBRANCH   1   8
TORSDOF 6
ENDMDL
MODEL 6
REMARK VINA RESULT:    -4.621     13.954     14.981
REMARK INTER + INTRA:          -6.520
REMARK INTER:                  -6.166
REMARK INTRA:                  -0.354
REMARK UNBOUND:                -0.278
REMARK SMILES CCCCCCC=CC(=O)[O-]
REMARK SMILES IDX 5 1 6 2 7 3 8 4 9 5 10 6 11 7 4 8 3 9 2 10 1 11
REMARK H PARENT
REMARK Flexibility Score: inf
ROOT
ATOM      1  C   UNL     1      -2.179   0.023   3.666  1.00  0.00     0.004 C 
ENDROOT
BRANCH   1   2
ATOM      2  C   UNL     1      -3.131  -0.057   4.866  1.00  0.00     0.027 C 
BRANCH   2   3
ATOM      3  C   UNL     1      -4.492  -0.537   4.449  1.00  0.00    -0.025 C 
ATOM      4  C   UNL     1      -5.428  -0.852   5.350  1.00  0.00     0.020 C 
BRANCH   4   5
ATOM      5  C   UNL     1      -6.759  -1.337   4.954  1.00  0.00     0.064 C 
ATOM      6  O   UNL     1      -7.429  -2.035   5.759  1.00  0.00    -0.545 OA
ATOM      7  O   UNL     1      -7.290  -1.036   3.706  1.00  0.00    -0.545 OA
ENDBRANCH   4   5
ENDBRANCH   2   3
ENDBRANCH   1   2
BRANCH   1   8
ATOM      8  C   UNL     1      -0.715  -0.040   4.119  1.00  0.00     0.000 C 
BRANCH   8   9
ATOM      9  C   UNL     1      -0.522  -1.103   5.210  1.00  0.00    -0.000 C 
BRANCH   9  10
ATOM     10  C   UNL     1      -0.376  -2.520   4.634  1.00  0.00    -0.003 C 
ATOM     11  C   UNL     1       0.458  -2.556   3.353  1.00  0.00     0.004 C 
ENDBRANCH   9  10
ENDBRANCH   8   9
ENDBRANCH   1   8
TORSDOF 6
ENDMDL
MODEL 7
REMARK VINA RESULT:    -4.559      3.518      5.923
REMARK INTER + INTRA:          -6.437
REMARK INTER:                  -6.049
REMARK INTRA:                  -0.388
REMARK UNBOUND:                -0.278
REMARK SMILES CCCCCCC=CC(=O)[O-]
REMARK SMILES IDX 5 1 6 2 7 3 8 4 9 5 10 6 11 7 4 8 3 9 2 10 1 11
REMARK H PARENT
REMARK Flexibility Score: inf
ROOT
ATOM      1  C   UNL     1      -5.778  -7.426  -9.204  1.00  0.00     0.004 C 
ENDROOT
BRANCH   1   2
ATOM      2  C   UNL     1      -4.933  -8.426 -10.003  1.00  0.00     0.027 C 
BRANCH   2   3
ATOM      3  C   UNL     1      -4.371  -9.497  -9.113  1.00  0.00    -0.025 C 
ATOM      4  C   UNL     1      -3.551 -10.440  -9.587  1.00  0.00     0.020 C 
BRANCH   4   5
ATOM      5  C   UNL     1      -3.006 -11.503  -8.729  1.00  0.00     0.064 C 
ATOM      6  O   UNL     1      -2.008 -11.262  -8.001  1.00  0.00    -0.545 OA
ATOM      7  O   UNL     1      -3.576 -12.771  -8.707  1.00  0.00    -0.545 OA
ENDBRANCH   4   5
ENDBRANCH   2   3
ENDBRANCH   1   2
BRANCH   1   8
ATOM      8  C   UNL     1      -6.093  -7.967  -7.804  1.00  0.00     0.000 C 
BRANCH   8   9
ATOM      9  C   UNL     1      -6.283  -6.821  -6.801  1.00  0.00    -0.000 C 
BRANCH   9  10
ATOM     10  C   UNL     1      -4.979  -6.055  -6.525  1.00  0.00    -0.003 C 
ATOM     11  C   UNL     1      -5.058  -4.584  -6.934  1.00  0.00     0.004 C 
ENDBRANCH   9  10
ENDBRANCH   8   9
ENDBRANCH   1   8
TORSDOF 6
ENDMDL
MODEL 8
REMARK VINA RESULT:    -4.512      1.632      2.562
REMARK INTER + INTRA:          -6.373
REMARK INTER:                  -5.812
REMARK INTRA:                  -0.561
REMARK UNBOUND:                -0.278
REMARK SMILES CCCCCCC=CC(=O)[O-]
REMARK SMILES IDX 5 1 6 2 7 3 8 4 9 5 10 6 11 7 4 8 3 9 2 10 1 11
REMARK H PARENT
REMARK Flexibility Score: inf
ROOT
ATOM      1  C   UNL     1      -3.184 -10.698  -9.008  1.00  0.00     0.004 C 
ENDROOT
BRANCH   1   2
ATOM      2  C   UNL     1      -3.113  -9.314  -8.349  1.00  0.00     0.027 C 
BRANCH   2   3
ATOM      3  C   UNL     1      -4.423  -8.589  -8.467  1.00  0.00    -0.025 C 
ATOM      4  C   UNL     1      -4.752  -7.601  -7.628  1.00  0.00     0.020 C 
BRANCH   4   5
ATOM      5  C   UNL     1      -6.038  -6.893  -7.724  1.00  0.00     0.064 C 
ATOM      6  O   UNL     1      -6.099  -5.800  -8.346  1.00  0.00    -0.545 OA
ATOM      7  O   UNL     1      -7.188  -7.411  -7.139  1.00  0.00    -0.545 OA
ENDBRANCH   4   5
ENDBRANCH   2   3
ENDBRANCH   1   2
BRANCH   1   8
ATOM      8  C   UNL     1      -4.471 -10.852  -9.828  1.00  0.00     0.000 C 
BRANCH   8   9
ATOM      9  C   UNL     1      -5.285 -12.064  -9.351  1.00  0.00    -0.000 C 
BRANCH   9  10
ATOM     10  C   UNL     1      -6.800 -11.812  -9.395  1.00  0.00    -0.003 C 
ATOM     11  C   UNL     1      -7.286 -10.923  -8.250  1.00  0.00     0.004 C 
ENDBRANCH   9  10
ENDBRANCH   8   9
ENDBRANCH   1   8
TORSDOF 6
ENDMDL
MODEL 9
REMARK VINA RESULT:    -4.449      1.071      2.098
REMARK INTER + INTRA:          -6.288
REMARK INTER:                  -5.751
REMARK INTRA:                  -0.537
REMARK UNBOUND:                -0.278
REMARK SMILES CCCCCCC=CC(=O)[O-]
REMARK SMILES IDX 5 1 6 2 7 3 8 4 9 5 10 6 11 7 4 8 3 9 2 10 1 11
REMARK H PARENT
REMARK Flexibility Score: inf
ROOT
ATOM      1  C   UNL     1      -6.186 -10.026  -8.995  1.00  0.00     0.004 C 
ENDROOT
BRANCH   1   2
ATOM      2  C   UNL     1      -6.103  -8.698  -9.760  1.00  0.00     0.027 C 
BRANCH   2   3
ATOM      3  C   UNL     1      -6.295  -7.528  -8.838  1.00  0.00    -0.025 C 
ATOM      4  C   UNL     1      -5.508  -7.339  -7.774  1.00  0.00     0.020 C 
BRANCH   4   5
ATOM      5  C   UNL     1      -5.695  -6.206  -6.856  1.00  0.00     0.064 C 
ATOM      6  O   UNL     1      -4.703  -5.504  -6.527  1.00  0.00    -0.545 OA
ATOM      7  O   UNL     1      -6.950  -5.894  -6.347  1.00  0.00    -0.545 OA
ENDBRANCH   4   5
ENDBRANCH   2   3
ENDBRANCH   1   2
BRANCH   1   8
ATOM      8  C   UNL     1      -5.036 -10.960  -9.389  1.00  0.00     0.000 C 
BRANCH   8   9
ATOM      9  C   UNL     1      -3.862 -10.169  -9.983  1.00  0.00    -0.000 C 
BRANCH   9  10
ATOM     10  C   UNL     1      -2.687 -10.030  -9.003  1.00  0.00    -0.003 C 
ATOM     11  C   UNL     1      -2.315 -11.354  -8.334  1.00  0.00     0.004 C 
ENDBRANCH   9  10
ENDBRANCH   8   9
ENDBRANCH   1   8
TORSDOF 6
ENDMDL
