MODEL 1
REMARK VINA RESULT:    -2.139      0.000      0.000
REMARK INTER + INTRA:          -2.139
REMARK INTER:                  -2.139
REMARK INTRA:                   0.000
REMARK UNBOUND:                 0.000
REMARK SMILES CC(=O)[O-]
REMARK SMILES IDX 1 1 2 2 3 3 4 4
REMARK H PARENT
REMARK Flexibility Score: inf
ROOT
ATOM      1  C   UNL     1      86.519  90.794  73.292  1.00  0.00     0.063 C 
ATOM      2  C   UNL     1      86.759  90.363  71.886  1.00  0.00     0.038 C 
ATOM      3  O   UNL     1      87.859  90.615  71.328  1.00  0.00    -0.550 OA
ATOM      4  O   UNL     1      85.752  89.731  71.169  1.00  0.00    -0.550 OA
ENDROOT
TORSDOF 0
ENDMDL
MODEL 2
REMARK VINA RESULT:    -2.126     14.876     15.133
REMARK INTER + INTRA:          -2.126
REMARK INTER:                  -2.126
REMARK INTRA:                   0.000
REMARK UNBOUND:                 0.000
REMARK SMILES CC(=O)[O-]
REMARK SMILES IDX 1 1 2 2 3 3 4 4
REMARK H PARENT
REMARK Flexibility Score: inf
ROOT
ATOM      1  C   UNL     1      86.764  76.789  75.750  1.00  0.00     0.063 C 
ATOM      2  C   UNL     1      87.238  75.633  74.938  1.00  0.00     0.038 C 
ATOM      3  O   UNL     1      86.408  74.825  74.445  1.00  0.00    -0.550 OA
ATOM      4  O   UNL     1      88.599  75.412  74.768  1.00  0.00    -0.550 OA
ENDROOT
TORSDOF 0
ENDMDL
MODEL 3
REMARK VINA RESULT:    -2.082     11.250     11.540
REMARK INTER + INTRA:          -2.082
REMARK INTER:                  -2.082
REMARK INTRA:                   0.000
REMARK UNBOUND:                 0.000
REMARK SMILES CC(=O)[O-]
REMARK SMILES IDX 1 1 2 2 3 3 4 4
REMARK H PARENT
REMARK Flexibility Score: inf
ROOT
ATOM      1  C   UNL     1      93.947  83.744  79.261  1.00  0.00     0.063 C 
ATOM      2  C   UNL     1      92.625  84.356  79.574  1.00  0.00     0.038 C 
ATOM      3  O   UNL     1      92.086  84.157  80.694  1.00  0.00    -0.550 OA
ATOM      4  O   UNL     1      91.958  85.104  78.612  1.00  0.00    -0.550 OA
ENDROOT
TORSDOF 0
ENDMDL
MODEL 4
REMARK VINA RESULT:    -2.064     16.959     17.346
REMARK INTER + INTRA:          -2.064
REMARK INTER:                  -2.064
REMARK INTRA:                   0.000
REMARK UNBOUND:                 0.000
REMARK SMILES CC(=O)[O-]
REMARK SMILES IDX 1 1 2 2 3 3 4 4
REMARK H PARENT
REMARK Flexibility Score: inf
ROOT
ATOM      1  C   UNL     1     100.478  83.814  82.672  1.00  0.00     0.063 C 
ATOM      2  C   UNL     1      99.219  83.859  81.876  1.00  0.00     0.038 C 
ATOM      3  O   UNL     1      98.990  84.832  81.111  1.00  0.00    -0.550 OA
ATOM      4  O   UNL     1      98.270  82.855  82.015  1.00  0.00    -0.550 OA
ENDROOT
TORSDOF 0
ENDMDL
MODEL 5
REMARK VINA RESULT:    -2.054     14.320     14.593
REMARK INTER + INTRA:          -2.054
REMARK INTER:                  -2.054
REMARK INTRA:                   0.000
REMARK UNBOUND:                 0.000
REMARK SMILES CC(=O)[O-]
REMARK SMILES IDX 1 1 2 2 3 3 4 4
REMARK H PARENT
REMARK Flexibility Score: inf
ROOT
ATOM      1  C   UNL     1      88.120  76.913  75.224  1.00  0.00     0.063 C 
ATOM      2  C   UNL     1      86.786  76.254  75.153  1.00  0.00     0.038 C 
ATOM      3  O   UNL     1      85.778  76.812  75.659  1.00  0.00    -0.550 OA
ATOM      4  O   UNL     1      86.659  74.997  74.574  1.00  0.00    -0.550 OA
ENDROOT
TORSDOF 0
ENDMDL
MODEL 6
REMARK VINA RESULT:    -2.050     12.089     12.107
REMARK INTER + INTRA:          -2.050
REMARK INTER:                  -2.050
REMARK INTRA:                   0.000
REMARK UNBOUND:                 0.000
REMARK SMILES CC(=O)[O-]
REMARK SMILES IDX 1 1 2 2 3 3 4 4
REMARK H PARENT
REMARK Flexibility Score: inf
ROOT
ATOM      1  C   UNL     1      89.622  78.558  72.103  1.00  0.00     0.063 C 
ATOM      2  C   UNL     1      88.491  78.463  71.138  1.00  0.00     0.038 C 
ATOM      3  O   UNL     1      88.717  78.460  69.899  1.00  0.00    -0.550 OA
ATOM      4  O   UNL     1      87.182  78.432  71.599  1.00  0.00    -0.550 OA
ENDROOT
TORSDOF 0
ENDMDL
MODEL 7
REMARK VINA RESULT:    -2.048     14.852     15.135
REMARK INTER + INTRA:          -2.048
REMARK INTER:                  -2.048
REMARK INTRA:                   0.000
REMARK UNBOUND:                 0.000
REMARK SMILES CC(=O)[O-]
REMARK SMILES IDX 1 1 2 2 3 3 4 4
REMARK H PARENT
REMARK Flexibility Score: inf
ROOT
ATOM      1  C   UNL     1      85.381  75.690  73.211  1.00  0.00     0.063 C 
ATOM      2  C   UNL     1      86.795  75.416  73.593  1.00  0.00     0.038 C 
ATOM      3  O   UNL     1      87.076  75.072  74.770  1.00  0.00    -0.550 OA
ATOM      4  O   UNL     1      87.814  75.590  72.664  1.00  0.00    -0.550 OA
ENDROOT
TORSDOF 0
ENDMDL
MODEL 8
REMARK VINA RESULT:    -2.041     12.278     12.464
REMARK INTER + INTRA:          -2.041
REMARK INTER:                  -2.041
REMARK INTRA:                   0.000
REMARK UNBOUND:                 0.000
REMARK SMILES CC(=O)[O-]
REMARK SMILES IDX 1 1 2 2 3 3 4 4
REMARK H PARENT
REMARK Flexibility Score: inf
ROOT
ATOM      1  C   UNL     1      89.750  78.450  72.095  1.00  0.00     0.063 C 
ATOM      2  C   UNL     1      89.810  78.497  70.607  1.00  0.00     0.038 C 
ATOM      3  O   UNL     1      88.749  78.465  69.931  1.00  0.00    -0.550 OA
ATOM      4  O   UNL     1      91.039  78.522  69.960  1.00  0.00    -0.550 OA
ENDROOT
TORSDOF 0
ENDMDL
MODEL 9
REMARK VINA RESULT:    -1.992     12.336     12.752
REMARK INTER + INTRA:          -1.992
REMARK INTER:                  -1.992
REMARK INTRA:                   0.000
REMARK UNBOUND:                 0.000
REMARK SMILES CC(=O)[O-]
REMARK SMILES IDX 1 1 2 2 3 3 4 4
REMARK H PARENT
REMARK Flexibility Score: inf
ROOT
ATOM      1  C   UNL     1      93.903  83.781  79.296  1.00  0.00     0.063 C 
ATOM      2  C   UNL     1      94.954  84.780  79.639  1.00  0.00     0.038 C 
ATOM      3  O   UNL     1      95.125  85.791  78.910  1.00  0.00    -0.550 OA
ATOM      4  O   UNL     1      95.782  84.571  80.734  1.00  0.00    -0.550 OA
ENDROOT
TORSDOF 0
ENDMDL
