MODEL 1
REMARK VINA RESULT:    23.711      0.000      0.000
REMARK INTER + INTRA:          62.165
REMARK INTER:                  62.524
REMARK INTRA:                  -0.358
REMARK UNBOUND:                -0.358
REMARK SMILES CCCCCCCCCCCCCCCCCCCCCCCCCCCCCC(=O)[O-]
REMARK SMILES IDX 16 1 17 2 18 3 19 4 20 5 21 6 22 7 23 8 24 9 25 10 26 11
REMARK SMILES IDX 27 12 28 13 29 14 30 15 31 16 32 17 15 18 14 19 13 20 12 21
REMARK SMILES IDX 11 22 10 23 9 24 8 25 7 26 6 27 5 28 4 29 3 30 2 31 1 32
REMARK H PARENT
REMARK Flexibility Score: inf
ROOT
ATOM      1  C   UNL     1      -7.158  37.246 -16.396  1.00  0.00     0.000 C 
ENDROOT
BRANCH   1   2
ATOM      2  C   UNL     1      -5.879  36.795 -17.116  1.00  0.00     0.000 C 
BRANCH   2   3
ATOM      3  C   UNL     1      -6.092  35.439 -17.804  1.00  0.00     0.000 C 
BRANCH   3   4
ATOM      4  C   UNL     1      -6.022  34.254 -16.825  1.00  0.00     0.000 C 
BRANCH   4   5
ATOM      5  C   UNL     1      -6.568  34.543 -15.411  1.00  0.00     0.000 C 
BRANCH   5   6
ATOM      6  C   UNL     1      -8.020  34.097 -15.165  1.00  0.00     0.000 C 
BRANCH   6   7
ATOM      7  C   UNL     1      -8.161  32.575 -15.015  1.00  0.00     0.000 C 
BRANCH   7   8
ATOM      8  C   UNL     1      -7.815  31.857 -16.324  1.00  0.00     0.000 C 
BRANCH   8   9
ATOM      9  C   UNL     1      -9.014  31.850 -17.278  1.00  0.00     0.000 C 
BRANCH   9  10
ATOM     10  C   UNL     1      -8.638  32.435 -18.648  1.00  0.00     0.000 C 
BRANCH  10  11
ATOM     11  C   UNL     1      -8.796  33.970 -18.692  1.00  0.00     0.000 C 
BRANCH  11  12
ATOM     12  C   UNL     1      -9.728  34.469 -19.813  1.00  0.00     0.000 C 
BRANCH  12  13
ATOM     13  C   UNL     1     -10.032  33.437 -20.912  1.00  0.00     0.006 C 
BRANCH  13  14
ATOM     14  C   UNL     1     -11.198  32.504 -20.549  1.00  0.00     0.053 C 
BRANCH  14  15
ATOM     15  C   UNL     1     -12.376  32.733 -21.444  1.00  0.00     0.041 C 
ATOM     16  O   UNL     1     -13.156  31.785 -21.728  1.00  0.00    -0.550 OA
ATOM     17  O   UNL     1     -12.644  34.010 -21.925  1.00  0.00    -0.550 OA
ENDBRANCH  14  15
ENDBRANCH  13  14
ENDBRANCH  12  13
ENDBRANCH  11  12
ENDBRANCH  10  11
ENDBRANCH   9  10
ENDBRANCH   8   9
ENDBRANCH   7   8
ENDBRANCH   6   7
ENDBRANCH   5   6
ENDBRANCH   4   5
ENDBRANCH   3   4
ENDBRANCH   2   3
ENDBRANCH   1   2
BRANCH   1  18
ATOM     18  C   UNL     1      -7.093  38.712 -15.938  1.00  0.00     0.000 C 
BRANCH  18  19
ATOM     19  C   UNL     1      -8.481  39.378 -15.891  1.00  0.00     0.000 C 
BRANCH  19  20
ATOM     20  C   UNL     1      -8.403  40.851 -15.432  1.00  0.00     0.000 C 
BRANCH  20  21
ATOM     21  C   UNL     1      -8.556  41.029 -13.911  1.00  0.00     0.000 C 
BRANCH  21  22
ATOM     22  C   UNL     1      -7.332  41.697 -13.264  1.00  0.00     0.000 C 
BRANCH  22  23
ATOM     23  C   UNL     1      -7.566  42.068 -11.790  1.00  0.00     0.000 C 
BRANCH  23  24
ATOM     24  C   UNL     1      -8.318  40.984 -10.990  1.00  0.00    -0.000 C 
BRANCH  24  25
ATOM     25  C   UNL     1      -9.681  41.483 -10.484  1.00  0.00    -0.000 C 
BRANCH  25  26
ATOM     26  C   UNL     1     -10.842  41.110 -11.422  1.00  0.00    -0.000 C 
BRANCH  26  27
ATOM     27  C   UNL     1     -12.226  41.034 -10.745  1.00  0.00    -0.000 C 
BRANCH  27  28
ATOM     28  C   UNL     1     -12.813  39.614 -10.612  1.00  0.00    -0.000 C 
BRANCH  28  29
ATOM     29  C   UNL     1     -13.154  39.184  -9.175  1.00  0.00    -0.000 C 
BRANCH  29  30
ATOM     30  C   UNL     1     -14.079  37.959  -9.122  1.00  0.00    -0.000 C 
BRANCH  30  31
ATOM     31  C   UNL     1     -15.541  38.383  -8.945  1.00  0.00    -0.003 C 
ATOM     32  C   UNL     1     -16.470  37.174  -8.933  1.00  0.00     0.004 C 
ENDBRANCH  30  31
ENDBRANCH  29  30
ENDBRANCH  28  29
ENDBRANCH  27  28
ENDBRANCH  26  27
ENDBRANCH  25  26
ENDBRANCH  24  25
ENDBRANCH  23  24
ENDBRANCH  22  23
ENDBRANCH  21  22
ENDBRANCH  20  21
ENDBRANCH  19  20
ENDBRANCH  18  19
ENDBRANCH   1  18
TORSDOF 28
ENDMDL
MODEL 2
REMARK VINA RESULT:    24.512      6.819     12.282
REMARK INTER + INTRA:          64.276
REMARK INTER:                  61.890
REMARK INTRA:                   2.386
REMARK UNBOUND:                -0.358
REMARK SMILES CCCCCCCCCCCCCCCCCCCCCCCCCCCCCC(=O)[O-]
REMARK SMILES IDX 16 1 17 2 18 3 19 4 20 5 21 6 22 7 23 8 24 9 25 10 26 11
REMARK SMILES IDX 27 12 28 13 29 14 30 15 31 16 32 17 15 18 14 19 13 20 12 21
REMARK SMILES IDX 11 22 10 23 9 24 8 25 7 26 6 27 5 28 4 29 3 30 2 31 1 32
REMARK H PARENT
REMARK Flexibility Score: inf
ROOT
ATOM      1  C   UNL     1      -9.953  33.804 -19.900  1.00  0.00     0.000 C 
ENDROOT
BRANCH   1   2
ATOM      2  C   UNL     1      -9.070  32.685 -19.332  1.00  0.00     0.000 C 
BRANCH   2   3
ATOM      3  C   UNL     1      -8.331  33.160 -18.073  1.00  0.00     0.000 C 
BRANCH   3   4
ATOM      4  C   UNL     1      -7.566  34.478 -18.290  1.00  0.00     0.000 C 
BRANCH   4   5
ATOM      5  C   UNL     1      -6.366  34.698 -17.346  1.00  0.00     0.000 C 
BRANCH   5   6
ATOM      6  C   UNL     1      -6.654  34.461 -15.853  1.00  0.00     0.000 C 
BRANCH   6   7
ATOM      7  C   UNL     1      -8.028  33.823 -15.603  1.00  0.00     0.000 C 
BRANCH   7   8
ATOM      8  C   UNL     1      -8.041  32.353 -16.039  1.00  0.00     0.000 C 
BRANCH   8   9
ATOM      9  C   UNL     1      -7.567  31.440 -14.903  1.00  0.00     0.000 C 
BRANCH   9  10
ATOM     10  C   UNL     1      -8.387  31.675 -13.624  1.00  0.00     0.000 C 
BRANCH  10  11
ATOM     11  C   UNL     1      -8.281  30.493 -12.637  1.00  0.00     0.000 C 
BRANCH  11  12
ATOM     12  C   UNL     1      -6.833  30.066 -12.328  1.00  0.00     0.000 C 
BRANCH  12  13
ATOM     13  C   UNL     1      -6.592  29.585 -10.887  1.00  0.00     0.006 C 
BRANCH  13  14
ATOM     14  C   UNL     1      -7.379  28.311 -10.544  1.00  0.00     0.053 C 
BRANCH  14  15
ATOM     15  C   UNL     1      -8.705  28.639  -9.930  1.00  0.00     0.041 C 
ATOM     16  O   UNL     1      -8.953  29.810  -9.536  1.00  0.00    -0.550 OA
ATOM     17  O   UNL     1      -9.689  27.661  -9.841  1.00  0.00    -0.550 OA
ENDBRANCH  14  15
ENDBRANCH  13  14
ENDBRANCH  12  13
ENDBRANCH  11  12
ENDBRANCH  10  11
ENDBRANCH   9  10
ENDBRANCH   8   9
ENDBRANCH   7   8
ENDBRANCH   6   7
ENDBRANCH   5   6
ENDBRANCH   4   5
ENDBRANCH   3   4
ENDBRANCH   2   3
ENDBRANCH   1   2
BRANCH   1  18
ATOM     18  C   UNL     1     -10.558  33.446 -21.266  1.00  0.00     0.000 C 
BRANCH  18  19
ATOM     19  C   UNL     1     -12.074  33.710 -21.329  1.00  0.00     0.000 C 
BRANCH  19  20
ATOM     20  C   UNL     1     -12.788  32.768 -22.322  1.00  0.00     0.000 C 
BRANCH  20  21
ATOM     21  C   UNL     1     -13.981  32.017 -21.706  1.00  0.00     0.000 C 
BRANCH  21  22
ATOM     22  C   UNL     1     -13.578  30.677 -21.071  1.00  0.00     0.000 C 
BRANCH  22  23
ATOM     23  C   UNL     1     -14.349  30.375 -19.775  1.00  0.00     0.000 C 
BRANCH  23  24
ATOM     24  C   UNL     1     -15.659  29.592 -20.003  1.00  0.00    -0.000 C 
BRANCH  24  25
ATOM     25  C   UNL     1     -15.857  28.482 -18.958  1.00  0.00    -0.000 C 
BRANCH  25  26
ATOM     26  C   UNL     1     -16.153  27.110 -19.589  1.00  0.00    -0.000 C 
BRANCH  26  27
ATOM     27  C   UNL     1     -16.885  26.115 -18.665  1.00  0.00    -0.000 C 
BRANCH  27  28
ATOM     28  C   UNL     1     -16.194  24.746 -18.500  1.00  0.00    -0.000 C 
BRANCH  28  29
ATOM     29  C   UNL     1     -16.886  23.577 -19.222  1.00  0.00    -0.000 C 
BRANCH  29  30
ATOM     30  C   UNL     1     -15.971  22.878 -20.239  1.00  0.00    -0.000 C 
BRANCH  30  31
ATOM     31  C   UNL     1     -15.264  23.902 -21.135  1.00  0.00    -0.003 C 
ATOM     32  C   UNL     1     -14.017  23.305 -21.778  1.00  0.00     0.004 C 
ENDBRANCH  30  31
ENDBRANCH  29  30
ENDBRANCH  28  29
ENDBRANCH  27  28
ENDBRANCH  26  27
ENDBRANCH  25  26
ENDBRANCH  24  25
ENDBRANCH  23  24
ENDBRANCH  22  23
ENDBRANCH  21  22
ENDBRANCH  20  21
ENDBRANCH  19  20
ENDBRANCH  18  19
ENDBRANCH   1  18
TORSDOF 28
ENDMDL
MODEL 3
REMARK VINA RESULT:    24.871      1.800      2.705
REMARK INTER + INTRA:          65.223
REMARK INTER:                  64.817
REMARK INTRA:                   0.406
REMARK UNBOUND:                -0.358
REMARK SMILES CCCCCCCCCCCCCCCCCCCCCCCCCCCCCC(=O)[O-]
REMARK SMILES IDX 16 1 17 2 18 3 19 4 20 5 21 6 22 7 23 8 24 9 25 10 26 11
REMARK SMILES IDX 27 12 28 13 29 14 30 15 31 16 32 17 15 18 14 19 13 20 12 21
REMARK SMILES IDX 11 22 10 23 9 24 8 25 7 26 6 27 5 28 4 29 3 30 2 31 1 32
REMARK H PARENT
REMARK Flexibility Score: inf
ROOT
ATOM      1  C   UNL     1      -7.148  37.006 -16.377  1.00  0.00     0.000 C 
ENDROOT
BRANCH   1   2
ATOM      2  C   UNL     1      -5.908  36.539 -17.151  1.00  0.00     0.000 C 
BRANCH   2   3
ATOM      3  C   UNL     1      -6.082  35.093 -17.635  1.00  0.00     0.000 C 
BRANCH   3   4
ATOM      4  C   UNL     1      -6.096  34.073 -16.482  1.00  0.00     0.000 C 
BRANCH   4   5
ATOM      5  C   UNL     1      -6.814  34.548 -15.201  1.00  0.00     0.000 C 
BRANCH   5   6
ATOM      6  C   UNL     1      -8.288  34.124 -15.080  1.00  0.00     0.000 C 
BRANCH   6   7
ATOM      7  C   UNL     1      -8.472  32.600 -15.057  1.00  0.00     0.000 C 
BRANCH   7   8
ATOM      8  C   UNL     1      -7.820  31.947 -16.282  1.00  0.00     0.000 C 
BRANCH   8   9
ATOM      9  C   UNL     1      -8.830  31.797 -17.425  1.00  0.00     0.000 C 
BRANCH   9  10
ATOM     10  C   UNL     1      -8.318  32.466 -18.710  1.00  0.00     0.000 C 
BRANCH  10  11
ATOM     11  C   UNL     1      -8.718  33.955 -18.793  1.00  0.00     0.000 C 
BRANCH  11  12
ATOM     12  C   UNL     1      -9.983  34.215 -19.634  1.00  0.00     0.000 C 
BRANCH  12  13
ATOM     13  C   UNL     1     -10.081  33.392 -20.930  1.00  0.00     0.006 C 
BRANCH  13  14
ATOM     14  C   UNL     1     -11.164  32.305 -20.866  1.00  0.00     0.053 C 
BRANCH  14  15
ATOM     15  C   UNL     1     -12.447  32.778 -21.478  1.00  0.00     0.041 C 
ATOM     16  O   UNL     1     -12.590  33.987 -21.804  1.00  0.00    -0.550 OA
ATOM     17  O   UNL     1     -13.468  31.871 -21.738  1.00  0.00    -0.550 OA
ENDBRANCH  14  15
ENDBRANCH  13  14
ENDBRANCH  12  13
ENDBRANCH  11  12
ENDBRANCH  10  11
ENDBRANCH   9  10
ENDBRANCH   8   9
ENDBRANCH   7   8
ENDBRANCH   6   7
ENDBRANCH   5   6
ENDBRANCH   4   5
ENDBRANCH   3   4
ENDBRANCH   2   3
ENDBRANCH   1   2
BRANCH   1  18
ATOM     18  C   UNL     1      -7.077  38.491 -15.985  1.00  0.00     0.000 C 
BRANCH  18  19
ATOM     19  C   UNL     1      -8.458  39.173 -15.999  1.00  0.00     0.000 C 
BRANCH  19  20
ATOM     20  C   UNL     1      -8.390  40.635 -15.506  1.00  0.00     0.000 C 
BRANCH  20  21
ATOM     21  C   UNL     1      -8.506  40.772 -13.978  1.00  0.00     0.000 C 
BRANCH  21  22
ATOM     22  C   UNL     1      -7.476  41.748 -13.388  1.00  0.00     0.000 C 
BRANCH  22  23
ATOM     23  C   UNL     1      -7.965  42.420 -12.094  1.00  0.00     0.000 C 
BRANCH  23  24
ATOM     24  C   UNL     1      -8.295  41.422 -10.965  1.00  0.00    -0.000 C 
BRANCH  24  25
ATOM     25  C   UNL     1      -9.575  40.621 -11.259  1.00  0.00    -0.000 C 
BRANCH  25  26
ATOM     26  C   UNL     1     -10.799  41.141 -10.484  1.00  0.00    -0.000 C 
BRANCH  26  27
ATOM     27  C   UNL     1     -12.104  41.211 -11.303  1.00  0.00    -0.000 C 
BRANCH  27  28
ATOM     28  C   UNL     1     -12.194  42.392 -12.291  1.00  0.00    -0.000 C 
BRANCH  28  29
ATOM     29  C   UNL     1     -11.979  42.021 -13.769  1.00  0.00    -0.000 C 
BRANCH  29  30
ATOM     30  C   UNL     1     -12.437  43.125 -14.733  1.00  0.00    -0.000 C 
BRANCH  30  31
ATOM     31  C   UNL     1     -13.877  42.884 -15.200  1.00  0.00    -0.003 C 
ATOM     32  C   UNL     1     -14.552  41.796 -14.370  1.00  0.00     0.004 C 
ENDBRANCH  30  31
ENDBRANCH  29  30
ENDBRANCH  28  29
ENDBRANCH  27  28
ENDBRANCH  26  27
ENDBRANCH  25  26
ENDBRANCH  24  25
ENDBRANCH  23  24
ENDBRANCH  22  23
ENDBRANCH  21  22
ENDBRANCH  20  21
ENDBRANCH  19  20
ENDBRANCH  18  19
ENDBRANCH   1  18
TORSDOF 28
ENDMDL
MODEL 4
REMARK VINA RESULT:    24.998      1.685      5.356
REMARK INTER + INTRA:          65.559
REMARK INTER:                  64.413
REMARK INTRA:                   1.146
REMARK UNBOUND:                -0.358
REMARK SMILES CCCCCCCCCCCCCCCCCCCCCCCCCCCCCC(=O)[O-]
REMARK SMILES IDX 16 1 17 2 18 3 19 4 20 5 21 6 22 7 23 8 24 9 25 10 26 11
REMARK SMILES IDX 27 12 28 13 29 14 30 15 31 16 32 17 15 18 14 19 13 20 12 21
REMARK SMILES IDX 11 22 10 23 9 24 8 25 7 26 6 27 5 28 4 29 3 30 2 31 1 32
REMARK H PARENT
REMARK Flexibility Score: inf
ROOT
ATOM      1  C   UNL     1     -10.885  36.083 -12.209  1.00  0.00     0.000 C 
ENDROOT
BRANCH   1   2
ATOM      2  C   UNL     1     -10.114  34.787 -11.924  1.00  0.00     0.000 C 
BRANCH   2   3
ATOM      3  C   UNL     1      -8.908  34.653 -12.864  1.00  0.00     0.000 C 
BRANCH   3   4
ATOM      4  C   UNL     1      -9.093  33.548 -13.920  1.00  0.00     0.000 C 
BRANCH   4   5
ATOM      5  C   UNL     1      -8.227  32.289 -13.704  1.00  0.00     0.000 C 
BRANCH   5   6
ATOM      6  C   UNL     1      -8.004  31.424 -14.958  1.00  0.00     0.000 C 
BRANCH   6   7
ATOM      7  C   UNL     1      -8.562  32.069 -16.235  1.00  0.00     0.000 C 
BRANCH   7   8
ATOM      8  C   UNL     1      -8.477  33.598 -16.165  1.00  0.00     0.000 C 
BRANCH   8   9
ATOM      9  C   UNL     1      -7.292  34.119 -16.985  1.00  0.00     0.000 C 
BRANCH   9  10
ATOM     10  C   UNL     1      -7.574  34.020 -18.493  1.00  0.00     0.000 C 
BRANCH  10  11
ATOM     11  C   UNL     1      -9.053  33.692 -18.791  1.00  0.00     0.000 C 
BRANCH  11  12
ATOM     12  C   UNL     1      -9.667  34.548 -19.915  1.00  0.00     0.000 C 
BRANCH  12  13
ATOM     13  C   UNL     1     -10.090  33.764 -21.169  1.00  0.00     0.006 C 
BRANCH  13  14
ATOM     14  C   UNL     1     -11.304  32.854 -20.924  1.00  0.00     0.053 C 
BRANCH  14  15
ATOM     15  C   UNL     1     -12.332  33.017 -22.000  1.00  0.00     0.041 C 
ATOM     16  O   UNL     1     -13.468  32.483 -21.884  1.00  0.00    -0.550 OA
ATOM     17  O   UNL     1     -12.054  33.805 -23.112  1.00  0.00    -0.550 OA
ENDBRANCH  14  15
ENDBRANCH  13  14
ENDBRANCH  12  13
ENDBRANCH  11  12
ENDBRANCH  10  11
ENDBRANCH   9  10
ENDBRANCH   8   9
ENDBRANCH   7   8
ENDBRANCH   6   7
ENDBRANCH   5   6
ENDBRANCH   4   5
ENDBRANCH   3   4
ENDBRANCH   2   3
ENDBRANCH   1   2
BRANCH   1  18
ATOM     18  C   UNL     1     -12.360  36.001 -11.786  1.00  0.00     0.000 C 
BRANCH  18  19
ATOM     19  C   UNL     1     -12.852  37.290 -11.101  1.00  0.00     0.000 C 
BRANCH  19  20
ATOM     20  C   UNL     1     -13.574  37.000  -9.767  1.00  0.00     0.000 C 
BRANCH  20  21
ATOM     21  C   UNL     1     -15.051  37.431  -9.763  1.00  0.00     0.000 C 
BRANCH  21  22
ATOM     22  C   UNL     1     -15.292  38.724  -8.968  1.00  0.00     0.000 C 
BRANCH  22  23
ATOM     23  C   UNL     1     -14.011  39.269  -8.315  1.00  0.00     0.000 C 
BRANCH  23  24
ATOM     24  C   UNL     1     -13.024  39.900  -9.319  1.00  0.00    -0.000 C 
BRANCH  24  25
ATOM     25  C   UNL     1     -12.184  41.017  -8.678  1.00  0.00    -0.000 C 
BRANCH  25  26
ATOM     26  C   UNL     1     -11.468  41.900  -9.716  1.00  0.00    -0.000 C 
BRANCH  26  27
ATOM     27  C   UNL     1     -11.379  41.294 -11.132  1.00  0.00    -0.000 C 
BRANCH  27  28
ATOM     28  C   UNL     1     -10.103  40.474 -11.414  1.00  0.00    -0.000 C 
BRANCH  28  29
ATOM     29  C   UNL     1      -8.847  40.949 -10.663  1.00  0.00    -0.000 C 
BRANCH  29  30
ATOM     30  C   UNL     1      -7.684  41.294 -11.605  1.00  0.00    -0.000 C 
BRANCH  30  31
ATOM     31  C   UNL     1      -8.186  41.518 -13.037  1.00  0.00    -0.003 C 
ATOM     32  C   UNL     1      -7.135  42.226 -13.886  1.00  0.00     0.004 C 
ENDBRANCH  30  31
ENDBRANCH  29  30
ENDBRANCH  28  29
ENDBRANCH  27  28
ENDBRANCH  26  27
ENDBRANCH  25  26
ENDBRANCH  24  25
ENDBRANCH  23  24
ENDBRANCH  22  23
ENDBRANCH  21  22
ENDBRANCH  20  21
ENDBRANCH  19  20
ENDBRANCH  18  19
ENDBRANCH   1  18
TORSDOF 28
ENDMDL
MODEL 5
REMARK VINA RESULT:    25.122      6.177      9.167
REMARK INTER + INTRA:          65.885
REMARK INTER:                  64.047
REMARK INTRA:                   1.838
REMARK UNBOUND:                -0.358
REMARK SMILES CCCCCCCCCCCCCCCCCCCCCCCCCCCCCC(=O)[O-]
REMARK SMILES IDX 16 1 17 2 18 3 19 4 20 5 21 6 22 7 23 8 24 9 25 10 26 11
REMARK SMILES IDX 27 12 28 13 29 14 30 15 31 16 32 17 15 18 14 19 13 20 12 21
REMARK SMILES IDX 11 22 10 23 9 24 8 25 7 26 6 27 5 28 4 29 3 30 2 31 1 32
REMARK H PARENT
REMARK Flexibility Score: inf
ROOT
ATOM      1  C   UNL     1      -8.086  34.168 -18.110  1.00  0.00     0.000 C 
ENDROOT
BRANCH   1   2
ATOM      2  C   UNL     1      -8.491  33.627 -19.488  1.00  0.00     0.000 C 
BRANCH   2   3
ATOM      3  C   UNL     1      -9.933  34.028 -19.828  1.00  0.00     0.000 C 
BRANCH   3   4
ATOM      4  C   UNL     1     -10.554  33.152 -20.930  1.00  0.00     0.000 C 
BRANCH   4   5
ATOM      5  C   UNL     1     -11.704  33.812 -21.719  1.00  0.00     0.000 C 
BRANCH   5   6
ATOM      6  C   UNL     1     -12.987  32.970 -21.836  1.00  0.00     0.000 C 
BRANCH   6   7
ATOM      7  C   UNL     1     -12.977  31.735 -20.924  1.00  0.00     0.000 C 
BRANCH   7   8
ATOM      8  C   UNL     1     -14.392  31.178 -20.733  1.00  0.00     0.000 C 
BRANCH   8   9
ATOM      9  C   UNL     1     -14.363  29.869 -19.938  1.00  0.00     0.000 C 
BRANCH   9  10
ATOM     10  C   UNL     1     -15.472  29.841 -18.874  1.00  0.00     0.000 C 
BRANCH  10  11
ATOM     11  C   UNL     1     -15.952  28.406 -18.566  1.00  0.00     0.000 C 
BRANCH  11  12
ATOM     12  C   UNL     1     -17.005  27.875 -19.557  1.00  0.00     0.000 C 
BRANCH  12  13
ATOM     13  C   UNL     1     -17.258  26.360 -19.484  1.00  0.00     0.006 C 
BRANCH  13  14
ATOM     14  C   UNL     1     -15.961  25.538 -19.459  1.00  0.00     0.053 C 
BRANCH  14  15
ATOM     15  C   UNL     1     -16.238  24.092 -19.181  1.00  0.00     0.041 C 
ATOM     16  O   UNL     1     -16.334  23.267 -20.129  1.00  0.00    -0.550 OA
ATOM     17  O   UNL     1     -16.338  23.645 -17.869  1.00  0.00    -0.550 OA
ENDBRANCH  14  15
ENDBRANCH  13  14
ENDBRANCH  12  13
ENDBRANCH  11  12
ENDBRANCH  10  11
ENDBRANCH   9  10
ENDBRANCH   8   9
ENDBRANCH   7   8
ENDBRANCH   6   7
ENDBRANCH   5   6
ENDBRANCH   4   5
ENDBRANCH   3   4
ENDBRANCH   2   3
ENDBRANCH   1   2
BRANCH   1  18
ATOM     18  C   UNL     1      -6.849  35.079 -18.172  1.00  0.00     0.000 C 
BRANCH  18  19
ATOM     19  C   UNL     1      -6.126  35.186 -16.816  1.00  0.00     0.000 C 
BRANCH  19  20
ATOM     20  C   UNL     1      -6.394  33.961 -15.915  1.00  0.00     0.000 C 
BRANCH  20  21
ATOM     21  C   UNL     1      -7.891  33.656 -15.725  1.00  0.00     0.000 C 
BRANCH  21  22
ATOM     22  C   UNL     1      -8.163  32.174 -15.424  1.00  0.00     0.000 C 
BRANCH  22  23
ATOM     23  C   UNL     1      -8.136  31.856 -13.920  1.00  0.00     0.000 C 
BRANCH  23  24
ATOM     24  C   UNL     1      -7.917  30.362 -13.607  1.00  0.00    -0.000 C 
BRANCH  24  25
ATOM     25  C   UNL     1      -6.674  30.132 -12.731  1.00  0.00    -0.000 C 
BRANCH  25  26
ATOM     26  C   UNL     1      -7.021  29.625 -11.319  1.00  0.00    -0.000 C 
BRANCH  26  27
ATOM     27  C   UNL     1      -6.477  28.221 -10.983  1.00  0.00    -0.000 C 
BRANCH  27  28
ATOM     28  C   UNL     1      -7.508  27.249 -10.375  1.00  0.00    -0.000 C 
BRANCH  28  29
ATOM     29  C   UNL     1      -8.823  27.901  -9.913  1.00  0.00    -0.000 C 
BRANCH  29  30
ATOM     30  C   UNL     1      -8.724  29.429  -9.800  1.00  0.00    -0.000 C 
BRANCH  30  31
ATOM     31  C   UNL     1      -9.978  30.013  -9.140  1.00  0.00    -0.003 C 
ATOM     32  C   UNL     1     -10.844  30.752 -10.155  1.00  0.00     0.004 C 
ENDBRANCH  30  31
ENDBRANCH  29  30
ENDBRANCH  28  29
ENDBRANCH  27  28
ENDBRANCH  26  27
ENDBRANCH  25  26
ENDBRANCH  24  25
ENDBRANCH  23  24
ENDBRANCH  22  23
ENDBRANCH  21  22
ENDBRANCH  20  21
ENDBRANCH  19  20
ENDBRANCH  18  19
ENDBRANCH   1  18
TORSDOF 28
ENDMDL
MODEL 6
REMARK VINA RESULT:    25.278      5.866     12.181
REMARK INTER + INTRA:          66.296
REMARK INTER:                  67.374
REMARK INTRA:                  -1.078
REMARK UNBOUND:                -0.358
REMARK SMILES CCCCCCCCCCCCCCCCCCCCCCCCCCCCCC(=O)[O-]
REMARK SMILES IDX 16 1 17 2 18 3 19 4 20 5 21 6 22 7 23 8 24 9 25 10 26 11
REMARK SMILES IDX 27 12 28 13 29 14 30 15 31 16 32 17 15 18 14 19 13 20 12 21
REMARK SMILES IDX 11 22 10 23 9 24 8 25 7 26 6 27 5 28 4 29 3 30 2 31 1 32
REMARK H PARENT
REMARK Flexibility Score: inf
ROOT
ATOM      1  C   UNL     1      -9.415  34.167 -19.087  1.00  0.00     0.000 C 
ENDROOT
BRANCH   1   2
ATOM      2  C   UNL     1      -8.260  33.297 -18.573  1.00  0.00     0.000 C 
BRANCH   2   3
ATOM      3  C   UNL     1      -7.165  34.165 -17.937  1.00  0.00     0.000 C 
BRANCH   3   4
ATOM      4  C   UNL     1      -7.215  34.157 -16.399  1.00  0.00     0.000 C 
BRANCH   4   5
ATOM      5  C   UNL     1      -8.405  33.387 -15.789  1.00  0.00     0.000 C 
BRANCH   5   6
ATOM      6  C   UNL     1      -8.099  32.636 -14.480  1.00  0.00     0.000 C 
BRANCH   6   7
ATOM      7  C   UNL     1      -8.263  33.517 -13.233  1.00  0.00     0.000 C 
BRANCH   7   8
ATOM      8  C   UNL     1      -9.208  34.692 -13.508  1.00  0.00     0.000 C 
BRANCH   8   9
ATOM      9  C   UNL     1      -9.827  35.214 -12.207  1.00  0.00     0.000 C 
BRANCH   9  10
ATOM     10  C   UNL     1     -11.333  35.472 -12.373  1.00  0.00     0.000 C 
BRANCH  10  11
ATOM     11  C   UNL     1     -11.770  36.810 -11.738  1.00  0.00     0.000 C 
BRANCH  11  12
ATOM     12  C   UNL     1     -12.824  36.657 -10.625  1.00  0.00     0.000 C 
BRANCH  12  13
ATOM     13  C   UNL     1     -13.363  37.980 -10.056  1.00  0.00     0.006 C 
BRANCH  13  14
ATOM     14  C   UNL     1     -14.324  37.775  -8.875  1.00  0.00     0.053 C 
BRANCH  14  15
ATOM     15  C   UNL     1     -15.519  38.671  -8.984  1.00  0.00     0.041 C 
ATOM     16  O   UNL     1     -16.146  38.769 -10.072  1.00  0.00    -0.550 OA
ATOM     17  O   UNL     1     -15.973  39.361  -7.865  1.00  0.00    -0.550 OA
ENDBRANCH  14  15
ENDBRANCH  13  14
ENDBRANCH  12  13
ENDBRANCH  11  12
ENDBRANCH  10  11
ENDBRANCH   9  10
ENDBRANCH   8   9
ENDBRANCH   7   8
ENDBRANCH   6   7
ENDBRANCH   5   6
ENDBRANCH   4   5
ENDBRANCH   3   4
ENDBRANCH   2   3
ENDBRANCH   1   2
BRANCH   1  18
ATOM     18  C   UNL     1      -9.916  33.729 -20.473  1.00  0.00     0.000 C 
BRANCH  18  19
ATOM     19  C   UNL     1     -11.448  33.808 -20.600  1.00  0.00     0.000 C 
BRANCH  19  20
ATOM     20  C   UNL     1     -11.927  33.545 -22.044  1.00  0.00     0.000 C 
BRANCH  20  21
ATOM     21  C   UNL     1     -12.846  32.317 -22.171  1.00  0.00     0.000 C 
BRANCH  21  22
ATOM     22  C   UNL     1     -13.033  31.573 -20.839  1.00  0.00     0.000 C 
BRANCH  22  23
ATOM     23  C   UNL     1     -13.993  30.377 -20.954  1.00  0.00     0.000 C 
BRANCH  23  24
ATOM     24  C   UNL     1     -14.761  30.073 -19.651  1.00  0.00    -0.000 C 
BRANCH  24  25
ATOM     25  C   UNL     1     -15.417  28.683 -19.679  1.00  0.00    -0.000 C 
BRANCH  25  26
ATOM     26  C   UNL     1     -16.639  28.578 -18.748  1.00  0.00    -0.000 C 
BRANCH  26  27
ATOM     27  C   UNL     1     -17.408  27.243 -18.835  1.00  0.00    -0.000 C 
BRANCH  27  28
ATOM     28  C   UNL     1     -16.560  26.025 -19.254  1.00  0.00    -0.000 C 
BRANCH  28  29
ATOM     29  C   UNL     1     -16.635  24.821 -18.298  1.00  0.00    -0.000 C 
BRANCH  29  30
ATOM     30  C   UNL     1     -15.879  23.593 -18.825  1.00  0.00    -0.000 C 
BRANCH  30  31
ATOM     31  C   UNL     1     -16.182  23.359 -20.310  1.00  0.00    -0.003 C 
ATOM     32  C   UNL     1     -14.912  23.438 -21.151  1.00  0.00     0.004 C 
ENDBRANCH  30  31
ENDBRANCH  29  30
ENDBRANCH  28  29
ENDBRANCH  27  28
ENDBRANCH  26  27
ENDBRANCH  25  26
ENDBRANCH  24  25
ENDBRANCH  23  24
ENDBRANCH  22  23
ENDBRANCH  21  22
ENDBRANCH  20  21
ENDBRANCH  19  20
ENDBRANCH  18  19
ENDBRANCH   1  18
TORSDOF 28
ENDMDL
MODEL 7
REMARK VINA RESULT:    25.309      4.577     10.499
REMARK INTER + INTRA:          66.378
REMARK INTER:                  67.389
REMARK INTRA:                  -1.011
REMARK UNBOUND:                -0.358
REMARK SMILES CCCCCCCCCCCCCCCCCCCCCCCCCCCCCC(=O)[O-]
REMARK SMILES IDX 16 1 17 2 18 3 19 4 20 5 21 6 22 7 23 8 24 9 25 10 26 11
REMARK SMILES IDX 27 12 28 13 29 14 30 15 31 16 32 17 15 18 14 19 13 20 12 21
REMARK SMILES IDX 11 22 10 23 9 24 8 25 7 26 6 27 5 28 4 29 3 30 2 31 1 32
REMARK H PARENT
REMARK Flexibility Score: inf
ROOT
ATOM      1  C   UNL     1      -7.103  37.255 -16.423  1.00  0.00     0.000 C 
ENDROOT
BRANCH   1   2
ATOM      2  C   UNL     1      -6.877  38.731 -16.065  1.00  0.00     0.000 C 
BRANCH   2   3
ATOM      3  C   UNL     1      -8.161  39.357 -15.502  1.00  0.00     0.000 C 
BRANCH   3   4
ATOM      4  C   UNL     1      -7.990  40.841 -15.133  1.00  0.00     0.000 C 
BRANCH   4   5
ATOM      5  C   UNL     1      -8.788  41.302 -13.896  1.00  0.00     0.000 C 
BRANCH   5   6
ATOM      6  C   UNL     1      -8.075  42.331 -13.000  1.00  0.00     0.000 C 
BRANCH   6   7
ATOM      7  C   UNL     1      -7.964  41.876 -11.538  1.00  0.00     0.000 C 
BRANCH   7   8
ATOM      8  C   UNL     1      -9.148  40.983 -11.146  1.00  0.00     0.000 C 
BRANCH   8   9
ATOM      9  C   UNL     1      -9.778  41.455  -9.832  1.00  0.00     0.000 C 
BRANCH   9  10
ATOM     10  C   UNL     1     -11.310  41.342  -9.879  1.00  0.00     0.000 C 
BRANCH  10  11
ATOM     11  C   UNL     1     -11.817  40.829 -11.244  1.00  0.00     0.000 C 
BRANCH  11  12
ATOM     12  C   UNL     1     -12.642  39.531 -11.155  1.00  0.00     0.000 C 
BRANCH  12  13
ATOM     13  C   UNL     1     -13.440  39.357  -9.852  1.00  0.00     0.006 C 
BRANCH  13  14
ATOM     14  C   UNL     1     -14.280  38.071  -9.832  1.00  0.00     0.053 C 
BRANCH  14  15
ATOM     15  C   UNL     1     -15.254  38.075  -8.695  1.00  0.00     0.041 C 
ATOM     16  O   UNL     1     -15.366  39.088  -7.953  1.00  0.00    -0.550 OA
ATOM     17  O   UNL     1     -16.079  36.975  -8.484  1.00  0.00    -0.550 OA
ENDBRANCH  14  15
ENDBRANCH  13  14
ENDBRANCH  12  13
ENDBRANCH  11  12
ENDBRANCH  10  11
ENDBRANCH   9  10
ENDBRANCH   8   9
ENDBRANCH   7   8
ENDBRANCH   6   7
ENDBRANCH   5   6
ENDBRANCH   4   5
ENDBRANCH   3   4
ENDBRANCH   2   3
ENDBRANCH   1   2
BRANCH   1  18
ATOM     18  C   UNL     1      -5.879  36.614 -17.094  1.00  0.00     0.000 C 
BRANCH  18  19
ATOM     19  C   UNL     1      -5.879  35.078 -16.981  1.00  0.00     0.000 C 
BRANCH  19  20
ATOM     20  C   UNL     1      -6.632  34.587 -15.726  1.00  0.00     0.000 C 
BRANCH  20  21
ATOM     21  C   UNL     1      -8.110  34.251 -15.990  1.00  0.00     0.000 C 
BRANCH  21  22
ATOM     22  C   UNL     1      -8.315  33.446 -17.283  1.00  0.00     0.000 C 
BRANCH  22  23
ATOM     23  C   UNL     1      -8.205  31.928 -17.065  1.00  0.00     0.000 C 
BRANCH  23  24
ATOM     24  C   UNL     1      -8.982  31.422 -15.832  1.00  0.00    -0.000 C 
BRANCH  24  25
ATOM     25  C   UNL     1      -8.194  31.631 -14.528  1.00  0.00    -0.000 C 
BRANCH  25  26
ATOM     26  C   UNL     1      -7.138  30.538 -14.284  1.00  0.00    -0.000 C 
BRANCH  26  27
ATOM     27  C   UNL     1      -6.790  30.291 -12.802  1.00  0.00    -0.000 C 
BRANCH  27  28
ATOM     28  C   UNL     1      -6.462  28.828 -12.441  1.00  0.00    -0.000 C 
BRANCH  28  29
ATOM     29  C   UNL     1      -6.542  28.495 -10.941  1.00  0.00    -0.000 C 
BRANCH  29  30
ATOM     30  C   UNL     1      -7.936  28.746 -10.348  1.00  0.00    -0.000 C 
BRANCH  30  31
ATOM     31  C   UNL     1      -8.663  27.424 -10.076  1.00  0.00    -0.003 C 
ATOM     32  C   UNL     1      -9.882  27.637  -9.184  1.00  0.00     0.004 C 
ENDBRANCH  30  31
ENDBRANCH  29  30
ENDBRANCH  28  29
ENDBRANCH  27  28
ENDBRANCH  26  27
ENDBRANCH  25  26
ENDBRANCH  24  25
ENDBRANCH  23  24
ENDBRANCH  22  23
ENDBRANCH  21  22
ENDBRANCH  20  21
ENDBRANCH  19  20
ENDBRANCH  18  19
ENDBRANCH   1  18
TORSDOF 28
ENDMDL
MODEL 8
REMARK VINA RESULT:    25.359      5.923     12.148
REMARK INTER + INTRA:          66.511
REMARK INTER:                  67.787
REMARK INTRA:                  -1.277
REMARK UNBOUND:                -0.358
REMARK SMILES CCCCCCCCCCCCCCCCCCCCCCCCCCCCCC(=O)[O-]
REMARK SMILES IDX 16 1 17 2 18 3 19 4 20 5 21 6 22 7 23 8 24 9 25 10 26 11
REMARK SMILES IDX 27 12 28 13 29 14 30 15 31 16 32 17 15 18 14 19 13 20 12 21
REMARK SMILES IDX 11 22 10 23 9 24 8 25 7 26 6 27 5 28 4 29 3 30 2 31 1 32
REMARK H PARENT
REMARK Flexibility Score: inf
ROOT
ATOM      1  C   UNL     1     -10.087  33.961 -19.661  1.00  0.00     0.000 C 
ENDROOT
BRANCH   1   2
ATOM      2  C   UNL     1      -8.599  33.777 -19.332  1.00  0.00     0.000 C 
BRANCH   2   3
ATOM      3  C   UNL     1      -8.415  33.344 -17.871  1.00  0.00     0.000 C 
BRANCH   3   4
ATOM      4  C   UNL     1      -7.265  34.088 -17.167  1.00  0.00     0.000 C 
BRANCH   4   5
ATOM      5  C   UNL     1      -7.146  33.821 -15.653  1.00  0.00     0.000 C 
BRANCH   5   6
ATOM      6  C   UNL     1      -8.025  32.677 -15.117  1.00  0.00     0.000 C 
BRANCH   6   7
ATOM      7  C   UNL     1      -8.318  32.801 -13.615  1.00  0.00     0.000 C 
BRANCH   7   8
ATOM      8  C   UNL     1      -8.540  34.265 -13.215  1.00  0.00     0.000 C 
BRANCH   8   9
ATOM      9  C   UNL     1      -9.993  34.502 -12.790  1.00  0.00     0.000 C 
BRANCH   9  10
ATOM     10  C   UNL     1     -10.091  35.631 -11.751  1.00  0.00     0.000 C 
BRANCH  10  11
ATOM     11  C   UNL     1     -11.188  36.657 -12.104  1.00  0.00     0.000 C 
BRANCH  11  12
ATOM     12  C   UNL     1     -10.641  38.008 -12.602  1.00  0.00     0.000 C 
BRANCH  12  13
ATOM     13  C   UNL     1     -11.369  39.246 -12.051  1.00  0.00     0.006 C 
BRANCH  13  14
ATOM     14  C   UNL     1     -10.450  40.470 -11.921  1.00  0.00     0.053 C 
BRANCH  14  15
ATOM     15  C   UNL     1     -10.578  41.105 -10.571  1.00  0.00     0.041 C 
ATOM     16  O   UNL     1     -11.670  41.054  -9.942  1.00  0.00    -0.550 OA
ATOM     17  O   UNL     1      -9.474  41.711  -9.981  1.00  0.00    -0.550 OA
ENDBRANCH  14  15
ENDBRANCH  13  14
ENDBRANCH  12  13
ENDBRANCH  11  12
ENDBRANCH  10  11
ENDBRANCH   9  10
ENDBRANCH   8   9
ENDBRANCH   7   8
ENDBRANCH   6   7
ENDBRANCH   5   6
ENDBRANCH   4   5
ENDBRANCH   3   4
ENDBRANCH   2   3
ENDBRANCH   1   2
BRANCH   1  18
ATOM     18  C   UNL     1     -10.436  33.522 -21.092  1.00  0.00     0.000 C 
BRANCH  18  19
ATOM     19  C   UNL     1     -11.913  33.777 -21.445  1.00  0.00     0.000 C 
BRANCH  19  20
ATOM     20  C   UNL     1     -12.354  32.996 -22.702  1.00  0.00     0.000 C 
BRANCH  20  21
ATOM     21  C   UNL     1     -13.383  31.890 -22.407  1.00  0.00     0.000 C 
BRANCH  21  22
ATOM     22  C   UNL     1     -13.146  31.202 -21.053  1.00  0.00     0.000 C 
BRANCH  22  23
ATOM     23  C   UNL     1     -14.453  30.780 -20.362  1.00  0.00     0.000 C 
BRANCH  23  24
ATOM     24  C   UNL     1     -14.545  29.265 -20.084  1.00  0.00    -0.000 C 
BRANCH  24  25
ATOM     25  C   UNL     1     -15.714  28.921 -19.145  1.00  0.00    -0.000 C 
BRANCH  25  26
ATOM     26  C   UNL     1     -16.549  27.727 -19.641  1.00  0.00    -0.000 C 
BRANCH  26  27
ATOM     27  C   UNL     1     -17.703  27.309 -18.707  1.00  0.00    -0.000 C 
BRANCH  27  28
ATOM     28  C   UNL     1     -17.620  25.866 -18.169  1.00  0.00    -0.000 C 
BRANCH  28  29
ATOM     29  C   UNL     1     -16.245  25.193 -18.326  1.00  0.00    -0.000 C 
BRANCH  29  30
ATOM     30  C   UNL     1     -16.333  23.797 -18.960  1.00  0.00    -0.000 C 
BRANCH  30  31
ATOM     31  C   UNL     1     -15.256  23.614 -20.035  1.00  0.00    -0.003 C 
ATOM     32  C   UNL     1     -15.844  23.021 -21.312  1.00  0.00     0.004 C 
ENDBRANCH  30  31
ENDBRANCH  29  30
ENDBRANCH  28  29
ENDBRANCH  27  28
ENDBRANCH  26  27
ENDBRANCH  25  26
ENDBRANCH  24  25
ENDBRANCH  23  24
ENDBRANCH  22  23
ENDBRANCH  21  22
ENDBRANCH  20  21
ENDBRANCH  19  20
ENDBRANCH  18  19
ENDBRANCH   1  18
TORSDOF 28
ENDMDL
MODEL 9
REMARK VINA RESULT:    25.621      4.561      7.691
REMARK INTER + INTRA:          67.200
REMARK INTER:                  67.523
REMARK INTRA:                  -0.323
REMARK UNBOUND:                -0.358
REMARK SMILES CCCCCCCCCCCCCCCCCCCCCCCCCCCCCC(=O)[O-]
REMARK SMILES IDX 16 1 17 2 18 3 19 4 20 5 21 6 22 7 23 8 24 9 25 10 26 11
REMARK SMILES IDX 27 12 28 13 29 14 30 15 31 16 32 17 15 18 14 19 13 20 12 21
REMARK SMILES IDX 11 22 10 23 9 24 8 25 7 26 6 27 5 28 4 29 3 30 2 31 1 32
REMARK H PARENT
REMARK Flexibility Score: inf
ROOT
ATOM      1  C   UNL     1      -8.205  34.335 -18.435  1.00  0.00     0.000 C 
ENDROOT
BRANCH   1   2
ATOM      2  C   UNL     1      -9.113  33.319 -19.141  1.00  0.00     0.000 C 
BRANCH   2   3
ATOM      3  C   UNL     1     -10.071  34.026 -20.111  1.00  0.00     0.000 C 
BRANCH   3   4
ATOM      4  C   UNL     1     -10.837  33.044 -21.016  1.00  0.00     0.000 C 
BRANCH   4   5
ATOM      5  C   UNL     1     -12.363  33.266 -21.074  1.00  0.00     0.000 C 
BRANCH   5   6
ATOM      6  C   UNL     1     -13.176  32.087 -21.638  1.00  0.00     0.000 C 
BRANCH   6   7
ATOM      7  C   UNL     1     -12.914  30.770 -20.893  1.00  0.00     0.000 C 
BRANCH   7   8
ATOM      8  C   UNL     1     -13.922  30.570 -19.755  1.00  0.00     0.000 C 
BRANCH   8   9
ATOM      9  C   UNL     1     -15.262  30.058 -20.293  1.00  0.00     0.000 C 
BRANCH   9  10
ATOM     10  C   UNL     1     -15.915  29.073 -19.311  1.00  0.00     0.000 C 
BRANCH  10  11
ATOM     11  C   UNL     1     -16.222  27.710 -19.967  1.00  0.00     0.000 C 
BRANCH  11  12
ATOM     12  C   UNL     1     -17.262  26.869 -19.202  1.00  0.00     0.000 C 
BRANCH  12  13
ATOM     13  C   UNL     1     -16.811  26.388 -17.812  1.00  0.00     0.006 C 
BRANCH  13  14
ATOM     14  C   UNL     1     -16.913  24.864 -17.646  1.00  0.00     0.053 C 
BRANCH  14  15
ATOM     15  C   UNL     1     -16.266  24.147 -18.791  1.00  0.00     0.041 C 
ATOM     16  O   UNL     1     -16.678  24.324 -19.969  1.00  0.00    -0.550 OA
ATOM     17  O   UNL     1     -15.171  23.322 -18.563  1.00  0.00    -0.550 OA
ENDBRANCH  14  15
ENDBRANCH  13  14
ENDBRANCH  12  13
ENDBRANCH  11  12
ENDBRANCH  10  11
ENDBRANCH   9  10
ENDBRANCH   8   9
ENDBRANCH   7   8
ENDBRANCH   6   7
ENDBRANCH   5   6
ENDBRANCH   4   5
ENDBRANCH   3   4
ENDBRANCH   2   3
ENDBRANCH   1   2
BRANCH   1  18
ATOM     18  C   UNL     1      -7.706  33.836 -17.070  1.00  0.00     0.000 C 
BRANCH  18  19
ATOM     19  C   UNL     1      -7.847  32.311 -16.910  1.00  0.00     0.000 C 
BRANCH  19  20
ATOM     20  C   UNL     1      -8.744  31.932 -15.712  1.00  0.00     0.000 C 
BRANCH  20  21
ATOM     21  C   UNL     1      -8.155  32.341 -14.351  1.00  0.00     0.000 C 
BRANCH  21  22
ATOM     22  C   UNL     1      -8.228  33.855 -14.101  1.00  0.00     0.000 C 
BRANCH  22  23
ATOM     23  C   UNL     1      -9.568  34.295 -13.489  1.00  0.00     0.000 C 
BRANCH  23  24
ATOM     24  C   UNL     1      -9.416  35.260 -12.294  1.00  0.00    -0.000 C 
BRANCH  24  25
ATOM     25  C   UNL     1     -10.777  35.747 -11.770  1.00  0.00    -0.000 C 
BRANCH  25  26
ATOM     26  C   UNL     1     -11.275  37.016 -12.484  1.00  0.00    -0.000 C 
BRANCH  26  27
ATOM     27  C   UNL     1     -10.441  38.285 -12.210  1.00  0.00    -0.000 C 
BRANCH  27  28
ATOM     28  C   UNL     1     -11.251  39.594 -12.122  1.00  0.00    -0.000 C 
BRANCH  28  29
ATOM     29  C   UNL     1     -10.697  40.636 -11.134  1.00  0.00    -0.000 C 
BRANCH  29  30
ATOM     30  C   UNL     1      -9.180  40.837 -11.268  1.00  0.00    -0.000 C 
BRANCH  30  31
ATOM     31  C   UNL     1      -8.850  41.727 -12.472  1.00  0.00    -0.003 C 
ATOM     32  C   UNL     1      -7.360  41.688 -12.795  1.00  0.00     0.004 C 
ENDBRANCH  30  31
ENDBRANCH  29  30
ENDBRANCH  28  29
ENDBRANCH  27  28
ENDBRANCH  26  27
ENDBRANCH  25  26
ENDBRANCH  24  25
ENDBRANCH  23  24
ENDBRANCH  22  23
ENDBRANCH  21  22
ENDBRANCH  20  21
ENDBRANCH  19  20
ENDBRANCH  18  19
ENDBRANCH   1  18
TORSDOF 28
ENDMDL
