MODEL 1
REMARK VINA RESULT:    -3.994      0.000      0.000
REMARK INTER + INTRA:          -4.819
REMARK INTER:                  -4.811
REMARK INTRA:                  -0.007
REMARK UNBOUND:                -0.007
REMARK SMILES OCC(O)CO
REMARK SMILES IDX 3 1 5 2 6 3 2 5 1 6 4 8
REMARK H PARENT 6 4 1 7 4 9
REMARK Flexibility Score: inf
ROOT
ATOM      1  C   UNL     1      60.821  27.052  26.949  1.00  0.00     0.165 C 
ENDROOT
BRANCH   1   2
ATOM      2  C   UNL     1      61.166  28.491  27.372  1.00  0.00     0.190 C 
BRANCH   2   3
ATOM      3  O   UNL     1      60.356  28.909  28.438  1.00  0.00    -0.394 OA
ATOM      4  H   UNL     1      59.501  29.217  28.041  1.00  0.00     0.210 HD
ENDBRANCH   2   3
ENDBRANCH   1   2
BRANCH   1   5
ATOM      5  C   UNL     1      60.006  27.016  25.646  1.00  0.00     0.190 C 
BRANCH   5   6
ATOM      6  O   UNL     1      58.867  26.209  25.781  1.00  0.00    -0.394 OA
ATOM      7  H   UNL     1      58.854  25.886  26.720  1.00  0.00     0.210 HD
ENDBRANCH   5   6
ENDBRANCH   1   5
BRANCH   1   8
ATOM      8  O   UNL     1      62.001  26.310  26.777  1.00  0.00    -0.388 OA
ATOM      9  H   UNL     1      61.996  25.972  25.844  1.00  0.00     0.211 HD
ENDBRANCH   1   8
TORSDOF 5
ENDMDL
MODEL 2
REMARK VINA RESULT:    -3.993     14.432     15.502
REMARK INTER + INTRA:          -4.817
REMARK INTER:                  -4.806
REMARK INTRA:                  -0.010
REMARK UNBOUND:                -0.007
REMARK SMILES OCC(O)CO
REMARK SMILES IDX 3 1 5 2 6 3 2 5 1 6 4 8
REMARK H PARENT 6 4 1 7 4 9
REMARK Flexibility Score: inf
ROOT
ATOM      1  C   UNL     1      59.529  28.902  11.507  1.00  0.00     0.165 C 
ENDROOT
BRANCH   1   2
ATOM      2  C   UNL     1      60.976  28.547  11.122  1.00  0.00     0.190 C 
BRANCH   2   3
ATOM      3  O   UNL     1      61.002  27.614  10.074  1.00  0.00    -0.394 OA
ATOM      4  H   UNL     1      61.458  26.806  10.424  1.00  0.00     0.210 HD
ENDBRANCH   2   3
ENDBRANCH   1   2
BRANCH   1   5
ATOM      5  C   UNL     1      59.074  28.161  12.774  1.00  0.00     0.190 C 
BRANCH   5   6
ATOM      6  O   UNL     1      57.888  27.447  12.548  1.00  0.00    -0.394 OA
ATOM      7  H   UNL     1      57.704  26.928  13.373  1.00  0.00     0.210 HD
ENDBRANCH   5   6
ENDBRANCH   1   5
BRANCH   1   8
ATOM      8  O   UNL     1      59.419  30.287  11.716  1.00  0.00    -0.388 OA
ATOM      9  H   UNL     1      58.704  30.420  12.392  1.00  0.00     0.211 HD
ENDBRANCH   1   8
TORSDOF 5
ENDMDL
MODEL 3
REMARK VINA RESULT:    -3.924     16.766     17.451
REMARK INTER + INTRA:          -4.734
REMARK INTER:                  -4.510
REMARK INTRA:                  -0.224
REMARK UNBOUND:                -0.007
REMARK SMILES OCC(O)CO
REMARK SMILES IDX 3 1 5 2 6 3 2 5 1 6 4 8
REMARK H PARENT 6 4 1 7 4 9
REMARK Flexibility Score: inf
ROOT
ATOM      1  C   UNL     1      59.892  29.129  10.211  1.00  0.00     0.165 C 
ENDROOT
BRANCH   1   2
ATOM      2  C   UNL     1      59.132  28.965   8.884  1.00  0.00     0.190 C 
BRANCH   2   3
ATOM      3  O   UNL     1      58.366  27.789   8.884  1.00  0.00    -0.394 OA
ATOM      4  H   UNL     1      58.578  27.312   8.041  1.00  0.00     0.210 HD
ENDBRANCH   2   3
ENDBRANCH   1   2
BRANCH   1   5
ATOM      5  C   UNL     1      61.244  28.399  10.193  1.00  0.00     0.190 C 
BRANCH   5   6
ATOM      6  O   UNL     1      61.233  27.329   9.284  1.00  0.00    -0.394 OA
ATOM      7  H   UNL     1      62.021  26.764   9.497  1.00  0.00     0.210 HD
ENDBRANCH   5   6
ENDBRANCH   1   5
BRANCH   1   8
ATOM      8  O   UNL     1      60.106  30.491  10.473  1.00  0.00    -0.388 OA
ATOM      9  H   UNL     1      60.099  30.958   9.596  1.00  0.00     0.211 HD
ENDBRANCH   1   8
TORSDOF 5
ENDMDL
MODEL 4
REMARK VINA RESULT:    -3.772     13.942     14.872
REMARK INTER + INTRA:          -4.551
REMARK INTER:                  -4.330
REMARK INTRA:                  -0.222
REMARK UNBOUND:                -0.007
REMARK SMILES OCC(O)CO
REMARK SMILES IDX 3 1 5 2 6 3 2 5 1 6 4 8
REMARK H PARENT 6 4 1 7 4 9
REMARK Flexibility Score: inf
ROOT
ATOM      1  C   UNL     1      59.911  29.217  12.596  1.00  0.00     0.165 C 
ENDROOT
BRANCH   1   2
ATOM      2  C   UNL     1      59.567  27.776  13.013  1.00  0.00     0.190 C 
BRANCH   2   3
ATOM      3  O   UNL     1      58.179  27.574  13.023  1.00  0.00    -0.394 OA
ATOM      4  H   UNL     1      57.837  27.905  12.153  1.00  0.00     0.210 HD
ENDBRANCH   2   3
ENDBRANCH   1   2
BRANCH   1   5
ATOM      5  C   UNL     1      59.691  29.447  11.092  1.00  0.00     0.190 C 
BRANCH   5   6
ATOM      6  O   UNL     1      59.481  28.235  10.417  1.00  0.00    -0.394 OA
ATOM      7  H   UNL     1      60.151  28.194   9.686  1.00  0.00     0.210 HD
ENDBRANCH   5   6
ENDBRANCH   1   5
BRANCH   1   8
ATOM      8  O   UNL     1      59.125  30.124  13.323  1.00  0.00    -0.388 OA
ATOM      9  H   UNL     1      59.615  30.323  14.163  1.00  0.00     0.211 HD
ENDBRANCH   1   8
TORSDOF 5
ENDMDL
MODEL 5
REMARK VINA RESULT:    -3.772     16.122     17.264
REMARK INTER + INTRA:          -4.550
REMARK INTER:                  -4.328
REMARK INTRA:                  -0.222
REMARK UNBOUND:                -0.007
REMARK SMILES OCC(O)CO
REMARK SMILES IDX 3 1 5 2 6 3 2 5 1 6 4 8
REMARK H PARENT 6 4 1 7 4 9
REMARK Flexibility Score: inf
ROOT
ATOM      1  C   UNL     1      59.910  29.454   9.460  1.00  0.00     0.165 C 
ENDROOT
BRANCH   1   2
ATOM      2  C   UNL     1      61.081  28.635   8.889  1.00  0.00     0.190 C 
BRANCH   2   3
ATOM      3  O   UNL     1      61.089  27.334   9.415  1.00  0.00    -0.394 OA
ATOM      4  H   UNL     1      61.759  27.327  10.146  1.00  0.00     0.210 HD
ENDBRANCH   2   3
ENDBRANCH   1   2
BRANCH   1   5
ATOM      5  C   UNL     1      59.908  29.459  10.996  1.00  0.00     0.190 C 
BRANCH   5   6
ATOM      6  O   UNL     1      59.223  28.347  11.508  1.00  0.00    -0.394 OA
ATOM      7  H   UNL     1      59.879  27.825  12.040  1.00  0.00     0.210 HD
ENDBRANCH   5   6
ENDBRANCH   1   5
BRANCH   1   8
ATOM      8  O   UNL     1      59.982  30.776   8.993  1.00  0.00    -0.388 OA
ATOM      9  H   UNL     1      59.104  31.198   9.186  1.00  0.00     0.211 HD
ENDBRANCH   1   8
TORSDOF 5
ENDMDL
MODEL 6
REMARK VINA RESULT:    -3.768      1.275      2.655
REMARK INTER + INTRA:          -4.546
REMARK INTER:                  -4.324
REMARK INTRA:                  -0.222
REMARK UNBOUND:                -0.007
REMARK SMILES OCC(O)CO
REMARK SMILES IDX 3 1 5 2 6 3 2 5 1 6 4 8
REMARK H PARENT 6 4 1 7 4 9
REMARK Flexibility Score: inf
ROOT
ATOM      1  C   UNL     1      61.348  27.255  25.711  1.00  0.00     0.165 C 
ENDROOT
BRANCH   1   2
ATOM      2  C   UNL     1      59.885  27.489  25.295  1.00  0.00     0.190 C 
BRANCH   2   3
ATOM      3  O   UNL     1      59.144  26.300  25.368  1.00  0.00    -0.394 OA
ATOM      4  H   UNL     1      58.283  26.529  25.804  1.00  0.00     0.210 HD
ENDBRANCH   2   3
ENDBRANCH   1   2
BRANCH   1   5
ATOM      5  C   UNL     1      61.475  26.941  27.209  1.00  0.00     0.190 C 
BRANCH   5   6
ATOM      6  O   UNL     1      60.319  27.318  27.909  1.00  0.00    -0.394 OA
ATOM      7  H   UNL     1      60.493  27.136  28.869  1.00  0.00     0.210 HD
ENDBRANCH   5   6
ENDBRANCH   1   5
BRANCH   1   8
ATOM      8  O   UNL     1      61.889  26.194  24.968  1.00  0.00    -0.388 OA
ATOM      9  H   UNL     1      62.822  26.067  25.284  1.00  0.00     0.211 HD
ENDBRANCH   1   8
TORSDOF 5
ENDMDL
MODEL 7
REMARK VINA RESULT:    -3.714     16.088     17.135
REMARK INTER + INTRA:          -4.481
REMARK INTER:                  -4.262
REMARK INTRA:                  -0.220
REMARK UNBOUND:                -0.007
REMARK SMILES OCC(O)CO
REMARK SMILES IDX 3 1 5 2 6 3 2 5 1 6 4 8
REMARK H PARENT 6 4 1 7 4 9
REMARK Flexibility Score: inf
ROOT
ATOM      1  C   UNL     1      60.567  29.738   9.766  1.00  0.00     0.165 C 
ENDROOT
BRANCH   1   2
ATOM      2  C   UNL     1      59.973  29.544  11.172  1.00  0.00     0.190 C 
BRANCH   2   3
ATOM      3  O   UNL     1      59.241  28.350  11.249  1.00  0.00    -0.394 OA
ATOM      4  H   UNL     1      58.308  28.572  10.994  1.00  0.00     0.210 HD
ENDBRANCH   2   3
ENDBRANCH   1   2
BRANCH   1   5
ATOM      5  C   UNL     1      60.347  28.506   8.875  1.00  0.00     0.190 C 
BRANCH   5   6
ATOM      6  O   UNL     1      61.130  27.422   9.302  1.00  0.00    -0.394 OA
ATOM      7  H   UNL     1      60.688  26.600   8.966  1.00  0.00     0.210 HD
ENDBRANCH   5   6
ENDBRANCH   1   5
BRANCH   1   8
ATOM      8  O   UNL     1      59.986  30.861   9.154  1.00  0.00    -0.388 OA
ATOM      9  H   UNL     1      60.724  31.493   8.952  1.00  0.00     0.211 HD
ENDBRANCH   1   8
TORSDOF 5
ENDMDL
MODEL 8
REMARK VINA RESULT:    -3.689      0.946      2.940
REMARK INTER + INTRA:          -4.451
REMARK INTER:                  -4.437
REMARK INTRA:                  -0.014
REMARK UNBOUND:                -0.007
REMARK SMILES OCC(O)CO
REMARK SMILES IDX 3 1 5 2 6 3 2 5 1 6 4 8
REMARK H PARENT 6 4 1 7 4 9
REMARK Flexibility Score: inf
ROOT
ATOM      1  C   UNL     1      60.797  27.167  26.729  1.00  0.00     0.165 C 
ENDROOT
BRANCH   1   2
ATOM      2  C   UNL     1      60.002  27.232  25.413  1.00  0.00     0.190 C 
BRANCH   2   3
ATOM      3  O   UNL     1      58.872  26.402  25.467  1.00  0.00    -0.394 OA
ATOM      4  H   UNL     1      58.918  25.916  26.331  1.00  0.00     0.210 HD
ENDBRANCH   2   3
ENDBRANCH   1   2
BRANCH   1   5
ATOM      5  C   UNL     1      62.314  27.139  26.482  1.00  0.00     0.190 C 
BRANCH   5   6
ATOM      6  O   UNL     1      62.717  25.912  25.933  1.00  0.00    -0.394 OA
ATOM      7  H   UNL     1      63.709  25.897  25.964  1.00  0.00     0.210 HD
ENDBRANCH   5   6
ENDBRANCH   1   5
BRANCH   1   8
ATOM      8  O   UNL     1      60.480  28.274  27.532  1.00  0.00    -0.388 OA
ATOM      9  H   UNL     1      59.491  28.299  27.611  1.00  0.00     0.211 HD
ENDBRANCH   1   8
TORSDOF 5
ENDMDL
MODEL 9
REMARK VINA RESULT:    -3.672      1.807      2.858
REMARK INTER + INTRA:          -4.430
REMARK INTER:                  -4.209
REMARK INTRA:                  -0.222
REMARK UNBOUND:                -0.007
REMARK SMILES OCC(O)CO
REMARK SMILES IDX 3 1 5 2 6 3 2 5 1 6 4 8
REMARK H PARENT 6 4 1 7 4 9
REMARK Flexibility Score: inf
ROOT
ATOM      1  C   UNL     1      61.793  27.290  25.845  1.00  0.00     0.165 C 
ENDROOT
BRANCH   1   2
ATOM      2  C   UNL     1      62.708  26.890  24.674  1.00  0.00     0.190 C 
BRANCH   2   3
ATOM      3  O   UNL     1      62.563  25.530  24.365  1.00  0.00    -0.394 OA
ATOM      4  H   UNL     1      61.845  25.180  24.953  1.00  0.00     0.210 HD
ENDBRANCH   2   3
ENDBRANCH   1   2
BRANCH   1   5
ATOM      5  C   UNL     1      60.334  27.471  25.397  1.00  0.00     0.190 C 
BRANCH   5   6
ATOM      6  O   UNL     1      59.749  26.241  25.059  1.00  0.00    -0.394 OA
ATOM      7  H   UNL     1      58.881  26.196  25.540  1.00  0.00     0.210 HD
ENDBRANCH   5   6
ENDBRANCH   1   5
BRANCH   1   8
ATOM      8  O   UNL     1      61.850  26.312  26.850  1.00  0.00    -0.388 OA
ATOM      9  H   UNL     1      60.996  25.806  26.810  1.00  0.00     0.211 HD
ENDBRANCH   1   8
TORSDOF 5
ENDMDL
