MODEL 1
REMARK VINA RESULT:    -4.126      0.000      0.000
REMARK INTER + INTRA:          -7.457
REMARK INTER:                  -6.297
REMARK INTRA:                  -1.160
REMARK UNBOUND:                -1.160
REMARK SMILES CCCCCCCCCCC(=O)[O-]
REMARK SMILES IDX 7 1 8 2 9 3 10 4 11 5 12 6 13 7 6 8 5 9 4 10 3 11 2 12 1 13
REMARK H PARENT
REMARK Flexibility Score: inf
ROOT
ATOM      1  C   UNL     1     -37.358  20.606 -28.296  1.00  0.00     0.000 C 
ENDROOT
BRANCH   1   2
ATOM      2  C   UNL     1     -37.137  20.053 -29.709  1.00  0.00     0.000 C 
BRANCH   2   3
ATOM      3  C   UNL     1     -38.033  18.833 -29.969  1.00  0.00     0.006 C 
BRANCH   3   4
ATOM      4  C   UNL     1     -39.483  19.074 -29.528  1.00  0.00     0.053 C 
BRANCH   4   5
ATOM      5  C   UNL     1     -40.390  19.302 -30.698  1.00  0.00     0.041 C 
ATOM      6  O   UNL     1     -40.385  20.411 -31.296  1.00  0.00    -0.550 OA
ATOM      7  O   UNL     1     -41.263  18.303 -31.109  1.00  0.00    -0.550 OA
ENDBRANCH   4   5
ENDBRANCH   3   4
ENDBRANCH   2   3
ENDBRANCH   1   2
BRANCH   1   8
ATOM      8  C   UNL     1     -37.745  22.089 -28.339  1.00  0.00     0.000 C 
BRANCH   8   9
ATOM      9  C   UNL     1     -38.031  22.542 -29.779  1.00  0.00    -0.000 C 
BRANCH   9  10
ATOM     10  C   UNL     1     -39.308  23.389 -29.890  1.00  0.00    -0.000 C 
BRANCH  10  11
ATOM     11  C   UNL     1     -40.224  23.241 -28.662  1.00  0.00    -0.000 C 
BRANCH  11  12
ATOM     12  C   UNL     1     -41.624  22.726 -29.031  1.00  0.00    -0.003 C 
ATOM     13  C   UNL     1     -42.026  21.486 -28.233  1.00  0.00     0.004 C 
ENDBRANCH  11  12
ENDBRANCH  10  11
ENDBRANCH   9  10
ENDBRANCH   8   9
ENDBRANCH   1   8
TORSDOF 9
ENDMDL
MODEL 2
REMARK VINA RESULT:    -4.028      1.739      4.005
REMARK INTER + INTRA:          -7.307
REMARK INTER:                  -6.313
REMARK INTRA:                  -0.995
REMARK UNBOUND:                -1.160
REMARK SMILES CCCCCCCCCCC(=O)[O-]
REMARK SMILES IDX 7 1 8 2 9 3 10 4 11 5 12 6 13 7 6 8 5 9 4 10 3 11 2 12 1 13
REMARK H PARENT
REMARK Flexibility Score: inf
ROOT
ATOM      1  C   UNL     1     -38.306  22.373 -30.746  1.00  0.00     0.000 C 
ENDROOT
BRANCH   1   2
ATOM      2  C   UNL     1     -39.391  23.200 -30.047  1.00  0.00     0.000 C 
BRANCH   2   3
ATOM      3  C   UNL     1     -40.765  22.527 -30.178  1.00  0.00     0.006 C 
BRANCH   3   4
ATOM      4  C   UNL     1     -41.648  22.763 -28.944  1.00  0.00     0.053 C 
BRANCH   4   5
ATOM      5  C   UNL     1     -41.801  21.520 -28.124  1.00  0.00     0.041 C 
ATOM      6  O   UNL     1     -40.782  20.907 -27.707  1.00  0.00    -0.550 OA
ATOM      7  O   UNL     1     -43.066  21.018 -27.846  1.00  0.00    -0.550 OA
ENDBRANCH   4   5
ENDBRANCH   3   4
ENDBRANCH   2   3
ENDBRANCH   1   2
BRANCH   1   8
ATOM      8  C   UNL     1     -37.177  22.010 -29.773  1.00  0.00     0.000 C 
BRANCH   8   9
ATOM      9  C   UNL     1     -37.479  20.689 -29.049  1.00  0.00    -0.000 C 
BRANCH   9  10
ATOM     10  C   UNL     1     -36.869  19.472 -29.760  1.00  0.00    -0.000 C 
BRANCH  10  11
ATOM     11  C   UNL     1     -37.937  18.480 -30.255  1.00  0.00    -0.000 C 
BRANCH  11  12
ATOM     12  C   UNL     1     -39.316  18.739 -29.629  1.00  0.00    -0.003 C 
ATOM     13  C   UNL     1     -40.429  18.829 -30.672  1.00  0.00     0.004 C 
ENDBRANCH  11  12
ENDBRANCH  10  11
ENDBRANCH   9  10
ENDBRANCH   8   9
ENDBRANCH   1   8
TORSDOF 9
ENDMDL
MODEL 3
REMARK VINA RESULT:    -4.027      2.064      3.259
REMARK INTER + INTRA:          -7.305
REMARK INTER:                  -6.065
REMARK INTRA:                  -1.241
REMARK UNBOUND:                -1.160
REMARK SMILES CCCCCCCCCCC(=O)[O-]
REMARK SMILES IDX 7 1 8 2 9 3 10 4 11 5 12 6 13 7 6 8 5 9 4 10 3 11 2 12 1 13
REMARK H PARENT
REMARK Flexibility Score: inf
ROOT
ATOM      1  C   UNL     1     -38.610  19.194 -29.551  1.00  0.00     0.000 C 
ENDROOT
BRANCH   1   2
ATOM      2  C   UNL     1     -38.770  19.480 -28.053  1.00  0.00     0.000 C 
BRANCH   2   3
ATOM      3  C   UNL     1     -39.764  20.625 -27.815  1.00  0.00     0.006 C 
BRANCH   3   4
ATOM      4  C   UNL     1     -40.817  20.721 -28.927  1.00  0.00     0.053 C 
BRANCH   4   5
ATOM      5  C   UNL     1     -41.988  21.558 -28.514  1.00  0.00     0.041 C 
ATOM      6  O   UNL     1     -42.040  22.776 -28.832  1.00  0.00    -0.550 OA
ATOM      7  O   UNL     1     -43.007  21.004 -27.749  1.00  0.00    -0.550 OA
ENDBRANCH   4   5
ENDBRANCH   3   4
ENDBRANCH   2   3
ENDBRANCH   1   2
BRANCH   1   8
ATOM      8  C   UNL     1     -37.142  19.312 -29.981  1.00  0.00     0.000 C 
BRANCH   8   9
ATOM      9  C   UNL     1     -36.525  20.624 -29.478  1.00  0.00    -0.000 C 
BRANCH   9  10
ATOM     10  C   UNL     1     -36.877  21.824 -30.371  1.00  0.00    -0.000 C 
BRANCH  10  11
ATOM     11  C   UNL     1     -37.651  22.918 -29.614  1.00  0.00    -0.000 C 
BRANCH  11  12
ATOM     12  C   UNL     1     -38.751  23.561 -30.471  1.00  0.00    -0.003 C 
ATOM     13  C   UNL     1     -39.346  22.592 -31.492  1.00  0.00     0.004 C 
ENDBRANCH  11  12
ENDBRANCH  10  11
ENDBRANCH   9  10
ENDBRANCH   8   9
ENDBRANCH   1   8
TORSDOF 9
ENDMDL
MODEL 4
REMARK VINA RESULT:    -3.936      2.303      4.527
REMARK INTER + INTRA:          -7.167
REMARK INTER:                  -5.851
REMARK INTRA:                  -1.315
REMARK UNBOUND:                -1.160
REMARK SMILES CCCCCCCCCCC(=O)[O-]
REMARK SMILES IDX 7 1 8 2 9 3 10 4 11 5 12 6 13 7 6 8 5 9 4 10 3 11 2 12 1 13
REMARK H PARENT
REMARK Flexibility Score: inf
ROOT
ATOM      1  C   UNL     1     -40.490  20.133 -29.995  1.00  0.00     0.000 C 
ENDROOT
BRANCH   1   2
ATOM      2  C   UNL     1     -40.039  21.154 -31.046  1.00  0.00     0.000 C 
BRANCH   2   3
ATOM      3  C   UNL     1     -39.849  22.542 -30.418  1.00  0.00     0.006 C 
BRANCH   3   4
ATOM      4  C   UNL     1     -40.387  22.609 -28.982  1.00  0.00     0.053 C 
BRANCH   4   5
ATOM      5  C   UNL     1     -41.429  23.674 -28.828  1.00  0.00     0.041 C 
ATOM      6  O   UNL     1     -41.222  24.656 -28.066  1.00  0.00    -0.550 OA
ATOM      7  O   UNL     1     -42.640  23.567 -29.499  1.00  0.00    -0.550 OA
ENDBRANCH   4   5
ENDBRANCH   3   4
ENDBRANCH   2   3
ENDBRANCH   1   2
BRANCH   1   8
ATOM      8  C   UNL     1     -39.687  18.831 -30.111  1.00  0.00     0.000 C 
BRANCH   8   9
ATOM      9  C   UNL     1     -38.691  18.694 -28.950  1.00  0.00    -0.000 C 
BRANCH   9  10
ATOM     10  C   UNL     1     -39.164  19.413 -27.677  1.00  0.00    -0.000 C 
BRANCH  10  11
ATOM     11  C   UNL     1     -38.102  20.372 -27.111  1.00  0.00    -0.000 C 
BRANCH  11  12
ATOM     12  C   UNL     1     -36.895  20.534 -28.047  1.00  0.00    -0.003 C 
ATOM     13  C   UNL     1     -36.700  21.975 -28.515  1.00  0.00     0.004 C 
ENDBRANCH  11  12
ENDBRANCH  10  11
ENDBRANCH   9  10
ENDBRANCH   8   9
ENDBRANCH   1   8
TORSDOF 9
ENDMDL
MODEL 5
REMARK VINA RESULT:    -3.905      1.935      3.195
REMARK INTER + INTRA:          -7.120
REMARK INTER:                  -5.903
REMARK INTRA:                  -1.217
REMARK UNBOUND:                -1.160
REMARK SMILES CCCCCCCCCCC(=O)[O-]
REMARK SMILES IDX 7 1 8 2 9 3 10 4 11 5 12 6 13 7 6 8 5 9 4 10 3 11 2 12 1 13
REMARK H PARENT
REMARK Flexibility Score: inf
ROOT
ATOM      1  C   UNL     1     -38.450  19.108 -29.070  1.00  0.00     0.000 C 
ENDROOT
BRANCH   1   2
ATOM      2  C   UNL     1     -39.483  19.025 -30.200  1.00  0.00     0.000 C 
BRANCH   2   3
ATOM      3  C   UNL     1     -40.583  20.081 -30.019  1.00  0.00     0.006 C 
BRANCH   3   4
ATOM      4  C   UNL     1     -40.711  20.542 -28.561  1.00  0.00     0.053 C 
BRANCH   4   5
ATOM      5  C   UNL     1     -41.886  21.450 -28.366  1.00  0.00     0.041 C 
ATOM      6  O   UNL     1     -42.828  21.111 -27.602  1.00  0.00    -0.550 OA
ATOM      7  O   UNL     1     -41.958  22.655 -29.053  1.00  0.00    -0.550 OA
ENDBRANCH   4   5
ENDBRANCH   3   4
ENDBRANCH   2   3
ENDBRANCH   1   2
BRANCH   1   8
ATOM      8  C   UNL     1     -37.097  19.605 -29.595  1.00  0.00     0.000 C 
BRANCH   8   9
ATOM      9  C   UNL     1     -36.929  21.111 -29.345  1.00  0.00    -0.000 C 
BRANCH   9  10
ATOM     10  C   UNL     1     -37.311  21.960 -30.567  1.00  0.00    -0.000 C 
BRANCH  10  11
ATOM     11  C   UNL     1     -38.240  23.132 -30.205  1.00  0.00    -0.000 C 
BRANCH  11  12
ATOM     12  C   UNL     1     -38.384  23.323 -28.687  1.00  0.00    -0.003 C 
ATOM     13  C   UNL     1     -39.165  24.585 -28.322  1.00  0.00     0.004 C 
ENDBRANCH  11  12
ENDBRANCH  10  11
ENDBRANCH   9  10
ENDBRANCH   8   9
ENDBRANCH   1   8
TORSDOF 9
ENDMDL
MODEL 6
REMARK VINA RESULT:    -3.904      1.368      1.986
REMARK INTER + INTRA:          -7.117
REMARK INTER:                  -5.989
REMARK INTRA:                  -1.128
REMARK UNBOUND:                -1.160
REMARK SMILES CCCCCCCCCCC(=O)[O-]
REMARK SMILES IDX 7 1 8 2 9 3 10 4 11 5 12 6 13 7 6 8 5 9 4 10 3 11 2 12 1 13
REMARK H PARENT
REMARK Flexibility Score: inf
ROOT
ATOM      1  C   UNL     1     -37.207  21.832 -30.258  1.00  0.00     0.000 C 
ENDROOT
BRANCH   1   2
ATOM      2  C   UNL     1     -37.220  21.345 -28.804  1.00  0.00     0.000 C 
BRANCH   2   3
ATOM      3  C   UNL     1     -37.344  19.816 -28.737  1.00  0.00     0.006 C 
BRANCH   3   4
ATOM      4  C   UNL     1     -37.787  19.210 -30.076  1.00  0.00     0.053 C 
BRANCH   4   5
ATOM      5  C   UNL     1     -39.069  18.449 -29.944  1.00  0.00     0.041 C 
ATOM      6  O   UNL     1     -39.132  17.436 -29.197  1.00  0.00    -0.550 OA
ATOM      7  O   UNL     1     -40.188  18.837 -30.671  1.00  0.00    -0.550 OA
ENDBRANCH   4   5
ENDBRANCH   3   4
ENDBRANCH   2   3
ENDBRANCH   1   2
BRANCH   1   8
ATOM      8  C   UNL     1     -38.289  22.894 -30.494  1.00  0.00     0.000 C 
BRANCH   8   9
ATOM      9  C   UNL     1     -39.434  22.333 -31.350  1.00  0.00    -0.000 C 
BRANCH   9  10
ATOM     10  C   UNL     1     -40.807  22.495 -30.682  1.00  0.00    -0.000 C 
BRANCH  10  11
ATOM     11  C   UNL     1     -40.709  22.617 -29.151  1.00  0.00    -0.000 C 
BRANCH  11  12
ATOM     12  C   UNL     1     -41.010  21.292 -28.434  1.00  0.00    -0.003 C 
ATOM     13  C   UNL     1     -42.453  21.204 -27.938  1.00  0.00     0.004 C 
ENDBRANCH  11  12
ENDBRANCH  10  11
ENDBRANCH   9  10
ENDBRANCH   8   9
ENDBRANCH   1   8
TORSDOF 9
ENDMDL
MODEL 7
REMARK VINA RESULT:    -3.869      2.410      3.773
REMARK INTER + INTRA:          -7.065
REMARK INTER:                  -5.866
REMARK INTRA:                  -1.199
REMARK UNBOUND:                -1.160
REMARK SMILES CCCCCCCCCCC(=O)[O-]
REMARK SMILES IDX 7 1 8 2 9 3 10 4 11 5 12 6 13 7 6 8 5 9 4 10 3 11 2 12 1 13
REMARK H PARENT
REMARK Flexibility Score: inf
ROOT
ATOM      1  C   UNL     1     -39.243  18.441 -29.586  1.00  0.00     0.000 C 
ENDROOT
BRANCH   1   2
ATOM      2  C   UNL     1     -37.772  18.518 -30.013  1.00  0.00     0.000 C 
BRANCH   2   3
ATOM      3  C   UNL     1     -37.235  19.950 -29.877  1.00  0.00     0.006 C 
BRANCH   3   4
ATOM      4  C   UNL     1     -36.504  20.172 -28.546  1.00  0.00     0.053 C 
BRANCH   4   5
ATOM      5  C   UNL     1     -37.373  20.866 -27.543  1.00  0.00     0.041 C 
ATOM      6  O   UNL     1     -37.344  22.121 -27.439  1.00  0.00    -0.550 OA
ATOM      7  O   UNL     1     -38.193  20.126 -26.700  1.00  0.00    -0.550 OA
ENDBRANCH   4   5
ENDBRANCH   3   4
ENDBRANCH   2   3
ENDBRANCH   1   2
BRANCH   1   8
ATOM      8  C   UNL     1     -40.099  19.440 -30.374  1.00  0.00     0.000 C 
BRANCH   8   9
ATOM      9  C   UNL     1     -40.713  20.495 -29.441  1.00  0.00    -0.000 C 
BRANCH   9  10
ATOM     10  C   UNL     1     -40.369  21.931 -29.865  1.00  0.00    -0.000 C 
BRANCH  10  11
ATOM     11  C   UNL     1     -40.265  22.088 -31.392  1.00  0.00    -0.000 C 
BRANCH  11  12
ATOM     12  C   UNL     1     -39.033  22.901 -31.818  1.00  0.00    -0.003 C 
ATOM     13  C   UNL     1     -38.231  23.424 -30.628  1.00  0.00     0.004 C 
ENDBRANCH  11  12
ENDBRANCH  10  11
ENDBRANCH   9  10
ENDBRANCH   8   9
ENDBRANCH   1   8
TORSDOF 9
ENDMDL
MODEL 8
REMARK VINA RESULT:    -3.865      2.150      3.690
REMARK INTER + INTRA:          -7.058
REMARK INTER:                  -5.727
REMARK INTRA:                  -1.331
REMARK UNBOUND:                -1.160
REMARK SMILES CCCCCCCCCCC(=O)[O-]
REMARK SMILES IDX 7 1 8 2 9 3 10 4 11 5 12 6 13 7 6 8 5 9 4 10 3 11 2 12 1 13
REMARK H PARENT
REMARK Flexibility Score: inf
ROOT
ATOM      1  C   UNL     1     -39.722  22.244 -31.217  1.00  0.00     0.000 C 
ENDROOT
BRANCH   1   2
ATOM      2  C   UNL     1     -39.397  20.838 -30.701  1.00  0.00     0.000 C 
BRANCH   2   3
ATOM      3  C   UNL     1     -40.565  20.268 -29.883  1.00  0.00     0.006 C 
BRANCH   3   4
ATOM      4  C   UNL     1     -40.673  20.917 -28.496  1.00  0.00     0.053 C 
BRANCH   4   5
ATOM      5  C   UNL     1     -41.980  21.626 -28.314  1.00  0.00     0.041 C 
ATOM      6  O   UNL     1     -42.923  21.067 -27.694  1.00  0.00    -0.550 OA
ATOM      7  O   UNL     1     -42.169  22.890 -28.858  1.00  0.00    -0.550 OA
ENDBRANCH   4   5
ENDBRANCH   3   4
ENDBRANCH   2   3
ENDBRANCH   1   2
BRANCH   1   8
ATOM      8  C   UNL     1     -38.611  23.236 -30.850  1.00  0.00     0.000 C 
BRANCH   8   9
ATOM      9  C   UNL     1     -39.031  24.121 -29.668  1.00  0.00    -0.000 C 
BRANCH   9  10
ATOM     10  C   UNL     1     -38.036  24.058 -28.499  1.00  0.00    -0.000 C 
BRANCH  10  11
ATOM     11  C   UNL     1     -36.999  22.932 -28.665  1.00  0.00    -0.000 C 
BRANCH  11  12
ATOM     12  C   UNL     1     -37.198  21.795 -27.652  1.00  0.00    -0.003 C 
ATOM     13  C   UNL     1     -36.643  20.460 -28.146  1.00  0.00     0.004 C 
ENDBRANCH  11  12
ENDBRANCH  10  11
ENDBRANCH   9  10
ENDBRANCH   8   9
ENDBRANCH   1   8
TORSDOF 9
ENDMDL
MODEL 9
REMARK VINA RESULT:    -3.822      1.889      3.188
REMARK INTER + INTRA:          -6.993
REMARK INTER:                  -5.819
REMARK INTRA:                  -1.174
REMARK UNBOUND:                -1.160
REMARK SMILES CCCCCCCCCCC(=O)[O-]
REMARK SMILES IDX 7 1 8 2 9 3 10 4 11 5 12 6 13 7 6 8 5 9 4 10 3 11 2 12 1 13
REMARK H PARENT
REMARK Flexibility Score: inf
ROOT
ATOM      1  C   UNL     1     -41.167  20.858 -28.683  1.00  0.00     0.000 C 
ENDROOT
BRANCH   1   2
ATOM      2  C   UNL     1     -40.021  20.618 -27.693  1.00  0.00     0.000 C 
BRANCH   2   3
ATOM      3  C   UNL     1     -38.691  20.405 -28.432  1.00  0.00     0.006 C 
BRANCH   3   4
ATOM      4  C   UNL     1     -38.895  19.827 -29.839  1.00  0.00     0.053 C 
BRANCH   4   5
ATOM      5  C   UNL     1     -38.466  18.395 -29.918  1.00  0.00     0.041 C 
ATOM      6  O   UNL     1     -37.400  18.085 -30.513  1.00  0.00    -0.550 OA
ATOM      7  O   UNL     1     -39.259  17.397 -29.365  1.00  0.00    -0.550 OA
ENDBRANCH   4   5
ENDBRANCH   3   4
ENDBRANCH   2   3
ENDBRANCH   1   2
BRANCH   1   8
ATOM      8  C   UNL     1     -41.451  22.357 -28.844  1.00  0.00     0.000 C 
BRANCH   8   9
ATOM      9  C   UNL     1     -40.831  22.898 -30.141  1.00  0.00    -0.000 C 
BRANCH   9  10
ATOM     10  C   UNL     1     -39.565  23.731 -29.889  1.00  0.00    -0.000 C 
BRANCH  10  11
ATOM     11  C   UNL     1     -39.571  24.412 -28.508  1.00  0.00    -0.000 C 
BRANCH  11  12
ATOM     12  C   UNL     1     -38.154  24.696 -27.986  1.00  0.00    -0.003 C 
ATOM     13  C   UNL     1     -37.111  23.738 -28.559  1.00  0.00     0.004 C 
ENDBRANCH  11  12
ENDBRANCH  10  11
ENDBRANCH   9  10
ENDBRANCH   8   9
ENDBRANCH   1   8
TORSDOF 9
ENDMDL
