MODEL 1
REMARK VINA RESULT:    -4.363      0.000      0.000
REMARK INTER + INTRA:          -5.045
REMARK INTER:                  -5.001
REMARK INTRA:                  -0.044
REMARK UNBOUND:                -0.044
REMARK SMILES CC(C)[C@H]([NH3+])C(=O)[O-]
REMARK SMILES IDX 4 1 5 2 6 6 7 7 8 8 2 9 1 10 3 11
REMARK H PARENT 5 3 5 4 5 5
REMARK Flexibility Score: inf
ROOT
ATOM      1  C   UNL     1       2.027  -7.082  -0.440  1.00  0.00     0.230 C 
ENDROOT
BRANCH   1   2
ATOM      2  N   UNL     1       3.427  -7.385  -0.108  1.00  0.00    -0.350 N 
ATOM      3  H   UNL     1       3.570  -7.455   0.924  1.00  0.00     0.345 HD
ATOM      4  H   UNL     1       3.714  -8.284  -0.557  1.00  0.00     0.345 HD
ATOM      5  H   UNL     1       4.045  -6.626  -0.480  1.00  0.00     0.345 HD
ENDBRANCH   1   2
BRANCH   1   6
ATOM      6  C   UNL     1       1.207  -8.349  -0.498  1.00  0.00     0.099 C 
ATOM      7  O   UNL     1      -0.043  -8.285  -0.634  1.00  0.00    -0.544 OA
ATOM      8  O   UNL     1       1.822  -9.594  -0.429  1.00  0.00    -0.544 OA
ENDBRANCH   1   6
BRANCH   1   9
ATOM      9  C   UNL     1       1.915  -6.234  -1.744  1.00  0.00     0.047 C 
ATOM     10  C   UNL     1       3.168  -6.388  -2.620  1.00  0.00     0.014 C 
ATOM     11  C   UNL     1       1.632  -4.744  -1.488  1.00  0.00     0.014 C 
ENDBRANCH   1   9
TORSDOF 3
ENDMDL
MODEL 2
REMARK VINA RESULT:    -4.344      2.491      3.180
REMARK INTER + INTRA:          -5.023
REMARK INTER:                  -4.980
REMARK INTRA:                  -0.044
REMARK UNBOUND:                -0.044
REMARK SMILES CC(C)[C@H]([NH3+])C(=O)[O-]
REMARK SMILES IDX 4 1 5 2 6 6 7 7 8 8 2 9 1 10 3 11
REMARK H PARENT 5 3 5 4 5 5
REMARK Flexibility Score: inf
ROOT
ATOM      1  C   UNL     1       2.042  -9.147  -0.254  1.00  0.00     0.230 C 
ENDROOT
BRANCH   1   2
ATOM      2  N   UNL     1       1.413 -10.466  -0.415  1.00  0.00    -0.350 N 
ATOM      3  H   UNL     1       1.993 -11.097  -1.013  1.00  0.00     0.345 HD
ATOM      4  H   UNL     1       1.272 -10.912   0.520  1.00  0.00     0.345 HD
ATOM      5  H   UNL     1       0.474 -10.352  -0.864  1.00  0.00     0.345 HD
ENDBRANCH   1   2
BRANCH   1   6
ATOM      6  C   UNL     1       3.036  -9.166   0.883  1.00  0.00     0.099 C 
ATOM      7  O   UNL     1       2.631  -9.224   2.073  1.00  0.00    -0.544 OA
ATOM      8  O   UNL     1       4.403  -9.149   0.628  1.00  0.00    -0.544 OA
ENDBRANCH   1   6
BRANCH   1   9
ATOM      9  C   UNL     1       0.978  -8.017  -0.103  1.00  0.00     0.047 C 
ATOM     10  C   UNL     1      -0.435  -8.535  -0.413  1.00  0.00     0.014 C 
ATOM     11  C   UNL     1       1.279  -6.770  -0.951  1.00  0.00     0.014 C 
ENDBRANCH   1   9
TORSDOF 3
ENDMDL
MODEL 3
REMARK VINA RESULT:    -4.297      6.457      7.410
REMARK INTER + INTRA:          -4.969
REMARK INTER:                  -4.917
REMARK INTRA:                  -0.053
REMARK UNBOUND:                -0.044
REMARK SMILES CC(C)[C@H]([NH3+])C(=O)[O-]
REMARK SMILES IDX 4 1 5 2 6 6 7 7 8 8 2 9 1 10 3 11
REMARK H PARENT 5 3 5 4 5 5
REMARK Flexibility Score: inf
ROOT
ATOM      1  C   UNL     1      -4.721  -8.717   2.171  1.00  0.00     0.230 C 
ENDROOT
BRANCH   1   2
ATOM      2  N   UNL     1      -4.231 -10.080   2.425  1.00  0.00    -0.350 N 
ATOM      3  H   UNL     1      -3.789 -10.159   3.368  1.00  0.00     0.345 HD
ATOM      4  H   UNL     1      -5.020 -10.762   2.357  1.00  0.00     0.345 HD
ATOM      5  H   UNL     1      -3.520 -10.336   1.701  1.00  0.00     0.345 HD
ENDBRANCH   1   2
BRANCH   1   6
ATOM      6  C   UNL     1      -5.766  -8.722   1.080  1.00  0.00     0.099 C 
ATOM      7  O   UNL     1      -5.425  -8.548  -0.119  1.00  0.00    -0.544 OA
ATOM      8  O   UNL     1      -7.105  -8.945   1.384  1.00  0.00    -0.544 OA
ENDBRANCH   1   6
BRANCH   1   9
ATOM      9  C   UNL     1      -3.550  -7.730   1.878  1.00  0.00     0.047 C 
ATOM     10  C   UNL     1      -2.186  -8.410   2.067  1.00  0.00     0.014 C 
ATOM     11  C   UNL     1      -3.612  -6.436   2.707  1.00  0.00     0.014 C 
ENDBRANCH   1   9
TORSDOF 3
ENDMDL
MODEL 4
REMARK VINA RESULT:    -4.099      7.138      7.831
REMARK INTER + INTRA:          -4.742
REMARK INTER:                  -4.701
REMARK INTRA:                  -0.041
REMARK UNBOUND:                -0.044
REMARK SMILES CC(C)[C@H]([NH3+])C(=O)[O-]
REMARK SMILES IDX 4 1 5 2 6 6 7 7 8 8 2 9 1 10 3 11
REMARK H PARENT 5 3 5 4 5 5
REMARK Flexibility Score: inf
ROOT
ATOM      1  C   UNL     1      -4.497  -6.469   2.478  1.00  0.00     0.230 C 
ENDROOT
BRANCH   1   2
ATOM      2  N   UNL     1      -5.941  -6.491   2.203  1.00  0.00    -0.350 N 
ATOM      3  H   UNL     1      -6.420  -5.651   2.598  1.00  0.00     0.345 HD
ATOM      4  H   UNL     1      -6.109  -6.530   1.172  1.00  0.00     0.345 HD
ATOM      5  H   UNL     1      -6.364  -7.348   2.631  1.00  0.00     0.345 HD
ENDBRANCH   1   2
BRANCH   1   6
ATOM      6  C   UNL     1      -3.936  -7.871   2.492  1.00  0.00     0.099 C 
ATOM      7  O   UNL     1      -4.711  -8.860   2.421  1.00  0.00    -0.544 OA
ATOM      8  O   UNL     1      -2.563  -8.084   2.553  1.00  0.00    -0.544 OA
ENDBRANCH   1   6
BRANCH   1   9
ATOM      9  C   UNL     1      -4.172  -5.678   3.781  1.00  0.00     0.047 C 
ATOM     10  C   UNL     1      -5.410  -5.551   4.682  1.00  0.00     0.014 C 
ATOM     11  C   UNL     1      -3.563  -4.289   3.524  1.00  0.00     0.014 C 
ENDBRANCH   1   9
TORSDOF 3
ENDMDL
MODEL 5
REMARK VINA RESULT:    -3.936      1.636      2.312
REMARK INTER + INTRA:          -4.555
REMARK INTER:                  -4.500
REMARK INTRA:                  -0.056
REMARK UNBOUND:                -0.044
REMARK SMILES CC(C)[C@H]([NH3+])C(=O)[O-]
REMARK SMILES IDX 4 1 5 2 6 6 7 7 8 8 2 9 1 10 3 11
REMARK H PARENT 5 3 5 4 5 5
REMARK Flexibility Score: inf
ROOT
ATOM      1  C   UNL     1       2.177  -7.590  -1.315  1.00  0.00     0.230 C 
ENDROOT
BRANCH   1   2
ATOM      2  N   UNL     1       0.769  -7.449  -0.915  1.00  0.00    -0.350 N 
ATOM      3  H   UNL     1       0.222  -8.314  -1.126  1.00  0.00     0.345 HD
ATOM      4  H   UNL     1       0.707  -7.244   0.108  1.00  0.00     0.345 HD
ATOM      5  H   UNL     1       0.338  -6.648  -1.432  1.00  0.00     0.345 HD
ENDBRANCH   1   2
BRANCH   1   6
ATOM      6  C   UNL     1       2.903  -8.532  -0.385  1.00  0.00     0.099 C 
ATOM      7  O   UNL     1       3.990  -8.181   0.145  1.00  0.00    -0.544 OA
ATOM      8  O   UNL     1       2.370  -9.781  -0.084  1.00  0.00    -0.544 OA
ENDBRANCH   1   6
BRANCH   1   9
ATOM      9  C   UNL     1       2.881  -6.204  -1.438  1.00  0.00     0.047 C 
ATOM     10  C   UNL     1       1.868  -5.053  -1.353  1.00  0.00     0.014 C 
ATOM     11  C   UNL     1       3.739  -6.059  -2.706  1.00  0.00     0.014 C 
ENDBRANCH   1   9
TORSDOF 3
ENDMDL
MODEL 6
REMARK VINA RESULT:    -3.933      7.960      8.671
REMARK INTER + INTRA:          -4.552
REMARK INTER:                  -4.567
REMARK INTRA:                   0.015
REMARK UNBOUND:                -0.044
REMARK SMILES CC(C)[C@H]([NH3+])C(=O)[O-]
REMARK SMILES IDX 4 1 5 2 6 6 7 7 8 8 2 9 1 10 3 11
REMARK H PARENT 5 3 5 4 5 5
REMARK Flexibility Score: inf
ROOT
ATOM      1  C   UNL     1      -5.516  -6.554   2.898  1.00  0.00     0.230 C 
ENDROOT
BRANCH   1   2
ATOM      2  N   UNL     1      -6.221  -7.279   1.831  1.00  0.00    -0.350 N 
ATOM      3  H   UNL     1      -6.844  -6.644   1.283  1.00  0.00     0.345 HD
ATOM      4  H   UNL     1      -5.530  -7.725   1.185  1.00  0.00     0.345 HD
ATOM      5  H   UNL     1      -6.806  -8.038   2.253  1.00  0.00     0.345 HD
ENDBRANCH   1   2
BRANCH   1   6
ATOM      6  C   UNL     1      -6.345  -5.390   3.389  1.00  0.00     0.099 C 
ATOM      7  O   UNL     1      -6.978  -4.677   2.566  1.00  0.00    -0.544 OA
ATOM      8  O   UNL     1      -6.442  -5.113   4.748  1.00  0.00    -0.544 OA
ENDBRANCH   1   6
BRANCH   1   9
ATOM      9  C   UNL     1      -4.083  -6.127   2.456  1.00  0.00     0.047 C 
ATOM     10  C   UNL     1      -3.123  -7.326   2.443  1.00  0.00     0.014 C 
ATOM     11  C   UNL     1      -3.491  -4.987   3.302  1.00  0.00     0.014 C 
ENDBRANCH   1   9
TORSDOF 3
ENDMDL
MODEL 7
REMARK VINA RESULT:    -3.899      2.469      3.551
REMARK INTER + INTRA:          -4.513
REMARK INTER:                  -4.498
REMARK INTRA:                  -0.015
REMARK UNBOUND:                -0.044
REMARK SMILES CC(C)[C@H]([NH3+])C(=O)[O-]
REMARK SMILES IDX 4 1 5 2 6 6 7 7 8 8 2 9 1 10 3 11
REMARK H PARENT 5 3 5 4 5 5
REMARK Flexibility Score: inf
ROOT
ATOM      1  C   UNL     1       3.285  -6.695  -1.153  1.00  0.00     0.230 C 
ENDROOT
BRANCH   1   2
ATOM      2  N   UNL     1       3.150  -5.688  -0.091  1.00  0.00    -0.350 N 
ATOM      3  H   UNL     1       2.462  -5.986   0.636  1.00  0.00     0.345 HD
ATOM      4  H   UNL     1       4.077  -5.519   0.362  1.00  0.00     0.345 HD
ATOM      5  H   UNL     1       2.825  -4.783  -0.507  1.00  0.00     0.345 HD
ENDBRANCH   1   2
BRANCH   1   6
ATOM      6  C   UNL     1       2.676  -6.194  -2.442  1.00  0.00     0.099 C 
ATOM      7  O   UNL     1       3.242  -6.434  -3.541  1.00  0.00    -0.544 OA
ATOM      8  O   UNL     1       1.476  -5.492  -2.433  1.00  0.00    -0.544 OA
ENDBRANCH   1   6
BRANCH   1   9
ATOM      9  C   UNL     1       2.710  -8.076  -0.714  1.00  0.00     0.047 C 
ATOM     10  C   UNL     1       1.339  -7.920  -0.037  1.00  0.00     0.014 C 
ATOM     11  C   UNL     1       3.657  -8.877   0.195  1.00  0.00     0.014 C 
ENDBRANCH   1   9
TORSDOF 3
ENDMDL
MODEL 8
REMARK VINA RESULT:    -3.872      2.819      3.485
REMARK INTER + INTRA:          -4.482
REMARK INTER:                  -4.571
REMARK INTRA:                   0.089
REMARK UNBOUND:                -0.044
REMARK SMILES CC(C)[C@H]([NH3+])C(=O)[O-]
REMARK SMILES IDX 4 1 5 2 6 6 7 7 8 8 2 9 1 10 3 11
REMARK H PARENT 5 3 5 4 5 5
REMARK Flexibility Score: inf
ROOT
ATOM      1  C   UNL     1       2.291  -6.098  -1.066  1.00  0.00     0.230 C 
ENDROOT
BRANCH   1   2
ATOM      2  N   UNL     1       1.378  -5.926  -2.205  1.00  0.00    -0.350 N 
ATOM      3  H   UNL     1       1.702  -6.462  -3.041  1.00  0.00     0.345 HD
ATOM      4  H   UNL     1       0.417  -6.244  -1.944  1.00  0.00     0.345 HD
ATOM      5  H   UNL     1       1.325  -4.912  -2.459  1.00  0.00     0.345 HD
ENDBRANCH   1   2
BRANCH   1   6
ATOM      6  C   UNL     1       3.730  -6.051  -1.525  1.00  0.00     0.099 C 
ATOM      7  O   UNL     1       4.004  -6.162  -2.748  1.00  0.00    -0.544 OA
ATOM      8  O   UNL     1       4.759  -5.857  -0.610  1.00  0.00    -0.544 OA
ENDBRANCH   1   6
BRANCH   1   9
ATOM      9  C   UNL     1       1.962  -7.388  -0.253  1.00  0.00     0.047 C 
ATOM     10  C   UNL     1       2.913  -8.537  -0.620  1.00  0.00     0.014 C 
ATOM     11  C   UNL     1       0.501  -7.848  -0.392  1.00  0.00     0.014 C 
ENDBRANCH   1   9
TORSDOF 3
ENDMDL
MODEL 9
REMARK VINA RESULT:    -3.861      7.866      8.782
REMARK INTER + INTRA:          -4.470
REMARK INTER:                  -4.428
REMARK INTRA:                  -0.042
REMARK UNBOUND:                -0.044
REMARK SMILES CC(C)[C@H]([NH3+])C(=O)[O-]
REMARK SMILES IDX 4 1 5 2 6 6 7 7 8 8 2 9 1 10 3 11
REMARK H PARENT 5 3 5 4 5 5
REMARK Flexibility Score: inf
ROOT
ATOM      1  C   UNL     1      -5.557  -6.092   3.075  1.00  0.00     0.230 C 
ENDROOT
BRANCH   1   2
ATOM      2  N   UNL     1      -5.081  -5.062   2.141  1.00  0.00    -0.350 N 
ATOM      3  H   UNL     1      -4.261  -5.396   1.586  1.00  0.00     0.345 HD
ATOM      4  H   UNL     1      -5.850  -4.788   1.488  1.00  0.00     0.345 HD
ATOM      5  H   UNL     1      -4.794  -4.210   2.678  1.00  0.00     0.345 HD
ENDBRANCH   1   2
BRANCH   1   6
ATOM      6  C   UNL     1      -5.325  -5.663   4.505  1.00  0.00     0.099 C 
ATOM      7  O   UNL     1      -4.269  -5.052   4.816  1.00  0.00    -0.544 OA
ATOM      8  O   UNL     1      -6.283  -5.910   5.482  1.00  0.00    -0.544 OA
ENDBRANCH   1   6
BRANCH   1   9
ATOM      9  C   UNL     1      -4.937  -7.487   2.758  1.00  0.00     0.047 C 
ATOM     10  C   UNL     1      -3.498  -7.353   2.237  1.00  0.00     0.014 C 
ATOM     11  C   UNL     1      -5.775  -8.327   1.780  1.00  0.00     0.014 C 
ENDBRANCH   1   9
TORSDOF 3
ENDMDL
