MODEL 1
REMARK VINA RESULT:    -4.155      0.000      0.000
REMARK INTER + INTRA:          -6.880
REMARK INTER:                  -6.342
REMARK INTRA:                  -0.538
REMARK UNBOUND:                -0.538
REMARK SMILES O=C([O-])CCCCCCCCC(=O)[O-]
REMARK SMILES IDX 7 1 6 2 5 3 4 4 2 5 1 6 3 7 8 8 9 9 10 10 11 11 12 12 13 13
REMARK SMILES IDX 14 14
REMARK H PARENT
REMARK Flexibility Score: inf
ROOT
ATOM      1  C   UNL     1      -6.417 -22.333  47.240  1.00  0.00     0.000 C 
ENDROOT
BRANCH   1   2
ATOM      2  C   UNL     1      -7.293 -21.131  46.853  1.00  0.00     0.000 C 
BRANCH   2   3
ATOM      3  C   UNL     1      -8.789 -21.382  47.112  1.00  0.00     0.006 C 
BRANCH   3   4
ATOM      4  C   UNL     1      -9.076 -22.844  47.482  1.00  0.00     0.053 C 
BRANCH   4   5
ATOM      5  C   UNL     1     -10.420 -23.004  48.123  1.00  0.00     0.041 C 
ATOM      6  O   UNL     1     -10.625 -23.943  48.938  1.00  0.00    -0.550 OA
ATOM      7  O   UNL     1     -11.437 -22.099  47.845  1.00  0.00    -0.550 OA
ENDBRANCH   4   5
ENDBRANCH   3   4
ENDBRANCH   2   3
ENDBRANCH   1   2
BRANCH   1   8
ATOM      8  C   UNL     1      -4.921 -22.077  46.990  1.00  0.00     0.000 C 
BRANCH   8   9
ATOM      9  C   UNL     1      -4.041 -23.299  47.312  1.00  0.00     0.000 C 
BRANCH   9  10
ATOM     10  C   UNL     1      -4.334 -23.977  48.663  1.00  0.00     0.006 C 
BRANCH  10  11
ATOM     11  C   UNL     1      -4.287 -25.509  48.587  1.00  0.00     0.053 C 
BRANCH  11  12
ATOM     12  C   UNL     1      -5.594 -26.048  48.095  1.00  0.00     0.041 C 
ATOM     13  O   UNL     1      -6.676 -25.615  48.570  1.00  0.00    -0.550 OA
ATOM     14  O   UNL     1      -5.617 -26.992  47.076  1.00  0.00    -0.550 OA
ENDBRANCH  11  12
ENDBRANCH  10  11
ENDBRANCH   9  10
ENDBRANCH   8   9
ENDBRANCH   1   8
TORSDOF 9
ENDMDL
MODEL 2
REMARK VINA RESULT:    -4.012     10.111     12.280
REMARK INTER + INTRA:          -6.662
REMARK INTER:                  -6.044
REMARK INTRA:                  -0.618
REMARK UNBOUND:                -0.538
REMARK SMILES O=C([O-])CCCCCCCCC(=O)[O-]
REMARK SMILES IDX 7 1 6 2 5 3 4 4 2 5 1 6 3 7 8 8 9 9 10 10 11 11 12 12 13 13
REMARK SMILES IDX 14 14
REMARK H PARENT
REMARK Flexibility Score: inf
ROOT
ATOM      1  C   UNL     1      -4.914 -36.240  45.375  1.00  0.00     0.000 C 
ENDROOT
BRANCH   1   2
ATOM      2  C   UNL     1      -5.401 -35.239  44.314  1.00  0.00     0.000 C 
BRANCH   2   3
ATOM      3  C   UNL     1      -6.403 -34.218  44.880  1.00  0.00     0.006 C 
BRANCH   3   4
ATOM      4  C   UNL     1      -6.763 -34.509  46.343  1.00  0.00     0.053 C 
BRANCH   4   5
ATOM      5  C   UNL     1      -6.234 -33.457  47.268  1.00  0.00     0.041 C 
ATOM      6  O   UNL     1      -6.923 -32.432  47.521  1.00  0.00    -0.550 OA
ATOM      7  O   UNL     1      -4.996 -33.621  47.875  1.00  0.00    -0.550 OA
ENDBRANCH   4   5
ENDBRANCH   3   4
ENDBRANCH   2   3
ENDBRANCH   1   2
BRANCH   1   8
ATOM      8  C   UNL     1      -3.389 -36.442  45.340  1.00  0.00     0.000 C 
BRANCH   8   9
ATOM      9  C   UNL     1      -2.643 -35.553  46.351  1.00  0.00     0.000 C 
BRANCH   9  10
ATOM     10  C   UNL     1      -1.899 -34.351  45.740  1.00  0.00     0.006 C 
BRANCH  10  11
ATOM     11  C   UNL     1      -0.383 -34.404  45.971  1.00  0.00     0.053 C 
BRANCH  11  12
ATOM     12  C   UNL     1       0.307 -34.978  44.774  1.00  0.00     0.041 C 
ATOM     13  O   UNL     1       1.155 -34.293  44.143  1.00  0.00    -0.550 OA
ATOM     14  O   UNL     1       0.052 -36.287  44.386  1.00  0.00    -0.550 OA
ENDBRANCH  11  12
ENDBRANCH  10  11
ENDBRANCH   9  10
ENDBRANCH   8   9
ENDBRANCH   1   8
TORSDOF 9
ENDMDL
MODEL 3
REMARK VINA RESULT:    -3.952     11.166     13.366
REMARK INTER + INTRA:          -6.569
REMARK INTER:                  -5.760
REMARK INTRA:                  -0.809
REMARK UNBOUND:                -0.538
REMARK SMILES O=C([O-])CCCCCCCCC(=O)[O-]
REMARK SMILES IDX 7 1 6 2 5 3 4 4 2 5 1 6 3 7 8 8 9 9 10 10 11 11 12 12 13 13
REMARK SMILES IDX 14 14
REMARK H PARENT
REMARK Flexibility Score: inf
ROOT
ATOM      1  C   UNL     1       6.269 -22.836  46.771  1.00  0.00     0.000 C 
ENDROOT
BRANCH   1   2
ATOM      2  C   UNL     1       4.785 -22.822  46.369  1.00  0.00     0.000 C 
BRANCH   2   3
ATOM      3  C   UNL     1       3.852 -22.526  47.556  1.00  0.00     0.006 C 
BRANCH   3   4
ATOM      4  C   UNL     1       2.576 -21.794  47.121  1.00  0.00     0.053 C 
BRANCH   4   5
ATOM      5  C   UNL     1       2.848 -20.367  46.755  1.00  0.00     0.041 C 
ATOM      6  O   UNL     1       3.376 -19.588  47.593  1.00  0.00    -0.550 OA
ATOM      7  O   UNL     1       2.549 -19.906  45.480  1.00  0.00    -0.550 OA
ENDBRANCH   4   5
ENDBRANCH   3   4
ENDBRANCH   2   3
ENDBRANCH   1   2
BRANCH   1   8
ATOM      8  C   UNL     1       6.474 -22.606  48.278  1.00  0.00     0.000 C 
BRANCH   8   9
ATOM      9  C   UNL     1       7.327 -21.361  48.584  1.00  0.00     0.000 C 
BRANCH   9  10
ATOM     10  C   UNL     1       6.676 -20.015  48.215  1.00  0.00     0.006 C 
BRANCH  10  11
ATOM     11  C   UNL     1       7.635 -19.064  47.488  1.00  0.00     0.053 C 
BRANCH  11  12
ATOM     12  C   UNL     1       6.961 -18.447  46.304  1.00  0.00     0.041 C 
ATOM     13  O   UNL     1       6.026 -19.054  45.719  1.00  0.00    -0.550 OA
ATOM     14  O   UNL     1       7.331 -17.178  45.877  1.00  0.00    -0.550 OA
ENDBRANCH  11  12
ENDBRANCH  10  11
ENDBRANCH   9  10
ENDBRANCH   8   9
ENDBRANCH   1   8
TORSDOF 9
ENDMDL
MODEL 4
REMARK VINA RESULT:    -3.941     11.600     13.108
REMARK INTER + INTRA:          -6.552
REMARK INTER:                  -5.983
REMARK INTRA:                  -0.569
REMARK UNBOUND:                -0.538
REMARK SMILES O=C([O-])CCCCCCCCC(=O)[O-]
REMARK SMILES IDX 7 1 6 2 5 3 4 4 2 5 1 6 3 7 8 8 9 9 10 10 11 11 12 12 13 13
REMARK SMILES IDX 14 14
REMARK H PARENT
REMARK Flexibility Score: inf
ROOT
ATOM      1  C   UNL     1      -1.856 -34.265  46.032  1.00  0.00     0.000 C 
ENDROOT
BRANCH   1   2
ATOM      2  C   UNL     1      -3.392 -34.305  46.010  1.00  0.00     0.000 C 
BRANCH   2   3
ATOM      3  C   UNL     1      -3.945 -35.726  45.799  1.00  0.00     0.006 C 
BRANCH   3   4
ATOM      4  C   UNL     1      -4.949 -35.790  44.640  1.00  0.00     0.053 C 
BRANCH   4   5
ATOM      5  C   UNL     1      -6.065 -34.806  44.814  1.00  0.00     0.041 C 
ATOM      6  O   UNL     1      -6.829 -34.884  45.812  1.00  0.00    -0.550 OA
ATOM      7  O   UNL     1      -6.241 -33.783  43.890  1.00  0.00    -0.550 OA
ENDBRANCH   4   5
ENDBRANCH   3   4
ENDBRANCH   2   3
ENDBRANCH   1   2
BRANCH   1   8
ATOM      8  C   UNL     1      -1.229 -35.669  46.069  1.00  0.00     0.000 C 
BRANCH   8   9
ATOM      9  C   UNL     1      -0.064 -35.832  45.075  1.00  0.00     0.000 C 
BRANCH   9  10
ATOM     10  C   UNL     1       0.515 -34.515  44.526  1.00  0.00     0.006 C 
BRANCH  10  11
ATOM     11  C   UNL     1       2.040 -34.555  44.358  1.00  0.00     0.053 C 
BRANCH  11  12
ATOM     12  C   UNL     1       2.709 -34.684  45.690  1.00  0.00     0.041 C 
ATOM     13  O   UNL     1       2.472 -33.849  46.601  1.00  0.00    -0.550 OA
ATOM     14  O   UNL     1       3.556 -35.757  45.942  1.00  0.00    -0.550 OA
ENDBRANCH  11  12
ENDBRANCH  10  11
ENDBRANCH   9  10
ENDBRANCH   8   9
ENDBRANCH   1   8
TORSDOF 9
ENDMDL
MODEL 5
REMARK VINA RESULT:    -3.909     11.491     14.051
REMARK INTER + INTRA:          -6.504
REMARK INTER:                  -5.950
REMARK INTRA:                  -0.554
REMARK UNBOUND:                -0.538
REMARK SMILES O=C([O-])CCCCCCCCC(=O)[O-]
REMARK SMILES IDX 7 1 6 2 5 3 4 4 2 5 1 6 3 7 8 8 9 9 10 10 11 11 12 12 13 13
REMARK SMILES IDX 14 14
REMARK H PARENT
REMARK Flexibility Score: inf
ROOT
ATOM      1  C   UNL     1      -1.209 -35.438  46.241  1.00  0.00     0.000 C 
ENDROOT
BRANCH   1   2
ATOM      2  C   UNL     1      -0.080 -35.736  45.241  1.00  0.00     0.000 C 
BRANCH   2   3
ATOM      3  C   UNL     1       0.506 -34.460  44.611  1.00  0.00     0.006 C 
BRANCH   3   4
ATOM      4  C   UNL     1       2.036 -34.518  44.504  1.00  0.00     0.053 C 
BRANCH   4   5
ATOM      5  C   UNL     1       2.687 -34.583  45.852  1.00  0.00     0.041 C 
ATOM      6  O   UNL     1       2.421 -33.716  46.726  1.00  0.00    -0.550 OA
ATOM      7  O   UNL     1       3.564 -35.618  46.153  1.00  0.00    -0.550 OA
ENDBRANCH   4   5
ENDBRANCH   3   4
ENDBRANCH   2   3
ENDBRANCH   1   2
BRANCH   1   8
ATOM      8  C   UNL     1      -1.992 -34.163  45.884  1.00  0.00     0.000 C 
BRANCH   8   9
ATOM      9  C   UNL     1      -3.488 -34.260  46.235  1.00  0.00     0.000 C 
BRANCH   9  10
ATOM     10  C   UNL     1      -4.126 -35.642  46.001  1.00  0.00     0.006 C 
BRANCH  10  11
ATOM     11  C   UNL     1      -5.012 -35.687  44.749  1.00  0.00     0.053 C 
BRANCH  11  12
ATOM     12  C   UNL     1      -6.132 -34.701  44.865  1.00  0.00     0.041 C 
ATOM     13  O   UNL     1      -6.954 -34.785  45.815  1.00  0.00    -0.550 OA
ATOM     14  O   UNL     1      -6.238 -33.659  43.953  1.00  0.00    -0.550 OA
ENDBRANCH  11  12
ENDBRANCH  10  11
ENDBRANCH   9  10
ENDBRANCH   8   9
ENDBRANCH   1   8
TORSDOF 9
ENDMDL
MODEL 6
REMARK VINA RESULT:    -3.907     10.815     13.451
REMARK INTER + INTRA:          -6.500
REMARK INTER:                  -5.592
REMARK INTRA:                  -0.909
REMARK UNBOUND:                -0.538
REMARK SMILES O=C([O-])CCCCCCCCC(=O)[O-]
REMARK SMILES IDX 7 1 6 2 5 3 4 4 2 5 1 6 3 7 8 8 9 9 10 10 11 11 12 12 13 13
REMARK SMILES IDX 14 14
REMARK H PARENT
REMARK Flexibility Score: inf
ROOT
ATOM      1  C   UNL     1       6.385 -22.752  48.341  1.00  0.00     0.000 C 
ENDROOT
BRANCH   1   2
ATOM      2  C   UNL     1       7.351 -21.566  48.485  1.00  0.00     0.000 C 
BRANCH   2   3
ATOM      3  C   UNL     1       6.620 -20.214  48.578  1.00  0.00     0.006 C 
BRANCH   3   4
ATOM      4  C   UNL     1       7.397 -19.087  47.884  1.00  0.00     0.053 C 
BRANCH   4   5
ATOM      5  C   UNL     1       6.804 -18.738  46.553  1.00  0.00     0.041 C 
ATOM      6  O   UNL     1       5.735 -19.286  46.173  1.00  0.00    -0.550 OA
ATOM      7  O   UNL     1       7.413 -17.785  45.747  1.00  0.00    -0.550 OA
ENDBRANCH   4   5
ENDBRANCH   3   4
ENDBRANCH   2   3
ENDBRANCH   1   2
BRANCH   1   8
ATOM      8  C   UNL     1       6.099 -23.107  46.872  1.00  0.00     0.000 C 
BRANCH   8   9
ATOM      9  C   UNL     1       4.694 -22.677  46.413  1.00  0.00     0.000 C 
BRANCH   9  10
ATOM     10  C   UNL     1       3.664 -22.495  47.543  1.00  0.00     0.006 C 
BRANCH  10  11
ATOM     11  C   UNL     1       3.095 -21.071  47.611  1.00  0.00     0.053 C 
BRANCH  11  12
ATOM     12  C   UNL     1       2.145 -20.834  46.479  1.00  0.00     0.041 C 
ATOM     13  O   UNL     1       1.008 -21.375  46.482  1.00  0.00    -0.550 OA
ATOM     14  O   UNL     1       2.496 -19.975  45.445  1.00  0.00    -0.550 OA
ENDBRANCH  11  12
ENDBRANCH  10  11
ENDBRANCH   9  10
ENDBRANCH   8   9
ENDBRANCH   1   8
TORSDOF 9
ENDMDL
MODEL 7
REMARK VINA RESULT:    -3.894     10.447     12.054
REMARK INTER + INTRA:          -6.481
REMARK INTER:                  -5.940
REMARK INTRA:                  -0.541
REMARK UNBOUND:                -0.538
REMARK SMILES O=C([O-])CCCCCCCCC(=O)[O-]
REMARK SMILES IDX 7 1 6 2 5 3 4 4 2 5 1 6 3 7 8 8 9 9 10 10 11 11 12 12 13 13
REMARK SMILES IDX 14 14
REMARK H PARENT
REMARK Flexibility Score: inf
ROOT
ATOM      1  C   UNL     1      -4.091 -32.959  48.157  1.00  0.00     0.000 C 
ENDROOT
BRANCH   1   2
ATOM      2  C   UNL     1      -5.086 -34.076  47.801  1.00  0.00     0.000 C 
BRANCH   2   3
ATOM      3  C   UNL     1      -6.327 -33.549  47.060  1.00  0.00     0.006 C 
BRANCH   3   4
ATOM      4  C   UNL     1      -6.905 -34.587  46.088  1.00  0.00     0.053 C 
BRANCH   4   5
ATOM      5  C   UNL     1      -6.178 -34.591  44.779  1.00  0.00     0.041 C 
ATOM      6  O   UNL     1      -6.296 -33.619  43.986  1.00  0.00    -0.550 OA
ATOM      7  O   UNL     1      -5.346 -35.652  44.447  1.00  0.00    -0.550 OA
ENDBRANCH   4   5
ENDBRANCH   3   4
ENDBRANCH   2   3
ENDBRANCH   1   2
BRANCH   1   8
ATOM      8  C   UNL     1      -2.679 -33.229  47.610  1.00  0.00     0.000 C 
BRANCH   8   9
ATOM      9  C   UNL     1      -2.680 -34.137  46.367  1.00  0.00     0.000 C 
BRANCH   9  10
ATOM     10  C   UNL     1      -1.400 -34.967  46.163  1.00  0.00     0.006 C 
BRANCH  10  11
ATOM     11  C   UNL     1      -0.236 -34.143  45.597  1.00  0.00     0.053 C 
BRANCH  11  12
ATOM     12  C   UNL     1       0.596 -34.979  44.675  1.00  0.00     0.041 C 
ATOM     13  O   UNL     1       0.211 -36.130  44.342  1.00  0.00    -0.550 OA
ATOM     14  O   UNL     1       1.773 -34.465  44.144  1.00  0.00    -0.550 OA
ENDBRANCH  11  12
ENDBRANCH  10  11
ENDBRANCH   9  10
ENDBRANCH   8   9
ENDBRANCH   1   8
TORSDOF 9
ENDMDL
MODEL 8
REMARK VINA RESULT:    -3.894     10.262     13.431
REMARK INTER + INTRA:          -6.480
REMARK INTER:                  -5.896
REMARK INTRA:                  -0.584
REMARK UNBOUND:                -0.538
REMARK SMILES O=C([O-])CCCCCCCCC(=O)[O-]
REMARK SMILES IDX 7 1 6 2 5 3 4 4 2 5 1 6 3 7 8 8 9 9 10 10 11 11 12 12 13 13
REMARK SMILES IDX 14 14
REMARK H PARENT
REMARK Flexibility Score: inf
ROOT
ATOM      1  C   UNL     1      -3.704 -36.763  46.101  1.00  0.00     0.000 C 
ENDROOT
BRANCH   1   2
ATOM      2  C   UNL     1      -2.556 -36.355  45.164  1.00  0.00     0.000 C 
BRANCH   2   3
ATOM      3  C   UNL     1      -1.277 -35.970  45.927  1.00  0.00     0.006 C 
BRANCH   3   4
ATOM      4  C   UNL     1      -0.938 -34.481  45.776  1.00  0.00     0.053 C 
BRANCH   4   5
ATOM      5  C   UNL     1       0.494 -34.271  45.393  1.00  0.00     0.041 C 
ATOM      6  O   UNL     1       0.879 -34.518  44.219  1.00  0.00    -0.550 OA
ATOM      7  O   UNL     1       1.398 -33.772  46.323  1.00  0.00    -0.550 OA
ENDBRANCH   4   5
ENDBRANCH   3   4
ENDBRANCH   2   3
ENDBRANCH   1   2
BRANCH   1   8
ATOM      8  C   UNL     1      -5.082 -36.673  45.423  1.00  0.00     0.000 C 
BRANCH   8   9
ATOM      9  C   UNL     1      -5.183 -35.506  44.423  1.00  0.00     0.000 C 
BRANCH   9  10
ATOM     10  C   UNL     1      -6.216 -34.423  44.786  1.00  0.00     0.006 C 
BRANCH  10  11
ATOM     11  C   UNL     1      -6.818 -34.614  46.184  1.00  0.00     0.053 C 
BRANCH  11  12
ATOM     12  C   UNL     1      -6.251 -33.612  47.139  1.00  0.00     0.041 C 
ATOM     13  O   UNL     1      -6.907 -32.581  47.439  1.00  0.00    -0.550 OA
ATOM     14  O   UNL     1      -5.018 -33.843  47.737  1.00  0.00    -0.550 OA
ENDBRANCH  11  12
ENDBRANCH  10  11
ENDBRANCH   9  10
ENDBRANCH   8   9
ENDBRANCH   1   8
TORSDOF 9
ENDMDL
MODEL 9
REMARK VINA RESULT:    -3.867     10.448     12.427
REMARK INTER + INTRA:          -6.440
REMARK INTER:                  -5.693
REMARK INTRA:                  -0.747
REMARK UNBOUND:                -0.538
REMARK SMILES O=C([O-])CCCCCCCCC(=O)[O-]
REMARK SMILES IDX 7 1 6 2 5 3 4 4 2 5 1 6 3 7 8 8 9 9 10 10 11 11 12 12 13 13
REMARK SMILES IDX 14 14
REMARK H PARENT
REMARK Flexibility Score: inf
ROOT
ATOM      1  C   UNL     1      -5.270 -35.454  44.164  1.00  0.00     0.000 C 
ENDROOT
BRANCH   1   2
ATOM      2  C   UNL     1      -5.916 -34.176  44.722  1.00  0.00     0.000 C 
BRANCH   2   3
ATOM      3  C   UNL     1      -6.765 -34.442  45.978  1.00  0.00     0.006 C 
BRANCH   3   4
ATOM      4  C   UNL     1      -6.446 -33.457  47.111  1.00  0.00     0.053 C 
BRANCH   4   5
ATOM      5  C   UNL     1      -5.189 -33.829  47.836  1.00  0.00     0.041 C 
ATOM      6  O   UNL     1      -4.286 -32.970  48.019  1.00  0.00    -0.550 OA
ATOM      7  O   UNL     1      -5.028 -35.115  48.337  1.00  0.00    -0.550 OA
ENDBRANCH   4   5
ENDBRANCH   3   4
ENDBRANCH   2   3
ENDBRANCH   1   2
BRANCH   1   8
ATOM      8  C   UNL     1      -5.076 -36.536  45.239  1.00  0.00     0.000 C 
BRANCH   8   9
ATOM      9  C   UNL     1      -3.596 -36.896  45.468  1.00  0.00     0.000 C 
BRANCH   9  10
ATOM     10  C   UNL     1      -2.654 -35.693  45.661  1.00  0.00     0.006 C 
BRANCH  10  11
ATOM     11  C   UNL     1      -1.188 -36.105  45.848  1.00  0.00     0.053 C 
BRANCH  11  12
ATOM     12  C   UNL     1      -0.276 -35.040  45.325  1.00  0.00     0.041 C 
ATOM     13  O   UNL     1      -0.291 -33.888  45.830  1.00  0.00    -0.550 OA
ATOM     14  O   UNL     1       0.628 -35.336  44.312  1.00  0.00    -0.550 OA
ENDBRANCH  11  12
ENDBRANCH  10  11
ENDBRANCH   9  10
ENDBRANCH   8   9
ENDBRANCH   1   8
TORSDOF 9
ENDMDL
