MODEL 1
REMARK VINA RESULT:    -4.844      0.000      0.000
REMARK INTER + INTRA:          -9.013
REMARK INTER:                  -7.676
REMARK INTRA:                  -1.337
REMARK UNBOUND:                -1.337
REMARK SMILES CCCCCCCCCCCC(=O)[O-]
REMARK SMILES IDX 7 1 8 2 9 3 10 4 11 5 12 6 13 7 14 8 6 9 5 10 4 11 3 12 2 13
REMARK SMILES IDX 1 14
REMARK H PARENT
REMARK Flexibility Score: inf
ROOT
ATOM      1  C   UNL     1     105.334  25.600 195.809  1.00  0.00     0.000 C 
ENDROOT
BRANCH   1   2
ATOM      2  C   UNL     1     104.586  25.479 197.151  1.00  0.00     0.000 C 
BRANCH   2   3
ATOM      3  C   UNL     1     103.094  25.119 197.034  1.00  0.00     0.000 C 
BRANCH   3   4
ATOM      4  C   UNL     1     102.630  24.139 198.125  1.00  0.00     0.006 C 
BRANCH   4   5
ATOM      5  C   UNL     1     103.724  23.131 198.503  1.00  0.00     0.053 C 
BRANCH   5   6
ATOM      6  C   UNL     1     104.091  23.224 199.953  1.00  0.00     0.041 C 
ATOM      7  O   UNL     1     105.294  23.362 200.294  1.00  0.00    -0.550 OA
ATOM      8  O   UNL     1     103.105  23.131 200.928  1.00  0.00    -0.550 OA
ENDBRANCH   5   6
ENDBRANCH   4   5
ENDBRANCH   3   4
ENDBRANCH   2   3
ENDBRANCH   1   2
BRANCH   1   9
ATOM      9  C   UNL     1     104.885  24.611 194.714  1.00  0.00     0.000 C 
BRANCH   9  10
ATOM     10  C   UNL     1     105.287  23.139 194.948  1.00  0.00    -0.000 C 
BRANCH  10  11
ATOM     11  C   UNL     1     104.164  22.114 194.685  1.00  0.00    -0.000 C 
BRANCH  11  12
ATOM     12  C   UNL     1     103.103  22.604 193.675  1.00  0.00    -0.000 C 
BRANCH  12  13
ATOM     13  C   UNL     1     101.663  22.241 194.075  1.00  0.00    -0.003 C 
ATOM     14  C   UNL     1     101.580  21.575 195.447  1.00  0.00     0.004 C 
ENDBRANCH  12  13
ENDBRANCH  11  12
ENDBRANCH  10  11
ENDBRANCH   9  10
ENDBRANCH   1   9
TORSDOF 10
ENDMDL
MODEL 2
REMARK VINA RESULT:    -4.750      2.819      5.227
REMARK INTER + INTRA:          -8.864
REMARK INTER:                  -7.631
REMARK INTRA:                  -1.232
REMARK UNBOUND:                -1.337
REMARK SMILES CCCCCCCCCCCC(=O)[O-]
REMARK SMILES IDX 7 1 8 2 9 3 10 4 11 5 12 6 13 7 14 8 6 9 5 10 4 11 3 12 2 13
REMARK SMILES IDX 1 14
REMARK H PARENT
REMARK Flexibility Score: inf
ROOT
ATOM      1  C   UNL     1     102.895  25.025 197.086  1.00  0.00     0.000 C 
ENDROOT
BRANCH   1   2
ATOM      2  C   UNL     1     104.397  25.374 197.105  1.00  0.00     0.000 C 
BRANCH   2   3
ATOM      3  C   UNL     1     105.173  24.980 195.835  1.00  0.00     0.000 C 
BRANCH   3   4
ATOM      4  C   UNL     1     105.477  23.475 195.765  1.00  0.00     0.006 C 
BRANCH   4   5
ATOM      5  C   UNL     1     105.150  22.880 194.388  1.00  0.00     0.053 C 
BRANCH   5   6
ATOM      6  C   UNL     1     103.700  22.524 194.265  1.00  0.00     0.041 C 
ATOM      7  O   UNL     1     103.078  22.762 193.196  1.00  0.00    -0.550 OA
ATOM      8  O   UNL     1     103.028  21.958 195.341  1.00  0.00    -0.550 OA
ENDBRANCH   5   6
ENDBRANCH   4   5
ENDBRANCH   3   4
ENDBRANCH   2   3
ENDBRANCH   1   2
BRANCH   1   9
ATOM      9  C   UNL     1     102.388  24.233 198.307  1.00  0.00     0.000 C 
BRANCH   9  10
ATOM     10  C   UNL     1     103.269  23.040 198.735  1.00  0.00    -0.000 C 
BRANCH  10  11
ATOM     11  C   UNL     1     103.926  23.187 200.123  1.00  0.00    -0.000 C 
BRANCH  11  12
ATOM     12  C   UNL     1     105.465  23.313 200.070  1.00  0.00    -0.000 C 
BRANCH  12  13
ATOM     13  C   UNL     1     106.134  22.268 199.162  1.00  0.00    -0.003 C 
ATOM     14  C   UNL     1     107.492  21.808 199.689  1.00  0.00     0.004 C 
ENDBRANCH  12  13
ENDBRANCH  11  12
ENDBRANCH  10  11
ENDBRANCH   9  10
ENDBRANCH   1   9
TORSDOF 10
ENDMDL
MODEL 3
REMARK VINA RESULT:    -4.744      0.692      2.978
REMARK INTER + INTRA:          -8.855
REMARK INTER:                  -7.461
REMARK INTRA:                  -1.394
REMARK UNBOUND:                -1.337
REMARK SMILES CCCCCCCCCCCC(=O)[O-]
REMARK SMILES IDX 7 1 8 2 9 3 10 4 11 5 12 6 13 7 14 8 6 9 5 10 4 11 3 12 2 13
REMARK SMILES IDX 1 14
REMARK H PARENT
REMARK Flexibility Score: inf
ROOT
ATOM      1  C   UNL     1     102.272  21.561 195.283  1.00  0.00     0.000 C 
ENDROOT
BRANCH   1   2
ATOM      2  C   UNL     1     101.611  22.178 196.532  1.00  0.00     0.000 C 
BRANCH   2   3
ATOM      3  C   UNL     1     101.908  23.673 196.753  1.00  0.00     0.000 C 
BRANCH   3   4
ATOM      4  C   UNL     1     102.486  23.966 198.147  1.00  0.00     0.006 C 
BRANCH   4   5
ATOM      5  C   UNL     1     103.758  23.154 198.431  1.00  0.00     0.053 C 
BRANCH   5   6
ATOM      6  C   UNL     1     104.141  23.205 199.879  1.00  0.00     0.041 C 
ATOM      7  O   UNL     1     105.354  23.220 200.212  1.00  0.00    -0.550 OA
ATOM      8  O   UNL     1     103.157  23.207 200.860  1.00  0.00    -0.550 OA
ENDBRANCH   5   6
ENDBRANCH   4   5
ENDBRANCH   3   4
ENDBRANCH   2   3
ENDBRANCH   1   2
BRANCH   1   9
ATOM      9  C   UNL     1     102.133  22.386 193.989  1.00  0.00     0.000 C 
BRANCH   9  10
ATOM     10  C   UNL     1     103.462  22.827 193.340  1.00  0.00    -0.000 C 
BRANCH  10  11
ATOM     11  C   UNL     1     104.730  22.309 194.049  1.00  0.00    -0.000 C 
BRANCH  11  12
ATOM     12  C   UNL     1     105.341  23.322 195.043  1.00  0.00    -0.000 C 
BRANCH  12  13
ATOM     13  C   UNL     1     104.851  24.764 194.827  1.00  0.00    -0.003 C 
ATOM     14  C   UNL     1     105.168  25.680 196.007  1.00  0.00     0.004 C 
ENDBRANCH  12  13
ENDBRANCH  11  12
ENDBRANCH  10  11
ENDBRANCH   9  10
ENDBRANCH   1   9
TORSDOF 10
ENDMDL
MODEL 4
REMARK VINA RESULT:    -4.672      2.978      5.045
REMARK INTER + INTRA:          -8.741
REMARK INTER:                  -7.509
REMARK INTRA:                  -1.231
REMARK UNBOUND:                -1.337
REMARK SMILES CCCCCCCCCCCC(=O)[O-]
REMARK SMILES IDX 7 1 8 2 9 3 10 4 11 5 12 6 13 7 14 8 6 9 5 10 4 11 3 12 2 13
REMARK SMILES IDX 1 14
REMARK H PARENT
REMARK Flexibility Score: inf
ROOT
ATOM      1  C   UNL     1     105.708  25.435 196.309  1.00  0.00     0.000 C 
ENDROOT
BRANCH   1   2
ATOM      2  C   UNL     1     105.321  24.380 195.253  1.00  0.00     0.000 C 
BRANCH   2   3
ATOM      3  C   UNL     1     105.722  22.935 195.601  1.00  0.00     0.000 C 
BRANCH   3   4
ATOM      4  C   UNL     1     104.860  21.887 194.879  1.00  0.00     0.006 C 
BRANCH   4   5
ATOM      5  C   UNL     1     103.358  22.144 195.064  1.00  0.00     0.053 C 
BRANCH   5   6
ATOM      6  C   UNL     1     102.690  22.499 193.770  1.00  0.00     0.041 C 
ATOM      7  O   UNL     1     103.380  22.857 192.780  1.00  0.00    -0.550 OA
ATOM      8  O   UNL     1     101.305  22.462 193.668  1.00  0.00    -0.550 OA
ENDBRANCH   5   6
ENDBRANCH   4   5
ENDBRANCH   3   4
ENDBRANCH   2   3
ENDBRANCH   1   2
BRANCH   1   9
ATOM      9  C   UNL     1     104.682  25.641 197.441  1.00  0.00     0.000 C 
BRANCH   9  10
ATOM     10  C   UNL     1     103.237  25.211 197.110  1.00  0.00    -0.000 C 
BRANCH  10  11
ATOM     11  C   UNL     1     102.607  24.233 198.123  1.00  0.00    -0.000 C 
BRANCH  11  12
ATOM     12  C   UNL     1     103.547  23.078 198.536  1.00  0.00    -0.000 C 
BRANCH  12  13
ATOM     13  C   UNL     1     104.114  23.229 199.958  1.00  0.00    -0.003 C 
ATOM     14  C   UNL     1     105.641  23.190 199.993  1.00  0.00     0.004 C 
ENDBRANCH  12  13
ENDBRANCH  11  12
ENDBRANCH  10  11
ENDBRANCH   9  10
ENDBRANCH   1   9
TORSDOF 10
ENDMDL
MODEL 5
REMARK VINA RESULT:    -4.666      2.012      3.861
REMARK INTER + INTRA:          -8.730
REMARK INTER:                  -7.680
REMARK INTRA:                  -1.050
REMARK UNBOUND:                -1.337
REMARK SMILES CCCCCCCCCCCC(=O)[O-]
REMARK SMILES IDX 7 1 8 2 9 3 10 4 11 5 12 6 13 7 14 8 6 9 5 10 4 11 3 12 2 13
REMARK SMILES IDX 1 14
REMARK H PARENT
REMARK Flexibility Score: inf
ROOT
ATOM      1  C   UNL     1     101.561  21.359 194.979  1.00  0.00     0.000 C 
ENDROOT
BRANCH   1   2
ATOM      2  C   UNL     1     101.246  21.810 196.419  1.00  0.00     0.000 C 
BRANCH   2   3
ATOM      3  C   UNL     1     101.290  23.331 196.648  1.00  0.00     0.000 C 
BRANCH   3   4
ATOM      4  C   UNL     1     102.528  23.780 197.441  1.00  0.00     0.006 C 
BRANCH   4   5
ATOM      5  C   UNL     1     103.038  25.157 196.991  1.00  0.00     0.053 C 
BRANCH   5   6
ATOM      6  C   UNL     1     104.519  25.291 197.176  1.00  0.00     0.041 C 
ATOM      7  O   UNL     1     105.193  26.002 196.386  1.00  0.00    -0.550 OA
ATOM      8  O   UNL     1     105.157  24.607 198.203  1.00  0.00    -0.550 OA
ENDBRANCH   5   6
ENDBRANCH   4   5
ENDBRANCH   3   4
ENDBRANCH   2   3
ENDBRANCH   1   2
BRANCH   1   9
ATOM      9  C   UNL     1     101.687  22.496 193.946  1.00  0.00     0.000 C 
BRANCH   9  10
ATOM     10  C   UNL     1     103.051  22.592 193.230  1.00  0.00    -0.000 C 
BRANCH  10  11
ATOM     11  C   UNL     1     104.226  23.018 194.133  1.00  0.00    -0.000 C 
BRANCH  11  12
ATOM     12  C   UNL     1     105.322  21.939 194.275  1.00  0.00    -0.000 C 
BRANCH  12  13
ATOM     13  C   UNL     1     105.751  21.323 192.932  1.00  0.00    -0.003 C 
ATOM     14  C   UNL     1     107.247  21.018 192.872  1.00  0.00     0.004 C 
ENDBRANCH  12  13
ENDBRANCH  11  12
ENDBRANCH  10  11
ENDBRANCH   9  10
ENDBRANCH   1   9
TORSDOF 10
ENDMDL
MODEL 6
REMARK VINA RESULT:    -4.624      2.071      3.481
REMARK INTER + INTRA:          -8.664
REMARK INTER:                  -7.660
REMARK INTRA:                  -1.004
REMARK UNBOUND:                -1.337
REMARK SMILES CCCCCCCCCCCC(=O)[O-]
REMARK SMILES IDX 7 1 8 2 9 3 10 4 11 5 12 6 13 7 14 8 6 9 5 10 4 11 3 12 2 13
REMARK SMILES IDX 1 14
REMARK H PARENT
REMARK Flexibility Score: inf
ROOT
ATOM      1  C   UNL     1     102.518  24.123 198.233  1.00  0.00     0.000 C 
ENDROOT
BRANCH   1   2
ATOM      2  C   UNL     1     103.559  23.047 198.601  1.00  0.00     0.000 C 
BRANCH   2   3
ATOM      3  C   UNL     1     104.300  23.287 199.929  1.00  0.00     0.000 C 
BRANCH   3   4
ATOM      4  C   UNL     1     105.781  22.876 199.869  1.00  0.00     0.006 C 
BRANCH   4   5
ATOM      5  C   UNL     1     106.179  22.342 198.486  1.00  0.00     0.053 C 
BRANCH   5   6
ATOM      6  C   UNL     1     107.243  21.292 198.579  1.00  0.00     0.041 C 
ATOM      7  O   UNL     1     108.261  21.355 197.841  1.00  0.00    -0.550 OA
ATOM      8  O   UNL     1     107.097  20.228 199.461  1.00  0.00    -0.550 OA
ENDBRANCH   5   6
ENDBRANCH   4   5
ENDBRANCH   3   4
ENDBRANCH   2   3
ENDBRANCH   1   2
BRANCH   1   9
ATOM      9  C   UNL     1     102.912  25.048 197.065  1.00  0.00     0.000 C 
BRANCH   9  10
ATOM     10  C   UNL     1     104.392  24.973 196.632  1.00  0.00    -0.000 C 
BRANCH  10  11
ATOM     11  C   UNL     1     104.617  24.539 195.169  1.00  0.00    -0.000 C 
BRANCH  11  12
ATOM     12  C   UNL     1     105.337  23.179 195.031  1.00  0.00    -0.000 C 
BRANCH  12  13
ATOM     13  C   UNL     1     104.724  22.268 193.954  1.00  0.00    -0.003 C 
ATOM     14  C   UNL     1     103.472  22.866 193.316  1.00  0.00     0.004 C 
ENDBRANCH  12  13
ENDBRANCH  11  12
ENDBRANCH  10  11
ENDBRANCH   9  10
ENDBRANCH   1   9
TORSDOF 10
ENDMDL
MODEL 7
REMARK VINA RESULT:    -4.619      3.011      5.340
REMARK INTER + INTRA:          -8.656
REMARK INTER:                  -7.837
REMARK INTRA:                  -0.819
REMARK UNBOUND:                -1.337
REMARK SMILES CCCCCCCCCCCC(=O)[O-]
REMARK SMILES IDX 7 1 8 2 9 3 10 4 11 5 12 6 13 7 14 8 6 9 5 10 4 11 3 12 2 13
REMARK SMILES IDX 1 14
REMARK H PARENT
REMARK Flexibility Score: inf
ROOT
ATOM      1  C   UNL     1     105.239  25.751 196.208  1.00  0.00     0.000 C 
ENDROOT
BRANCH   1   2
ATOM      2  C   UNL     1     104.812  24.978 194.944  1.00  0.00     0.000 C 
BRANCH   2   3
ATOM      3  C   UNL     1     105.361  23.544 194.842  1.00  0.00     0.000 C 
BRANCH   3   4
ATOM      4  C   UNL     1     104.362  22.567 194.200  1.00  0.00     0.006 C 
BRANCH   4   5
ATOM      5  C   UNL     1     104.956  21.850 192.979  1.00  0.00     0.053 C 
BRANCH   5   6
ATOM      6  C   UNL     1     106.218  21.118 193.322  1.00  0.00     0.041 C 
ATOM      7  O   UNL     1     107.189  21.124 192.521  1.00  0.00    -0.550 OA
ATOM      8  O   UNL     1     106.310  20.407 194.512  1.00  0.00    -0.550 OA
ENDBRANCH   5   6
ENDBRANCH   4   5
ENDBRANCH   3   4
ENDBRANCH   2   3
ENDBRANCH   1   2
BRANCH   1   9
ATOM      9  C   UNL     1     104.241  25.693 197.383  1.00  0.00     0.000 C 
BRANCH   9  10
ATOM     10  C   UNL     1     102.897  25.001 197.074  1.00  0.00    -0.000 C 
BRANCH  10  11
ATOM     11  C   UNL     1     102.500  23.888 198.067  1.00  0.00    -0.000 C 
BRANCH  11  12
ATOM     12  C   UNL     1     103.683  22.993 198.498  1.00  0.00    -0.000 C 
BRANCH  12  13
ATOM     13  C   UNL     1     104.189  23.289 199.919  1.00  0.00    -0.003 C 
ATOM     14  C   UNL     1     105.713  23.293 200.016  1.00  0.00     0.004 C 
ENDBRANCH  12  13
ENDBRANCH  11  12
ENDBRANCH  10  11
ENDBRANCH   9  10
ENDBRANCH   1   9
TORSDOF 10
ENDMDL
MODEL 8
REMARK VINA RESULT:    -4.611      1.257      1.826
REMARK INTER + INTRA:          -8.643
REMARK INTER:                  -7.499
REMARK INTRA:                  -1.144
REMARK UNBOUND:                -1.337
REMARK SMILES CCCCCCCCCCCC(=O)[O-]
REMARK SMILES IDX 7 1 8 2 9 3 10 4 11 5 12 6 13 7 14 8 6 9 5 10 4 11 3 12 2 13
REMARK SMILES IDX 1 14
REMARK H PARENT
REMARK Flexibility Score: inf
ROOT
ATOM      1  C   UNL     1     104.935  25.708 195.713  1.00  0.00     0.000 C 
ENDROOT
BRANCH   1   2
ATOM      2  C   UNL     1     104.543  25.245 197.130  1.00  0.00     0.000 C 
BRANCH   2   3
ATOM      3  C   UNL     1     103.040  24.977 197.334  1.00  0.00     0.000 C 
BRANCH   3   4
ATOM      4  C   UNL     1     102.764  23.650 198.060  1.00  0.00     0.006 C 
BRANCH   4   5
ATOM      5  C   UNL     1     101.293  23.512 198.477  1.00  0.00     0.053 C 
BRANCH   5   6
ATOM      6  C   UNL     1     101.114  23.685 199.954  1.00  0.00     0.041 C 
ATOM      7  O   UNL     1     100.031  24.135 200.412  1.00  0.00    -0.550 OA
ATOM      8  O   UNL     1     102.154  23.377 200.823  1.00  0.00    -0.550 OA
ENDBRANCH   5   6
ENDBRANCH   4   5
ENDBRANCH   3   4
ENDBRANCH   2   3
ENDBRANCH   1   2
BRANCH   1   9
ATOM      9  C   UNL     1     105.313  24.579 194.733  1.00  0.00     0.000 C 
BRANCH   9  10
ATOM     10  C   UNL     1     105.381  23.165 195.348  1.00  0.00    -0.000 C 
BRANCH  10  11
ATOM     11  C   UNL     1     104.551  22.098 194.605  1.00  0.00    -0.000 C 
BRANCH  11  12
ATOM     12  C   UNL     1     103.679  22.673 193.467  1.00  0.00    -0.000 C 
BRANCH  12  13
ATOM     13  C   UNL     1     102.169  22.526 193.718  1.00  0.00    -0.003 C 
ATOM     14  C   UNL     1     101.855  21.786 195.017  1.00  0.00     0.004 C 
ENDBRANCH  12  13
ENDBRANCH  11  12
ENDBRANCH  10  11
ENDBRANCH   9  10
ENDBRANCH   1   9
TORSDOF 10
ENDMDL
MODEL 9
REMARK VINA RESULT:    -4.567      2.175      3.391
REMARK INTER + INTRA:          -8.574
REMARK INTER:                  -7.032
REMARK INTRA:                  -1.542
REMARK UNBOUND:                -1.337
REMARK SMILES CCCCCCCCCCCC(=O)[O-]
REMARK SMILES IDX 7 1 8 2 9 3 10 4 11 5 12 6 13 7 14 8 6 9 5 10 4 11 3 12 2 13
REMARK SMILES IDX 1 14
REMARK H PARENT
REMARK Flexibility Score: inf
ROOT
ATOM      1  C   UNL     1     105.162  25.276 195.585  1.00  0.00     0.000 C 
ENDROOT
BRANCH   1   2
ATOM      2  C   UNL     1     104.565  25.512 196.987  1.00  0.00     0.000 C 
BRANCH   2   3
ATOM      3  C   UNL     1     103.061  25.210 197.112  1.00  0.00     0.000 C 
BRANCH   3   4
ATOM      4  C   UNL     1     102.755  24.131 198.163  1.00  0.00     0.006 C 
BRANCH   4   5
ATOM      5  C   UNL     1     101.668  23.154 197.693  1.00  0.00     0.053 C 
BRANCH   5   6
ATOM      6  C   UNL     1     100.483  23.155 198.610  1.00  0.00     0.041 C 
ATOM      7  O   UNL     1      99.408  22.603 198.256  1.00  0.00    -0.550 OA
ATOM      8  O   UNL     1     100.556  23.791 199.843  1.00  0.00    -0.550 OA
ENDBRANCH   5   6
ENDBRANCH   4   5
ENDBRANCH   3   4
ENDBRANCH   2   3
ENDBRANCH   1   2
BRANCH   1   9
ATOM      9  C   UNL     1     104.645  24.022 194.852  1.00  0.00     0.000 C 
BRANCH   9  10
ATOM     10  C   UNL     1     105.371  22.705 195.200  1.00  0.00    -0.000 C 
BRANCH  10  11
ATOM     11  C   UNL     1     104.523  21.691 195.995  1.00  0.00    -0.000 C 
BRANCH  11  12
ATOM     12  C   UNL     1     105.108  21.347 197.383  1.00  0.00    -0.000 C 
BRANCH  12  13
ATOM     13  C   UNL     1     106.097  22.402 197.909  1.00  0.00    -0.003 C 
ATOM     14  C   UNL     1     106.086  22.515 199.432  1.00  0.00     0.004 C 
ENDBRANCH  12  13
ENDBRANCH  11  12
ENDBRANCH  10  11
ENDBRANCH   9  10
ENDBRANCH   1   9
TORSDOF 10
ENDMDL
