MODEL 1
REMARK VINA RESULT:    -3.482      0.000      0.000
REMARK INTER + INTRA:          -4.042
REMARK INTER:                  -3.788
REMARK INTRA:                  -0.254
REMARK UNBOUND:                -0.254
REMARK SMILES O=C([O-])c1ccccc1O
REMARK SMILES IDX 4 1 9 2 5 3 8 4 6 5 7 6 2 7 1 8 3 9 10 10
REMARK H PARENT 10 11
REMARK Flexibility Score: inf
ROOT
ATOM      1  C   UNL     1      -8.535   8.248  -8.737  1.00  0.00     0.039 A 
ATOM      2  C   UNL     1      -7.138   8.464  -8.666  1.00  0.00     0.124 A 
ATOM      3  C   UNL     1      -9.265   8.862  -9.772  1.00  0.00     0.014 A 
ATOM      4  C   UNL     1      -6.507   9.279  -9.618  1.00  0.00     0.047 A 
ATOM      5  C   UNL     1      -8.625   9.672 -10.714  1.00  0.00     0.001 A 
ATOM      6  C   UNL     1      -7.248   9.880 -10.637  1.00  0.00     0.004 A 
ENDROOT
BRANCH   1   7
ATOM      7  C   UNL     1      -9.250   7.394  -7.753  1.00  0.00     0.075 C 
ATOM      8  O   UNL     1     -10.119   6.563  -8.125  1.00  0.00    -0.545 OA
ATOM      9  O   UNL     1      -8.966   7.501  -6.396  1.00  0.00    -0.545 OA
ENDBRANCH   1   7
BRANCH   2  10
ATOM     10  O   UNL     1      -6.375   7.875  -7.656  1.00  0.00    -0.507 OA
ATOM     11  H   UNL     1      -5.375   8.026  -7.589  1.00  0.00     0.293 HD
ENDBRANCH   2  10
TORSDOF 2
ENDMDL
MODEL 2
REMARK VINA RESULT:    -3.352      2.224      4.132
REMARK INTER + INTRA:          -3.900
REMARK INTER:                  -3.676
REMARK INTRA:                  -0.223
REMARK UNBOUND:                -0.254
REMARK SMILES O=C([O-])c1ccccc1O
REMARK SMILES IDX 4 1 9 2 5 3 8 4 6 5 7 6 2 7 1 8 3 9 10 10
REMARK H PARENT 10 11
REMARK Flexibility Score: inf
ROOT
ATOM      1  C   UNL     1      -7.873   8.360  -7.569  1.00  0.00     0.039 A 
ATOM      2  C   UNL     1      -9.162   8.926  -7.712  1.00  0.00     0.124 A 
ATOM      3  C   UNL     1      -7.584   7.612  -6.412  1.00  0.00     0.014 A 
ATOM      4  C   UNL     1     -10.125   8.736  -6.708  1.00  0.00     0.047 A 
ATOM      5  C   UNL     1      -8.551   7.430  -5.420  1.00  0.00     0.001 A 
ATOM      6  C   UNL     1      -9.819   7.992  -5.568  1.00  0.00     0.004 A 
ENDROOT
BRANCH   1   7
ATOM      7  C   UNL     1      -6.820   8.532  -8.603  1.00  0.00     0.075 C 
ATOM      8  O   UNL     1      -6.335   7.541  -9.207  1.00  0.00    -0.545 OA
ATOM      9  O   UNL     1      -6.352   9.803  -8.922  1.00  0.00    -0.545 OA
ENDBRANCH   1   7
BRANCH   2  10
ATOM     10  O   UNL     1      -9.493   9.675  -8.842  1.00  0.00    -0.507 OA
ATOM     11  H   UNL     1      -9.638  10.677  -8.793  1.00  0.00     0.293 HD
ENDBRANCH   2  10
TORSDOF 2
ENDMDL
MODEL 3
REMARK VINA RESULT:    -3.289     14.414     15.034
REMARK INTER + INTRA:          -3.831
REMARK INTER:                  -3.579
REMARK INTRA:                  -0.252
REMARK UNBOUND:                -0.254
REMARK SMILES O=C([O-])c1ccccc1O
REMARK SMILES IDX 4 1 9 2 5 3 8 4 6 5 7 6 2 7 1 8 3 9 10 10
REMARK H PARENT 10 11
REMARK Flexibility Score: inf
ROOT
ATOM      1  C   UNL     1      -7.464  -6.002 -13.250  1.00  0.00     0.039 A 
ATOM      2  C   UNL     1      -6.159  -5.712 -13.716  1.00  0.00     0.124 A 
ATOM      3  C   UNL     1      -8.380  -4.944 -13.093  1.00  0.00     0.014 A 
ATOM      4  C   UNL     1      -5.800  -4.387 -14.010  1.00  0.00     0.047 A 
ATOM      5  C   UNL     1      -8.009  -3.630 -13.390  1.00  0.00     0.001 A 
ATOM      6  C   UNL     1      -6.722  -3.352 -13.848  1.00  0.00     0.004 A 
ENDROOT
BRANCH   1   7
ATOM      7  C   UNL     1      -7.893  -7.387 -12.925  1.00  0.00     0.075 C 
ATOM      8  O   UNL     1      -8.581  -7.629 -11.900  1.00  0.00    -0.545 OA
ATOM      9  O   UNL     1      -7.537  -8.444 -13.755  1.00  0.00    -0.545 OA
ENDBRANCH   1   7
BRANCH   2  10
ATOM     10  O   UNL     1      -5.219  -6.729 -13.886  1.00  0.00    -0.507 OA
ATOM     11  H   UNL     1      -4.278  -6.536 -14.210  1.00  0.00     0.293 HD
ENDBRANCH   2  10
TORSDOF 2
ENDMDL
MODEL 4
REMARK VINA RESULT:    -3.248      1.368      2.153
REMARK INTER + INTRA:          -3.786
REMARK INTER:                  -3.537
REMARK INTRA:                  -0.250
REMARK UNBOUND:                -0.254
REMARK SMILES O=C([O-])c1ccccc1O
REMARK SMILES IDX 4 1 9 2 5 3 8 4 6 5 7 6 2 7 1 8 3 9 10 10
REMARK H PARENT 10 11
REMARK Flexibility Score: inf
ROOT
ATOM      1  C   UNL     1      -8.452   8.354  -8.320  1.00  0.00     0.039 A 
ATOM      2  C   UNL     1      -8.685   8.701  -9.673  1.00  0.00     0.124 A 
ATOM      3  C   UNL     1      -7.281   8.820  -7.692  1.00  0.00     0.014 A 
ATOM      4  C   UNL     1      -7.756   9.496 -10.361  1.00  0.00     0.047 A 
ATOM      5  C   UNL     1      -6.364   9.610  -8.389  1.00  0.00     0.001 A 
ATOM      6  C   UNL     1      -6.600   9.947  -9.722  1.00  0.00     0.004 A 
ENDROOT
BRANCH   1   7
ATOM      7  C   UNL     1      -9.405   7.516  -7.548  1.00  0.00     0.075 C 
ATOM      8  O   UNL     1      -9.815   6.415  -8.000  1.00  0.00    -0.545 OA
ATOM      9  O   UNL     1      -9.862   7.939  -6.304  1.00  0.00    -0.545 OA
ENDBRANCH   1   7
BRANCH   2  10
ATOM     10  O   UNL     1      -9.832   8.262 -10.335  1.00  0.00    -0.507 OA
ATOM     11  H   UNL     1      -9.838   7.407 -10.880  1.00  0.00     0.293 HD
ENDBRANCH   2  10
TORSDOF 2
ENDMDL
MODEL 5
REMARK VINA RESULT:    -3.131     12.871     13.673
REMARK INTER + INTRA:          -3.659
REMARK INTER:                  -3.446
REMARK INTRA:                  -0.213
REMARK UNBOUND:                -0.254
REMARK SMILES O=C([O-])c1ccccc1O
REMARK SMILES IDX 4 1 9 2 5 3 8 4 6 5 7 6 2 7 1 8 3 9 10 10
REMARK H PARENT 10 11
REMARK Flexibility Score: inf
ROOT
ATOM      1  C   UNL     1      -7.327  -4.207 -13.469  1.00  0.00     0.039 A 
ATOM      2  C   UNL     1      -8.449  -4.502 -12.659  1.00  0.00     0.124 A 
ATOM      3  C   UNL     1      -7.272  -2.962 -14.125  1.00  0.00     0.014 A 
ATOM      4  C   UNL     1      -9.481  -3.560 -12.522  1.00  0.00     0.047 A 
ATOM      5  C   UNL     1      -8.305  -2.033 -13.980  1.00  0.00     0.001 A 
ATOM      6  C   UNL     1      -9.408  -2.332 -13.180  1.00  0.00     0.004 A 
ENDROOT
BRANCH   1   7
ATOM      7  C   UNL     1      -6.210  -5.170 -13.647  1.00  0.00     0.075 C 
ATOM      8  O   UNL     1      -5.058  -4.777 -13.966  1.00  0.00    -0.545 OA
ATOM      9  O   UNL     1      -6.422  -6.532 -13.461  1.00  0.00    -0.545 OA
ENDBRANCH   1   7
BRANCH   2  10
ATOM     10  O   UNL     1      -8.546  -5.724 -11.991  1.00  0.00    -0.507 OA
ATOM     11  H   UNL     1      -9.193  -6.444 -12.289  1.00  0.00     0.293 HD
ENDBRANCH   2  10
TORSDOF 2
ENDMDL
MODEL 6
REMARK VINA RESULT:    -3.084      2.113      4.001
REMARK INTER + INTRA:          -3.609
REMARK INTER:                  -3.387
REMARK INTRA:                  -0.221
REMARK UNBOUND:                -0.254
REMARK SMILES O=C([O-])c1ccccc1O
REMARK SMILES IDX 4 1 9 2 5 3 8 4 6 5 7 6 2 7 1 8 3 9 10 10
REMARK H PARENT 10 11
REMARK Flexibility Score: inf
ROOT
ATOM      1  C   UNL     1      -7.927   8.797  -9.039  1.00  0.00     0.039 A 
ATOM      2  C   UNL     1      -9.184   8.150  -9.115  1.00  0.00     0.124 A 
ATOM      3  C   UNL     1      -7.208   8.743  -7.830  1.00  0.00     0.014 A 
ATOM      4  C   UNL     1      -9.690   7.471  -7.996  1.00  0.00     0.047 A 
ATOM      5  C   UNL     1      -7.724   8.063  -6.723  1.00  0.00     0.001 A 
ATOM      6  C   UNL     1      -8.963   7.429  -6.806  1.00  0.00     0.004 A 
ENDROOT
BRANCH   1   7
ATOM      7  C   UNL     1      -7.348   9.529 -10.195  1.00  0.00     0.075 C 
ATOM      8  O   UNL     1      -8.088  10.053 -11.068  1.00  0.00    -0.545 OA
ATOM      9  O   UNL     1      -5.969   9.648 -10.329  1.00  0.00    -0.545 OA
ENDBRANCH   1   7
BRANCH   2  10
ATOM     10  O   UNL     1      -9.931   8.179 -10.294  1.00  0.00    -0.507 OA
ATOM     11  H   UNL     1      -9.503   8.021 -11.199  1.00  0.00     0.293 HD
ENDBRANCH   2  10
TORSDOF 2
ENDMDL
MODEL 7
REMARK VINA RESULT:    -2.510      2.033      3.408
REMARK INTER + INTRA:          -2.983
REMARK INTER:                  -2.773
REMARK INTRA:                  -0.210
REMARK UNBOUND:                -0.254
REMARK SMILES O=C([O-])c1ccccc1O
REMARK SMILES IDX 4 1 9 2 5 3 8 4 6 5 7 6 2 7 1 8 3 9 10 10
REMARK H PARENT 10 11
REMARK Flexibility Score: inf
ROOT
ATOM      1  C   UNL     1      -8.288   8.823  -8.714  1.00  0.00     0.039 A 
ATOM      2  C   UNL     1      -7.384   8.302  -7.757  1.00  0.00     0.124 A 
ATOM      3  C   UNL     1      -9.660   8.857  -8.403  1.00  0.00     0.014 A 
ATOM      4  C   UNL     1      -7.863   7.833  -6.524  1.00  0.00     0.047 A 
ATOM      5  C   UNL     1     -10.125   8.387  -7.171  1.00  0.00     0.001 A 
ATOM      6  C   UNL     1      -9.228   7.875  -6.234  1.00  0.00     0.004 A 
ENDROOT
BRANCH   1   7
ATOM      7  C   UNL     1      -7.830   9.331 -10.033  1.00  0.00     0.075 C 
ATOM      8  O   UNL     1      -8.611   9.373 -11.019  1.00  0.00    -0.545 OA
ATOM      9  O   UNL     1      -6.521   9.772 -10.198  1.00  0.00    -0.545 OA
ENDBRANCH   1   7
BRANCH   2  10
ATOM     10  O   UNL     1      -6.015   8.249  -8.023  1.00  0.00    -0.507 OA
ATOM     11  H   UNL     1      -5.381   8.972  -7.702  1.00  0.00     0.293 HD
ENDBRANCH   2  10
TORSDOF 2
ENDMDL
