MODEL 1
REMARK VINA RESULT:    -4.342      0.000      0.000
REMARK INTER + INTRA:          -5.548
REMARK INTER:                  -5.358
REMARK INTRA:                  -0.190
REMARK UNBOUND:                -0.190
REMARK SMILES CCCCC=CC(C)=O
REMARK SMILES IDX 4 1 3 2 2 3 1 4 5 5 6 6 7 7 9 8 8 9
REMARK H PARENT
REMARK Flexibility Score: inf
ROOT
ATOM      1  C   UNL     1      12.595  31.713  28.258  1.00  0.00     0.027 C 
ENDROOT
BRANCH   1   2
ATOM      2  C   UNL     1      11.501  32.783  28.143  1.00  0.00     0.004 C 
BRANCH   2   3
ATOM      3  C   UNL     1      11.646  33.578  26.842  1.00  0.00    -0.003 C 
ATOM      4  C   UNL     1      13.085  33.553  26.336  1.00  0.00     0.004 C 
ENDBRANCH   2   3
ENDBRANCH   1   2
BRANCH   1   5
ATOM      5  C   UNL     1      12.529  31.004  29.584  1.00  0.00    -0.023 C 
ATOM      6  C   UNL     1      13.582  30.595  30.314  1.00  0.00     0.042 C 
BRANCH   6   7
ATOM      7  C   UNL     1      15.012  30.798  29.986  1.00  0.00     0.152 C 
ATOM      8  O   UNL     1      15.546  31.938  30.022  1.00  0.00    -0.295 OA
ATOM      9  C   UNL     1      15.863  29.610  29.669  1.00  0.00     0.093 C 
ENDBRANCH   6   7
ENDBRANCH   1   5
TORSDOF 4
ENDMDL
MODEL 2
REMARK VINA RESULT:    -3.775      1.348      2.156
REMARK INTER + INTRA:          -4.848
REMARK INTER:                  -4.697
REMARK INTRA:                  -0.151
REMARK UNBOUND:                -0.190
REMARK SMILES CCCCC=CC(C)=O
REMARK SMILES IDX 4 1 3 2 2 3 1 4 5 5 6 6 7 7 9 8 8 9
REMARK H PARENT
REMARK Flexibility Score: inf
ROOT
ATOM      1  C   UNL     1      13.111  30.533  30.238  1.00  0.00     0.027 C 
ENDROOT
BRANCH   1   2
ATOM      2  C   UNL     1      11.964  31.125  29.409  1.00  0.00     0.004 C 
BRANCH   2   3
ATOM      3  C   UNL     1      12.503  31.961  28.244  1.00  0.00    -0.003 C 
ATOM      4  C   UNL     1      11.496  33.023  27.813  1.00  0.00     0.004 C 
ENDBRANCH   2   3
ENDBRANCH   1   2
BRANCH   1   5
ATOM      5  C   UNL     1      14.254  31.505  30.361  1.00  0.00    -0.023 C 
ATOM      6  C   UNL     1      15.551  31.230  30.137  1.00  0.00     0.042 C 
BRANCH   6   7
ATOM      7  C   UNL     1      16.111  29.936  29.683  1.00  0.00     0.152 C 
ATOM      8  O   UNL     1      15.672  29.345  28.661  1.00  0.00    -0.295 OA
ATOM      9  C   UNL     1      17.274  29.347  30.417  1.00  0.00     0.093 C 
ENDBRANCH   6   7
ENDBRANCH   1   5
TORSDOF 4
ENDMDL
MODEL 3
REMARK VINA RESULT:    -3.729      1.590      4.164
REMARK INTER + INTRA:          -4.791
REMARK INTER:                  -4.457
REMARK INTRA:                  -0.333
REMARK UNBOUND:                -0.190
REMARK SMILES CCCCC=CC(C)=O
REMARK SMILES IDX 4 1 3 2 2 3 1 4 5 5 6 6 7 7 9 8 8 9
REMARK H PARENT
REMARK Flexibility Score: inf
ROOT
ATOM      1  C   UNL     1      13.905  31.005  30.618  1.00  0.00     0.027 C 
ENDROOT
BRANCH   1   2
ATOM      2  C   UNL     1      14.909  29.953  30.127  1.00  0.00     0.004 C 
BRANCH   2   3
ATOM      3  C   UNL     1      16.212  30.611  29.666  1.00  0.00    -0.003 C 
ATOM      4  C   UNL     1      16.061  32.127  29.569  1.00  0.00     0.004 C 
ENDBRANCH   2   3
ENDBRANCH   1   2
BRANCH   1   5
ATOM      5  C   UNL     1      12.488  30.586  30.326  1.00  0.00    -0.023 C 
ATOM      6  C   UNL     1      11.745  30.992  29.282  1.00  0.00     0.042 C 
BRANCH   6   7
ATOM      7  C   UNL     1      12.179  31.892  28.189  1.00  0.00     0.152 C 
ATOM      8  O   UNL     1      13.153  31.608  27.443  1.00  0.00    -0.295 OA
ATOM      9  C   UNL     1      11.399  33.140  27.919  1.00  0.00     0.093 C 
ENDBRANCH   6   7
ENDBRANCH   1   5
TORSDOF 4
ENDMDL
MODEL 4
REMARK VINA RESULT:    -3.638     15.017     16.164
REMARK INTER + INTRA:          -4.679
REMARK INTER:                  -4.384
REMARK INTRA:                  -0.295
REMARK UNBOUND:                -0.190
REMARK SMILES CCCCC=CC(C)=O
REMARK SMILES IDX 4 1 3 2 2 3 1 4 5 5 6 6 7 7 9 8 8 9
REMARK H PARENT
REMARK Flexibility Score: inf
ROOT
ATOM      1  C   UNL     1      28.077  31.017  24.126  1.00  0.00     0.027 C 
ENDROOT
BRANCH   1   2
ATOM      2  C   UNL     1      28.866  30.296  23.025  1.00  0.00     0.004 C 
BRANCH   2   3
ATOM      3  C   UNL     1      28.289  28.902  22.760  1.00  0.00    -0.003 C 
ATOM      4  C   UNL     1      27.005  28.676  23.553  1.00  0.00     0.004 C 
ENDBRANCH   2   3
ENDBRANCH   1   2
BRANCH   1   5
ATOM      5  C   UNL     1      28.925  32.049  24.820  1.00  0.00    -0.023 C 
ATOM      6  C   UNL     1      28.978  33.359  24.519  1.00  0.00     0.042 C 
BRANCH   6   7
ATOM      7  C   UNL     1      28.185  34.056  23.481  1.00  0.00     0.152 C 
ATOM      8  O   UNL     1      27.202  34.787  23.776  1.00  0.00    -0.295 OA
ATOM      9  C   UNL     1      28.601  33.946  22.049  1.00  0.00     0.093 C 
ENDBRANCH   6   7
ENDBRANCH   1   5
TORSDOF 4
ENDMDL
MODEL 5
REMARK VINA RESULT:    -3.515     14.836     15.805
REMARK INTER + INTRA:          -4.528
REMARK INTER:                  -4.259
REMARK INTRA:                  -0.268
REMARK UNBOUND:                -0.190
REMARK SMILES CCCCC=CC(C)=O
REMARK SMILES IDX 4 1 3 2 2 3 1 4 5 5 6 6 7 7 9 8 8 9
REMARK H PARENT
REMARK Flexibility Score: inf
ROOT
ATOM      1  C   UNL     1      28.152  32.622  23.888  1.00  0.00     0.027 C 
ENDROOT
BRANCH   1   2
ATOM      2  C   UNL     1      28.996  32.705  22.610  1.00  0.00     0.004 C 
BRANCH   2   3
ATOM      3  C   UNL     1      28.705  33.999  21.844  1.00  0.00    -0.003 C 
ATOM      4  C   UNL     1      28.694  33.759  20.337  1.00  0.00     0.004 C 
ENDBRANCH   2   3
ENDBRANCH   1   2
BRANCH   1   5
ATOM      5  C   UNL     1      28.733  31.632  24.864  1.00  0.00    -0.023 C 
ATOM      6  C   UNL     1      28.361  30.348  25.000  1.00  0.00     0.042 C 
BRANCH   6   7
ATOM      7  C   UNL     1      27.342  29.636  24.195  1.00  0.00     0.152 C 
ATOM      8  O   UNL     1      26.116  29.690  24.478  1.00  0.00    -0.295 OA
ATOM      9  C   UNL     1      27.771  28.887  22.973  1.00  0.00     0.093 C 
ENDBRANCH   6   7
ENDBRANCH   1   5
TORSDOF 4
ENDMDL
MODEL 6
REMARK VINA RESULT:    -3.454     15.136     15.796
REMARK INTER + INTRA:          -4.452
REMARK INTER:                  -4.179
REMARK INTRA:                  -0.273
REMARK UNBOUND:                -0.190
REMARK SMILES CCCCC=CC(C)=O
REMARK SMILES IDX 4 1 3 2 2 3 1 4 5 5 6 6 7 7 9 8 8 9
REMARK H PARENT
REMARK Flexibility Score: inf
ROOT
ATOM      1  C   UNL     1      29.115  29.377  22.866  1.00  0.00     0.027 C 
ENDROOT
BRANCH   1   2
ATOM      2  C   UNL     1      29.052  30.907  22.771  1.00  0.00     0.004 C 
BRANCH   2   3
ATOM      3  C   UNL     1      28.370  31.506  24.005  1.00  0.00    -0.003 C 
ATOM      4  C   UNL     1      28.174  33.011  23.852  1.00  0.00     0.004 C 
ENDBRANCH   2   3
ENDBRANCH   1   2
BRANCH   1   5
ATOM      5  C   UNL     1      27.741  28.782  23.027  1.00  0.00    -0.023 C 
ATOM      6  C   UNL     1      27.264  28.185  24.132  1.00  0.00     0.042 C 
BRANCH   6   7
ATOM      7  C   UNL     1      27.971  28.030  25.425  1.00  0.00     0.152 C 
ATOM      8  O   UNL     1      27.967  28.940  26.296  1.00  0.00    -0.295 OA
ATOM      9  C   UNL     1      28.652  26.735  25.733  1.00  0.00     0.093 C 
ENDBRANCH   6   7
ENDBRANCH   1   5
TORSDOF 4
ENDMDL
MODEL 7
REMARK VINA RESULT:    -3.274     15.240     15.952
REMARK INTER + INTRA:          -4.230
REMARK INTER:                  -3.990
REMARK INTRA:                  -0.240
REMARK UNBOUND:                -0.190
REMARK SMILES CCCCC=CC(C)=O
REMARK SMILES IDX 4 1 3 2 2 3 1 4 5 5 6 6 7 7 9 8 8 9
REMARK H PARENT
REMARK Flexibility Score: inf
ROOT
ATOM      1  C   UNL     1      28.561  31.626  24.351  1.00  0.00     0.027 C 
ENDROOT
BRANCH   1   2
ATOM      2  C   UNL     1      29.073  33.070  24.436  1.00  0.00     0.004 C 
BRANCH   2   3
ATOM      3  C   UNL     1      28.553  33.905  23.261  1.00  0.00    -0.003 C 
ATOM      4  C   UNL     1      27.361  34.761  23.677  1.00  0.00     0.004 C 
ENDBRANCH   2   3
ENDBRANCH   1   2
BRANCH   1   5
ATOM      5  C   UNL     1      29.031  30.953  23.089  1.00  0.00    -0.023 C 
ATOM      6  C   UNL     1      28.742  29.696  22.710  1.00  0.00     0.042 C 
BRANCH   6   7
ATOM      7  C   UNL     1      27.871  28.737  23.431  1.00  0.00     0.152 C 
ATOM      8  O   UNL     1      26.678  28.534  23.082  1.00  0.00    -0.295 OA
ATOM      9  C   UNL     1      28.442  27.940  24.560  1.00  0.00     0.093 C 
ENDBRANCH   6   7
ENDBRANCH   1   5
TORSDOF 4
ENDMDL
MODEL 8
REMARK VINA RESULT:    -3.257     16.990     18.334
REMARK INTER + INTRA:          -4.209
REMARK INTER:                  -3.985
REMARK INTRA:                  -0.224
REMARK UNBOUND:                -0.190
REMARK SMILES CCCCC=CC(C)=O
REMARK SMILES IDX 4 1 3 2 2 3 1 4 5 5 6 6 7 7 9 8 8 9
REMARK H PARENT
REMARK Flexibility Score: inf
ROOT
ATOM      1  C   UNL     1      26.719  41.485  20.283  1.00  0.00     0.027 C 
ENDROOT
BRANCH   1   2
ATOM      2  C   UNL     1      26.561  42.793  21.070  1.00  0.00     0.004 C 
BRANCH   2   3
ATOM      3  C   UNL     1      26.071  43.925  20.162  1.00  0.00    -0.003 C 
ATOM      4  C   UNL     1      26.676  43.814  18.766  1.00  0.00     0.004 C 
ENDBRANCH   2   3
ENDBRANCH   1   2
BRANCH   1   5
ATOM      5  C   UNL     1      25.866  40.390  20.864  1.00  0.00    -0.023 C 
ATOM      6  C   UNL     1      25.833  39.111  20.451  1.00  0.00     0.042 C 
BRANCH   6   7
ATOM      7  C   UNL     1      26.657  38.512  19.375  1.00  0.00     0.152 C 
ATOM      8  O   UNL     1      26.385  38.684  18.158  1.00  0.00    -0.295 OA
ATOM      9  C   UNL     1      27.882  37.738  19.742  1.00  0.00     0.093 C 
ENDBRANCH   6   7
ENDBRANCH   1   5
TORSDOF 4
ENDMDL
MODEL 9
REMARK VINA RESULT:    -3.238     16.003     17.575
REMARK INTER + INTRA:          -4.185
REMARK INTER:                  -3.906
REMARK INTRA:                  -0.279
REMARK UNBOUND:                -0.190
REMARK SMILES CCCCC=CC(C)=O
REMARK SMILES IDX 4 1 3 2 2 3 1 4 5 5 6 6 7 7 9 8 8 9
REMARK H PARENT
REMARK Flexibility Score: inf
ROOT
ATOM      1  C   UNL     1      26.081  40.643  20.939  1.00  0.00     0.027 C 
ENDROOT
BRANCH   1   2
ATOM      2  C   UNL     1      26.517  42.097  20.719  1.00  0.00     0.004 C 
BRANCH   2   3
ATOM      3  C   UNL     1      27.153  42.275  19.336  1.00  0.00    -0.003 C 
ATOM      4  C   UNL     1      26.793  43.629  18.733  1.00  0.00     0.004 C 
ENDBRANCH   2   3
ENDBRANCH   1   2
BRANCH   1   5
ATOM      5  C   UNL     1      26.422  39.783  19.751  1.00  0.00    -0.023 C 
ATOM      6  C   UNL     1      26.318  38.445  19.689  1.00  0.00     0.042 C 
BRANCH   6   7
ATOM      7  C   UNL     1      25.807  37.551  20.755  1.00  0.00     0.152 C 
ATOM      8  O   UNL     1      26.575  37.022  21.601  1.00  0.00    -0.295 OA
ATOM      9  C   UNL     1      24.334  37.323  20.872  1.00  0.00     0.093 C 
ENDBRANCH   6   7
ENDBRANCH   1   5
TORSDOF 4
ENDMDL
