MODEL 1
REMARK VINA RESULT:    -3.995      0.000      0.000
REMARK INTER + INTRA:          -3.995
REMARK INTER:                  -3.995
REMARK INTRA:                   0.000
REMARK UNBOUND:                 0.000
REMARK SMILES C=C1c2ccccc2-c2ccccc21
REMARK SMILES IDX 1 1 2 2 3 3 4 4 5 5 6 6 7 7 8 8 9 9 10 10 11 11 12 12 13 13
REMARK SMILES IDX 14 14
REMARK H PARENT
REMARK Flexibility Score: inf
ROOT
ATOM      1  C   UNL     1      75.938  77.195  93.125  1.00  0.00     0.018 C 
ATOM      2  C   UNL     1      75.663  75.904  92.944  1.00  0.00    -0.017 C 
ATOM      3  C   UNL     1      76.620  74.814  92.708  1.00  0.00    -0.010 A 
ATOM      4  C   UNL     1      78.014  74.845  92.615  1.00  0.00     0.009 A 
ATOM      5  C   UNL     1      78.692  73.637  92.379  1.00  0.00     0.001 A 
ATOM      6  C   UNL     1      77.977  72.430  92.243  1.00  0.00     0.001 A 
ATOM      7  C   UNL     1      76.575  72.417  92.339  1.00  0.00     0.009 A 
ATOM      8  C   UNL     1      75.921  73.626  92.573  1.00  0.00    -0.010 A 
ATOM      9  C   UNL     1      74.497  73.908  92.717  1.00  0.00    -0.010 A 
ATOM     10  C   UNL     1      73.401  73.048  92.661  1.00  0.00     0.009 A 
ATOM     11  C   UNL     1      72.118  73.593  92.836  1.00  0.00     0.001 A 
ATOM     12  C   UNL     1      71.954  74.974  93.061  1.00  0.00     0.001 A 
ATOM     13  C   UNL     1      73.071  75.826  93.115  1.00  0.00     0.009 A 
ATOM     14  C   UNL     1      74.339  75.267  92.939  1.00  0.00    -0.010 A 
ENDROOT
TORSDOF 0
ENDMDL
MODEL 2
REMARK VINA RESULT:    -3.897     22.030     23.481
REMARK INTER + INTRA:          -3.897
REMARK INTER:                  -3.897
REMARK INTRA:                   0.000
REMARK UNBOUND:                 0.000
REMARK SMILES C=C1c2ccccc2-c2ccccc21
REMARK SMILES IDX 1 1 2 2 3 3 4 4 5 5 6 6 7 7 8 8 9 9 10 10 11 11 12 12 13 13
REMARK SMILES IDX 14 14
REMARK H PARENT
REMARK Flexibility Score: inf
ROOT
ATOM      1  C   UNL     1      76.561  89.232  77.028  1.00  0.00     0.018 C 
ATOM      2  C   UNL     1      75.900  89.015  75.892  1.00  0.00    -0.017 C 
ATOM      3  C   UNL     1      75.233  90.012  75.045  1.00  0.00    -0.010 A 
ATOM      4  C   UNL     1      75.120  91.396  75.203  1.00  0.00     0.009 A 
ATOM      5  C   UNL     1      74.415  92.122  74.229  1.00  0.00     0.001 A 
ATOM      6  C   UNL     1      73.839  91.463  73.122  1.00  0.00     0.001 A 
ATOM      7  C   UNL     1      73.962  90.071  72.979  1.00  0.00     0.009 A 
ATOM      8  C   UNL     1      74.666  89.368  73.957  1.00  0.00    -0.010 A 
ATOM      9  C   UNL     1      74.948  87.941  74.065  1.00  0.00    -0.010 A 
ATOM     10  C   UNL     1      74.592  86.890  73.222  1.00  0.00     0.009 A 
ATOM     11  C   UNL     1      75.001  85.591  73.569  1.00  0.00     0.001 A 
ATOM     12  C   UNL     1      75.750  85.368  74.742  1.00  0.00     0.001 A 
ATOM     13  C   UNL     1      76.100  86.442  75.580  1.00  0.00     0.009 A 
ATOM     14  C   UNL     1      75.685  87.726  75.219  1.00  0.00    -0.010 A 
ENDROOT
TORSDOF 0
ENDMDL
MODEL 3
REMARK VINA RESULT:    -3.837      0.268      4.271
REMARK INTER + INTRA:          -3.837
REMARK INTER:                  -3.837
REMARK INTRA:                   0.000
REMARK UNBOUND:                 0.000
REMARK SMILES C=C1c2ccccc2-c2ccccc21
REMARK SMILES IDX 1 1 2 2 3 3 4 4 5 5 6 6 7 7 8 8 9 9 10 10 11 11 12 12 13 13
REMARK SMILES IDX 14 14
REMARK H PARENT
REMARK Flexibility Score: inf
ROOT
ATOM      1  C   UNL     1      75.693  77.414  93.123  1.00  0.00     0.018 C 
ATOM      2  C   UNL     1      75.511  76.110  92.924  1.00  0.00    -0.017 C 
ATOM      3  C   UNL     1      74.235  75.382  92.894  1.00  0.00    -0.010 A 
ATOM      4  C   UNL     1      72.929  75.850  93.061  1.00  0.00     0.009 A 
ATOM      5  C   UNL     1      71.875  74.923  92.984  1.00  0.00     0.001 A 
ATOM      6  C   UNL     1      72.139  73.559  92.744  1.00  0.00     0.001 A 
ATOM      7  C   UNL     1      73.458  73.106  92.578  1.00  0.00     0.009 A 
ATOM      8  C   UNL     1      74.490  74.042  92.658  1.00  0.00    -0.010 A 
ATOM      9  C   UNL     1      75.931  73.860  92.528  1.00  0.00    -0.010 A 
ATOM     10  C   UNL     1      76.672  72.703  92.289  1.00  0.00     0.009 A 
ATOM     11  C   UNL     1      78.071  72.814  92.209  1.00  0.00     0.001 A 
ATOM     12  C   UNL     1      78.698  74.066  92.370  1.00  0.00     0.001 A 
ATOM     13  C   UNL     1      77.934  75.221  92.610  1.00  0.00     0.009 A 
ATOM     14  C   UNL     1      76.545  75.092  92.687  1.00  0.00    -0.010 A 
ENDROOT
TORSDOF 0
ENDMDL
MODEL 4
REMARK VINA RESULT:    -3.792     22.112     23.425
REMARK INTER + INTRA:          -3.792
REMARK INTER:                  -3.792
REMARK INTRA:                   0.000
REMARK UNBOUND:                 0.000
REMARK SMILES C=C1c2ccccc2-c2ccccc21
REMARK SMILES IDX 1 1 2 2 3 3 4 4 5 5 6 6 7 7 8 8 9 9 10 10 11 11 12 12 13 13
REMARK SMILES IDX 14 14
REMARK H PARENT
REMARK Flexibility Score: inf
ROOT
ATOM      1  C   UNL     1      76.439  88.829  77.008  1.00  0.00     0.018 C 
ATOM      2  C   UNL     1      75.838  88.772  75.821  1.00  0.00    -0.017 C 
ATOM      3  C   UNL     1      75.585  87.575  75.007  1.00  0.00    -0.010 A 
ATOM      4  C   UNL     1      75.896  86.236  75.255  1.00  0.00     0.009 A 
ATOM      5  C   UNL     1      75.535  85.279  74.292  1.00  0.00     0.001 A 
ATOM      6  C   UNL     1      74.874  85.669  73.109  1.00  0.00     0.001 A 
ATOM      7  C   UNL     1      74.568  87.020  72.875  1.00  0.00     0.009 A 
ATOM      8  C   UNL     1      74.936  87.955  73.843  1.00  0.00    -0.010 A 
ATOM      9  C   UNL     1      74.750  89.401  73.867  1.00  0.00    -0.010 A 
ATOM     10  C   UNL     1      74.154  90.245  72.931  1.00  0.00     0.009 A 
ATOM     11  C   UNL     1      74.108  91.621  73.210  1.00  0.00     0.001 A 
ATOM     12  C   UNL     1      74.653  92.125  74.408  1.00  0.00     0.001 A 
ATOM     13  C   UNL     1      75.250  91.258  75.341  1.00  0.00     0.009 A 
ATOM     14  C   UNL     1      75.287  89.893  75.046  1.00  0.00    -0.010 A 
ENDROOT
TORSDOF 0
ENDMDL
MODEL 5
REMARK VINA RESULT:    -3.792     21.754     23.294
REMARK INTER + INTRA:          -3.792
REMARK INTER:                  -3.792
REMARK INTRA:                   0.000
REMARK UNBOUND:                 0.000
REMARK SMILES C=C1c2ccccc2-c2ccccc21
REMARK SMILES IDX 1 1 2 2 3 3 4 4 5 5 6 6 7 7 8 8 9 9 10 10 11 11 12 12 13 13
REMARK SMILES IDX 14 14
REMARK H PARENT
REMARK Flexibility Score: inf
ROOT
ATOM      1  C   UNL     1      74.590  92.125  74.225  1.00  0.00     0.018 C 
ATOM      2  C   UNL     1      75.021  91.013  74.819  1.00  0.00    -0.017 C 
ATOM      3  C   UNL     1      74.929  89.638  74.309  1.00  0.00    -0.010 A 
ATOM      4  C   UNL     1      74.386  89.155  73.116  1.00  0.00     0.009 A 
ATOM      5  C   UNL     1      74.430  87.771  72.876  1.00  0.00     0.001 A 
ATOM      6  C   UNL     1      75.009  86.899  73.821  1.00  0.00     0.001 A 
ATOM      7  C   UNL     1      75.551  87.402  75.016  1.00  0.00     0.009 A 
ATOM      8  C   UNL     1      75.497  88.779  75.235  1.00  0.00    -0.010 A 
ATOM      9  C   UNL     1      75.973  89.566  76.367  1.00  0.00    -0.010 A 
ATOM     10  C   UNL     1      76.610  89.160  77.539  1.00  0.00     0.009 A 
ATOM     11  C   UNL     1      76.966  90.143  78.478  1.00  0.00     0.001 A 
ATOM     12  C   UNL     1      76.680  91.501  78.232  1.00  0.00     0.001 A 
ATOM     13  C   UNL     1      76.036  91.892  77.045  1.00  0.00     0.009 A 
ATOM     14  C   UNL     1      75.690  90.901  76.123  1.00  0.00    -0.010 A 
ENDROOT
TORSDOF 0
ENDMDL
MODEL 6
REMARK VINA RESULT:    -3.726     21.865     23.479
REMARK INTER + INTRA:          -3.726
REMARK INTER:                  -3.726
REMARK INTRA:                   0.000
REMARK UNBOUND:                 0.000
REMARK SMILES C=C1c2ccccc2-c2ccccc21
REMARK SMILES IDX 1 1 2 2 3 3 4 4 5 5 6 6 7 7 8 8 9 9 10 10 11 11 12 12 13 13
REMARK SMILES IDX 14 14
REMARK H PARENT
REMARK Flexibility Score: inf
ROOT
ATOM      1  C   UNL     1      76.231  87.426  75.651  1.00  0.00     0.018 C 
ATOM      2  C   UNL     1      75.959  88.728  75.707  1.00  0.00    -0.017 C 
ATOM      3  C   UNL     1      76.405  89.689  76.725  1.00  0.00    -0.010 A 
ATOM      4  C   UNL     1      77.200  89.496  77.857  1.00  0.00     0.009 A 
ATOM      5  C   UNL     1      77.477  90.605  78.674  1.00  0.00     0.001 A 
ATOM      6  C   UNL     1      76.961  91.878  78.351  1.00  0.00     0.001 A 
ATOM      7  C   UNL     1      76.163  92.054  77.209  1.00  0.00     0.009 A 
ATOM      8  C   UNL     1      75.900  90.940  76.411  1.00  0.00    -0.010 A 
ATOM      9  C   UNL     1      75.116  90.829  75.186  1.00  0.00    -0.010 A 
ATOM     10  C   UNL     1      74.415  91.804  74.478  1.00  0.00     0.009 A 
ATOM     11  C   UNL     1      73.734  91.418  73.311  1.00  0.00     0.001 A 
ATOM     12  C   UNL     1      73.765  90.078  72.877  1.00  0.00     0.001 A 
ATOM     13  C   UNL     1      74.477  89.108  73.605  1.00  0.00     0.009 A 
ATOM     14  C   UNL     1      75.148  89.510  74.763  1.00  0.00    -0.010 A 
ENDROOT
TORSDOF 0
ENDMDL
MODEL 7
REMARK VINA RESULT:    -3.696     21.732     23.260
REMARK INTER + INTRA:          -3.696
REMARK INTER:                  -3.696
REMARK INTRA:                   0.000
REMARK UNBOUND:                 0.000
REMARK SMILES C=C1c2ccccc2-c2ccccc21
REMARK SMILES IDX 1 1 2 2 3 3 4 4 5 5 6 6 7 7 8 8 9 9 10 10 11 11 12 12 13 13
REMARK SMILES IDX 14 14
REMARK H PARENT
REMARK Flexibility Score: inf
ROOT
ATOM      1  C   UNL     1      75.277  86.964  74.439  1.00  0.00     0.018 C 
ATOM      2  C   UNL     1      75.375  88.200  74.927  1.00  0.00    -0.017 C 
ATOM      3  C   UNL     1      76.073  88.623  76.148  1.00  0.00    -0.010 A 
ATOM      4  C   UNL     1      76.788  87.869  77.082  1.00  0.00     0.009 A 
ATOM      5  C   UNL     1      77.363  88.538  78.176  1.00  0.00     0.001 A 
ATOM      6  C   UNL     1      77.217  89.933  78.320  1.00  0.00     0.001 A 
ATOM      7  C   UNL     1      76.494  90.675  77.371  1.00  0.00     0.009 A 
ATOM      8  C   UNL     1      75.931  89.993  76.292  1.00  0.00    -0.010 A 
ATOM      9  C   UNL     1      75.142  90.497  75.174  1.00  0.00    -0.010 A 
ATOM     10  C   UNL     1      74.734  91.797  74.878  1.00  0.00     0.009 A 
ATOM     11  C   UNL     1      73.969  92.006  73.718  1.00  0.00     0.001 A 
ATOM     12  C   UNL     1      73.627  90.922  72.884  1.00  0.00     0.001 A 
ATOM     13  C   UNL     1      74.047  89.618  73.200  1.00  0.00     0.009 A 
ATOM     14  C   UNL     1      74.807  89.430  74.357  1.00  0.00    -0.010 A 
ENDROOT
TORSDOF 0
ENDMDL
MODEL 8
REMARK VINA RESULT:    -3.689     21.792     23.549
REMARK INTER + INTRA:          -3.689
REMARK INTER:                  -3.689
REMARK INTRA:                   0.000
REMARK UNBOUND:                 0.000
REMARK SMILES C=C1c2ccccc2-c2ccccc21
REMARK SMILES IDX 1 1 2 2 3 3 4 4 5 5 6 6 7 7 8 8 9 9 10 10 11 11 12 12 13 13
REMARK SMILES IDX 14 14
REMARK H PARENT
REMARK Flexibility Score: inf
ROOT
ATOM      1  C   UNL     1      75.571  87.048  74.826  1.00  0.00     0.018 C 
ATOM      2  C   UNL     1      75.609  88.336  75.164  1.00  0.00    -0.017 C 
ATOM      3  C   UNL     1      74.959  89.458  74.474  1.00  0.00    -0.010 A 
ATOM      4  C   UNL     1      74.162  89.469  73.327  1.00  0.00     0.009 A 
ATOM      5  C   UNL     1      73.661  90.701  72.875  1.00  0.00     0.001 A 
ATOM      6  C   UNL     1      73.959  91.892  73.569  1.00  0.00     0.001 A 
ATOM      7  C   UNL     1      74.763  91.864  74.721  1.00  0.00     0.009 A 
ATOM      8  C   UNL     1      75.250  90.630  75.153  1.00  0.00    -0.010 A 
ATOM      9  C   UNL     1      76.094  90.305  76.297  1.00  0.00    -0.010 A 
ATOM     10  C   UNL     1      76.643  91.136  77.272  1.00  0.00     0.009 A 
ATOM     11  C   UNL     1      77.430  90.552  78.279  1.00  0.00     0.001 A 
ATOM     12  C   UNL     1      77.653  89.160  78.292  1.00  0.00     0.001 A 
ATOM     13  C   UNL     1      77.090  88.337  77.300  1.00  0.00     0.009 A 
ATOM     14  C   UNL     1      76.311  88.936  76.308  1.00  0.00    -0.010 A 
ENDROOT
TORSDOF 0
ENDMDL
MODEL 9
REMARK VINA RESULT:    -3.568     11.801     14.146
REMARK INTER + INTRA:          -3.568
REMARK INTER:                  -3.568
REMARK INTRA:                   0.000
REMARK UNBOUND:                 0.000
REMARK SMILES C=C1c2ccccc2-c2ccccc21
REMARK SMILES IDX 1 1 2 2 3 3 4 4 5 5 6 6 7 7 8 8 9 9 10 10 11 11 12 12 13 13
REMARK SMILES IDX 14 14
REMARK H PARENT
REMARK Flexibility Score: inf
ROOT
ATOM      1  C   UNL     1      76.123  86.868  89.742  1.00  0.00     0.018 C 
ATOM      2  C   UNL     1      75.420  87.456  90.710  1.00  0.00    -0.017 C 
ATOM      3  C   UNL     1      75.705  88.740  91.363  1.00  0.00    -0.010 A 
ATOM      4  C   UNL     1      76.747  89.646  91.150  1.00  0.00     0.009 A 
ATOM      5  C   UNL     1      76.782  90.816  91.927  1.00  0.00     0.001 A 
ATOM      6  C   UNL     1      75.785  91.062  92.895  1.00  0.00     0.001 A 
ATOM      7  C   UNL     1      74.745  90.140  93.096  1.00  0.00     0.009 A 
ATOM      8  C   UNL     1      74.729  88.985  92.314  1.00  0.00    -0.010 A 
ATOM      9  C   UNL     1      73.785  87.872  92.306  1.00  0.00    -0.010 A 
ATOM     10  C   UNL     1      72.643  87.659  93.076  1.00  0.00     0.009 A 
ATOM     11  C   UNL     1      71.905  86.483  92.860  1.00  0.00     0.001 A 
ATOM     12  C   UNL     1      72.318  85.550  91.887  1.00  0.00     0.001 A 
ATOM     13  C   UNL     1      73.474  85.783  91.121  1.00  0.00     0.009 A 
ATOM     14  C   UNL     1      74.195  86.957  91.350  1.00  0.00    -0.010 A 
ENDROOT
TORSDOF 0
ENDMDL
