MODEL 1
REMARK VINA RESULT:    -3.179      0.000      0.000
REMARK INTER + INTRA:          -7.587
REMARK INTER:                  -5.966
REMARK INTRA:                  -1.620
REMARK UNBOUND:                -1.620
REMARK SMILES O=C([O-])CCCCCCCCCCCCCCC(=O)[O-]
REMARK SMILES IDX 10 1 9 2 8 3 7 4 6 5 5 6 4 7 2 8 1 9 3 10 11 11 12 12 13 13
REMARK SMILES IDX 14 14 15 15 16 16 17 17 18 18 19 19 20 20
REMARK H PARENT
REMARK Flexibility Score: inf
ROOT
ATOM      1  C   UNL     1       7.734   0.476  -1.807  1.00  0.00     0.000 C 
ENDROOT
BRANCH   1   2
ATOM      2  C   UNL     1       7.829  -0.479  -3.010  1.00  0.00     0.000 C 
BRANCH   2   3
ATOM      3  C   UNL     1       7.470  -1.931  -2.650  1.00  0.00     0.000 C 
BRANCH   3   4
ATOM      4  C   UNL     1       8.720  -2.779  -2.333  1.00  0.00     0.000 C 
BRANCH   4   5
ATOM      5  C   UNL     1       8.675  -3.451  -0.951  1.00  0.00     0.000 C 
BRANCH   5   6
ATOM      6  C   UNL     1       9.502  -2.703   0.104  1.00  0.00     0.006 C 
BRANCH   6   7
ATOM      7  C   UNL     1       8.808  -2.740   1.469  1.00  0.00     0.053 C 
BRANCH   7   8
ATOM      8  C   UNL     1       8.820  -4.129   2.026  1.00  0.00     0.041 C 
ATOM      9  O   UNL     1       7.739  -4.711   2.304  1.00  0.00    -0.550 OA
ATOM     10  O   UNL     1      10.030  -4.766   2.272  1.00  0.00    -0.550 OA
ENDBRANCH   7   8
ENDBRANCH   6   7
ENDBRANCH   5   6
ENDBRANCH   4   5
ENDBRANCH   3   4
ENDBRANCH   2   3
ENDBRANCH   1   2
BRANCH   1  11
ATOM     11  C   UNL     1       8.977   0.505  -0.893  1.00  0.00     0.000 C 
BRANCH  11  12
ATOM     12  C   UNL     1       8.788   1.220   0.458  1.00  0.00     0.000 C 
BRANCH  12  13
ATOM     13  C   UNL     1      10.063   1.221   1.318  1.00  0.00     0.000 C 
BRANCH  13  14
ATOM     14  C   UNL     1       9.769   1.133   2.827  1.00  0.00     0.000 C 
BRANCH  14  15
ATOM     15  C   UNL     1       8.358   0.640   3.194  1.00  0.00     0.000 C 
BRANCH  15  16
ATOM     16  C   UNL     1       7.628   1.577   4.170  1.00  0.00     0.006 C 
BRANCH  16  17
ATOM     17  C   UNL     1       8.221   2.993   4.166  1.00  0.00     0.053 C 
BRANCH  17  18
ATOM     18  C   UNL     1       7.269   3.993   3.587  1.00  0.00     0.041 C 
ATOM     19  O   UNL     1       6.711   4.843   4.331  1.00  0.00    -0.550 OA
ATOM     20  O   UNL     1       7.022   4.010   2.220  1.00  0.00    -0.550 OA
ENDBRANCH  17  18
ENDBRANCH  16  17
ENDBRANCH  15  16
ENDBRANCH  14  15
ENDBRANCH  13  14
ENDBRANCH  12  13
ENDBRANCH  11  12
ENDBRANCH   1  11
TORSDOF 15
ENDMDL
MODEL 2
REMARK VINA RESULT:    -3.155      1.308      6.111
REMARK INTER + INTRA:          -7.541
REMARK INTER:                  -5.906
REMARK INTRA:                  -1.636
REMARK UNBOUND:                -1.620
REMARK SMILES O=C([O-])CCCCCCCCCCCCCCC(=O)[O-]
REMARK SMILES IDX 10 1 9 2 8 3 7 4 6 5 5 6 4 7 2 8 1 9 3 10 11 11 12 12 13 13
REMARK SMILES IDX 14 14 15 15 16 16 17 17 18 18 19 19 20 20
REMARK H PARENT
REMARK Flexibility Score: inf
ROOT
ATOM      1  C   UNL     1       6.919  -0.905  -3.676  1.00  0.00     0.000 C 
ENDROOT
BRANCH   1   2
ATOM      2  C   UNL     1       7.384  -0.198  -2.390  1.00  0.00     0.000 C 
BRANCH   2   3
ATOM      3  C   UNL     1       7.246   1.332  -2.466  1.00  0.00     0.000 C 
BRANCH   3   4
ATOM      4  C   UNL     1       8.001   2.042  -1.322  1.00  0.00     0.000 C 
BRANCH   4   5
ATOM      5  C   UNL     1       8.815   1.086  -0.435  1.00  0.00     0.000 C 
BRANCH   5   6
ATOM      6  C   UNL     1       8.749   1.451   1.054  1.00  0.00     0.006 C 
BRANCH   6   7
ATOM      7  C   UNL     1       7.989   2.765   1.261  1.00  0.00     0.053 C 
BRANCH   7   8
ATOM      8  C   UNL     1       7.378   2.807   2.626  1.00  0.00     0.041 C 
ATOM      9  O   UNL     1       7.007   3.903   3.122  1.00  0.00    -0.550 OA
ATOM     10  O   UNL     1       7.253   1.638   3.366  1.00  0.00    -0.550 OA
ENDBRANCH   7   8
ENDBRANCH   6   7
ENDBRANCH   5   6
ENDBRANCH   4   5
ENDBRANCH   3   4
ENDBRANCH   2   3
ENDBRANCH   1   2
BRANCH   1  11
ATOM     11  C   UNL     1       7.185  -2.424  -3.723  1.00  0.00     0.000 C 
BRANCH  11  12
ATOM     12  C   UNL     1       7.890  -3.010  -2.486  1.00  0.00     0.000 C 
BRANCH  12  13
ATOM     13  C   UNL     1       9.373  -3.332  -2.737  1.00  0.00     0.000 C 
BRANCH  13  14
ATOM     14  C   UNL     1      10.326  -2.475  -1.884  1.00  0.00     0.000 C 
BRANCH  14  15
ATOM     15  C   UNL     1      10.633  -3.032  -0.482  1.00  0.00     0.000 C 
BRANCH  15  16
ATOM     16  C   UNL     1      10.039  -2.176   0.648  1.00  0.00     0.006 C 
BRANCH  16  17
ATOM     17  C   UNL     1       8.682  -2.709   1.126  1.00  0.00     0.053 C 
BRANCH  17  18
ATOM     18  C   UNL     1       8.838  -3.811   2.129  1.00  0.00     0.041 C 
ATOM     19  O   UNL     1       9.901  -3.914   2.797  1.00  0.00    -0.550 OA
ATOM     20  O   UNL     1       7.798  -4.704   2.351  1.00  0.00    -0.550 OA
ENDBRANCH  17  18
ENDBRANCH  16  17
ENDBRANCH  15  16
ENDBRANCH  14  15
ENDBRANCH  13  14
ENDBRANCH  12  13
ENDBRANCH  11  12
ENDBRANCH   1  11
TORSDOF 15
ENDMDL
MODEL 3
REMARK VINA RESULT:    -3.145      1.131      2.498
REMARK INTER + INTRA:          -7.523
REMARK INTER:                  -5.592
REMARK INTRA:                  -1.931
REMARK UNBOUND:                -1.620
REMARK SMILES O=C([O-])CCCCCCCCCCCCCCC(=O)[O-]
REMARK SMILES IDX 10 1 9 2 8 3 7 4 6 5 5 6 4 7 2 8 1 9 3 10 11 11 12 12 13 13
REMARK SMILES IDX 14 14 15 15 16 16 17 17 18 18 19 19 20 20
REMARK H PARENT
REMARK Flexibility Score: inf
ROOT
ATOM      1  C   UNL     1       8.334  -2.222  -3.287  1.00  0.00     0.000 C 
ENDROOT
BRANCH   1   2
ATOM      2  C   UNL     1       8.149  -3.711  -2.944  1.00  0.00     0.000 C 
BRANCH   2   3
ATOM      3  C   UNL     1       8.757  -4.090  -1.582  1.00  0.00     0.000 C 
BRANCH   3   4
ATOM      4  C   UNL     1      10.111  -3.390  -1.335  1.00  0.00     0.000 C 
BRANCH   4   5
ATOM      5  C   UNL     1      10.128  -2.511  -0.073  1.00  0.00     0.000 C 
BRANCH   5   6
ATOM      6  C   UNL     1       8.756  -2.417   0.608  1.00  0.00     0.006 C 
BRANCH   6   7
ATOM      7  C   UNL     1       8.880  -2.638   2.119  1.00  0.00     0.053 C 
BRANCH   7   8
ATOM      8  C   UNL     1       8.830  -4.098   2.441  1.00  0.00     0.041 C 
ATOM      9  O   UNL     1       7.757  -4.742   2.306  1.00  0.00    -0.550 OA
ATOM     10  O   UNL     1       9.962  -4.739   2.928  1.00  0.00    -0.550 OA
ENDBRANCH   7   8
ENDBRANCH   6   7
ENDBRANCH   5   6
ENDBRANCH   4   5
ENDBRANCH   3   4
ENDBRANCH   2   3
ENDBRANCH   1   2
BRANCH   1  11
ATOM     11  C   UNL     1       7.244  -1.280  -2.733  1.00  0.00     0.000 C 
BRANCH  11  12
ATOM     12  C   UNL     1       7.680   0.181  -2.519  1.00  0.00     0.000 C 
BRANCH  12  13
ATOM     13  C   UNL     1       9.193   0.327  -2.284  1.00  0.00     0.000 C 
BRANCH  13  14
ATOM     14  C   UNL     1       9.534   1.335  -1.172  1.00  0.00     0.000 C 
BRANCH  14  15
ATOM     15  C   UNL     1       8.899   1.040   0.199  1.00  0.00     0.000 C 
BRANCH  15  16
ATOM     16  C   UNL     1       8.864   2.270   1.122  1.00  0.00     0.006 C 
BRANCH  16  17
ATOM     17  C   UNL     1       8.066   2.007   2.407  1.00  0.00     0.053 C 
BRANCH  17  18
ATOM     18  C   UNL     1       7.243   3.195   2.804  1.00  0.00     0.041 C 
ATOM     19  O   UNL     1       6.856   4.017   1.932  1.00  0.00    -0.550 OA
ATOM     20  O   UNL     1       6.875   3.375   4.131  1.00  0.00    -0.550 OA
ENDBRANCH  17  18
ENDBRANCH  16  17
ENDBRANCH  15  16
ENDBRANCH  14  15
ENDBRANCH  13  14
ENDBRANCH  12  13
ENDBRANCH  11  12
ENDBRANCH   1  11
TORSDOF 15
ENDMDL
MODEL 4
REMARK VINA RESULT:    -3.099      2.554      5.571
REMARK INTER + INTRA:          -7.437
REMARK INTER:                  -5.795
REMARK INTRA:                  -1.642
REMARK UNBOUND:                -1.620
REMARK SMILES O=C([O-])CCCCCCCCCCCCCCC(=O)[O-]
REMARK SMILES IDX 10 1 9 2 8 3 7 4 6 5 5 6 4 7 2 8 1 9 3 10 11 11 12 12 13 13
REMARK SMILES IDX 14 14 15 15 16 16 17 17 18 18 19 19 20 20
REMARK H PARENT
REMARK Flexibility Score: inf
ROOT
ATOM      1  C   UNL     1       8.871  -3.719  -0.361  1.00  0.00     0.000 C 
ENDROOT
BRANCH   1   2
ATOM      2  C   UNL     1       9.282  -2.969   0.919  1.00  0.00     0.000 C 
BRANCH   2   3
ATOM      3  C   UNL     1       8.909  -1.477   0.883  1.00  0.00     0.000 C 
BRANCH   3   4
ATOM      4  C   UNL     1      10.148  -0.572   0.716  1.00  0.00     0.000 C 
BRANCH   4   5
ATOM      5  C   UNL     1       9.843   0.927   0.874  1.00  0.00     0.000 C 
BRANCH   5   6
ATOM      6  C   UNL     1       8.640   1.198   1.787  1.00  0.00     0.006 C 
BRANCH   6   7
ATOM      7  C   UNL     1       8.505   2.695   2.084  1.00  0.00     0.053 C 
BRANCH   7   8
ATOM      8  C   UNL     1       7.551   2.922   3.214  1.00  0.00     0.041 C 
ATOM      9  O   UNL     1       7.328   2.008   4.051  1.00  0.00    -0.550 OA
ATOM     10  O   UNL     1       6.878   4.133   3.320  1.00  0.00    -0.550 OA
ENDBRANCH   7   8
ENDBRANCH   6   7
ENDBRANCH   5   6
ENDBRANCH   4   5
ENDBRANCH   3   4
ENDBRANCH   2   3
ENDBRANCH   1   2
BRANCH   1  11
ATOM     11  C   UNL     1       9.094  -2.942  -1.675  1.00  0.00     0.000 C 
BRANCH  11  12
ATOM     12  C   UNL     1       7.984  -3.096  -2.731  1.00  0.00     0.000 C 
BRANCH  12  13
ATOM     13  C   UNL     1       7.210  -1.791  -2.981  1.00  0.00     0.000 C 
BRANCH  13  14
ATOM     14  C   UNL     1       7.931  -0.549  -2.428  1.00  0.00     0.000 C 
BRANCH  14  15
ATOM     15  C   UNL     1       7.281   0.801  -2.781  1.00  0.00     0.000 C 
BRANCH  15  16
ATOM     16  C   UNL     1       7.535   1.886  -1.722  1.00  0.00     0.006 C 
BRANCH  16  17
ATOM     17  C   UNL     1       6.908   3.233  -2.110  1.00  0.00     0.053 C 
BRANCH  17  18
ATOM     18  C   UNL     1       6.995   4.229  -0.994  1.00  0.00     0.041 C 
ATOM     19  O   UNL     1       7.922   5.081  -0.976  1.00  0.00    -0.550 OA
ATOM     20  O   UNL     1       6.034   4.238   0.008  1.00  0.00    -0.550 OA
ENDBRANCH  17  18
ENDBRANCH  16  17
ENDBRANCH  15  16
ENDBRANCH  14  15
ENDBRANCH  13  14
ENDBRANCH  12  13
ENDBRANCH  11  12
ENDBRANCH   1  11
TORSDOF 15
ENDMDL
MODEL 5
REMARK VINA RESULT:    -3.068      2.212      4.016
REMARK INTER + INTRA:          -7.378
REMARK INTER:                  -5.927
REMARK INTRA:                  -1.451
REMARK UNBOUND:                -1.620
REMARK SMILES O=C([O-])CCCCCCCCCCCCCCC(=O)[O-]
REMARK SMILES IDX 10 1 9 2 8 3 7 4 6 5 5 6 4 7 2 8 1 9 3 10 11 11 12 12 13 13
REMARK SMILES IDX 14 14 15 15 16 16 17 17 18 18 19 19 20 20
REMARK H PARENT
REMARK Flexibility Score: inf
ROOT
ATOM      1  C   UNL     1       8.268  -2.982  -2.762  1.00  0.00     0.000 C 
ENDROOT
BRANCH   1   2
ATOM      2  C   UNL     1       8.533  -3.968  -1.610  1.00  0.00     0.000 C 
BRANCH   2   3
ATOM      3  C   UNL     1       9.364  -3.349  -0.473  1.00  0.00     0.000 C 
BRANCH   3   4
ATOM      4  C   UNL     1       8.845  -3.766   0.920  1.00  0.00     0.000 C 
BRANCH   4   5
ATOM      5  C   UNL     1       8.862  -2.624   1.950  1.00  0.00     0.000 C 
BRANCH   5   6
ATOM      6  C   UNL     1       9.022  -1.240   1.307  1.00  0.00     0.006 C 
BRANCH   6   7
ATOM      7  C   UNL     1       8.656  -0.131   2.298  1.00  0.00     0.053 C 
BRANCH   7   8
ATOM      8  C   UNL     1       9.877   0.631   2.706  1.00  0.00     0.041 C 
ATOM      9  O   UNL     1      11.023   0.176   2.456  1.00  0.00    -0.550 OA
ATOM     10  O   UNL     1       9.747   1.829   3.397  1.00  0.00    -0.550 OA
ENDBRANCH   7   8
ENDBRANCH   6   7
ENDBRANCH   5   6
ENDBRANCH   4   5
ENDBRANCH   3   4
ENDBRANCH   2   3
ENDBRANCH   1   2
BRANCH   1  11
ATOM     11  C   UNL     1       7.978  -1.530  -2.328  1.00  0.00     0.000 C 
BRANCH  11  12
ATOM     12  C   UNL     1       6.982  -0.761  -3.215  1.00  0.00     0.000 C 
BRANCH  12  13
ATOM     13  C   UNL     1       6.956   0.748  -2.917  1.00  0.00     0.000 C 
BRANCH  13  14
ATOM     14  C   UNL     1       7.907   1.151  -1.776  1.00  0.00     0.000 C 
BRANCH  14  15
ATOM     15  C   UNL     1       7.681   2.561  -1.199  1.00  0.00     0.000 C 
BRANCH  15  16
ATOM     16  C   UNL     1       8.383   2.777   0.151  1.00  0.00     0.006 C 
BRANCH  16  17
ATOM     17  C   UNL     1       8.332   4.243   0.603  1.00  0.00     0.053 C 
BRANCH  17  18
ATOM     18  C   UNL     1       7.535   4.411   1.860  1.00  0.00     0.041 C 
ATOM     19  O   UNL     1       6.783   3.484   2.262  1.00  0.00    -0.550 OA
ATOM     20  O   UNL     1       7.649   5.577   2.606  1.00  0.00    -0.550 OA
ENDBRANCH  17  18
ENDBRANCH  16  17
ENDBRANCH  15  16
ENDBRANCH  14  15
ENDBRANCH  13  14
ENDBRANCH  12  13
ENDBRANCH  11  12
ENDBRANCH   1  11
TORSDOF 15
ENDMDL
MODEL 6
REMARK VINA RESULT:    -3.065      1.992      6.064
REMARK INTER + INTRA:          -7.373
REMARK INTER:                  -5.249
REMARK INTRA:                  -2.124
REMARK UNBOUND:                -1.620
REMARK SMILES O=C([O-])CCCCCCCCCCCCCCC(=O)[O-]
REMARK SMILES IDX 10 1 9 2 8 3 7 4 6 5 5 6 4 7 2 8 1 9 3 10 11 11 12 12 13 13
REMARK SMILES IDX 14 14 15 15 16 16 17 17 18 18 19 19 20 20
REMARK H PARENT
REMARK Flexibility Score: inf
ROOT
ATOM      1  C   UNL     1       7.620  -2.783  -2.867  1.00  0.00     0.000 C 
ENDROOT
BRANCH   1   2
ATOM      2  C   UNL     1       7.973  -1.416  -3.480  1.00  0.00     0.000 C 
BRANCH   2   3
ATOM      3  C   UNL     1       6.893  -0.350  -3.226  1.00  0.00     0.000 C 
BRANCH   3   4
ATOM      4  C   UNL     1       7.387   0.767  -2.283  1.00  0.00     0.000 C 
BRANCH   4   5
ATOM      5  C   UNL     1       8.889   1.068  -2.419  1.00  0.00     0.000 C 
BRANCH   5   6
ATOM      6  C   UNL     1       9.445   1.878  -1.240  1.00  0.00     0.006 C 
BRANCH   6   7
ATOM      7  C   UNL     1       8.343   2.192  -0.225  1.00  0.00     0.053 C 
BRANCH   7   8
ATOM      8  C   UNL     1       8.937   2.560   1.098  1.00  0.00     0.041 C 
ATOM      9  O   UNL     1       9.856   1.859   1.598  1.00  0.00    -0.550 OA
ATOM     10  O   UNL     1       8.449   3.656   1.797  1.00  0.00    -0.550 OA
ENDBRANCH   7   8
ENDBRANCH   6   7
ENDBRANCH   5   6
ENDBRANCH   4   5
ENDBRANCH   3   4
ENDBRANCH   2   3
ENDBRANCH   1   2
BRANCH   1  11
ATOM     11  C   UNL     1       8.586  -3.279  -1.771  1.00  0.00     0.000 C 
BRANCH  11  12
ATOM     12  C   UNL     1       9.893  -2.478  -1.630  1.00  0.00     0.000 C 
BRANCH  12  13
ATOM     13  C   UNL     1      10.146  -1.992  -0.192  1.00  0.00     0.000 C 
BRANCH  13  14
ATOM     14  C   UNL     1       8.907  -1.339   0.447  1.00  0.00     0.000 C 
BRANCH  14  15
ATOM     15  C   UNL     1       8.745  -1.578   1.959  1.00  0.00     0.000 C 
BRANCH  15  16
ATOM     16  C   UNL     1       9.187  -2.984   2.396  1.00  0.00     0.006 C 
BRANCH  16  17
ATOM     17  C   UNL     1       8.138  -4.053   2.059  1.00  0.00     0.053 C 
BRANCH  17  18
ATOM     18  C   UNL     1       8.419  -5.349   2.756  1.00  0.00     0.041 C 
ATOM     19  O   UNL     1       8.158  -6.443   2.190  1.00  0.00    -0.550 OA
ATOM     20  O   UNL     1       9.001  -5.349   4.017  1.00  0.00    -0.550 OA
ENDBRANCH  17  18
ENDBRANCH  16  17
ENDBRANCH  15  16
ENDBRANCH  14  15
ENDBRANCH  13  14
ENDBRANCH  12  13
ENDBRANCH  11  12
ENDBRANCH   1  11
TORSDOF 15
ENDMDL
MODEL 7
REMARK VINA RESULT:    -3.035      4.529      8.246
REMARK INTER + INTRA:          -7.317
REMARK INTER:                  -6.138
REMARK INTRA:                  -1.179
REMARK UNBOUND:                -1.620
REMARK SMILES O=C([O-])CCCCCCCCCCCCCCC(=O)[O-]
REMARK SMILES IDX 10 1 9 2 8 3 7 4 6 5 5 6 4 7 2 8 1 9 3 10 11 11 12 12 13 13
REMARK SMILES IDX 14 14 15 15 16 16 17 17 18 18 19 19 20 20
REMARK H PARENT
REMARK Flexibility Score: inf
ROOT
ATOM      1  C   UNL     1       6.442  -2.885  -4.755  1.00  0.00     0.000 C 
ENDROOT
BRANCH   1   2
ATOM      2  C   UNL     1       7.220  -3.253  -3.479  1.00  0.00     0.000 C 
BRANCH   2   3
ATOM      3  C   UNL     1       7.644  -2.020  -2.662  1.00  0.00     0.000 C 
BRANCH   3   4
ATOM      4  C   UNL     1       8.662  -2.376  -1.557  1.00  0.00     0.000 C 
BRANCH   4   5
ATOM      5  C   UNL     1       9.081  -3.855  -1.559  1.00  0.00     0.000 C 
BRANCH   5   6
ATOM      6  C   UNL     1       9.111  -4.470  -0.153  1.00  0.00     0.006 C 
BRANCH   6   7
ATOM      7  C   UNL     1       8.870  -3.400   0.916  1.00  0.00     0.053 C 
BRANCH   7   8
ATOM      8  C   UNL     1       8.678  -4.032   2.258  1.00  0.00     0.041 C 
ATOM      9  O   UNL     1       7.783  -4.901   2.428  1.00  0.00    -0.550 OA
ATOM     10  O   UNL     1       9.465  -3.634   3.331  1.00  0.00    -0.550 OA
ENDBRANCH   7   8
ENDBRANCH   6   7
ENDBRANCH   5   6
ENDBRANCH   4   5
ENDBRANCH   3   4
ENDBRANCH   2   3
ENDBRANCH   1   2
BRANCH   1  11
ATOM     11  C   UNL     1       5.758  -1.502  -4.730  1.00  0.00     0.000 C 
BRANCH  11  12
ATOM     12  C   UNL     1       4.584  -1.327  -5.710  1.00  0.00     0.000 C 
BRANCH  12  13
ATOM     13  C   UNL     1       3.818  -2.637  -5.967  1.00  0.00     0.000 C 
BRANCH  13  14
ATOM     14  C   UNL     1       2.413  -2.643  -5.337  1.00  0.00     0.000 C 
BRANCH  14  15
ATOM     15  C   UNL     1       1.980  -3.982  -4.712  1.00  0.00     0.000 C 
BRANCH  15  16
ATOM     16  C   UNL     1       3.108  -5.026  -4.685  1.00  0.00     0.006 C 
BRANCH  16  17
ATOM     17  C   UNL     1       2.909  -6.066  -3.574  1.00  0.00     0.053 C 
BRANCH  17  18
ATOM     18  C   UNL     1       4.140  -6.892  -3.357  1.00  0.00     0.041 C 
ATOM     19  O   UNL     1       5.281  -6.377  -3.494  1.00  0.00    -0.550 OA
ATOM     20  O   UNL     1       4.028  -8.221  -2.972  1.00  0.00    -0.550 OA
ENDBRANCH  17  18
ENDBRANCH  16  17
ENDBRANCH  15  16
ENDBRANCH  14  15
ENDBRANCH  13  14
ENDBRANCH  12  13
ENDBRANCH  11  12
ENDBRANCH   1  11
TORSDOF 15
ENDMDL
MODEL 8
REMARK VINA RESULT:    -3.016      3.038      5.542
REMARK INTER + INTRA:          -7.282
REMARK INTER:                  -5.664
REMARK INTRA:                  -1.618
REMARK UNBOUND:                -1.620
REMARK SMILES O=C([O-])CCCCCCCCCCCCCCC(=O)[O-]
REMARK SMILES IDX 10 1 9 2 8 3 7 4 6 5 5 6 4 7 2 8 1 9 3 10 11 11 12 12 13 13
REMARK SMILES IDX 14 14 15 15 16 16 17 17 18 18 19 19 20 20
REMARK H PARENT
REMARK Flexibility Score: inf
ROOT
ATOM      1  C   UNL     1       8.336  -0.778  -1.432  1.00  0.00     0.000 C 
ENDROOT
BRANCH   1   2
ATOM      2  C   UNL     1       9.046  -1.600  -0.342  1.00  0.00     0.000 C 
BRANCH   2   3
ATOM      3  C   UNL     1       9.554  -0.733   0.823  1.00  0.00     0.000 C 
BRANCH   3   4
ATOM      4  C   UNL     1       8.712  -0.927   2.102  1.00  0.00     0.000 C 
BRANCH   4   5
ATOM      5  C   UNL     1       9.084   0.041   3.237  1.00  0.00     0.000 C 
BRANCH   5   6
ATOM      6  C   UNL     1       8.819   1.510   2.881  1.00  0.00     0.006 C 
BRANCH   6   7
ATOM      7  C   UNL     1       7.405   1.927   3.297  1.00  0.00     0.053 C 
BRANCH   7   8
ATOM      8  C   UNL     1       7.458   3.024   4.312  1.00  0.00     0.041 C 
ATOM      9  O   UNL     1       8.324   3.002   5.226  1.00  0.00    -0.550 OA
ATOM     10  O   UNL     1       6.526   4.053   4.271  1.00  0.00    -0.550 OA
ENDBRANCH   7   8
ENDBRANCH   6   7
ENDBRANCH   5   6
ENDBRANCH   4   5
ENDBRANCH   3   4
ENDBRANCH   2   3
ENDBRANCH   1   2
BRANCH   1  11
ATOM     11  C   UNL     1       7.604  -1.609  -2.507  1.00  0.00     0.000 C 
BRANCH  11  12
ATOM     12  C   UNL     1       6.839  -0.794  -3.566  1.00  0.00     0.000 C 
BRANCH  12  13
ATOM     13  C   UNL     1       7.397   0.628  -3.745  1.00  0.00     0.000 C 
BRANCH  13  14
ATOM     14  C   UNL     1       6.300   1.708  -3.746  1.00  0.00     0.000 C 
BRANCH  14  15
ATOM     15  C   UNL     1       6.395   2.743  -2.610  1.00  0.00     0.000 C 
BRANCH  15  16
ATOM     16  C   UNL     1       7.811   2.861  -2.022  1.00  0.00     0.006 C 
BRANCH  16  17
ATOM     17  C   UNL     1       7.811   2.770  -0.490  1.00  0.00     0.053 C 
BRANCH  17  18
ATOM     18  C   UNL     1       7.401   4.064   0.145  1.00  0.00     0.041 C 
ATOM     19  O   UNL     1       6.388   4.111   0.891  1.00  0.00    -0.550 OA
ATOM     20  O   UNL     1       8.158   5.211  -0.061  1.00  0.00    -0.550 OA
ENDBRANCH  17  18
ENDBRANCH  16  17
ENDBRANCH  15  16
ENDBRANCH  14  15
ENDBRANCH  13  14
ENDBRANCH  12  13
ENDBRANCH  11  12
ENDBRANCH   1  11
TORSDOF 15
ENDMDL
MODEL 9
REMARK VINA RESULT:    -2.962      2.606      5.064
REMARK INTER + INTRA:          -7.180
REMARK INTER:                  -5.441
REMARK INTRA:                  -1.739
REMARK UNBOUND:                -1.620
REMARK SMILES O=C([O-])CCCCCCCCCCCCCCC(=O)[O-]
REMARK SMILES IDX 10 1 9 2 8 3 7 4 6 5 5 6 4 7 2 8 1 9 3 10 11 11 12 12 13 13
REMARK SMILES IDX 14 14 15 15 16 16 17 17 18 18 19 19 20 20
REMARK H PARENT
REMARK Flexibility Score: inf
ROOT
ATOM      1  C   UNL     1       8.883  -2.336  -2.146  1.00  0.00     0.000 C 
ENDROOT
BRANCH   1   2
ATOM      2  C   UNL     1       7.556  -1.949  -2.821  1.00  0.00     0.000 C 
BRANCH   2   3
ATOM      3  C   UNL     1       7.282  -0.435  -2.776  1.00  0.00     0.000 C 
BRANCH   3   4
ATOM      4  C   UNL     1       7.995   0.249  -1.590  1.00  0.00     0.000 C 
BRANCH   4   5
ATOM      5  C   UNL     1       8.415   1.701  -1.878  1.00  0.00     0.000 C 
BRANCH   5   6
ATOM      6  C   UNL     1       7.313   2.717  -1.551  1.00  0.00     0.006 C 
BRANCH   6   7
ATOM      7  C   UNL     1       7.888   3.923  -0.802  1.00  0.00     0.053 C 
BRANCH   7   8
ATOM      8  C   UNL     1       6.860   4.511   0.114  1.00  0.00     0.041 C 
ATOM      9  O   UNL     1       6.233   5.551  -0.219  1.00  0.00    -0.550 OA
ATOM     10  O   UNL     1       6.622   3.929   1.352  1.00  0.00    -0.550 OA
ENDBRANCH   7   8
ENDBRANCH   6   7
ENDBRANCH   5   6
ENDBRANCH   4   5
ENDBRANCH   3   4
ENDBRANCH   2   3
ENDBRANCH   1   2
BRANCH   1  11
ATOM     11  C   UNL     1       8.755  -3.327  -0.970  1.00  0.00     0.000 C 
BRANCH  11  12
ATOM     12  C   UNL     1       9.147  -2.770   0.411  1.00  0.00     0.000 C 
BRANCH  12  13
ATOM     13  C   UNL     1      10.435  -1.929   0.374  1.00  0.00     0.000 C 
BRANCH  13  14
ATOM     14  C   UNL     1      10.298  -0.588   1.117  1.00  0.00     0.000 C 
BRANCH  14  15
ATOM     15  C   UNL     1       8.995  -0.411   1.918  1.00  0.00     0.000 C 
BRANCH  15  16
ATOM     16  C   UNL     1       8.557   1.058   2.034  1.00  0.00     0.006 C 
BRANCH  16  17
ATOM     17  C   UNL     1       7.731   1.319   3.302  1.00  0.00     0.053 C 
BRANCH  17  18
ATOM     18  C   UNL     1       8.511   2.085   4.326  1.00  0.00     0.041 C 
ATOM     19  O   UNL     1       8.723   1.588   5.464  1.00  0.00    -0.550 OA
ATOM     20  O   UNL     1       9.033   3.333   4.013  1.00  0.00    -0.550 OA
ENDBRANCH  17  18
ENDBRANCH  16  17
ENDBRANCH  15  16
ENDBRANCH  14  15
ENDBRANCH  13  14
ENDBRANCH  12  13
ENDBRANCH  11  12
ENDBRANCH   1  11
TORSDOF 15
ENDMDL
