MODEL 1
REMARK VINA RESULT:    -3.880      0.000      0.000
REMARK INTER + INTRA:          -4.270
REMARK INTER:                  -4.107
REMARK INTRA:                  -0.163
REMARK UNBOUND:                -0.163
REMARK SMILES C=C(C)[C@@H]1CC=C(C)CC1
REMARK SMILES IDX 8 1 7 2 6 3 5 4 4 5 10 6 9 7 2 8 1 9 3 10
REMARK H PARENT
REMARK Flexibility Score: inf
ROOT
ATOM      1  C   UNL     1      25.933   6.919 -27.159  1.00  0.00     0.039 C 
ATOM      2  C   UNL     1      24.806   6.260 -26.414  1.00  0.00    -0.077 C 
ATOM      3  C   UNL     1      24.929   5.988 -25.105  1.00  0.00    -0.027 C 
ATOM      4  C   UNL     1      23.809   5.286 -24.388  1.00  0.00     0.035 C 
ATOM      5  C   UNL     1      23.305   4.084 -25.223  1.00  0.00     0.018 C 
ATOM      6  C   UNL     1      23.158   4.401 -26.748  1.00  0.00     0.013 C 
ATOM      7  C   UNL     1      23.535   5.847 -27.120  1.00  0.00     0.031 C 
ENDROOT
BRANCH   5   8
ATOM      8  C   UNL     1      22.011   3.539 -24.636  1.00  0.00    -0.077 C 
ATOM      9  C   UNL     1      21.754   3.661 -23.324  1.00  0.00     0.008 C 
ATOM     10  C   UNL     1      20.983   2.877 -25.519  1.00  0.00     0.039 C 
ENDBRANCH   5   8
TORSDOF 1
ENDMDL
MODEL 2
REMARK VINA RESULT:    -3.832      0.903      4.293
REMARK INTER + INTRA:          -4.218
REMARK INTER:                  -4.060
REMARK INTRA:                  -0.158
REMARK UNBOUND:                -0.163
REMARK SMILES C=C(C)[C@@H]1CC=C(C)CC1
REMARK SMILES IDX 8 1 7 2 6 3 5 4 4 5 10 6 9 7 2 8 1 9 3 10
REMARK H PARENT
REMARK Flexibility Score: inf
ROOT
ATOM      1  C   UNL     1      21.204   2.661 -25.901  1.00  0.00     0.039 C 
ATOM      2  C   UNL     1      22.432   3.527 -25.878  1.00  0.00    -0.077 C 
ATOM      3  C   UNL     1      22.867   4.053 -24.722  1.00  0.00    -0.027 C 
ATOM      4  C   UNL     1      24.070   4.956 -24.727  1.00  0.00     0.035 C 
ATOM      5  C   UNL     1      23.962   5.990 -25.873  1.00  0.00     0.018 C 
ATOM      6  C   UNL     1      23.458   5.378 -27.222  1.00  0.00     0.013 C 
ATOM      7  C   UNL     1      23.176   3.865 -27.149  1.00  0.00     0.031 C 
ENDROOT
BRANCH   5   8
ATOM      8  C   UNL     1      25.283   6.723 -26.050  1.00  0.00    -0.077 C 
ATOM      9  C   UNL     1      25.785   6.935 -27.277  1.00  0.00     0.008 C 
ATOM     10  C   UNL     1      26.040   7.247 -24.855  1.00  0.00     0.039 C 
ENDBRANCH   5   8
TORSDOF 1
ENDMDL
MODEL 3
REMARK VINA RESULT:    -3.766      1.133      2.085
REMARK INTER + INTRA:          -4.149
REMARK INTER:                  -3.988
REMARK INTRA:                  -0.161
REMARK UNBOUND:                -0.163
REMARK SMILES C=C(C)[C@@H]1CC=C(C)CC1
REMARK SMILES IDX 8 1 7 2 6 3 5 4 4 5 10 6 9 7 2 8 1 9 3 10
REMARK H PARENT
REMARK Flexibility Score: inf
ROOT
ATOM      1  C   UNL     1      25.395   6.058 -25.545  1.00  0.00     0.039 C 
ATOM      2  C   UNL     1      24.105   5.291 -25.631  1.00  0.00    -0.077 C 
ATOM      3  C   UNL     1      23.624   4.654 -24.551  1.00  0.00    -0.027 C 
ATOM      4  C   UNL     1      22.356   3.853 -24.670  1.00  0.00     0.035 C 
ATOM      5  C   UNL     1      22.395   2.970 -25.940  1.00  0.00     0.018 C 
ATOM      6  C   UNL     1      22.953   3.711 -27.200  1.00  0.00     0.013 C 
ATOM      7  C   UNL     1      23.347   5.176 -26.933  1.00  0.00     0.031 C 
ENDROOT
BRANCH   5   8
ATOM      8  C   UNL     1      21.023   2.367 -26.207  1.00  0.00    -0.077 C 
ATOM      9  C   UNL     1      20.900   1.256 -26.950  1.00  0.00     0.008 C 
ATOM     10  C   UNL     1      19.780   2.990 -25.621  1.00  0.00     0.039 C 
ENDBRANCH   5   8
TORSDOF 1
ENDMDL
MODEL 4
REMARK VINA RESULT:    -3.761     15.017     15.728
REMARK INTER + INTRA:          -4.143
REMARK INTER:                  -3.984
REMARK INTRA:                  -0.159
REMARK UNBOUND:                -0.163
REMARK SMILES C=C(C)[C@@H]1CC=C(C)CC1
REMARK SMILES IDX 8 1 7 2 6 3 5 4 4 5 10 6 9 7 2 8 1 9 3 10
REMARK H PARENT
REMARK Flexibility Score: inf
ROOT
ATOM      1  C   UNL     1      34.028  -8.155 -28.510  1.00  0.00     0.039 C 
ATOM      2  C   UNL     1      32.730  -8.243 -29.263  1.00  0.00    -0.077 C 
ATOM      3  C   UNL     1      32.702  -8.029 -30.589  1.00  0.00    -0.027 C 
ATOM      4  C   UNL     1      31.386  -8.074 -31.316  1.00  0.00     0.035 C 
ATOM      5  C   UNL     1      30.313  -7.274 -30.540  1.00  0.00     0.018 C 
ATOM      6  C   UNL     1      30.343  -7.525 -28.996  1.00  0.00     0.013 C 
ATOM      7  C   UNL     1      31.428  -8.524 -28.551  1.00  0.00     0.031 C 
ENDROOT
BRANCH   5   8
ATOM      8  C   UNL     1      28.933  -7.537 -31.124  1.00  0.00    -0.077 C 
ATOM      9  C   UNL     1      28.785  -8.355 -32.178  1.00  0.00     0.008 C 
ATOM     10  C   UNL     1      27.705  -6.906 -30.516  1.00  0.00     0.039 C 
ENDBRANCH   5   8
TORSDOF 1
ENDMDL
MODEL 5
REMARK VINA RESULT:    -3.748     12.478     13.609
REMARK INTER + INTRA:          -4.130
REMARK INTER:                  -3.971
REMARK INTRA:                  -0.158
REMARK UNBOUND:                -0.163
REMARK SMILES C=C(C)[C@@H]1CC=C(C)CC1
REMARK SMILES IDX 8 1 7 2 6 3 5 4 4 5 10 6 9 7 2 8 1 9 3 10
REMARK H PARENT
REMARK Flexibility Score: inf
ROOT
ATOM      1  C   UNL     1      25.563  -5.487 -27.399  1.00  0.00     0.039 C 
ATOM      2  C   UNL     1      26.689  -5.913 -28.299  1.00  0.00    -0.077 C 
ATOM      3  C   UNL     1      27.424  -4.993 -28.944  1.00  0.00    -0.027 C 
ATOM      4  C   UNL     1      28.515  -5.441 -29.877  1.00  0.00     0.035 C 
ATOM      5  C   UNL     1      28.006  -6.578 -30.795  1.00  0.00     0.018 C 
ATOM      6  C   UNL     1      27.153  -7.653 -30.043  1.00  0.00     0.013 C 
ATOM      7  C   UNL     1      26.992  -7.374 -28.537  1.00  0.00     0.031 C 
ENDROOT
BRANCH   5   8
ATOM      8  C   UNL     1      29.169  -7.211 -31.546  1.00  0.00    -0.077 C 
ATOM      9  C   UNL     1      29.077  -8.469 -32.007  1.00  0.00     0.008 C 
ATOM     10  C   UNL     1      30.432  -6.431 -31.810  1.00  0.00     0.039 C 
ENDBRANCH   5   8
TORSDOF 1
ENDMDL
MODEL 6
REMARK VINA RESULT:    -3.703      1.146      4.362
REMARK INTER + INTRA:          -4.082
REMARK INTER:                  -3.922
REMARK INTRA:                  -0.159
REMARK UNBOUND:                -0.163
REMARK SMILES C=C(C)[C@@H]1CC=C(C)CC1
REMARK SMILES IDX 8 1 7 2 6 3 5 4 4 5 10 6 9 7 2 8 1 9 3 10
REMARK H PARENT
REMARK Flexibility Score: inf
ROOT
ATOM      1  C   UNL     1      20.990   0.990 -26.673  1.00  0.00     0.039 C 
ATOM      2  C   UNL     1      21.647   2.321 -26.433  1.00  0.00    -0.077 C 
ATOM      3  C   UNL     1      22.665   2.723 -27.211  1.00  0.00    -0.027 C 
ATOM      4  C   UNL     1      23.340   4.036 -26.925  1.00  0.00     0.035 C 
ATOM      5  C   UNL     1      23.629   4.175 -25.411  1.00  0.00     0.018 C 
ATOM      6  C   UNL     1      22.442   3.710 -24.503  1.00  0.00     0.013 C 
ATOM      7  C   UNL     1      21.216   3.213 -25.292  1.00  0.00     0.031 C 
ENDROOT
BRANCH   5   8
ATOM      8  C   UNL     1      24.061   5.596 -25.084  1.00  0.00    -0.077 C 
ATOM      9  C   UNL     1      24.165   6.516 -26.056  1.00  0.00     0.008 C 
ATOM     10  C   UNL     1      24.355   6.005 -23.662  1.00  0.00     0.039 C 
ENDBRANCH   5   8
TORSDOF 1
ENDMDL
MODEL 7
REMARK VINA RESULT:    -3.694      2.150      3.597
REMARK INTER + INTRA:          -4.073
REMARK INTER:                  -3.903
REMARK INTRA:                  -0.170
REMARK UNBOUND:                -0.163
REMARK SMILES C=C(C)[C@@H]1CC=C(C)CC1
REMARK SMILES IDX 8 1 7 2 6 3 5 4 4 5 10 6 9 7 2 8 1 9 3 10
REMARK H PARENT
REMARK Flexibility Score: inf
ROOT
ATOM      1  C   UNL     1      24.063   5.086 -23.057  1.00  0.00     0.039 C 
ATOM      2  C   UNL     1      23.149   4.197 -23.853  1.00  0.00    -0.077 C 
ATOM      3  C   UNL     1      23.202   4.201 -25.194  1.00  0.00    -0.027 C 
ATOM      4  C   UNL     1      22.246   3.339 -25.974  1.00  0.00     0.035 C 
ATOM      5  C   UNL     1      20.811   3.483 -25.413  1.00  0.00     0.018 C 
ATOM      6  C   UNL     1      20.748   3.475 -23.849  1.00  0.00     0.013 C 
ATOM      7  C   UNL     1      22.124   3.318 -23.174  1.00  0.00     0.031 C 
ENDROOT
BRANCH   5   8
ATOM      8  C   UNL     1      19.900   2.423 -26.016  1.00  0.00    -0.077 C 
ATOM      9  C   UNL     1      20.381   1.209 -26.325  1.00  0.00     0.008 C 
ATOM     10  C   UNL     1      18.438   2.708 -26.253  1.00  0.00     0.039 C 
ENDBRANCH   5   8
TORSDOF 1
ENDMDL
MODEL 8
REMARK VINA RESULT:    -3.671     14.803     15.842
REMARK INTER + INTRA:          -4.049
REMARK INTER:                  -3.888
REMARK INTRA:                  -0.161
REMARK UNBOUND:                -0.163
REMARK SMILES C=C(C)[C@@H]1CC=C(C)CC1
REMARK SMILES IDX 8 1 7 2 6 3 5 4 4 5 10 6 9 7 2 8 1 9 3 10
REMARK H PARENT
REMARK Flexibility Score: inf
ROOT
ATOM      1  C   UNL     1      26.997  -8.112 -29.748  1.00  0.00     0.039 C 
ATOM      2  C   UNL     1      28.394  -7.722 -30.142  1.00  0.00    -0.077 C 
ATOM      3  C   UNL     1      28.758  -7.724 -31.434  1.00  0.00    -0.027 C 
ATOM      4  C   UNL     1      30.174  -7.377 -31.804  1.00  0.00     0.035 C 
ATOM      5  C   UNL     1      31.169  -8.122 -30.882  1.00  0.00     0.018 C 
ATOM      6  C   UNL     1      30.748  -8.118 -29.375  1.00  0.00     0.013 C 
ATOM      7  C   UNL     1      29.431  -7.367 -29.102  1.00  0.00     0.031 C 
ENDROOT
BRANCH   5   8
ATOM      8  C   UNL     1      32.576  -7.575 -31.072  1.00  0.00    -0.077 C 
ATOM      9  C   UNL     1      33.164  -6.859 -30.101  1.00  0.00     0.008 C 
ATOM     10  C   UNL     1      33.345  -7.848 -32.340  1.00  0.00     0.039 C 
ENDBRANCH   5   8
TORSDOF 1
ENDMDL
MODEL 9
REMARK VINA RESULT:    -3.662      1.892      4.311
REMARK INTER + INTRA:          -4.039
REMARK INTER:                  -3.881
REMARK INTRA:                  -0.158
REMARK UNBOUND:                -0.163
REMARK SMILES C=C(C)[C@@H]1CC=C(C)CC1
REMARK SMILES IDX 8 1 7 2 6 3 5 4 4 5 10 6 9 7 2 8 1 9 3 10
REMARK H PARENT
REMARK Flexibility Score: inf
ROOT
ATOM      1  C   UNL     1      23.370   5.017 -20.173  1.00  0.00     0.039 C 
ATOM      2  C   UNL     1      23.248   5.182 -21.662  1.00  0.00    -0.077 C 
ATOM      3  C   UNL     1      22.876   4.144 -22.429  1.00  0.00    -0.027 C 
ATOM      4  C   UNL     1      22.806   4.316 -23.922  1.00  0.00     0.035 C 
ATOM      5  C   UNL     1      24.070   5.044 -24.440  1.00  0.00     0.018 C 
ATOM      6  C   UNL     1      24.502   6.255 -23.549  1.00  0.00     0.013 C 
ATOM      7  C   UNL     1      23.582   6.492 -22.336  1.00  0.00     0.031 C 
ENDROOT
BRANCH   5   8
ATOM      8  C   UNL     1      23.884   5.456 -25.893  1.00  0.00    -0.077 C 
ATOM      9  C   UNL     1      24.402   6.609 -26.345  1.00  0.00     0.008 C 
ATOM     10  C   UNL     1      23.140   4.567 -26.857  1.00  0.00     0.039 C 
ENDBRANCH   5   8
TORSDOF 1
ENDMDL
