MODEL 1
REMARK VINA RESULT:    -3.179      0.000      0.000
REMARK INTER + INTRA:          -4.338
REMARK INTER:                  -3.922
REMARK INTRA:                  -0.416
REMARK UNBOUND:                -0.416
REMARK SMILES COC(=O)c1ccccc1C(=O)OC
REMARK SMILES IDX 5 1 6 2 7 3 8 4 9 5 10 6 3 7 4 8 2 9 1 10 11 11 12 12 13 13
REMARK SMILES IDX 14 14
REMARK H PARENT
REMARK Flexibility Score: inf
ROOT
ATOM      1  C   UNL     1      -5.469  -3.670   1.286  1.00  0.00     0.074 A 
ATOM      2  C   UNL     1      -6.655  -2.945   1.502  1.00  0.00     0.016 A 
ATOM      3  C   UNL     1      -7.343  -2.367   0.435  1.00  0.00     0.001 A 
ATOM      4  C   UNL     1      -6.860  -2.503  -0.864  1.00  0.00     0.001 A 
ATOM      5  C   UNL     1      -5.699  -3.237  -1.105  1.00  0.00     0.016 A 
ATOM      6  C   UNL     1      -5.000  -3.847  -0.046  1.00  0.00     0.074 A 
ENDROOT
BRANCH   1   7
ATOM      7  C   UNL     1      -4.730  -4.157   2.472  1.00  0.00     0.338 C 
ATOM      8  O   UNL     1      -3.870  -3.424   3.034  1.00  0.00    -0.246 OA
BRANCH   7   9
ATOM      9  O   UNL     1      -5.032  -5.416   3.004  1.00  0.00    -0.465 OA
ATOM     10  C   UNL     1      -4.038  -6.400   3.257  1.00  0.00     0.282 C 
ENDBRANCH   7   9
ENDBRANCH   1   7
BRANCH   6  11
ATOM     11  C   UNL     1      -3.841  -4.705  -0.387  1.00  0.00     0.338 C 
ATOM     12  O   UNL     1      -2.751  -4.186  -0.754  1.00  0.00    -0.246 OA
BRANCH  11  13
ATOM     13  O   UNL     1      -3.944  -6.092  -0.242  1.00  0.00    -0.465 OA
ATOM     14  C   UNL     1      -5.155  -6.800  -0.476  1.00  0.00     0.282 C 
ENDBRANCH  11  13
ENDBRANCH   6  11
TORSDOF 4
ENDMDL
MODEL 2
REMARK VINA RESULT:    -3.174      0.146      3.050
REMARK INTER + INTRA:          -4.332
REMARK INTER:                  -3.915
REMARK INTRA:                  -0.417
REMARK UNBOUND:                -0.416
REMARK SMILES COC(=O)c1ccccc1C(=O)OC
REMARK SMILES IDX 5 1 6 2 7 3 8 4 9 5 10 6 3 7 4 8 2 9 1 10 11 11 12 12 13 13
REMARK SMILES IDX 14 14
REMARK H PARENT
REMARK Flexibility Score: inf
ROOT
ATOM      1  C   UNL     1      -4.997  -3.777   0.063  1.00  0.00     0.074 A 
ATOM      2  C   UNL     1      -5.715  -3.179  -0.989  1.00  0.00     0.016 A 
ATOM      3  C   UNL     1      -6.908  -2.500  -0.743  1.00  0.00     0.001 A 
ATOM      4  C   UNL     1      -7.403  -2.405   0.555  1.00  0.00     0.001 A 
ATOM      5  C   UNL     1      -6.697  -2.970   1.616  1.00  0.00     0.016 A 
ATOM      6  C   UNL     1      -5.480  -3.642   1.395  1.00  0.00     0.074 A 
ENDROOT
BRANCH   1   7
ATOM      7  C   UNL     1      -3.802  -4.579  -0.283  1.00  0.00     0.338 C 
ATOM      8  O   UNL     1      -2.741  -4.012  -0.666  1.00  0.00    -0.246 OA
BRANCH   7   9
ATOM      9  O   UNL     1      -3.836  -5.970  -0.129  1.00  0.00    -0.465 OA
ATOM     10  C   UNL     1      -4.964  -6.754  -0.494  1.00  0.00     0.282 C 
ENDBRANCH   7   9
ENDBRANCH   1   7
BRANCH   6  11
ATOM     11  C   UNL     1      -4.728  -4.118   2.579  1.00  0.00     0.338 C 
ATOM     12  O   UNL     1      -3.851  -3.384   3.113  1.00  0.00    -0.246 OA
BRANCH  11  13
ATOM     13  O   UNL     1      -5.037  -5.362   3.137  1.00  0.00    -0.465 OA
ATOM     14  C   UNL     1      -4.054  -6.363   3.374  1.00  0.00     0.282 C 
ENDBRANCH  11  13
ENDBRANCH   6  11
TORSDOF 4
ENDMDL
MODEL 3
REMARK VINA RESULT:    -3.161      2.066      3.716
REMARK INTER + INTRA:          -4.317
REMARK INTER:                  -3.886
REMARK INTRA:                  -0.431
REMARK UNBOUND:                -0.416
REMARK SMILES COC(=O)c1ccccc1C(=O)OC
REMARK SMILES IDX 5 1 6 2 7 3 8 4 9 5 10 6 3 7 4 8 2 9 1 10 11 11 12 12 13 13
REMARK SMILES IDX 14 14
REMARK H PARENT
REMARK Flexibility Score: inf
ROOT
ATOM      1  C   UNL     1      -4.107  -6.181   1.241  1.00  0.00     0.074 A 
ATOM      2  C   UNL     1      -3.466  -7.002   0.294  1.00  0.00     0.016 A 
ATOM      3  C   UNL     1      -2.946  -6.462  -0.882  1.00  0.00     0.001 A 
ATOM      4  C   UNL     1      -3.056  -5.097  -1.133  1.00  0.00     0.001 A 
ATOM      5  C   UNL     1      -3.667  -4.261  -0.199  1.00  0.00     0.016 A 
ATOM      6  C   UNL     1      -4.179  -4.779   1.005  1.00  0.00     0.074 A 
ENDROOT
BRANCH   1   7
ATOM      7  C   UNL     1      -4.735  -6.836   2.411  1.00  0.00     0.338 C 
ATOM      8  O   UNL     1      -5.920  -7.266   2.341  1.00  0.00    -0.246 OA
BRANCH   7   9
ATOM      9  O   UNL     1      -3.988  -7.027   3.578  1.00  0.00    -0.465 OA
ATOM     10  C   UNL     1      -4.525  -6.811   4.876  1.00  0.00     0.282 C 
ENDBRANCH   7   9
ENDBRANCH   1   7
BRANCH   6  11
ATOM     11  C   UNL     1      -4.711  -3.820   2.000  1.00  0.00     0.338 C 
ATOM     12  O   UNL     1      -4.022  -3.501   3.009  1.00  0.00    -0.246 OA
BRANCH  11  13
ATOM     13  O   UNL     1      -5.957  -3.224   1.785  1.00  0.00    -0.465 OA
ATOM     14  C   UNL     1      -7.131  -3.978   1.506  1.00  0.00     0.282 C 
ENDBRANCH  11  13
ENDBRANCH   6  11
TORSDOF 4
ENDMDL
MODEL 4
REMARK VINA RESULT:    -3.157     11.769     13.144
REMARK INTER + INTRA:          -4.312
REMARK INTER:                  -3.937
REMARK INTRA:                  -0.374
REMARK UNBOUND:                -0.416
REMARK SMILES COC(=O)c1ccccc1C(=O)OC
REMARK SMILES IDX 5 1 6 2 7 3 8 4 9 5 10 6 3 7 4 8 2 9 1 10 11 11 12 12 13 13
REMARK SMILES IDX 14 14
REMARK H PARENT
REMARK Flexibility Score: inf
ROOT
ATOM      1  C   UNL     1       4.212   2.819   4.017  1.00  0.00     0.074 A 
ATOM      2  C   UNL     1       4.289   1.735   3.123  1.00  0.00     0.016 A 
ATOM      3  C   UNL     1       4.615   0.458   3.577  1.00  0.00     0.001 A 
ATOM      4  C   UNL     1       4.869   0.240   4.929  1.00  0.00     0.001 A 
ATOM      5  C   UNL     1       4.776   1.295   5.837  1.00  0.00     0.016 A 
ATOM      6  C   UNL     1       4.427   2.588   5.404  1.00  0.00     0.074 A 
ENDROOT
BRANCH   1   7
ATOM      7  C   UNL     1       3.975   4.167   3.451  1.00  0.00     0.338 C 
ATOM      8  O   UNL     1       4.893   4.767   2.826  1.00  0.00    -0.246 OA
BRANCH   7   9
ATOM      9  O   UNL     1       2.707   4.748   3.562  1.00  0.00    -0.465 OA
ATOM     10  C   UNL     1       2.498   6.023   4.154  1.00  0.00     0.282 C 
ENDBRANCH   7   9
ENDBRANCH   1   7
BRANCH   6  11
ATOM     11  C   UNL     1       4.236   3.633   6.436  1.00  0.00     0.338 C 
ATOM     12  O   UNL     1       5.214   4.330   6.826  1.00  0.00    -0.246 OA
BRANCH  11  13
ATOM     13  O   UNL     1       2.953   3.885   6.933  1.00  0.00    -0.465 OA
ATOM     14  C   UNL     1       2.400   3.165   8.028  1.00  0.00     0.282 C 
ENDBRANCH  11  13
ENDBRANCH   6  11
TORSDOF 4
ENDMDL
MODEL 5
REMARK VINA RESULT:    -3.150     11.780     12.883
REMARK INTER + INTRA:          -4.302
REMARK INTER:                  -3.915
REMARK INTRA:                  -0.387
REMARK UNBOUND:                -0.416
REMARK SMILES COC(=O)c1ccccc1C(=O)OC
REMARK SMILES IDX 5 1 6 2 7 3 8 4 9 5 10 6 3 7 4 8 2 9 1 10 11 11 12 12 13 13
REMARK SMILES IDX 14 14
REMARK H PARENT
REMARK Flexibility Score: inf
ROOT
ATOM      1  C   UNL     1       4.473   2.610   5.407  1.00  0.00     0.074 A 
ATOM      2  C   UNL     1       4.809   1.316   5.846  1.00  0.00     0.016 A 
ATOM      3  C   UNL     1       4.877   0.252   4.947  1.00  0.00     0.001 A 
ATOM      4  C   UNL     1       4.613   0.461   3.596  1.00  0.00     0.001 A 
ATOM      5  C   UNL     1       4.300   1.739   3.134  1.00  0.00     0.016 A 
ATOM      6  C   UNL     1       4.247   2.832   4.020  1.00  0.00     0.074 A 
ENDROOT
BRANCH   1   7
ATOM      7  C   UNL     1       4.307   3.666   6.431  1.00  0.00     0.338 C 
ATOM      8  O   UNL     1       5.297   4.352   6.807  1.00  0.00    -0.246 OA
BRANCH   7   9
ATOM      9  O   UNL     1       3.031   3.939   6.938  1.00  0.00    -0.465 OA
ATOM     10  C   UNL     1       2.489   3.254   8.059  1.00  0.00     0.282 C 
ENDBRANCH   7   9
ENDBRANCH   1   7
BRANCH   6  11
ATOM     11  C   UNL     1       4.022   4.178   3.444  1.00  0.00     0.338 C 
ATOM     12  O   UNL     1       4.954   4.777   2.840  1.00  0.00    -0.246 OA
BRANCH  11  13
ATOM     13  O   UNL     1       2.751   4.757   3.522  1.00  0.00    -0.465 OA
ATOM     14  C   UNL     1       2.523   6.031   4.113  1.00  0.00     0.282 C 
ENDBRANCH  11  13
ENDBRANCH   6  11
TORSDOF 4
ENDMDL
MODEL 6
REMARK VINA RESULT:    -3.146     11.880     13.475
REMARK INTER + INTRA:          -4.298
REMARK INTER:                  -3.818
REMARK INTRA:                  -0.480
REMARK UNBOUND:                -0.416
REMARK SMILES COC(=O)c1ccccc1C(=O)OC
REMARK SMILES IDX 5 1 6 2 7 3 8 4 9 5 10 6 3 7 4 8 2 9 1 10 11 11 12 12 13 13
REMARK SMILES IDX 14 14
REMARK H PARENT
REMARK Flexibility Score: inf
ROOT
ATOM      1  C   UNL     1       4.315   2.782   3.987  1.00  0.00     0.074 A 
ATOM      2  C   UNL     1       4.338   1.658   3.140  1.00  0.00     0.016 A 
ATOM      3  C   UNL     1       4.599   0.386   3.650  1.00  0.00     0.001 A 
ATOM      4  C   UNL     1       4.839   0.214   5.010  1.00  0.00     0.001 A 
ATOM      5  C   UNL     1       4.799   1.310   5.872  1.00  0.00     0.016 A 
ATOM      6  C   UNL     1       4.516   2.599   5.384  1.00  0.00     0.074 A 
ENDROOT
BRANCH   1   7
ATOM      7  C   UNL     1       4.147   4.114   3.363  1.00  0.00     0.338 C 
ATOM      8  O   UNL     1       5.124   4.686   2.807  1.00  0.00    -0.246 OA
BRANCH   7   9
ATOM      9  O   UNL     1       2.881   4.711   3.343  1.00  0.00    -0.465 OA
ATOM     10  C   UNL     1       2.598   5.930   4.018  1.00  0.00     0.282 C 
ENDBRANCH   7   9
ENDBRANCH   1   7
BRANCH   6  11
ATOM     11  C   UNL     1       4.377   3.696   6.369  1.00  0.00     0.338 C 
ATOM     12  O   UNL     1       3.276   3.888   6.957  1.00  0.00    -0.246 OA
BRANCH  11  13
ATOM     13  O   UNL     1       5.489   4.482   6.688  1.00  0.00    -0.465 OA
ATOM     14  C   UNL     1       5.581   5.859   6.343  1.00  0.00     0.282 C 
ENDBRANCH  11  13
ENDBRANCH   6  11
TORSDOF 4
ENDMDL
MODEL 7
REMARK VINA RESULT:    -3.145      2.014      3.983
REMARK INTER + INTRA:          -4.297
REMARK INTER:                  -3.850
REMARK INTRA:                  -0.447
REMARK UNBOUND:                -0.416
REMARK SMILES COC(=O)c1ccccc1C(=O)OC
REMARK SMILES IDX 5 1 6 2 7 3 8 4 9 5 10 6 3 7 4 8 2 9 1 10 11 11 12 12 13 13
REMARK SMILES IDX 14 14
REMARK H PARENT
REMARK Flexibility Score: inf
ROOT
ATOM      1  C   UNL     1      -4.093  -4.869   0.822  1.00  0.00     0.074 A 
ATOM      2  C   UNL     1      -3.477  -4.369  -0.340  1.00  0.00     0.016 A 
ATOM      3  C   UNL     1      -2.844  -5.228  -1.238  1.00  0.00     0.001 A 
ATOM      4  C   UNL     1      -2.815  -6.599  -0.993  1.00  0.00     0.001 A 
ATOM      5  C   UNL     1      -3.439  -7.119   0.141  1.00  0.00     0.016 A 
ATOM      6  C   UNL     1      -4.102  -6.274   1.050  1.00  0.00     0.074 A 
ENDROOT
BRANCH   1   7
ATOM      7  C   UNL     1      -4.644  -3.892   1.788  1.00  0.00     0.338 C 
ATOM      8  O   UNL     1      -4.021  -3.626   2.852  1.00  0.00    -0.246 OA
BRANCH   7   9
ATOM      9  O   UNL     1      -5.834  -3.220   1.486  1.00  0.00    -0.465 OA
ATOM     10  C   UNL     1      -7.032  -3.903   1.137  1.00  0.00     0.282 C 
ENDBRANCH   7   9
ENDBRANCH   1   7
BRANCH   6  11
ATOM     11  C   UNL     1      -4.839  -6.905   2.169  1.00  0.00     0.338 C 
ATOM     12  O   UNL     1      -6.050  -7.233   2.031  1.00  0.00    -0.246 OA
BRANCH  11  13
ATOM     13  O   UNL     1      -4.167  -7.190   3.362  1.00  0.00    -0.465 OA
ATOM     14  C   UNL     1      -4.625  -6.733   4.629  1.00  0.00     0.282 C 
ENDBRANCH  11  13
ENDBRANCH   6  11
TORSDOF 4
ENDMDL
MODEL 8
REMARK VINA RESULT:    -3.136     11.910     13.212
REMARK INTER + INTRA:          -4.286
REMARK INTER:                  -3.805
REMARK INTRA:                  -0.481
REMARK UNBOUND:                -0.416
REMARK SMILES COC(=O)c1ccccc1C(=O)OC
REMARK SMILES IDX 5 1 6 2 7 3 8 4 9 5 10 6 3 7 4 8 2 9 1 10 11 11 12 12 13 13
REMARK SMILES IDX 14 14
REMARK H PARENT
REMARK Flexibility Score: inf
ROOT
ATOM      1  C   UNL     1       4.564   2.603   5.416  1.00  0.00     0.074 A 
ATOM      2  C   UNL     1       4.858   1.318   5.908  1.00  0.00     0.016 A 
ATOM      3  C   UNL     1       4.883   0.216   5.054  1.00  0.00     0.001 A 
ATOM      4  C   UNL     1       4.616   0.376   3.697  1.00  0.00     0.001 A 
ATOM      5  C   UNL     1       4.344   1.644   3.182  1.00  0.00     0.016 A 
ATOM      6  C   UNL     1       4.335   2.774   4.021  1.00  0.00     0.074 A 
ENDROOT
BRANCH   1   7
ATOM      7  C   UNL     1       4.441   3.707   6.395  1.00  0.00     0.338 C 
ATOM      8  O   UNL     1       3.342   3.926   6.975  1.00  0.00    -0.246 OA
BRANCH   7   9
ATOM      9  O   UNL     1       5.568   4.471   6.716  1.00  0.00    -0.465 OA
ATOM     10  C   UNL     1       5.719   5.825   6.307  1.00  0.00     0.282 C 
ENDBRANCH   7   9
ENDBRANCH   1   7
BRANCH   6  11
ATOM     11  C   UNL     1       4.152   4.102   3.390  1.00  0.00     0.338 C 
ATOM     12  O   UNL     1       5.121   4.675   2.820  1.00  0.00    -0.246 OA
BRANCH  11  13
ATOM     13  O   UNL     1       2.883   4.690   3.379  1.00  0.00    -0.465 OA
ATOM     14  C   UNL     1       2.595   5.907   4.056  1.00  0.00     0.282 C 
ENDBRANCH  11  13
ENDBRANCH   6  11
TORSDOF 4
ENDMDL
MODEL 9
REMARK VINA RESULT:    -3.043      1.730      3.286
REMARK INTER + INTRA:          -4.171
REMARK INTER:                  -3.804
REMARK INTRA:                  -0.367
REMARK UNBOUND:                -0.416
REMARK SMILES COC(=O)c1ccccc1C(=O)OC
REMARK SMILES IDX 5 1 6 2 7 3 8 4 9 5 10 6 3 7 4 8 2 9 1 10 11 11 12 12 13 13
REMARK SMILES IDX 14 14
REMARK H PARENT
REMARK Flexibility Score: inf
ROOT
ATOM      1  C   UNL     1      -5.562  -3.364   0.893  1.00  0.00     0.074 A 
ATOM      2  C   UNL     1      -5.149  -2.973  -0.393  1.00  0.00     0.016 A 
ATOM      3  C   UNL     1      -6.018  -2.294  -1.247  1.00  0.00     0.001 A 
ATOM      4  C   UNL     1      -7.312  -1.992  -0.831  1.00  0.00     0.001 A 
ATOM      5  C   UNL     1      -7.737  -2.350   0.448  1.00  0.00     0.016 A 
ATOM      6  C   UNL     1      -6.870  -3.017   1.334  1.00  0.00     0.074 A 
ENDROOT
BRANCH   1   7
ATOM      7  C   UNL     1      -4.629  -4.182   1.701  1.00  0.00     0.338 C 
ATOM      8  O   UNL     1      -3.986  -3.662   2.654  1.00  0.00    -0.246 OA
BRANCH   7   9
ATOM      9  O   UNL     1      -4.509  -5.551   1.439  1.00  0.00    -0.465 OA
ATOM     10  C   UNL     1      -3.974  -6.469   2.384  1.00  0.00     0.282 C 
ENDBRANCH   7   9
ENDBRANCH   1   7
BRANCH   6  11
ATOM     11  C   UNL     1      -7.349  -3.264   2.714  1.00  0.00     0.338 C 
ATOM     12  O   UNL     1      -7.300  -2.347   3.579  1.00  0.00    -0.246 OA
BRANCH  11  13
ATOM     13  O   UNL     1      -7.911  -4.504   3.037  1.00  0.00    -0.465 OA
ATOM     14  C   UNL     1      -7.313  -5.399   3.966  1.00  0.00     0.282 C 
ENDBRANCH  11  13
ENDBRANCH   6  11
TORSDOF 4
ENDMDL
