MODEL 1
REMARK VINA RESULT:    -6.394      0.000      0.000
REMARK INTER + INTRA:          -6.955
REMARK INTER:                  -6.955
REMARK INTRA:                   0.000
REMARK UNBOUND:                 0.000
REMARK SMILES Cc1cc(O)c2c(c1)C(=O)c1cc(O)cc(O)c1C2=O
REMARK SMILES IDX 1 1 2 2 8 3 7 4 6 5 4 6 3 7 19 8 20 9 18 10 11 11 9 12 10 13
REMARK SMILES IDX 12 14 13 15 15 16 16 17 5 18 17 20 14 22
REMARK H PARENT 5 19 17 21 14 23
REMARK Flexibility Score: inf
ROOT
ATOM      1  C   UNL     1      15.780 -14.134  16.029  1.00  0.00     0.044 C 
ATOM      2  C   UNL     1      16.216 -15.524  16.389  1.00  0.00    -0.047 A 
ATOM      3  C   UNL     1      15.339 -16.602  16.221  1.00  0.00     0.016 A 
ATOM      4  C   UNL     1      15.728 -17.903  16.581  1.00  0.00     0.038 A 
ATOM      5  C   UNL     1      17.014 -18.130  17.119  1.00  0.00     0.076 A 
ATOM      6  C   UNL     1      17.865 -17.022  17.366  1.00  0.00     0.127 A 
ATOM      7  C   UNL     1      17.465 -15.739  16.980  1.00  0.00     0.050 A 
ATOM      8  C   UNL     1      17.442 -19.534  17.348  1.00  0.00     0.201 C 
ATOM      9  O   UNL     1      18.662 -19.839  17.263  1.00  0.00    -0.288 OA
ATOM     10  C   UNL     1      16.420 -20.603  17.489  1.00  0.00     0.076 A 
ATOM     11  C   UNL     1      15.133 -20.372  16.953  1.00  0.00     0.041 A 
ATOM     12  C   UNL     1      14.790 -19.038  16.405  1.00  0.00     0.194 C 
ATOM     13  O   UNL     1      13.689 -18.863  15.813  1.00  0.00    -0.289 OA
ATOM     14  C   UNL     1      14.183 -21.407  16.944  1.00  0.00     0.059 A 
ATOM     15  C   UNL     1      14.493 -22.659  17.475  1.00  0.00     0.120 A 
ATOM     16  C   UNL     1      15.751 -22.880  18.044  1.00  0.00     0.093 A 
ATOM     17  C   UNL     1      16.707 -21.860  18.083  1.00  0.00     0.131 A 
ENDROOT
BRANCH   6  18
ATOM     18  O   UNL     1      19.093 -17.145  18.020  1.00  0.00    -0.507 OA
ATOM     19  H   UNL     1      19.984 -17.124  17.545  1.00  0.00     0.293 HD
ENDBRANCH   6  18
BRANCH  17  20
ATOM     20  O   UNL     1      17.905 -22.127  18.748  1.00  0.00    -0.507 OA
ATOM     21  H   UNL     1      17.954 -22.585  19.648  1.00  0.00     0.293 HD
ENDBRANCH  17  20
BRANCH  15  22
ATOM     22  O   UNL     1      13.540 -23.674  17.445  1.00  0.00    -0.508 OA
ATOM     23  H   UNL     1      12.557 -23.474  17.306  1.00  0.00     0.293 HD
ENDBRANCH  15  22
TORSDOF 3
ENDMDL
MODEL 2
REMARK VINA RESULT:    -6.325      2.562      6.585
REMARK INTER + INTRA:          -6.880
REMARK INTER:                  -6.880
REMARK INTRA:                   0.000
REMARK UNBOUND:                 0.000
REMARK SMILES Cc1cc(O)c2c(c1)C(=O)c1cc(O)cc(O)c1C2=O
REMARK SMILES IDX 1 1 2 2 8 3 7 4 6 5 4 6 3 7 19 8 20 9 18 10 11 11 9 12 10 13
REMARK SMILES IDX 12 14 13 15 15 16 16 17 5 18 17 20 14 22
REMARK H PARENT 5 19 17 21 14 23
REMARK Flexibility Score: inf
ROOT
ATOM      1  C   UNL     1      14.459 -24.343  22.519  1.00  0.00     0.044 C 
ATOM      2  C   UNL     1      14.421 -23.628  21.200  1.00  0.00    -0.047 A 
ATOM      3  C   UNL     1      14.776 -22.276  21.122  1.00  0.00     0.016 A 
ATOM      4  C   UNL     1      14.716 -21.591  19.897  1.00  0.00     0.038 A 
ATOM      5  C   UNL     1      14.295 -22.268  18.731  1.00  0.00     0.076 A 
ATOM      6  C   UNL     1      13.857 -23.613  18.834  1.00  0.00     0.127 A 
ATOM      7  C   UNL     1      13.945 -24.281  20.059  1.00  0.00     0.050 A 
ATOM      8  C   UNL     1      14.388 -21.554  17.432  1.00  0.00     0.201 C 
ATOM      9  O   UNL     1      14.589 -22.205  16.372  1.00  0.00    -0.288 OA
ATOM     10  C   UNL     1      14.431 -20.069  17.407  1.00  0.00     0.076 A 
ATOM     11  C   UNL     1      14.849 -19.394  18.577  1.00  0.00     0.041 A 
ATOM     12  C   UNL     1      15.087 -20.157  19.825  1.00  0.00     0.194 C 
ATOM     13  O   UNL     1      15.579 -19.579  20.833  1.00  0.00    -0.289 OA
ATOM     14  C   UNL     1      15.036 -18.002  18.551  1.00  0.00     0.059 A 
ATOM     15  C   UNL     1      14.795 -17.275  17.385  1.00  0.00     0.120 A 
ATOM     16  C   UNL     1      14.342 -17.933  16.238  1.00  0.00     0.093 A 
ATOM     17  C   UNL     1      14.130 -19.315  16.243  1.00  0.00     0.131 A 
ENDROOT
BRANCH   6  18
ATOM     18  O   UNL     1      13.298 -24.309  17.759  1.00  0.00    -0.507 OA
ATOM     19  H   UNL     1      13.701 -25.148  17.367  1.00  0.00     0.293 HD
ENDBRANCH   6  18
BRANCH  17  20
ATOM     20  O   UNL     1      13.590 -19.888  15.090  1.00  0.00    -0.507 OA
ATOM     21  H   UNL     1      13.959 -19.729  14.163  1.00  0.00     0.293 HD
ENDBRANCH  17  20
BRANCH  15  22
ATOM     22  O   UNL     1      14.998 -15.897  17.379  1.00  0.00    -0.508 OA
ATOM     23  H   UNL     1      15.354 -15.410  18.193  1.00  0.00     0.293 HD
ENDBRANCH  15  22
TORSDOF 3
ENDMDL
MODEL 3
REMARK VINA RESULT:    -6.247      2.523      3.338
REMARK INTER + INTRA:          -6.794
REMARK INTER:                  -6.794
REMARK INTRA:                   0.000
REMARK UNBOUND:                 0.000
REMARK SMILES Cc1cc(O)c2c(c1)C(=O)c1cc(O)cc(O)c1C2=O
REMARK SMILES IDX 1 1 2 2 8 3 7 4 6 5 4 6 3 7 19 8 20 9 18 10 11 11 9 12 10 13
REMARK SMILES IDX 12 14 13 15 15 16 16 17 5 18 17 20 14 22
REMARK H PARENT 5 19 17 21 14 23
REMARK Flexibility Score: inf
ROOT
ATOM      1  C   UNL     1      16.210 -13.971  19.292  1.00  0.00     0.044 C 
ATOM      2  C   UNL     1      15.756 -15.300  18.762  1.00  0.00    -0.047 A 
ATOM      3  C   UNL     1      15.554 -16.374  19.636  1.00  0.00     0.016 A 
ATOM      4  C   UNL     1      15.156 -17.629  19.146  1.00  0.00     0.038 A 
ATOM      5  C   UNL     1      14.957 -17.813  17.760  1.00  0.00     0.076 A 
ATOM      6  C   UNL     1      15.246 -16.744  16.873  1.00  0.00     0.127 A 
ATOM      7  C   UNL     1      15.621 -15.498  17.384  1.00  0.00     0.050 A 
ATOM      8  C   UNL     1      14.395 -19.107  17.296  1.00  0.00     0.201 C 
ATOM      9  O   UNL     1      13.688 -19.146  16.254  1.00  0.00    -0.288 OA
ATOM     10  C   UNL     1      14.509 -20.313  18.158  1.00  0.00     0.076 A 
ATOM     11  C   UNL     1      14.711 -20.125  19.545  1.00  0.00     0.041 A 
ATOM     12  C   UNL     1      14.951 -18.763  20.079  1.00  0.00     0.194 C 
ATOM     13  O   UNL     1      15.006 -18.575  21.325  1.00  0.00    -0.289 OA
ATOM     14  C   UNL     1      14.686 -21.231  20.410  1.00  0.00     0.059 A 
ATOM     15  C   UNL     1      14.480 -22.517  19.911  1.00  0.00     0.120 A 
ATOM     16  C   UNL     1      14.321 -22.713  18.537  1.00  0.00     0.093 A 
ATOM     17  C   UNL     1      14.361 -21.630  17.652  1.00  0.00     0.131 A 
ENDROOT
BRANCH   6  18
ATOM     18  O   UNL     1      15.209 -16.886  15.483  1.00  0.00    -0.507 OA
ATOM     19  H   UNL     1      16.034 -16.897  14.901  1.00  0.00     0.293 HD
ENDBRANCH   6  18
BRANCH  17  20
ATOM     20  O   UNL     1      14.287 -21.912  16.287  1.00  0.00    -0.507 OA
ATOM     21  H   UNL     1      14.104 -22.834  15.916  1.00  0.00     0.293 HD
ENDBRANCH  17  20
BRANCH  15  22
ATOM     22  O   UNL     1      14.448 -23.598  20.790  1.00  0.00    -0.508 OA
ATOM     23  H   UNL     1      14.246 -24.537  20.469  1.00  0.00     0.293 HD
ENDBRANCH  15  22
TORSDOF 3
ENDMDL
MODEL 4
REMARK VINA RESULT:    -6.217      2.322      5.846
REMARK INTER + INTRA:          -6.762
REMARK INTER:                  -6.762
REMARK INTRA:                   0.000
REMARK UNBOUND:                 0.000
REMARK SMILES Cc1cc(O)c2c(c1)C(=O)c1cc(O)cc(O)c1C2=O
REMARK SMILES IDX 1 1 2 2 8 3 7 4 6 5 4 6 3 7 19 8 20 9 18 10 11 11 9 12 10 13
REMARK SMILES IDX 12 14 13 15 15 16 16 17 5 18 17 20 14 22
REMARK H PARENT 5 19 17 21 14 23
REMARK Flexibility Score: inf
ROOT
ATOM      1  C   UNL     1      13.946 -23.448  17.751  1.00  0.00     0.044 C 
ATOM      2  C   UNL     1      14.389 -22.089  18.210  1.00  0.00    -0.047 A 
ATOM      3  C   UNL     1      14.230 -20.977  17.376  1.00  0.00     0.016 A 
ATOM      4  C   UNL     1      14.667 -19.707  17.785  1.00  0.00     0.038 A 
ATOM      5  C   UNL     1      15.275 -19.546  19.050  1.00  0.00     0.076 A 
ATOM      6  C   UNL     1      15.510 -20.690  19.855  1.00  0.00     0.127 A 
ATOM      7  C   UNL     1      15.047 -21.941  19.435  1.00  0.00     0.050 A 
ATOM      8  C   UNL     1      15.588 -18.168  19.509  1.00  0.00     0.201 C 
ATOM      9  O   UNL     1      15.574 -17.899  20.740  1.00  0.00    -0.288 OA
ATOM     10  C   UNL     1      15.731 -17.073  18.514  1.00  0.00     0.076 A 
ATOM     11  C   UNL     1      15.125 -17.239  17.248  1.00  0.00     0.041 A 
ATOM     12  C   UNL     1      14.501 -18.536  16.892  1.00  0.00     0.194 C 
ATOM     13  O   UNL     1      13.851 -18.648  15.816  1.00  0.00    -0.289 OA
ATOM     14  C   UNL     1      15.119 -16.175  16.332  1.00  0.00     0.059 A 
ATOM     15  C   UNL     1      15.722 -14.959  16.653  1.00  0.00     0.120 A 
ATOM     16  C   UNL     1      16.358 -14.804  17.888  1.00  0.00     0.093 A 
ATOM     17  C   UNL     1      16.394 -15.854  18.810  1.00  0.00     0.131 A 
ENDROOT
BRANCH   6  18
ATOM     18  O   UNL     1      16.226 -20.637  21.053  1.00  0.00    -0.507 OA
ATOM     19  H   UNL     1      15.930 -20.100  21.856  1.00  0.00     0.293 HD
ENDBRANCH   6  18
BRANCH  17  20
ATOM     20  O   UNL     1      17.126 -15.657  19.982  1.00  0.00    -0.507 OA
ATOM     21  H   UNL     1      17.940 -15.061  20.038  1.00  0.00     0.293 HD
ENDBRANCH  17  20
BRANCH  15  22
ATOM     22  O   UNL     1      15.694 -13.913  15.733  1.00  0.00    -0.508 OA
ATOM     23  H   UNL     1      15.237 -14.009  14.835  1.00  0.00     0.293 HD
ENDBRANCH  15  22
TORSDOF 3
ENDMDL
MODEL 5
REMARK VINA RESULT:    -6.087      2.361      3.112
REMARK INTER + INTRA:          -6.620
REMARK INTER:                  -6.620
REMARK INTRA:                   0.000
REMARK UNBOUND:                 0.000
REMARK SMILES Cc1cc(O)c2c(c1)C(=O)c1cc(O)cc(O)c1C2=O
REMARK SMILES IDX 1 1 2 2 8 3 7 4 6 5 4 6 3 7 19 8 20 9 18 10 11 11 9 12 10 13
REMARK SMILES IDX 12 14 13 15 15 16 16 17 5 18 17 20 14 22
REMARK H PARENT 5 19 17 21 14 23
REMARK Flexibility Score: inf
ROOT
ATOM      1  C   UNL     1      18.376 -13.382  15.456  1.00  0.00     0.044 C 
ATOM      2  C   UNL     1      17.590 -14.338  16.305  1.00  0.00    -0.047 A 
ATOM      3  C   UNL     1      17.476 -15.682  15.932  1.00  0.00     0.016 A 
ATOM      4  C   UNL     1      16.719 -16.577  16.705  1.00  0.00     0.038 A 
ATOM      5  C   UNL     1      16.064 -16.122  17.871  1.00  0.00     0.076 A 
ATOM      6  C   UNL     1      16.114 -14.742  18.197  1.00  0.00     0.127 A 
ATOM      7  C   UNL     1      16.891 -13.873  17.424  1.00  0.00     0.050 A 
ATOM      8  C   UNL     1      15.399 -17.126  18.741  1.00  0.00     0.201 C 
ATOM      9  O   UNL     1      15.318 -16.923  19.982  1.00  0.00    -0.288 OA
ATOM     10  C   UNL     1      15.001 -18.442  18.178  1.00  0.00     0.076 A 
ATOM     11  C   UNL     1      15.656 -18.894  17.009  1.00  0.00     0.041 A 
ATOM     12  C   UNL     1      16.599 -17.998  16.298  1.00  0.00     0.194 C 
ATOM     13  O   UNL     1      17.278 -18.439  15.330  1.00  0.00    -0.289 OA
ATOM     14  C   UNL     1      15.408 -20.189  16.526  1.00  0.00     0.059 A 
ATOM     15  C   UNL     1      14.507 -21.030  17.180  1.00  0.00     0.120 A 
ATOM     16  C   UNL     1      13.827 -20.573  18.312  1.00  0.00     0.093 A 
ATOM     17  C   UNL     1      14.042 -19.281  18.802  1.00  0.00     0.131 A 
ENDROOT
BRANCH   6  18
ATOM     18  O   UNL     1      15.383 -14.189  19.251  1.00  0.00    -0.507 OA
ATOM     19  H   UNL     1      15.779 -13.559  19.935  1.00  0.00     0.293 HD
ENDBRANCH   6  18
BRANCH  17  20
ATOM     20  O   UNL     1      13.259 -18.863  19.880  1.00  0.00    -0.507 OA
ATOM     21  H   UNL     1      12.381 -18.374  19.776  1.00  0.00     0.293 HD
ENDBRANCH  17  20
BRANCH  15  22
ATOM     22  O   UNL     1      14.286 -22.315  16.689  1.00  0.00    -0.508 OA
ATOM     23  H   UNL     1      13.515 -22.883  17.019  1.00  0.00     0.293 HD
ENDBRANCH  15  22
TORSDOF 3
ENDMDL
MODEL 6
REMARK VINA RESULT:    -5.937      1.274      3.429
REMARK INTER + INTRA:          -6.457
REMARK INTER:                  -6.457
REMARK INTRA:                   0.000
REMARK UNBOUND:                 0.000
REMARK SMILES Cc1cc(O)c2c(c1)C(=O)c1cc(O)cc(O)c1C2=O
REMARK SMILES IDX 1 1 2 2 8 3 7 4 6 5 4 6 3 7 19 8 20 9 18 10 11 11 9 12 10 13
REMARK SMILES IDX 12 14 13 15 15 16 16 17 5 18 17 20 14 22
REMARK H PARENT 5 19 17 21 14 23
REMARK Flexibility Score: inf
ROOT
ATOM      1  C   UNL     1      17.626 -15.531  16.255  1.00  0.00     0.044 C 
ATOM      2  C   UNL     1      16.858 -16.791  16.531  1.00  0.00    -0.047 A 
ATOM      3  C   UNL     1      17.506 -17.904  17.079  1.00  0.00     0.016 A 
ATOM      4  C   UNL     1      16.802 -19.097  17.314  1.00  0.00     0.038 A 
ATOM      5  C   UNL     1      15.428 -19.179  16.996  1.00  0.00     0.076 A 
ATOM      6  C   UNL     1      14.800 -18.075  16.363  1.00  0.00     0.127 A 
ATOM      7  C   UNL     1      15.514 -16.892  16.157  1.00  0.00     0.050 A 
ATOM      8  C   UNL     1      14.686 -20.401  17.395  1.00  0.00     0.201 C 
ATOM      9  O   UNL     1      13.459 -20.327  17.670  1.00  0.00    -0.288 OA
ATOM     10  C   UNL     1      15.426 -21.664  17.650  1.00  0.00     0.076 A 
ATOM     11  C   UNL     1      16.802 -21.580  17.965  1.00  0.00     0.041 A 
ATOM     12  C   UNL     1      17.498 -20.273  17.889  1.00  0.00     0.194 C 
ATOM     13  O   UNL     1      18.690 -20.170  18.289  1.00  0.00    -0.289 OA
ATOM     14  C   UNL     1      17.503 -22.735  18.346  1.00  0.00     0.059 A 
ATOM     15  C   UNL     1      16.858 -23.971  18.401  1.00  0.00     0.120 A 
ATOM     16  C   UNL     1      15.509 -24.066  18.050  1.00  0.00     0.093 A 
ATOM     17  C   UNL     1      14.793 -22.934  17.649  1.00  0.00     0.131 A 
ENDROOT
BRANCH   6  18
ATOM     18  O   UNL     1      13.485 -18.125  15.892  1.00  0.00    -0.507 OA
ATOM     19  H   UNL     1      13.245 -18.231  14.916  1.00  0.00     0.293 HD
ENDBRANCH   6  18
BRANCH  17  20
ATOM     20  O   UNL     1      13.476 -23.122  17.226  1.00  0.00    -0.507 OA
ATOM     21  H   UNL     1      13.200 -23.150  16.254  1.00  0.00     0.293 HD
ENDBRANCH  17  20
BRANCH  15  22
ATOM     22  O   UNL     1      17.572 -25.102  18.793  1.00  0.00    -0.508 OA
ATOM     23  H   UNL     1      17.102 -25.952  19.078  1.00  0.00     0.293 HD
ENDBRANCH  15  22
TORSDOF 3
ENDMDL
MODEL 7
REMARK VINA RESULT:    -5.917      2.342      5.845
REMARK INTER + INTRA:          -6.435
REMARK INTER:                  -6.435
REMARK INTRA:                   0.000
REMARK UNBOUND:                 0.000
REMARK SMILES Cc1cc(O)c2c(c1)C(=O)c1cc(O)cc(O)c1C2=O
REMARK SMILES IDX 1 1 2 2 8 3 7 4 6 5 4 6 3 7 19 8 20 9 18 10 11 11 9 12 10 13
REMARK SMILES IDX 12 14 13 15 15 16 16 17 5 18 17 20 14 22
REMARK H PARENT 5 19 17 21 14 23
REMARK Flexibility Score: inf
ROOT
ATOM      1  C   UNL     1      14.855 -25.045  16.894  1.00  0.00     0.044 C 
ATOM      2  C   UNL     1      14.954 -23.699  17.549  1.00  0.00    -0.047 A 
ATOM      3  C   UNL     1      14.691 -22.537  16.814  1.00  0.00     0.016 A 
ATOM      4  C   UNL     1      14.807 -21.271  17.410  1.00  0.00     0.038 A 
ATOM      5  C   UNL     1      15.195 -21.164  18.764  1.00  0.00     0.076 A 
ATOM      6  C   UNL     1      15.541 -22.339  19.479  1.00  0.00     0.127 A 
ATOM      7  C   UNL     1      15.397 -23.590  18.871  1.00  0.00     0.050 A 
ATOM      8  C   UNL     1      15.163 -19.822  19.400  1.00  0.00     0.201 C 
ATOM      9  O   UNL     1      14.930 -19.718  20.634  1.00  0.00    -0.288 OA
ATOM     10  C   UNL     1      15.219 -18.602  18.553  1.00  0.00     0.076 A 
ATOM     11  C   UNL     1      14.834 -18.713  17.197  1.00  0.00     0.041 A 
ATOM     12  C   UNL     1      14.534 -20.046  16.621  1.00  0.00     0.194 C 
ATOM     13  O   UNL     1      14.070 -20.137  15.451  1.00  0.00    -0.289 OA
ATOM     14  C   UNL     1      14.741 -17.560  16.401  1.00  0.00     0.059 A 
ATOM     15  C   UNL     1      15.041 -16.306  16.931  1.00  0.00     0.120 A 
ATOM     16  C   UNL     1      15.461 -16.195  18.259  1.00  0.00     0.093 A 
ATOM     17  C   UNL     1      15.581 -17.330  19.067  1.00  0.00     0.131 A 
ENDROOT
BRANCH   6  18
ATOM     18  O   UNL     1      16.064 -22.308  20.774  1.00  0.00    -0.507 OA
ATOM     19  H   UNL     1      16.823 -21.705  21.056  1.00  0.00     0.293 HD
ENDBRANCH   6  18
BRANCH  17  20
ATOM     20  O   UNL     1      16.094 -17.153  20.354  1.00  0.00    -0.507 OA
ATOM     21  H   UNL     1      17.023 -17.440  20.629  1.00  0.00     0.293 HD
ENDBRANCH  17  20
BRANCH  15  22
ATOM     22  O   UNL     1      14.930 -15.174  16.126  1.00  0.00    -0.508 OA
ATOM     23  H   UNL     1      14.834 -14.248  16.523  1.00  0.00     0.293 HD
ENDBRANCH  15  22
TORSDOF 3
ENDMDL
MODEL 8
REMARK VINA RESULT:    -5.868      1.406      6.291
REMARK INTER + INTRA:          -6.382
REMARK INTER:                  -6.382
REMARK INTRA:                   0.000
REMARK UNBOUND:                 0.000
REMARK SMILES Cc1cc(O)c2c(c1)C(=O)c1cc(O)cc(O)c1C2=O
REMARK SMILES IDX 1 1 2 2 8 3 7 4 6 5 4 6 3 7 19 8 20 9 18 10 11 11 9 12 10 13
REMARK SMILES IDX 12 14 13 15 15 16 16 17 5 18 17 20 14 22
REMARK H PARENT 5 19 17 21 14 23
REMARK Flexibility Score: inf
ROOT
ATOM      1  C   UNL     1      17.280 -23.815  18.660  1.00  0.00     0.044 C 
ATOM      2  C   UNL     1      16.733 -22.523  18.128  1.00  0.00    -0.047 A 
ATOM      3  C   UNL     1      17.599 -21.471  17.807  1.00  0.00     0.016 A 
ATOM      4  C   UNL     1      17.095 -20.248  17.335  1.00  0.00     0.038 A 
ATOM      5  C   UNL     1      15.702 -20.073  17.181  1.00  0.00     0.076 A 
ATOM      6  C   UNL     1      14.826 -21.112  17.588  1.00  0.00     0.127 A 
ATOM      7  C   UNL     1      15.351 -22.328  18.035  1.00  0.00     0.050 A 
ATOM      8  C   UNL     1      15.217 -18.824  16.541  1.00  0.00     0.201 C 
ATOM      9  O   UNL     1      14.147 -18.835  15.877  1.00  0.00    -0.288 OA
ATOM     10  C   UNL     1      16.085 -17.617  16.526  1.00  0.00     0.076 A 
ATOM     11  C   UNL     1      17.479 -17.795  16.684  1.00  0.00     0.041 A 
ATOM     12  C   UNL     1      18.020 -19.137  17.005  1.00  0.00     0.194 C 
ATOM     13  O   UNL     1      19.268 -19.326  17.022  1.00  0.00    -0.289 OA
ATOM     14  C   UNL     1      18.344 -16.698  16.538  1.00  0.00     0.059 A 
ATOM     15  C   UNL     1      17.839 -15.429  16.255  1.00  0.00     0.120 A 
ATOM     16  C   UNL     1      16.459 -15.241  16.139  1.00  0.00     0.093 A 
ATOM     17  C   UNL     1      15.575 -16.312  16.298  1.00  0.00     0.131 A 
ENDROOT
BRANCH   6  18
ATOM     18  O   UNL     1      13.437 -20.967  17.598  1.00  0.00    -0.507 OA
ATOM     19  H   UNL     1      12.822 -21.516  18.182  1.00  0.00     0.293 HD
ENDBRANCH   6  18
BRANCH  17  20
ATOM     20  O   UNL     1      14.208 -16.031  16.260  1.00  0.00    -0.507 OA
ATOM     21  H   UNL     1      13.661 -16.038  15.411  1.00  0.00     0.293 HD
ENDBRANCH  17  20
BRANCH  15  22
ATOM     22  O   UNL     1      18.717 -14.358  16.103  1.00  0.00    -0.508 OA
ATOM     23  H   UNL     1      18.390 -13.438  15.835  1.00  0.00     0.293 HD
ENDBRANCH  15  22
TORSDOF 3
ENDMDL
MODEL 9
REMARK VINA RESULT:    -5.816      3.267      4.396
REMARK INTER + INTRA:          -6.327
REMARK INTER:                  -6.327
REMARK INTRA:                   0.000
REMARK UNBOUND:                 0.000
REMARK SMILES Cc1cc(O)c2c(c1)C(=O)c1cc(O)cc(O)c1C2=O
REMARK SMILES IDX 1 1 2 2 8 3 7 4 6 5 4 6 3 7 19 8 20 9 18 10 11 11 9 12 10 13
REMARK SMILES IDX 12 14 13 15 15 16 16 17 5 18 17 20 14 22
REMARK H PARENT 5 19 17 21 14 23
REMARK Flexibility Score: inf
ROOT
ATOM      1  C   UNL     1      15.959 -18.299  15.499  1.00  0.00     0.044 C 
ATOM      2  C   UNL     1      15.586 -18.874  16.834  1.00  0.00    -0.047 A 
ATOM      3  C   UNL     1      15.552 -20.260  17.019  1.00  0.00     0.016 A 
ATOM      4  C   UNL     1      15.177 -20.808  18.256  1.00  0.00     0.038 A 
ATOM      5  C   UNL     1      14.828 -19.956  19.327  1.00  0.00     0.076 A 
ATOM      6  C   UNL     1      14.782 -18.555  19.107  1.00  0.00     0.127 A 
ATOM      7  C   UNL     1      15.180 -18.031  17.874  1.00  0.00     0.050 A 
ATOM      8  C   UNL     1      14.582 -20.564  20.659  1.00  0.00     0.201 C 
ATOM      9  O   UNL     1      14.832 -19.908  21.705  1.00  0.00    -0.288 OA
ATOM     10  C   UNL     1      14.221 -22.003  20.758  1.00  0.00     0.076 A 
ATOM     11  C   UNL     1      14.568 -22.853  19.683  1.00  0.00     0.041 A 
ATOM     12  C   UNL     1      15.137 -22.279  18.441  1.00  0.00     0.194 C 
ATOM     13  O   UNL     1      15.564 -23.042  17.531  1.00  0.00    -0.289 OA
ATOM     14  C   UNL     1      14.369 -24.239  19.797  1.00  0.00     0.059 A 
ATOM     15  C   UNL     1      13.815 -24.783  20.955  1.00  0.00     0.120 A 
ATOM     16  C   UNL     1      13.432 -23.943  22.004  1.00  0.00     0.093 A 
ATOM     17  C   UNL     1      13.602 -22.558  21.908  1.00  0.00     0.131 A 
ENDROOT
BRANCH   6  18
ATOM     18  O   UNL     1      14.316 -17.655  20.069  1.00  0.00    -0.507 OA
ATOM     19  H   UNL     1      13.550 -17.855  20.697  1.00  0.00     0.293 HD
ENDBRANCH   6  18
BRANCH  17  20
ATOM     20  O   UNL     1      13.112 -21.775  22.955  1.00  0.00    -0.507 OA
ATOM     21  H   UNL     1      13.088 -22.083  23.918  1.00  0.00     0.293 HD
ENDBRANCH  17  20
BRANCH  15  22
ATOM     22  O   UNL     1      13.638 -26.162  21.050  1.00  0.00    -0.508 OA
ATOM     23  H   UNL     1      14.383 -26.772  21.362  1.00  0.00     0.293 HD
ENDBRANCH  15  22
TORSDOF 3
ENDMDL
