MODEL 1
REMARK VINA RESULT:    -3.983      0.000      0.000
REMARK INTER + INTRA:          -5.078
REMARK INTER:                  -4.798
REMARK INTRA:                  -0.280
REMARK UNBOUND:                -0.280
REMARK SMILES NC(=O)C[C@@H]([NH3+])C(=O)[O-]
REMARK SMILES IDX 4 1 5 2 6 3 7 7 8 8 9 9 2 10 3 11 1 12
REMARK H PARENT 6 4 6 5 6 6 1 13 1 14
REMARK Flexibility Score: inf
ROOT
ATOM      1  C   UNL     1      -5.061 -19.878 -12.627  1.00  0.00     0.171 C 
ENDROOT
BRANCH   1   2
ATOM      2  C   UNL     1      -5.663 -20.962 -11.710  1.00  0.00     0.237 C 
BRANCH   2   3
ATOM      3  N   UNL     1      -6.494 -21.888 -12.488  1.00  0.00    -0.350 N 
ATOM      4  H   UNL     1      -5.953 -22.245 -13.309  1.00  0.00     0.345 HD
ATOM      5  H   UNL     1      -6.794 -22.699 -11.899  1.00  0.00     0.345 HD
ATOM      6  H   UNL     1      -7.341 -21.390 -12.847  1.00  0.00     0.345 HD
ENDBRANCH   2   3
BRANCH   2   7
ATOM      7  C   UNL     1      -4.579 -21.721 -10.989  1.00  0.00     0.100 C 
ATOM      8  O   UNL     1      -3.919 -22.606 -11.592  1.00  0.00    -0.544 OA
ATOM      9  O   UNL     1      -4.306 -21.454  -9.653  1.00  0.00    -0.544 OA
ENDBRANCH   2   7
ENDBRANCH   1   2
BRANCH   1  10
ATOM     10  C   UNL     1      -6.066 -19.377 -13.624  1.00  0.00     0.223 C 
ATOM     11  O   UNL     1      -6.061 -19.827 -14.800  1.00  0.00    -0.275 OA
ATOM     12  N   UNL     1      -7.004 -18.366 -13.258  1.00  0.00    -0.369 N 
ATOM     13  H   UNL     1      -7.693 -18.008 -13.956  1.00  0.00     0.159 HD
ATOM     14  H   UNL     1      -7.011 -17.971 -12.291  1.00  0.00     0.159 HD
ENDBRANCH   1  10
TORSDOF 4
ENDMDL
MODEL 2
REMARK VINA RESULT:    -3.876      2.508      5.370
REMARK INTER + INTRA:          -4.949
REMARK INTER:                  -4.748
REMARK INTRA:                  -0.201
REMARK UNBOUND:                -0.280
REMARK SMILES NC(=O)C[C@@H]([NH3+])C(=O)[O-]
REMARK SMILES IDX 4 1 5 2 6 3 7 7 8 8 9 9 2 10 3 11 1 12
REMARK H PARENT 6 4 6 5 6 6 1 13 1 14
REMARK Flexibility Score: inf
ROOT
ATOM      1  C   UNL     1      -6.373 -19.190 -14.641  1.00  0.00     0.171 C 
ENDROOT
BRANCH   1   2
ATOM      2  C   UNL     1      -7.373 -18.032 -14.453  1.00  0.00     0.237 C 
BRANCH   2   3
ATOM      3  N   UNL     1      -6.660 -16.762 -14.277  1.00  0.00    -0.350 N 
ATOM      4  H   UNL     1      -6.430 -16.622 -13.265  1.00  0.00     0.345 HD
ATOM      5  H   UNL     1      -5.774 -16.755 -14.833  1.00  0.00     0.345 HD
ATOM      6  H   UNL     1      -7.267 -15.968 -14.586  1.00  0.00     0.345 HD
ENDBRANCH   2   3
BRANCH   2   7
ATOM      7  C   UNL     1      -8.315 -17.938 -15.625  1.00  0.00     0.100 C 
ATOM      8  O   UNL     1      -7.861 -17.858 -16.796  1.00  0.00    -0.544 OA
ATOM      9  O   UNL     1      -9.690 -17.931 -15.421  1.00  0.00    -0.544 OA
ENDBRANCH   2   7
ENDBRANCH   1   2
BRANCH   1  10
ATOM     10  C   UNL     1      -6.026 -19.841 -13.333  1.00  0.00     0.223 C 
ATOM     11  O   UNL     1      -5.404 -19.188 -12.453  1.00  0.00    -0.275 OA
ATOM     12  N   UNL     1      -6.365 -21.206 -13.093  1.00  0.00    -0.369 N 
ATOM     13  H   UNL     1      -6.111 -21.661 -12.188  1.00  0.00     0.159 HD
ATOM     14  H   UNL     1      -6.866 -21.765 -13.818  1.00  0.00     0.159 HD
ENDBRANCH   1  10
TORSDOF 4
ENDMDL
MODEL 3
REMARK VINA RESULT:    -3.849      1.740      4.231
REMARK INTER + INTRA:          -4.916
REMARK INTER:                  -4.646
REMARK INTRA:                  -0.270
REMARK UNBOUND:                -0.280
REMARK SMILES NC(=O)C[C@@H]([NH3+])C(=O)[O-]
REMARK SMILES IDX 4 1 5 2 6 3 7 7 8 8 9 9 2 10 3 11 1 12
REMARK H PARENT 6 4 6 5 6 6 1 13 1 14
REMARK Flexibility Score: inf
ROOT
ATOM      1  C   UNL     1      -5.769 -19.524 -11.909  1.00  0.00     0.171 C 
ENDROOT
BRANCH   1   2
ATOM      2  C   UNL     1      -5.860 -19.382 -13.442  1.00  0.00     0.237 C 
BRANCH   2   3
ATOM      3  N   UNL     1      -6.381 -20.616 -14.041  1.00  0.00    -0.350 N 
ATOM      4  H   UNL     1      -7.390 -20.736 -13.787  1.00  0.00     0.345 HD
ATOM      5  H   UNL     1      -6.292 -20.588 -15.083  1.00  0.00     0.345 HD
ATOM      6  H   UNL     1      -5.853 -21.441 -13.672  1.00  0.00     0.345 HD
ENDBRANCH   2   3
BRANCH   2   7
ATOM      7  C   UNL     1      -6.733 -18.214 -13.823  1.00  0.00     0.100 C 
ATOM      8  O   UNL     1      -7.520 -17.711 -12.980  1.00  0.00    -0.544 OA
ATOM      9  O   UNL     1      -6.681 -17.691 -15.110  1.00  0.00    -0.544 OA
ENDBRANCH   2   7
ENDBRANCH   1   2
BRANCH   1  10
ATOM     10  C   UNL     1      -5.847 -20.962 -11.481  1.00  0.00     0.223 C 
ATOM     11  O   UNL     1      -4.911 -21.754 -11.770  1.00  0.00    -0.275 OA
ATOM     12  N   UNL     1      -6.992 -21.446 -10.780  1.00  0.00    -0.369 N 
ATOM     13  H   UNL     1      -7.051 -22.448 -10.495  1.00  0.00     0.159 HD
ATOM     14  H   UNL     1      -7.783 -20.805 -10.547  1.00  0.00     0.159 HD
ENDBRANCH   1  10
TORSDOF 4
ENDMDL
MODEL 4
REMARK VINA RESULT:    -3.790      3.199      4.984
REMARK INTER + INTRA:          -4.845
REMARK INTER:                  -4.585
REMARK INTRA:                  -0.260
REMARK UNBOUND:                -0.280
REMARK SMILES NC(=O)C[C@@H]([NH3+])C(=O)[O-]
REMARK SMILES IDX 4 1 5 2 6 3 7 7 8 8 9 9 2 10 3 11 1 12
REMARK H PARENT 6 4 6 5 6 6 1 13 1 14
REMARK Flexibility Score: inf
ROOT
ATOM      1  C   UNL     1      -3.322 -23.579 -11.873  1.00  0.00     0.171 C 
ENDROOT
BRANCH   1   2
ATOM      2  C   UNL     1      -3.304 -22.300 -11.012  1.00  0.00     0.237 C 
BRANCH   2   3
ATOM      3  N   UNL     1      -2.415 -21.295 -11.606  1.00  0.00    -0.350 N 
ATOM      4  H   UNL     1      -2.875 -20.863 -12.440  1.00  0.00     0.345 HD
ATOM      5  H   UNL     1      -2.190 -20.544 -10.912  1.00  0.00     0.345 HD
ATOM      6  H   UNL     1      -1.527 -21.749 -11.922  1.00  0.00     0.345 HD
ENDBRANCH   2   3
BRANCH   2   7
ATOM      7  C   UNL     1      -4.693 -21.734 -10.859  1.00  0.00     0.100 C 
ATOM      8  O   UNL     1      -5.557 -21.927 -11.753  1.00  0.00    -0.544 OA
ATOM      9  O   UNL     1      -5.026 -20.990  -9.733  1.00  0.00    -0.544 OA
ENDBRANCH   2   7
ENDBRANCH   1   2
BRANCH   1  10
ATOM     10  C   UNL     1      -2.005 -24.297 -11.824  1.00  0.00     0.223 C 
ATOM     11  O   UNL     1      -1.085 -23.871 -11.077  1.00  0.00    -0.275 OA
ATOM     12  N   UNL     1      -1.774 -25.440 -12.648  1.00  0.00    -0.369 N 
ATOM     13  H   UNL     1      -0.853 -25.930 -12.623  1.00  0.00     0.159 HD
ATOM     14  H   UNL     1      -2.521 -25.796 -13.285  1.00  0.00     0.159 HD
ENDBRANCH   1  10
TORSDOF 4
ENDMDL
MODEL 5
REMARK VINA RESULT:    -3.763      2.007      3.952
REMARK INTER + INTRA:          -4.813
REMARK INTER:                  -4.686
REMARK INTRA:                  -0.127
REMARK UNBOUND:                -0.280
REMARK SMILES NC(=O)C[C@@H]([NH3+])C(=O)[O-]
REMARK SMILES IDX 4 1 5 2 6 3 7 7 8 8 9 9 2 10 3 11 1 12
REMARK H PARENT 6 4 6 5 6 6 1 13 1 14
REMARK Flexibility Score: inf
ROOT
ATOM      1  C   UNL     1      -4.677 -21.983 -10.928  1.00  0.00     0.171 C 
ENDROOT
BRANCH   1   2
ATOM      2  C   UNL     1      -5.612 -21.849 -12.147  1.00  0.00     0.237 C 
BRANCH   2   3
ATOM      3  N   UNL     1      -6.928 -22.425 -11.849  1.00  0.00    -0.350 N 
ATOM      4  H   UNL     1      -6.811 -23.365 -11.404  1.00  0.00     0.345 HD
ATOM      5  H   UNL     1      -7.465 -21.804 -11.200  1.00  0.00     0.345 HD
ATOM      6  H   UNL     1      -7.470 -22.549 -12.735  1.00  0.00     0.345 HD
ENDBRANCH   2   3
BRANCH   2   7
ATOM      7  C   UNL     1      -5.759 -20.407 -12.557  1.00  0.00     0.100 C 
ATOM      8  O   UNL     1      -5.592 -19.489 -11.712  1.00  0.00    -0.544 OA
ATOM      9  O   UNL     1      -6.089 -20.080 -13.867  1.00  0.00    -0.544 OA
ENDBRANCH   2   7
ENDBRANCH   1   2
BRANCH   1  10
ATOM     10  C   UNL     1      -3.280 -22.349 -11.339  1.00  0.00     0.223 C 
ATOM     11  O   UNL     1      -2.964 -23.561 -11.476  1.00  0.00    -0.275 OA
ATOM     12  N   UNL     1      -2.297 -21.334 -11.541  1.00  0.00    -0.369 N 
ATOM     13  H   UNL     1      -1.322 -21.591 -11.813  1.00  0.00     0.159 HD
ATOM     14  H   UNL     1      -2.540 -20.326 -11.416  1.00  0.00     0.159 HD
ENDBRANCH   1  10
TORSDOF 4
ENDMDL
MODEL 6
REMARK VINA RESULT:    -3.691     11.205     12.334
REMARK INTER + INTRA:          -4.726
REMARK INTER:                  -4.441
REMARK INTRA:                  -0.285
REMARK UNBOUND:                -0.280
REMARK SMILES NC(=O)C[C@@H]([NH3+])C(=O)[O-]
REMARK SMILES IDX 4 1 5 2 6 3 7 7 8 8 9 9 2 10 3 11 1 12
REMARK H PARENT 6 4 6 5 6 6 1 13 1 14
REMARK Flexibility Score: inf
ROOT
ATOM      1  C   UNL     1       3.591 -28.786 -11.135  1.00  0.00     0.171 C 
ENDROOT
BRANCH   1   2
ATOM      2  C   UNL     1       2.659 -29.230 -12.280  1.00  0.00     0.237 C 
BRANCH   2   3
ATOM      3  N   UNL     1       2.952 -28.472 -13.502  1.00  0.00    -0.350 N 
ATOM      4  H   UNL     1       3.627 -27.702 -13.288  1.00  0.00     0.345 HD
ATOM      5  H   UNL     1       3.365 -29.095 -14.234  1.00  0.00     0.345 HD
ATOM      6  H   UNL     1       2.073 -28.041 -13.872  1.00  0.00     0.345 HD
ENDBRANCH   2   3
BRANCH   2   7
ATOM      7  C   UNL     1       2.795 -30.707 -12.543  1.00  0.00     0.100 C 
ATOM      8  O   UNL     1       1.816 -31.476 -12.356  1.00  0.00    -0.544 OA
ATOM      9  O   UNL     1       4.004 -31.232 -12.985  1.00  0.00    -0.544 OA
ENDBRANCH   2   7
ENDBRANCH   1   2
BRANCH   1  10
ATOM     10  C   UNL     1       3.674 -27.290 -11.037  1.00  0.00     0.223 C 
ATOM     11  O   UNL     1       2.628 -26.596 -11.143  1.00  0.00    -0.275 OA
ATOM     12  N   UNL     1       4.935 -26.646 -10.860  1.00  0.00    -0.369 N 
ATOM     13  H   UNL     1       4.993 -25.605 -10.806  1.00  0.00     0.159 HD
ATOM     14  H   UNL     1       5.813 -27.207 -10.786  1.00  0.00     0.159 HD
ENDBRANCH   1  10
TORSDOF 4
ENDMDL
MODEL 7
REMARK VINA RESULT:    -3.654      2.742      3.315
REMARK INTER + INTRA:          -4.682
REMARK INTER:                  -4.236
REMARK INTRA:                  -0.446
REMARK UNBOUND:                -0.280
REMARK SMILES NC(=O)C[C@@H]([NH3+])C(=O)[O-]
REMARK SMILES IDX 4 1 5 2 6 3 7 7 8 8 9 9 2 10 3 11 1 12
REMARK H PARENT 6 4 6 5 6 6 1 13 1 14
REMARK Flexibility Score: inf
ROOT
ATOM      1  C   UNL     1      -4.730 -21.257 -11.724  1.00  0.00     0.171 C 
ENDROOT
BRANCH   1   2
ATOM      2  C   UNL     1      -3.629 -21.887 -10.847  1.00  0.00     0.237 C 
BRANCH   2   3
ATOM      3  N   UNL     1      -4.212 -22.470  -9.634  1.00  0.00    -0.350 N 
ATOM      4  H   UNL     1      -5.050 -21.916  -9.341  1.00  0.00     0.345 HD
ATOM      5  H   UNL     1      -4.501 -23.462  -9.802  1.00  0.00     0.345 HD
ATOM      6  H   UNL     1      -3.514 -22.442  -8.855  1.00  0.00     0.345 HD
ENDBRANCH   2   3
BRANCH   2   7
ATOM      7  C   UNL     1      -2.868 -22.939 -11.612  1.00  0.00     0.100 C 
ATOM      8  O   UNL     1      -3.419 -24.032 -11.903  1.00  0.00    -0.544 OA
ATOM      9  O   UNL     1      -1.551 -22.713 -11.994  1.00  0.00    -0.544 OA
ENDBRANCH   2   7
ENDBRANCH   1   2
BRANCH   1  10
ATOM     10  C   UNL     1      -6.080 -21.841 -11.423  1.00  0.00     0.223 C 
ATOM     11  O   UNL     1      -6.762 -21.385 -10.466  1.00  0.00    -0.275 OA
ATOM     12  N   UNL     1      -6.581 -22.935 -12.190  1.00  0.00    -0.369 N 
ATOM     13  H   UNL     1      -7.514 -23.350 -11.970  1.00  0.00     0.159 HD
ATOM     14  H   UNL     1      -6.021 -23.335 -12.975  1.00  0.00     0.159 HD
ENDBRANCH   1  10
TORSDOF 4
ENDMDL
MODEL 8
REMARK VINA RESULT:    -3.627      5.284      5.839
REMARK INTER + INTRA:          -4.649
REMARK INTER:                  -4.534
REMARK INTRA:                  -0.115
REMARK UNBOUND:                -0.280
REMARK SMILES NC(=O)C[C@@H]([NH3+])C(=O)[O-]
REMARK SMILES IDX 4 1 5 2 6 3 7 7 8 8 9 9 2 10 3 11 1 12
REMARK H PARENT 6 4 6 5 6 6 1 13 1 14
REMARK Flexibility Score: inf
ROOT
ATOM      1  C   UNL     1      -1.331 -23.134 -12.051  1.00  0.00     0.171 C 
ENDROOT
BRANCH   1   2
ATOM      2  C   UNL     1      -0.670 -23.204 -10.660  1.00  0.00     0.237 C 
BRANCH   2   3
ATOM      3  N   UNL     1       0.775 -23.423 -10.790  1.00  0.00    -0.350 N 
ATOM      4  H   UNL     1       1.292 -22.559 -10.506  1.00  0.00     0.345 HD
ATOM      5  H   UNL     1       1.085 -24.220 -10.187  1.00  0.00     0.345 HD
ATOM      6  H   UNL     1       1.015 -23.633 -11.787  1.00  0.00     0.345 HD
ENDBRANCH   2   3
BRANCH   2   7
ATOM      7  C   UNL     1      -0.933 -21.945  -9.874  1.00  0.00     0.100 C 
ATOM      8  O   UNL     1      -2.043 -21.773  -9.309  1.00  0.00    -0.544 OA
ATOM      9  O   UNL     1       0.045 -20.963  -9.777  1.00  0.00    -0.544 OA
ENDBRANCH   2   7
ENDBRANCH   1   2
BRANCH   1  10
ATOM     10  C   UNL     1      -2.322 -24.245 -12.249  1.00  0.00     0.223 C 
ATOM     11  O   UNL     1      -3.532 -24.069 -11.945  1.00  0.00    -0.275 OA
ATOM     12  N   UNL     1      -1.895 -25.513 -12.746  1.00  0.00    -0.369 N 
ATOM     13  H   UNL     1      -2.583 -26.289 -12.870  1.00  0.00     0.159 HD
ATOM     14  H   UNL     1      -0.893 -25.680 -12.987  1.00  0.00     0.159 HD
ENDBRANCH   1  10
TORSDOF 4
ENDMDL
MODEL 9
REMARK VINA RESULT:    -3.611      3.316      4.766
REMARK INTER + INTRA:          -4.630
REMARK INTER:                  -4.367
REMARK INTRA:                  -0.263
REMARK UNBOUND:                -0.280
REMARK SMILES NC(=O)C[C@@H]([NH3+])C(=O)[O-]
REMARK SMILES IDX 4 1 5 2 6 3 7 7 8 8 9 9 2 10 3 11 1 12
REMARK H PARENT 6 4 6 5 6 6 1 13 1 14
REMARK Flexibility Score: inf
ROOT
ATOM      1  C   UNL     1      -2.236 -21.747 -11.699  1.00  0.00     0.171 C 
ENDROOT
BRANCH   1   2
ATOM      2  C   UNL     1      -3.617 -22.352 -11.374  1.00  0.00     0.237 C 
BRANCH   2   3
ATOM      3  N   UNL     1      -3.747 -22.587  -9.932  1.00  0.00    -0.350 N 
ATOM      4  H   UNL     1      -3.374 -23.535  -9.692  1.00  0.00     0.345 HD
ATOM      5  H   UNL     1      -3.218 -21.865  -9.390  1.00  0.00     0.345 HD
ATOM      6  H   UNL     1      -4.756 -22.554  -9.656  1.00  0.00     0.345 HD
ENDBRANCH   2   3
BRANCH   2   7
ATOM      7  C   UNL     1      -4.726 -21.451 -11.854  1.00  0.00     0.100 C 
ATOM      8  O   UNL     1      -4.464 -20.293 -12.272  1.00  0.00    -0.544 OA
ATOM      9  O   UNL     1      -6.045 -21.888 -11.829  1.00  0.00    -0.544 OA
ENDBRANCH   2   7
ENDBRANCH   1   2
BRANCH   1  10
ATOM     10  C   UNL     1      -1.192 -22.812 -11.872  1.00  0.00     0.223 C 
ATOM     11  O   UNL     1      -1.402 -23.974 -11.432  1.00  0.00    -0.275 OA
ATOM     12  N   UNL     1       0.053 -22.508 -12.499  1.00  0.00    -0.369 N 
ATOM     13  H   UNL     1       0.784 -23.246 -12.606  1.00  0.00     0.159 HD
ATOM     14  H   UNL     1       0.249 -21.546 -12.854  1.00  0.00     0.159 HD
ENDBRANCH   1  10
TORSDOF 4
ENDMDL
