MODEL 1
REMARK VINA RESULT:    -3.422      0.000      0.000
REMARK INTER + INTRA:          -4.385
REMARK INTER:                  -4.123
REMARK INTRA:                  -0.263
REMARK UNBOUND:                -0.263
REMARK SMILES NC(=O)C[C@@H]([NH3+])C(=O)[O-]
REMARK SMILES IDX 4 1 5 2 6 3 7 7 8 8 9 9 2 10 3 11 1 12
REMARK H PARENT 6 4 6 5 6 6 1 13 1 14
REMARK Flexibility Score: inf
ROOT
ATOM      1  C   UNL     1      27.698   5.714  27.330  1.00  0.00     0.171 C 
ENDROOT
BRANCH   1   2
ATOM      2  C   UNL     1      27.816   7.135  27.917  1.00  0.00     0.237 C 
BRANCH   2   3
ATOM      3  N   UNL     1      26.763   8.019  27.400  1.00  0.00    -0.350 N 
ATOM      4  H   UNL     1      26.381   8.627  28.162  1.00  0.00     0.345 HD
ATOM      5  H   UNL     1      27.151   8.625  26.640  1.00  0.00     0.345 HD
ATOM      6  H   UNL     1      25.987   7.451  26.991  1.00  0.00     0.345 HD
ENDBRANCH   2   3
BRANCH   2   7
ATOM      7  C   UNL     1      27.744   7.070  29.419  1.00  0.00     0.100 C 
ATOM      8  O   UNL     1      28.768   6.773  30.090  1.00  0.00    -0.544 OA
ATOM      9  O   UNL     1      26.544   7.318  30.075  1.00  0.00    -0.544 OA
ENDBRANCH   2   7
ENDBRANCH   1   2
BRANCH   1  10
ATOM     10  C   UNL     1      27.372   5.743  25.866  1.00  0.00     0.223 C 
ATOM     11  O   UNL     1      28.148   6.328  25.064  1.00  0.00    -0.275 OA
ATOM     12  N   UNL     1      26.173   5.143  25.377  1.00  0.00    -0.369 N 
ATOM     13  H   UNL     1      25.506   4.674  26.030  1.00  0.00     0.159 HD
ATOM     14  H   UNL     1      25.944   5.175  24.359  1.00  0.00     0.159 HD
ENDBRANCH   1  10
TORSDOF 4
ENDMDL
MODEL 2
REMARK VINA RESULT:    -3.353      1.676      1.854
REMARK INTER + INTRA:          -4.302
REMARK INTER:                  -4.016
REMARK INTRA:                  -0.286
REMARK UNBOUND:                -0.263
REMARK SMILES NC(=O)C[C@@H]([NH3+])C(=O)[O-]
REMARK SMILES IDX 4 1 5 2 6 3 7 7 8 8 9 9 2 10 3 11 1 12
REMARK H PARENT 6 4 6 5 6 6 1 13 1 14
REMARK Flexibility Score: inf
ROOT
ATOM      1  C   UNL     1      27.763   6.256  28.268  1.00  0.00     0.171 C 
ENDROOT
BRANCH   1   2
ATOM      2  C   UNL     1      27.428   7.761  28.259  1.00  0.00     0.237 C 
BRANCH   2   3
ATOM      3  N   UNL     1      26.689   8.140  27.047  1.00  0.00    -0.350 N 
ATOM      4  H   UNL     1      26.218   9.065  27.174  1.00  0.00     0.345 HD
ATOM      5  H   UNL     1      27.346   8.198  26.235  1.00  0.00     0.345 HD
ATOM      6  H   UNL     1      25.970   7.414  26.825  1.00  0.00     0.345 HD
ENDBRANCH   2   3
BRANCH   2   7
ATOM      7  C   UNL     1      26.626   8.109  29.484  1.00  0.00     0.100 C 
ATOM      8  O   UNL     1      26.643   7.352  30.489  1.00  0.00    -0.544 OA
ATOM      9  O   UNL     1      25.845   9.259  29.507  1.00  0.00    -0.544 OA
ENDBRANCH   2   7
ENDBRANCH   1   2
BRANCH   1  10
ATOM     10  C   UNL     1      28.076   5.748  26.892  1.00  0.00     0.223 C 
ATOM     11  O   UNL     1      27.184   5.162  26.223  1.00  0.00    -0.275 OA
ATOM     12  N   UNL     1      29.388   5.892  26.347  1.00  0.00    -0.369 N 
ATOM     13  H   UNL     1      30.146   6.353  26.897  1.00  0.00     0.159 HD
ATOM     14  H   UNL     1      29.605   5.527  25.393  1.00  0.00     0.159 HD
ENDBRANCH   1  10
TORSDOF 4
ENDMDL
MODEL 3
REMARK VINA RESULT:    -3.268      2.407      3.407
REMARK INTER + INTRA:          -4.200
REMARK INTER:                  -3.768
REMARK INTRA:                  -0.432
REMARK UNBOUND:                -0.263
REMARK SMILES NC(=O)C[C@@H]([NH3+])C(=O)[O-]
REMARK SMILES IDX 4 1 5 2 6 3 7 7 8 8 9 9 2 10 3 11 1 12
REMARK H PARENT 6 4 6 5 6 6 1 13 1 14
REMARK Flexibility Score: inf
ROOT
ATOM      1  C   UNL     1      28.487   8.081  28.458  1.00  0.00     0.171 C 
ENDROOT
BRANCH   1   2
ATOM      2  C   UNL     1      27.542   8.908  27.562  1.00  0.00     0.237 C 
BRANCH   2   3
ATOM      3  N   UNL     1      26.651   8.042  26.777  1.00  0.00    -0.350 N 
ATOM      4  H   UNL     1      26.560   7.101  27.225  1.00  0.00     0.345 HD
ATOM      5  H   UNL     1      25.704   8.481  26.706  1.00  0.00     0.345 HD
ATOM      6  H   UNL     1      27.025   7.929  25.808  1.00  0.00     0.345 HD
ENDBRANCH   2   3
BRANCH   2   7
ATOM      7  C   UNL     1      26.732   9.848  28.414  1.00  0.00     0.100 C 
ATOM      8  O   UNL     1      27.098  11.043  28.564  1.00  0.00    -0.544 OA
ATOM      9  O   UNL     1      25.583   9.398  29.055  1.00  0.00    -0.544 OA
ENDBRANCH   2   7
ENDBRANCH   1   2
BRANCH   1  10
ATOM     10  C   UNL     1      27.778   6.919  29.089  1.00  0.00     0.223 C 
ATOM     11  O   UNL     1      27.631   5.848  28.442  1.00  0.00    -0.275 OA
ATOM     12  N   UNL     1      27.236   7.028  30.406  1.00  0.00    -0.369 N 
ATOM     13  H   UNL     1      27.327   7.916  30.948  1.00  0.00     0.159 HD
ATOM     14  H   UNL     1      26.734   6.221  30.837  1.00  0.00     0.159 HD
ENDBRANCH   1  10
TORSDOF 4
ENDMDL
MODEL 4
REMARK VINA RESULT:    -3.232      2.205      3.697
REMARK INTER + INTRA:          -4.156
REMARK INTER:                  -3.747
REMARK INTRA:                  -0.409
REMARK UNBOUND:                -0.263
REMARK SMILES NC(=O)C[C@@H]([NH3+])C(=O)[O-]
REMARK SMILES IDX 4 1 5 2 6 3 7 7 8 8 9 9 2 10 3 11 1 12
REMARK H PARENT 6 4 6 5 6 6 1 13 1 14
REMARK Flexibility Score: inf
ROOT
ATOM      1  C   UNL     1      27.753   6.352  28.386  1.00  0.00     0.171 C 
ENDROOT
BRANCH   1   2
ATOM      2  C   UNL     1      27.891   7.521  27.390  1.00  0.00     0.237 C 
BRANCH   2   3
ATOM      3  N   UNL     1      26.654   8.312  27.317  1.00  0.00    -0.350 N 
ATOM      4  H   UNL     1      26.605   8.996  28.108  1.00  0.00     0.345 HD
ATOM      5  H   UNL     1      26.621   8.833  26.410  1.00  0.00     0.345 HD
ATOM      6  H   UNL     1      25.822   7.681  27.354  1.00  0.00     0.345 HD
ENDBRANCH   2   3
BRANCH   2   7
ATOM      7  C   UNL     1      29.043   8.399  27.796  1.00  0.00     0.100 C 
ATOM      8  O   UNL     1      28.914   9.651  27.805  1.00  0.00    -0.544 OA
ATOM      9  O   UNL     1      30.264   7.835  28.147  1.00  0.00    -0.544 OA
ENDBRANCH   2   7
ENDBRANCH   1   2
BRANCH   1  10
ATOM     10  C   UNL     1      27.593   6.839  29.796  1.00  0.00     0.223 C 
ATOM     11  O   UNL     1      26.537   7.436  30.136  1.00  0.00    -0.275 OA
ATOM     12  N   UNL     1      28.641   6.663  30.748  1.00  0.00    -0.369 N 
ATOM     13  H   UNL     1      29.533   6.191  30.479  1.00  0.00     0.159 HD
ATOM     14  H   UNL     1      28.530   7.013  31.725  1.00  0.00     0.159 HD
ENDBRANCH   1  10
TORSDOF 4
ENDMDL
MODEL 5
REMARK VINA RESULT:    -3.181      2.955      3.534
REMARK INTER + INTRA:          -4.094
REMARK INTER:                  -3.652
REMARK INTRA:                  -0.442
REMARK UNBOUND:                -0.263
REMARK SMILES NC(=O)C[C@@H]([NH3+])C(=O)[O-]
REMARK SMILES IDX 4 1 5 2 6 3 7 7 8 8 9 9 2 10 3 11 1 12
REMARK H PARENT 6 4 6 5 6 6 1 13 1 14
REMARK Flexibility Score: inf
ROOT
ATOM      1  C   UNL     1      28.799   6.871  27.949  1.00  0.00     0.171 C 
ENDROOT
BRANCH   1   2
ATOM      2  C   UNL     1      27.768   6.765  29.091  1.00  0.00     0.237 C 
BRANCH   2   3
ATOM      3  N   UNL     1      28.426   6.666  30.401  1.00  0.00    -0.350 N 
ATOM      4  H   UNL     1      29.223   7.340  30.468  1.00  0.00     0.345 HD
ATOM      5  H   UNL     1      27.736   6.873  31.160  1.00  0.00     0.345 HD
ATOM      6  H   UNL     1      28.782   5.694  30.550  1.00  0.00     0.345 HD
ENDBRANCH   2   3
BRANCH   2   7
ATOM      7  C   UNL     1      26.854   7.960  29.060  1.00  0.00     0.100 C 
ATOM      8  O   UNL     1      26.223   8.302  30.095  1.00  0.00    -0.544 OA
ATOM      9  O   UNL     1      26.687   8.685  27.886  1.00  0.00    -0.544 OA
ENDBRANCH   2   7
ENDBRANCH   1   2
BRANCH   1  10
ATOM     10  C   UNL     1      29.927   7.795  28.303  1.00  0.00     0.223 C 
ATOM     11  O   UNL     1      30.875   7.379  29.020  1.00  0.00    -0.275 OA
ATOM     12  N   UNL     1      29.917   9.153  27.862  1.00  0.00    -0.369 N 
ATOM     13  H   UNL     1      29.128   9.521  27.287  1.00  0.00     0.159 HD
ATOM     14  H   UNL     1      30.699   9.795  28.120  1.00  0.00     0.159 HD
ENDBRANCH   1  10
TORSDOF 4
ENDMDL
MODEL 6
REMARK VINA RESULT:    -3.168      2.259      3.096
REMARK INTER + INTRA:          -4.079
REMARK INTER:                  -3.563
REMARK INTRA:                  -0.517
REMARK UNBOUND:                -0.263
REMARK SMILES NC(=O)C[C@@H]([NH3+])C(=O)[O-]
REMARK SMILES IDX 4 1 5 2 6 3 7 7 8 8 9 9 2 10 3 11 1 12
REMARK H PARENT 6 4 6 5 6 6 1 13 1 14
REMARK Flexibility Score: inf
ROOT
ATOM      1  C   UNL     1      28.431   9.047  27.936  1.00  0.00     0.171 C 
ENDROOT
BRANCH   1   2
ATOM      2  C   UNL     1      26.984   8.513  27.929  1.00  0.00     0.237 C 
BRANCH   2   3
ATOM      3  N   UNL     1      26.890   7.228  27.222  1.00  0.00    -0.350 N 
ATOM      4  H   UNL     1      27.433   7.256  26.329  1.00  0.00     0.345 HD
ATOM      5  H   UNL     1      27.264   6.463  27.829  1.00  0.00     0.345 HD
ATOM      6  H   UNL     1      25.890   7.009  27.011  1.00  0.00     0.345 HD
ENDBRANCH   2   3
BRANCH   2   7
ATOM      7  C   UNL     1      26.494   8.362  29.344  1.00  0.00     0.100 C 
ATOM      8  O   UNL     1      25.707   9.213  29.836  1.00  0.00    -0.544 OA
ATOM      9  O   UNL     1      26.919   7.293  30.123  1.00  0.00    -0.544 OA
ENDBRANCH   2   7
ENDBRANCH   1   2
BRANCH   1  10
ATOM     10  C   UNL     1      29.434   7.935  27.854  1.00  0.00     0.223 C 
ATOM     11  O   UNL     1      29.824   7.526  26.728  1.00  0.00    -0.275 OA
ATOM     12  N   UNL     1      29.925   7.312  29.041  1.00  0.00    -0.369 N 
ATOM     13  H   UNL     1      29.596   7.622  29.982  1.00  0.00     0.159 HD
ATOM     14  H   UNL     1      30.615   6.531  28.979  1.00  0.00     0.159 HD
ENDBRANCH   1  10
TORSDOF 4
ENDMDL
MODEL 7
REMARK VINA RESULT:    -3.144      1.924      3.849
REMARK INTER + INTRA:          -4.050
REMARK INTER:                  -3.930
REMARK INTRA:                  -0.120
REMARK UNBOUND:                -0.263
REMARK SMILES NC(=O)C[C@@H]([NH3+])C(=O)[O-]
REMARK SMILES IDX 4 1 5 2 6 3 7 7 8 8 9 9 2 10 3 11 1 12
REMARK H PARENT 6 4 6 5 6 6 1 13 1 14
REMARK Flexibility Score: inf
ROOT
ATOM      1  C   UNL     1      27.415   8.149  28.197  1.00  0.00     0.171 C 
ENDROOT
BRANCH   1   2
ATOM      2  C   UNL     1      27.727   6.755  27.616  1.00  0.00     0.237 C 
BRANCH   2   3
ATOM      3  N   UNL     1      26.946   6.494  26.398  1.00  0.00    -0.350 N 
ATOM      4  H   UNL     1      25.926   6.657  26.570  1.00  0.00     0.345 HD
ATOM      5  H   UNL     1      27.269   7.123  25.628  1.00  0.00     0.345 HD
ATOM      6  H   UNL     1      27.089   5.507  26.086  1.00  0.00     0.345 HD
ENDBRANCH   2   3
BRANCH   2   7
ATOM      7  C   UNL     1      29.198   6.648  27.318  1.00  0.00     0.100 C 
ATOM      8  O   UNL     1      29.603   5.910  26.382  1.00  0.00    -0.544 OA
ATOM      9  O   UNL     1      30.121   7.348  28.086  1.00  0.00    -0.544 OA
ENDBRANCH   2   7
ENDBRANCH   1   2
BRANCH   1  10
ATOM     10  C   UNL     1      26.693   8.054  29.509  1.00  0.00     0.223 C 
ATOM     11  O   UNL     1      25.714   8.813  29.741  1.00  0.00    -0.275 OA
ATOM     12  N   UNL     1      27.127   7.136  30.511  1.00  0.00    -0.369 N 
ATOM     13  H   UNL     1      27.950   6.516  30.346  1.00  0.00     0.159 HD
ATOM     14  H   UNL     1      26.628   7.081  31.427  1.00  0.00     0.159 HD
ENDBRANCH   1  10
TORSDOF 4
ENDMDL
MODEL 8
REMARK VINA RESULT:    -3.091      2.246      3.684
REMARK INTER + INTRA:          -3.986
REMARK INTER:                  -3.661
REMARK INTRA:                  -0.325
REMARK UNBOUND:                -0.263
REMARK SMILES NC(=O)C[C@@H]([NH3+])C(=O)[O-]
REMARK SMILES IDX 4 1 5 2 6 3 7 7 8 8 9 9 2 10 3 11 1 12
REMARK H PARENT 6 4 6 5 6 6 1 13 1 14
REMARK Flexibility Score: inf
ROOT
ATOM      1  C   UNL     1      26.822   7.701  29.965  1.00  0.00     0.171 C 
ENDROOT
BRANCH   1   2
ATOM      2  C   UNL     1      27.484   6.911  28.817  1.00  0.00     0.237 C 
BRANCH   2   3
ATOM      3  N   UNL     1      27.046   7.404  27.504  1.00  0.00    -0.350 N 
ATOM      4  H   UNL     1      26.478   8.277  27.606  1.00  0.00     0.345 HD
ATOM      5  H   UNL     1      27.880   7.606  26.905  1.00  0.00     0.345 HD
ATOM      6  H   UNL     1      26.474   6.675  27.020  1.00  0.00     0.345 HD
ENDBRANCH   2   3
BRANCH   2   7
ATOM      7  C   UNL     1      28.981   7.008  28.933  1.00  0.00     0.100 C 
ATOM      8  O   UNL     1      29.533   6.970  30.063  1.00  0.00    -0.544 OA
ATOM      9  O   UNL     1      29.764   7.160  27.794  1.00  0.00    -0.544 OA
ENDBRANCH   2   7
ENDBRANCH   1   2
BRANCH   1  10
ATOM     10  C   UNL     1      26.253   9.004  29.486  1.00  0.00     0.223 C 
ATOM     11  O   UNL     1      27.017   9.882  29.005  1.00  0.00    -0.275 OA
ATOM     12  N   UNL     1      24.855   9.271  29.602  1.00  0.00    -0.369 N 
ATOM     13  H   UNL     1      24.210   8.564  30.020  1.00  0.00     0.159 HD
ATOM     14  H   UNL     1      24.464  10.183  29.278  1.00  0.00     0.159 HD
ENDBRANCH   1  10
TORSDOF 4
ENDMDL
MODEL 9
REMARK VINA RESULT:    -3.017      2.447      3.898
REMARK INTER + INTRA:          -3.897
REMARK INTER:                  -3.560
REMARK INTRA:                  -0.337
REMARK UNBOUND:                -0.263
REMARK SMILES NC(=O)C[C@@H]([NH3+])C(=O)[O-]
REMARK SMILES IDX 4 1 5 2 6 3 7 7 8 8 9 9 2 10 3 11 1 12
REMARK H PARENT 6 4 6 5 6 6 1 13 1 14
REMARK Flexibility Score: inf
ROOT
ATOM      1  C   UNL     1      27.085   8.099  27.970  1.00  0.00     0.171 C 
ENDROOT
BRANCH   1   2
ATOM      2  C   UNL     1      28.544   7.631  27.798  1.00  0.00     0.237 C 
BRANCH   2   3
ATOM      3  N   UNL     1      29.242   7.563  29.090  1.00  0.00    -0.350 N 
ATOM      4  H   UNL     1      28.621   7.154  29.826  1.00  0.00     0.345 HD
ATOM      5  H   UNL     1      30.101   6.973  28.998  1.00  0.00     0.345 HD
ATOM      6  H   UNL     1      29.543   8.520  29.384  1.00  0.00     0.345 HD
ENDBRANCH   2   3
BRANCH   2   7
ATOM      7  C   UNL     1      28.567   6.283  27.128  1.00  0.00     0.100 C 
ATOM      8  O   UNL     1      29.538   5.956  26.396  1.00  0.00    -0.544 OA
ATOM      9  O   UNL     1      27.508   5.398  27.296  1.00  0.00    -0.544 OA
ENDBRANCH   2   7
ENDBRANCH   1   2
BRANCH   1  10
ATOM     10  C   UNL     1      26.685   8.153  29.415  1.00  0.00     0.223 C 
ATOM     11  O   UNL     1      26.675   7.096  30.101  1.00  0.00    -0.275 OA
ATOM     12  N   UNL     1      26.282   9.385  30.011  1.00  0.00    -0.369 N 
ATOM     13  H   UNL     1      26.261  10.267  29.452  1.00  0.00     0.159 HD
ATOM     14  H   UNL     1      25.994   9.416  31.014  1.00  0.00     0.159 HD
ENDBRANCH   1  10
TORSDOF 4
ENDMDL
