MODEL 1
REMARK VINA RESULT:    -2.451      0.000      0.000
REMARK INTER + INTRA:          -3.209
REMARK INTER:                  -3.024
REMARK INTRA:                  -0.184
REMARK UNBOUND:                -0.184
REMARK SMILES CCCCC(=O)CC
REMARK SMILES IDX 4 1 3 2 2 3 1 4 5 5 6 6 7 7 8 8
REMARK H PARENT
REMARK Flexibility Score: inf
ROOT
ATOM      1  C   UNL     1     237.651 228.688 234.365  1.00  0.00     0.075 C 
ENDROOT
BRANCH   1   2
ATOM      2  C   UNL     1     236.407 229.567 234.168  1.00  0.00     0.008 C 
BRANCH   2   3
ATOM      3  C   UNL     1     236.435 230.340 232.841  1.00  0.00    -0.003 C 
ATOM      4  C   UNL     1     235.325 229.908 231.881  1.00  0.00     0.004 C 
ENDBRANCH   2   3
ENDBRANCH   1   2
BRANCH   1   5
ATOM      5  C   UNL     1     237.373 227.273 233.927  1.00  0.00     0.132 C 
ATOM      6  O   UNL     1     236.224 226.938 233.677  1.00  0.00    -0.300 OA
BRANCH   5   7
ATOM      7  C   UNL     1     238.480 226.259 233.812  1.00  0.00     0.072 C 
ATOM      8  C   UNL     1     239.732 226.742 234.537  1.00  0.00     0.012 C 
ENDBRANCH   5   7
ENDBRANCH   1   5
TORSDOF 4
ENDMDL
MODEL 2
REMARK VINA RESULT:    -2.438     10.262     11.515
REMARK INTER + INTRA:          -3.192
REMARK INTER:                  -3.017
REMARK INTRA:                  -0.175
REMARK UNBOUND:                -0.184
REMARK SMILES CCCCC(=O)CC
REMARK SMILES IDX 4 1 3 2 2 3 1 4 5 5 6 6 7 7 8 8
REMARK H PARENT
REMARK Flexibility Score: inf
ROOT
ATOM      1  C   UNL     1     242.443 238.455 233.778  1.00  0.00     0.075 C 
ENDROOT
BRANCH   1   2
ATOM      2  C   UNL     1     242.015 239.813 234.351  1.00  0.00     0.008 C 
BRANCH   2   3
ATOM      3  C   UNL     1     242.588 240.996 233.556  1.00  0.00    -0.003 C 
ATOM      4  C   UNL     1     243.023 240.605 232.143  1.00  0.00     0.004 C 
ENDBRANCH   2   3
ENDBRANCH   1   2
BRANCH   1   5
ATOM      5  C   UNL     1     241.354 237.431 233.976  1.00  0.00     0.132 C 
ATOM      6  O   UNL     1     241.575 236.261 233.701  1.00  0.00    -0.300 OA
BRANCH   5   7
ATOM      7  C   UNL     1     239.993 237.827 234.486  1.00  0.00     0.072 C 
ATOM      8  C   UNL     1     238.896 237.102 233.712  1.00  0.00     0.012 C 
ENDBRANCH   5   7
ENDBRANCH   1   5
TORSDOF 4
ENDMDL
MODEL 3
REMARK VINA RESULT:    -2.426      1.227      4.186
REMARK INTER + INTRA:          -3.178
REMARK INTER:                  -2.998
REMARK INTRA:                  -0.180
REMARK UNBOUND:                -0.184
REMARK SMILES CCCCC(=O)CC
REMARK SMILES IDX 4 1 3 2 2 3 1 4 5 5 6 6 7 7 8 8
REMARK H PARENT
REMARK Flexibility Score: inf
ROOT
ATOM      1  C   UNL     1     238.536 226.095 233.739  1.00  0.00     0.075 C 
ENDROOT
BRANCH   1   2
ATOM      2  C   UNL     1     239.858 226.476 234.421  1.00  0.00     0.008 C 
BRANCH   2   3
ATOM      3  C   UNL     1     241.086 226.085 233.586  1.00  0.00    -0.003 C 
ATOM      4  C   UNL     1     240.716 225.501 232.223  1.00  0.00     0.004 C 
ENDBRANCH   2   3
ENDBRANCH   1   2
BRANCH   1   5
ATOM      5  C   UNL     1     237.519 227.195 233.903  1.00  0.00     0.132 C 
ATOM      6  O   UNL     1     236.359 226.993 233.576  1.00  0.00    -0.300 OA
BRANCH   5   7
ATOM      7  C   UNL     1     237.910 228.546 234.443  1.00  0.00     0.072 C 
ATOM      8  C   UNL     1     237.135 229.654 233.736  1.00  0.00     0.012 C 
ENDBRANCH   5   7
ENDBRANCH   1   5
TORSDOF 4
ENDMDL
MODEL 4
REMARK VINA RESULT:    -2.418      8.395      9.633
REMARK INTER + INTRA:          -3.168
REMARK INTER:                  -3.049
REMARK INTRA:                  -0.119
REMARK UNBOUND:                -0.184
REMARK SMILES CCCCC(=O)CC
REMARK SMILES IDX 4 1 3 2 2 3 1 4 5 5 6 6 7 7 8 8
REMARK H PARENT
REMARK Flexibility Score: inf
ROOT
ATOM      1  C   UNL     1     240.362 236.322 233.482  1.00  0.00     0.075 C 
ENDROOT
BRANCH   1   2
ATOM      2  C   UNL     1     238.961 236.886 233.760  1.00  0.00     0.008 C 
BRANCH   2   3
ATOM      3  C   UNL     1     237.921 236.418 232.732  1.00  0.00    -0.003 C 
ATOM      4  C   UNL     1     238.417 235.252 231.876  1.00  0.00     0.004 C 
ENDBRANCH   2   3
ENDBRANCH   1   2
BRANCH   1   5
ATOM      5  C   UNL     1     241.361 236.881 234.461  1.00  0.00     0.132 C 
ATOM      6  O   UNL     1     241.923 236.126 235.240  1.00  0.00    -0.300 OA
BRANCH   5   7
ATOM      7  C   UNL     1     241.663 238.356 234.513  1.00  0.00     0.072 C 
ATOM      8  C   UNL     1     242.749 238.720 233.505  1.00  0.00     0.012 C 
ENDBRANCH   5   7
ENDBRANCH   1   5
TORSDOF 4
ENDMDL
MODEL 5
REMARK VINA RESULT:    -2.407      7.795      9.562
REMARK INTER + INTRA:          -3.154
REMARK INTER:                  -2.906
REMARK INTRA:                  -0.248
REMARK UNBOUND:                -0.184
REMARK SMILES CCCCC(=O)CC
REMARK SMILES IDX 4 1 3 2 2 3 1 4 5 5 6 6 7 7 8 8
REMARK H PARENT
REMARK Flexibility Score: inf
ROOT
ATOM      1  C   UNL     1     228.837 231.599 233.697  1.00  0.00     0.075 C 
ENDROOT
BRANCH   1   2
ATOM      2  C   UNL     1     227.374 232.064 233.724  1.00  0.00     0.008 C 
BRANCH   2   3
ATOM      3  C   UNL     1     226.883 232.386 235.143  1.00  0.00    -0.003 C 
ATOM      4  C   UNL     1     227.989 232.939 236.042  1.00  0.00     0.004 C 
ENDBRANCH   2   3
ENDBRANCH   1   2
BRANCH   1   5
ATOM      5  C   UNL     1     229.664 232.507 232.823  1.00  0.00     0.132 C 
ATOM      6  O   UNL     1     229.112 233.174 231.961  1.00  0.00    -0.300 OA
BRANCH   5   7
ATOM      7  C   UNL     1     231.160 232.589 232.976  1.00  0.00     0.072 C 
ATOM      8  C   UNL     1     231.553 232.577 234.450  1.00  0.00     0.012 C 
ENDBRANCH   5   7
ENDBRANCH   1   5
TORSDOF 4
ENDMDL
MODEL 6
REMARK VINA RESULT:    -2.396     13.272     15.029
REMARK INTER + INTRA:          -3.141
REMARK INTER:                  -3.036
REMARK INTRA:                  -0.106
REMARK UNBOUND:                -0.184
REMARK SMILES CCCCC(=O)CC
REMARK SMILES IDX 4 1 3 2 2 3 1 4 5 5 6 6 7 7 8 8
REMARK H PARENT
REMARK Flexibility Score: inf
ROOT
ATOM      1  C   UNL     1     230.453 242.198 234.518  1.00  0.00     0.075 C 
ENDROOT
BRANCH   1   2
ATOM      2  C   UNL     1     229.663 242.876 233.389  1.00  0.00     0.008 C 
BRANCH   2   3
ATOM      3  C   UNL     1     228.155 242.597 233.473  1.00  0.00    -0.003 C 
ATOM      4  C   UNL     1     227.409 242.982 232.195  1.00  0.00     0.004 C 
ENDBRANCH   2   3
ENDBRANCH   1   2
BRANCH   1   5
ATOM      5  C   UNL     1     231.364 241.135 233.960  1.00  0.00     0.132 C 
ATOM      6  O   UNL     1     232.382 241.467 233.372  1.00  0.00    -0.300 OA
BRANCH   5   7
ATOM      7  C   UNL     1     231.032 239.671 234.095  1.00  0.00     0.072 C 
ATOM      8  C   UNL     1     232.017 238.819 233.300  1.00  0.00     0.012 C 
ENDBRANCH   5   7
ENDBRANCH   1   5
TORSDOF 4
ENDMDL
MODEL 7
REMARK VINA RESULT:    -2.366     12.252     14.159
REMARK INTER + INTRA:          -3.103
REMARK INTER:                  -2.872
REMARK INTRA:                  -0.231
REMARK UNBOUND:                -0.184
REMARK SMILES CCCCC(=O)CC
REMARK SMILES IDX 4 1 3 2 2 3 1 4 5 5 6 6 7 7 8 8
REMARK H PARENT
REMARK Flexibility Score: inf
ROOT
ATOM      1  C   UNL     1     231.991 241.235 233.725  1.00  0.00     0.075 C 
ENDROOT
BRANCH   1   2
ATOM      2  C   UNL     1     232.410 239.848 234.235  1.00  0.00     0.008 C 
BRANCH   2   3
ATOM      3  C   UNL     1     232.100 238.731 233.228  1.00  0.00    -0.003 C 
ATOM      4  C   UNL     1     233.068 238.713 232.045  1.00  0.00     0.004 C 
ENDBRANCH   2   3
ENDBRANCH   1   2
BRANCH   1   5
ATOM      5  C   UNL     1     230.606 241.580 234.209  1.00  0.00     0.132 C 
ATOM      6  O   UNL     1     229.884 242.276 233.512  1.00  0.00    -0.300 OA
BRANCH   5   7
ATOM      7  C   UNL     1     230.105 241.102 235.547  1.00  0.00     0.072 C 
ATOM      8  C   UNL     1     228.863 240.232 235.378  1.00  0.00     0.012 C 
ENDBRANCH   5   7
ENDBRANCH   1   5
TORSDOF 4
ENDMDL
MODEL 8
REMARK VINA RESULT:    -2.336      9.237     10.571
REMARK INTER + INTRA:          -3.067
REMARK INTER:                  -2.830
REMARK INTRA:                  -0.238
REMARK UNBOUND:                -0.184
REMARK SMILES CCCCC(=O)CC
REMARK SMILES IDX 4 1 3 2 2 3 1 4 5 5 6 6 7 7 8 8
REMARK H PARENT
REMARK Flexibility Score: inf
ROOT
ATOM      1  C   UNL     1     241.422 236.882 234.671  1.00  0.00     0.075 C 
ENDROOT
BRANCH   1   2
ATOM      2  C   UNL     1     240.829 236.236 233.411  1.00  0.00     0.008 C 
BRANCH   2   3
ATOM      3  C   UNL     1     239.295 236.295 233.384  1.00  0.00    -0.003 C 
ATOM      4  C   UNL     1     238.691 235.486 232.235  1.00  0.00     0.004 C 
ENDBRANCH   2   3
ENDBRANCH   1   2
BRANCH   1   5
ATOM      5  C   UNL     1     241.718 238.339 234.429  1.00  0.00     0.132 C 
ATOM      6  O   UNL     1     242.388 238.662 233.459  1.00  0.00    -0.300 OA
BRANCH   5   7
ATOM      7  C   UNL     1     241.224 239.405 235.373  1.00  0.00     0.072 C 
ATOM      8  C   UNL     1     239.699 239.424 235.414  1.00  0.00     0.012 C 
ENDBRANCH   5   7
ENDBRANCH   1   5
TORSDOF 4
ENDMDL
MODEL 9
REMARK VINA RESULT:    -1.661      8.670      9.897
REMARK INTER + INTRA:          -2.234
REMARK INTER:                  -2.053
REMARK INTRA:                  -0.181
REMARK UNBOUND:                -0.184
REMARK SMILES CCCCC(=O)CC
REMARK SMILES IDX 4 1 3 2 2 3 1 4 5 5 6 6 7 7 8 8
REMARK H PARENT
REMARK Flexibility Score: inf
ROOT
ATOM      1  C   UNL     1     228.716 230.880 234.413  1.00  0.00     0.075 C 
ENDROOT
BRANCH   1   2
ATOM      2  C   UNL     1     229.528 232.159 234.164  1.00  0.00     0.008 C 
BRANCH   2   3
ATOM      3  C   UNL     1     230.275 232.133 232.822  1.00  0.00    -0.003 C 
ATOM      4  C   UNL     1     229.832 233.249 231.875  1.00  0.00     0.004 C 
ENDBRANCH   2   3
ENDBRANCH   1   2
BRANCH   1   5
ATOM      5  C   UNL     1     227.297 231.053 233.936  1.00  0.00     0.132 C 
ATOM      6  O   UNL     1     226.878 232.176 233.698  1.00  0.00    -0.300 OA
BRANCH   5   7
ATOM      7  C   UNL     1     226.379 229.871 233.769  1.00  0.00     0.072 C 
ATOM      8  C   UNL     1     226.760 228.750 234.731  1.00  0.00     0.012 C 
ENDBRANCH   5   7
ENDBRANCH   1   5
TORSDOF 4
ENDMDL
