MODEL 1
REMARK VINA RESULT:    -4.702      0.000      0.000
REMARK INTER + INTRA:          -7.316
REMARK INTER:                  -6.901
REMARK INTRA:                  -0.415
REMARK UNBOUND:                -0.415
REMARK SMILES O=C([O-])CCCCCCCC(=O)[O-]
REMARK SMILES IDX 7 1 6 2 5 3 4 4 2 5 1 6 3 7 8 8 9 9 10 10 11 11 12 12 13 13
REMARK H PARENT
REMARK Flexibility Score: inf
ROOT
ATOM      1  C   UNL     1      -8.320  -4.979  -5.298  1.00  0.00     0.000 C 
ENDROOT
BRANCH   1   2
ATOM      2  C   UNL     1      -8.159  -5.014  -6.828  1.00  0.00     0.000 C 
BRANCH   2   3
ATOM      3  C   UNL     1      -6.880  -5.741  -7.271  1.00  0.00     0.006 C 
BRANCH   3   4
ATOM      4  C   UNL     1      -5.667  -5.392  -6.399  1.00  0.00     0.053 C 
BRANCH   4   5
ATOM      5  C   UNL     1      -4.918  -6.631  -6.026  1.00  0.00     0.041 C 
ATOM      6  O   UNL     1      -3.690  -6.573  -5.753  1.00  0.00    -0.550 OA
ATOM      7  O   UNL     1      -5.564  -7.862  -6.030  1.00  0.00    -0.550 OA
ENDBRANCH   4   5
ENDBRANCH   3   4
ENDBRANCH   2   3
ENDBRANCH   1   2
BRANCH   1   8
ATOM      8  C   UNL     1      -9.329  -3.916  -4.834  1.00  0.00     0.000 C 
BRANCH   8   9
ATOM      9  C   UNL     1     -10.317  -4.455  -3.784  1.00  0.00     0.006 C 
BRANCH   9  10
ATOM     10  C   UNL     1     -10.390  -3.556  -2.543  1.00  0.00     0.053 C 
BRANCH  10  11
ATOM     11  C   UNL     1      -9.037  -3.333  -1.938  1.00  0.00     0.041 C 
ATOM     12  O   UNL     1      -8.384  -4.303  -1.470  1.00  0.00    -0.550 OA
ATOM     13  O   UNL     1      -8.511  -2.050  -1.866  1.00  0.00    -0.550 OA
ENDBRANCH  10  11
ENDBRANCH   9  10
ENDBRANCH   8   9
ENDBRANCH   1   8
TORSDOF 8
ENDMDL
MODEL 2
REMARK VINA RESULT:    -4.688      0.139      1.275
REMARK INTER + INTRA:          -7.296
REMARK INTER:                  -6.894
REMARK INTRA:                  -0.402
REMARK UNBOUND:                -0.415
REMARK SMILES O=C([O-])CCCCCCCC(=O)[O-]
REMARK SMILES IDX 7 1 6 2 5 3 4 4 2 5 1 6 3 7 8 8 9 9 10 10 11 11 12 12 13 13
REMARK H PARENT
REMARK Flexibility Score: inf
ROOT
ATOM      1  C   UNL     1      -8.375  -5.039  -5.252  1.00  0.00     0.000 C 
ENDROOT
BRANCH   1   2
ATOM      2  C   UNL     1      -8.175  -4.993  -6.777  1.00  0.00     0.000 C 
BRANCH   2   3
ATOM      3  C   UNL     1      -6.972  -5.829  -7.241  1.00  0.00     0.006 C 
BRANCH   3   4
ATOM      4  C   UNL     1      -5.700  -5.537  -6.433  1.00  0.00     0.053 C 
BRANCH   4   5
ATOM      5  C   UNL     1      -5.007  -6.813  -6.074  1.00  0.00     0.041 C 
ATOM      6  O   UNL     1      -5.646  -7.898  -6.054  1.00  0.00    -0.550 OA
ATOM      7  O   UNL     1      -3.666  -6.798  -5.711  1.00  0.00    -0.550 OA
ENDBRANCH   4   5
ENDBRANCH   3   4
ENDBRANCH   2   3
ENDBRANCH   1   2
BRANCH   1   8
ATOM      8  C   UNL     1      -9.305  -3.926  -4.742  1.00  0.00     0.000 C 
BRANCH   8   9
ATOM      9  C   UNL     1     -10.333  -4.435  -3.718  1.00  0.00     0.006 C 
BRANCH   9  10
ATOM     10  C   UNL     1     -10.452  -3.502  -2.505  1.00  0.00     0.053 C 
BRANCH  10  11
ATOM     11  C   UNL     1      -9.122  -3.257  -1.860  1.00  0.00     0.041 C 
ATOM     12  O   UNL     1      -8.687  -2.083  -1.733  1.00  0.00    -0.550 OA
ATOM     13  O   UNL     1      -8.353  -4.328  -1.425  1.00  0.00    -0.550 OA
ENDBRANCH  10  11
ENDBRANCH   9  10
ENDBRANCH   8   9
ENDBRANCH   1   8
TORSDOF 8
ENDMDL
MODEL 3
REMARK VINA RESULT:    -4.668      0.115      5.858
REMARK INTER + INTRA:          -7.266
REMARK INTER:                  -6.833
REMARK INTRA:                  -0.433
REMARK UNBOUND:                -0.415
REMARK SMILES O=C([O-])CCCCCCCC(=O)[O-]
REMARK SMILES IDX 7 1 6 2 5 3 4 4 2 5 1 6 3 7 8 8 9 9 10 10 11 11 12 12 13 13
REMARK H PARENT
REMARK Flexibility Score: inf
ROOT
ATOM      1  C   UNL     1      -8.214  -4.844  -5.302  1.00  0.00     0.000 C 
ENDROOT
BRANCH   1   2
ATOM      2  C   UNL     1      -9.355  -3.900  -4.884  1.00  0.00     0.000 C 
BRANCH   2   3
ATOM      3  C   UNL     1     -10.250  -4.504  -3.789  1.00  0.00     0.006 C 
BRANCH   3   4
ATOM      4  C   UNL     1     -10.394  -3.586  -2.568  1.00  0.00     0.053 C 
BRANCH   4   5
ATOM      5  C   UNL     1      -9.059  -3.341  -1.940  1.00  0.00     0.041 C 
ATOM      6  O   UNL     1      -8.388  -4.302  -1.482  1.00  0.00    -0.550 OA
ATOM      7  O   UNL     1      -8.577  -2.043  -1.813  1.00  0.00    -0.550 OA
ENDBRANCH   4   5
ENDBRANCH   3   4
ENDBRANCH   2   3
ENDBRANCH   1   2
BRANCH   1   8
ATOM      8  C   UNL     1      -8.272  -5.219  -6.791  1.00  0.00     0.000 C 
BRANCH   8   9
ATOM      9  C   UNL     1      -6.907  -5.664  -7.345  1.00  0.00     0.006 C 
BRANCH   9  10
ATOM     10  C   UNL     1      -5.766  -5.394  -6.355  1.00  0.00     0.053 C 
BRANCH  10  11
ATOM     11  C   UNL     1      -4.953  -6.626  -6.095  1.00  0.00     0.041 C 
ATOM     12  O   UNL     1      -3.707  -6.542  -5.940  1.00  0.00    -0.550 OA
ATOM     13  O   UNL     1      -5.570  -7.869  -6.052  1.00  0.00    -0.550 OA
ENDBRANCH  10  11
ENDBRANCH   9  10
ENDBRANCH   8   9
ENDBRANCH   1   8
TORSDOF 8
ENDMDL
MODEL 4
REMARK VINA RESULT:    -4.667      0.513      5.847
REMARK INTER + INTRA:          -7.265
REMARK INTER:                  -6.871
REMARK INTRA:                  -0.394
REMARK UNBOUND:                -0.415
REMARK SMILES O=C([O-])CCCCCCCC(=O)[O-]
REMARK SMILES IDX 7 1 6 2 5 3 4 4 2 5 1 6 3 7 8 8 9 9 10 10 11 11 12 12 13 13
REMARK H PARENT
REMARK Flexibility Score: inf
ROOT
ATOM      1  C   UNL     1      -9.426  -5.017  -5.492  1.00  0.00     0.000 C 
ENDROOT
BRANCH   1   2
ATOM      2  C   UNL     1      -9.940  -3.837  -4.650  1.00  0.00     0.000 C 
BRANCH   2   3
ATOM      3  C   UNL     1     -10.653  -4.293  -3.367  1.00  0.00     0.006 C 
BRANCH   3   4
ATOM      4  C   UNL     1     -10.462  -3.313  -2.202  1.00  0.00     0.053 C 
BRANCH   4   5
ATOM      5  C   UNL     1      -9.015  -3.211  -1.838  1.00  0.00     0.041 C 
ATOM      6  O   UNL     1      -8.426  -2.099  -1.884  1.00  0.00    -0.550 OA
ATOM      7  O   UNL     1      -8.302  -4.354  -1.497  1.00  0.00    -0.550 OA
ENDBRANCH   4   5
ENDBRANCH   3   4
ENDBRANCH   2   3
ENDBRANCH   1   2
BRANCH   1   8
ATOM      8  C   UNL     1      -7.932  -5.299  -5.267  1.00  0.00     0.000 C 
BRANCH   8   9
ATOM      9  C   UNL     1      -7.206  -5.717  -6.558  1.00  0.00     0.006 C 
BRANCH   9  10
ATOM     10  C   UNL     1      -5.687  -5.521  -6.457  1.00  0.00     0.053 C 
BRANCH  10  11
ATOM     11  C   UNL     1      -4.984  -6.799  -6.114  1.00  0.00     0.041 C 
ATOM     12  O   UNL     1      -5.608  -7.892  -6.133  1.00  0.00    -0.550 OA
ATOM     13  O   UNL     1      -3.644  -6.778  -5.748  1.00  0.00    -0.550 OA
ENDBRANCH  10  11
ENDBRANCH   9  10
ENDBRANCH   8   9
ENDBRANCH   1   8
TORSDOF 8
ENDMDL
MODEL 5
REMARK VINA RESULT:    -4.344      1.336      5.611
REMARK INTER + INTRA:          -6.791
REMARK INTER:                  -6.203
REMARK INTRA:                  -0.589
REMARK UNBOUND:                -0.415
REMARK SMILES O=C([O-])CCCCCCCC(=O)[O-]
REMARK SMILES IDX 7 1 6 2 5 3 4 4 2 5 1 6 3 7 8 8 9 9 10 10 11 11 12 12 13 13
REMARK H PARENT
REMARK Flexibility Score: inf
ROOT
ATOM      1  C   UNL     1      -8.054  -4.761  -7.732  1.00  0.00     0.000 C 
ENDROOT
BRANCH   1   2
ATOM      2  C   UNL     1      -9.332  -5.564  -7.431  1.00  0.00     0.000 C 
BRANCH   2   3
ATOM      3  C   UNL     1      -9.702  -5.547  -5.939  1.00  0.00     0.006 C 
BRANCH   3   4
ATOM      4  C   UNL     1      -8.560  -5.037  -5.050  1.00  0.00     0.053 C 
BRANCH   4   5
ATOM      5  C   UNL     1      -9.061  -3.989  -4.108  1.00  0.00     0.041 C 
ATOM      6  O   UNL     1      -9.573  -2.929  -4.554  1.00  0.00    -0.550 OA
ATOM      7  O   UNL     1      -8.916  -4.160  -2.737  1.00  0.00    -0.550 OA
ENDBRANCH   4   5
ENDBRANCH   3   4
ENDBRANCH   2   3
ENDBRANCH   1   2
BRANCH   1   8
ATOM      8  C   UNL     1      -7.244  -5.354  -8.896  1.00  0.00     0.000 C 
BRANCH   8   9
ATOM      9  C   UNL     1      -6.027  -6.166  -8.419  1.00  0.00     0.006 C 
BRANCH   9  10
ATOM     10  C   UNL     1      -5.531  -5.709  -7.040  1.00  0.00     0.053 C 
BRANCH  10  11
ATOM     11  C   UNL     1      -4.963  -6.847  -6.249  1.00  0.00     0.041 C 
ATOM     12  O   UNL     1      -3.787  -6.785  -5.804  1.00  0.00    -0.550 OA
ATOM     13  O   UNL     1      -5.724  -7.987  -6.026  1.00  0.00    -0.550 OA
ENDBRANCH  10  11
ENDBRANCH   9  10
ENDBRANCH   8   9
ENDBRANCH   1   8
TORSDOF 8
ENDMDL
MODEL 6
REMARK VINA RESULT:    -4.297      1.615      2.358
REMARK INTER + INTRA:          -6.722
REMARK INTER:                  -5.944
REMARK INTRA:                  -0.778
REMARK UNBOUND:                -0.415
REMARK SMILES O=C([O-])CCCCCCCC(=O)[O-]
REMARK SMILES IDX 7 1 6 2 5 3 4 4 2 5 1 6 3 7 8 8 9 9 10 10 11 11 12 12 13 13
REMARK H PARENT
REMARK Flexibility Score: inf
ROOT
ATOM      1  C   UNL     1      -8.319  -4.932  -8.024  1.00  0.00     0.000 C 
ENDROOT
BRANCH   1   2
ATOM      2  C   UNL     1      -7.231  -5.958  -8.388  1.00  0.00     0.000 C 
BRANCH   2   3
ATOM      3  C   UNL     1      -5.859  -5.599  -7.797  1.00  0.00     0.006 C 
BRANCH   3   4
ATOM      4  C   UNL     1      -5.897  -5.424  -6.273  1.00  0.00     0.053 C 
BRANCH   4   5
ATOM      5  C   UNL     1      -6.245  -6.718  -5.609  1.00  0.00     0.041 C 
ATOM      6  O   UNL     1      -7.122  -6.752  -4.705  1.00  0.00    -0.550 OA
ATOM      7  O   UNL     1      -5.565  -7.881  -5.951  1.00  0.00    -0.550 OA
ENDBRANCH   4   5
ENDBRANCH   3   4
ENDBRANCH   2   3
ENDBRANCH   1   2
BRANCH   1   8
ATOM      8  C   UNL     1      -9.655  -5.594  -7.649  1.00  0.00     0.000 C 
BRANCH   8   9
ATOM      9  C   UNL     1     -10.107  -5.248  -6.219  1.00  0.00     0.006 C 
BRANCH   9  10
ATOM     10  C   UNL     1      -9.442  -3.969  -5.695  1.00  0.00     0.053 C 
BRANCH  10  11
ATOM     11  C   UNL     1      -9.340  -3.967  -4.201  1.00  0.00     0.041 C 
ATOM     12  O   UNL     1      -9.841  -4.908  -3.530  1.00  0.00    -0.550 OA
ATOM     13  O   UNL     1      -8.715  -2.913  -3.548  1.00  0.00    -0.550 OA
ENDBRANCH  10  11
ENDBRANCH   9  10
ENDBRANCH   8   9
ENDBRANCH   1   8
TORSDOF 8
ENDMDL
MODEL 7
REMARK VINA RESULT:    -4.044      2.249      5.718
REMARK INTER + INTRA:          -6.351
REMARK INTER:                  -6.082
REMARK INTRA:                  -0.269
REMARK UNBOUND:                -0.415
REMARK SMILES O=C([O-])CCCCCCCC(=O)[O-]
REMARK SMILES IDX 7 1 6 2 5 3 4 4 2 5 1 6 3 7 8 8 9 9 10 10 11 11 12 12 13 13
REMARK H PARENT
REMARK Flexibility Score: inf
ROOT
ATOM      1  C   UNL     1      -6.874  -6.207  -5.600  1.00  0.00     0.000 C 
ENDROOT
BRANCH   1   2
ATOM      2  C   UNL     1      -7.853  -5.660  -6.654  1.00  0.00     0.000 C 
BRANCH   2   3
ATOM      3  C   UNL     1      -9.211  -5.268  -6.051  1.00  0.00     0.006 C 
BRANCH   3   4
ATOM      4  C   UNL     1      -9.169  -3.917  -5.324  1.00  0.00     0.053 C 
BRANCH   4   5
ATOM      5  C   UNL     1     -10.129  -3.913  -4.177  1.00  0.00     0.041 C 
ATOM      6  O   UNL     1     -10.213  -4.913  -3.417  1.00  0.00    -0.550 OA
ATOM      7  O   UNL     1     -10.967  -2.823  -3.975  1.00  0.00    -0.550 OA
ENDBRANCH   4   5
ENDBRANCH   3   4
ENDBRANCH   2   3
ENDBRANCH   1   2
BRANCH   1   8
ATOM      8  C   UNL     1      -5.624  -6.844  -6.228  1.00  0.00     0.000 C 
BRANCH   8   9
ATOM      9  C   UNL     1      -4.347  -6.025  -5.970  1.00  0.00     0.006 C 
BRANCH   9  10
ATOM     10  C   UNL     1      -4.604  -4.514  -6.052  1.00  0.00     0.053 C 
BRANCH  10  11
ATOM     11  C   UNL     1      -3.398  -3.723  -5.645  1.00  0.00     0.041 C 
ATOM     12  O   UNL     1      -2.281  -4.289  -5.521  1.00  0.00    -0.550 OA
ATOM     13  O   UNL     1      -3.516  -2.365  -5.378  1.00  0.00    -0.550 OA
ENDBRANCH  10  11
ENDBRANCH   9  10
ENDBRANCH   8   9
ENDBRANCH   1   8
TORSDOF 8
ENDMDL
MODEL 8
REMARK VINA RESULT:    -4.003      1.644      5.866
REMARK INTER + INTRA:          -6.290
REMARK INTER:                  -5.957
REMARK INTRA:                  -0.333
REMARK UNBOUND:                -0.415
REMARK SMILES O=C([O-])CCCCCCCC(=O)[O-]
REMARK SMILES IDX 7 1 6 2 5 3 4 4 2 5 1 6 3 7 8 8 9 9 10 10 11 11 12 12 13 13
REMARK H PARENT
REMARK Flexibility Score: inf
ROOT
ATOM      1  C   UNL     1      -9.930  -3.959  -5.004  1.00  0.00     0.000 C 
ENDROOT
BRANCH   1   2
ATOM      2  C   UNL     1     -11.105  -3.419  -4.171  1.00  0.00     0.000 C 
BRANCH   2   3
ATOM      3  C   UNL     1     -11.124  -3.982  -2.741  1.00  0.00     0.006 C 
BRANCH   3   4
ATOM      4  C   UNL     1     -10.556  -2.998  -1.709  1.00  0.00     0.053 C 
BRANCH   4   5
ATOM      5  C   UNL     1      -9.065  -3.096  -1.661  1.00  0.00     0.041 C 
ATOM      6  O   UNL     1      -8.504  -4.222  -1.619  1.00  0.00    -0.550 OA
ATOM      7  O   UNL     1      -8.293  -1.941  -1.612  1.00  0.00    -0.550 OA
ENDBRANCH   4   5
ENDBRANCH   3   4
ENDBRANCH   2   3
ENDBRANCH   1   2
BRANCH   1   8
ATOM      8  C   UNL     1     -10.337  -5.131  -5.912  1.00  0.00     0.000 C 
BRANCH   8   9
ATOM      9  C   UNL     1      -9.149  -5.714  -6.697  1.00  0.00     0.006 C 
BRANCH   9  10
ATOM     10  C   UNL     1      -8.359  -4.629  -7.441  1.00  0.00     0.053 C 
BRANCH  10  11
ATOM     11  C   UNL     1      -6.902  -4.967  -7.534  1.00  0.00     0.041 C 
ATOM     12  O   UNL     1      -6.325  -4.986  -8.652  1.00  0.00    -0.550 OA
ATOM     13  O   UNL     1      -6.189  -5.288  -6.386  1.00  0.00    -0.550 OA
ENDBRANCH  10  11
ENDBRANCH   9  10
ENDBRANCH   8   9
ENDBRANCH   1   8
TORSDOF 8
ENDMDL
MODEL 9
REMARK VINA RESULT:    -3.901      1.584      6.305
REMARK INTER + INTRA:          -6.140
REMARK INTER:                  -5.738
REMARK INTRA:                  -0.402
REMARK UNBOUND:                -0.415
REMARK SMILES O=C([O-])CCCCCCCC(=O)[O-]
REMARK SMILES IDX 7 1 6 2 5 3 4 4 2 5 1 6 3 7 8 8 9 9 10 10 11 11 12 12 13 13
REMARK H PARENT
REMARK Flexibility Score: inf
ROOT
ATOM      1  C   UNL     1      -8.138  -5.370  -5.894  1.00  0.00     0.000 C 
ENDROOT
BRANCH   1   2
ATOM      2  C   UNL     1      -9.492  -5.608  -5.202  1.00  0.00     0.000 C 
BRANCH   2   3
ATOM      3  C   UNL     1     -10.051  -4.336  -4.545  1.00  0.00     0.006 C 
BRANCH   3   4
ATOM      4  C   UNL     1      -8.962  -3.487  -3.875  1.00  0.00     0.053 C 
BRANCH   4   5
ATOM      5  C   UNL     1      -9.162  -3.457  -2.394  1.00  0.00     0.041 C 
ATOM      6  O   UNL     1      -8.551  -4.272  -1.654  1.00  0.00    -0.550 OA
ATOM      7  O   UNL     1     -10.065  -2.561  -1.831  1.00  0.00    -0.550 OA
ENDBRANCH   4   5
ENDBRANCH   3   4
ENDBRANCH   2   3
ENDBRANCH   1   2
BRANCH   1   8
ATOM      8  C   UNL     1      -8.292  -4.965  -7.370  1.00  0.00     0.000 C 
BRANCH   8   9
ATOM      9  C   UNL     1      -6.938  -4.785  -8.079  1.00  0.00     0.006 C 
BRANCH   9  10
ATOM     10  C   UNL     1      -6.753  -5.781  -9.232  1.00  0.00     0.053 C 
BRANCH  10  11
ATOM     11  C   UNL     1      -6.288  -7.118  -8.741  1.00  0.00     0.041 C 
ATOM     12  O   UNL     1      -6.562  -8.162  -9.390  1.00  0.00    -0.550 OA
ATOM     13  O   UNL     1      -5.576  -7.213  -7.553  1.00  0.00    -0.550 OA
ENDBRANCH  10  11
ENDBRANCH   9  10
ENDBRANCH   8   9
ENDBRANCH   1   8
TORSDOF 8
ENDMDL
