MODEL 1
REMARK VINA RESULT:    -2.393      0.000      0.000
REMARK INTER + INTRA:          -3.540
REMARK INTER:                  -3.232
REMARK INTRA:                  -0.309
REMARK UNBOUND:                -0.309
REMARK SMILES CCCCCCCC(=O)[O-]
REMARK SMILES IDX 5 1 6 2 7 3 8 4 9 5 10 6 4 7 3 8 2 9 1 10
REMARK H PARENT
REMARK Flexibility Score: inf
ROOT
ATOM      1  C   UNL     1       1.014  14.580  -3.814  1.00  0.00     0.000 C 
ENDROOT
BRANCH   1   2
ATOM      2  C   UNL     1       0.892  14.479  -5.348  1.00  0.00     0.006 C 
BRANCH   2   3
ATOM      3  C   UNL     1      -0.062  13.378  -5.836  1.00  0.00     0.053 C 
BRANCH   3   4
ATOM      4  C   UNL     1      -0.013  13.215  -7.324  1.00  0.00     0.041 C 
ATOM      5  O   UNL     1      -1.045  12.868  -7.958  1.00  0.00    -0.550 OA
ATOM      6  O   UNL     1       1.179  13.413  -8.007  1.00  0.00    -0.550 OA
ENDBRANCH   3   4
ENDBRANCH   2   3
ENDBRANCH   1   2
BRANCH   1   7
ATOM      7  C   UNL     1       0.267  15.768  -3.177  1.00  0.00     0.000 C 
BRANCH   7   8
ATOM      8  C   UNL     1      -0.879  15.382  -2.219  1.00  0.00    -0.000 C 
BRANCH   8   9
ATOM      9  C   UNL     1      -1.264  13.893  -2.239  1.00  0.00    -0.003 C 
ATOM     10  C   UNL     1      -2.240  13.516  -1.126  1.00  0.00     0.004 C 
ENDBRANCH   8   9
ENDBRANCH   7   8
ENDBRANCH   1   7
TORSDOF 6
ENDMDL
MODEL 2
REMARK VINA RESULT:    -2.377      0.968      1.436
REMARK INTER + INTRA:          -3.519
REMARK INTER:                  -3.257
REMARK INTRA:                  -0.262
REMARK UNBOUND:                -0.309
REMARK SMILES CCCCCCCC(=O)[O-]
REMARK SMILES IDX 5 1 6 2 7 3 8 4 9 5 10 6 4 7 3 8 2 9 1 10
REMARK H PARENT
REMARK Flexibility Score: inf
ROOT
ATOM      1  C   UNL     1       0.648  14.503  -5.151  1.00  0.00     0.000 C 
ENDROOT
BRANCH   1   2
ATOM      2  C   UNL     1      -0.059  13.333  -5.865  1.00  0.00     0.006 C 
BRANCH   2   3
ATOM      3  C   UNL     1       0.643  12.855  -7.145  1.00  0.00     0.053 C 
BRANCH   3   4
ATOM      4  C   UNL     1      -0.144  13.189  -8.374  1.00  0.00     0.041 C 
ATOM      5  O   UNL     1      -1.302  12.721  -8.531  1.00  0.00    -0.550 OA
ATOM      6  O   UNL     1       0.414  13.990  -9.361  1.00  0.00    -0.550 OA
ENDBRANCH   3   4
ENDBRANCH   2   3
ENDBRANCH   1   2
BRANCH   1   7
ATOM      7  C   UNL     1       0.379  14.601  -3.636  1.00  0.00     0.000 C 
BRANCH   7   8
ATOM      8  C   UNL     1      -0.219  13.333  -2.994  1.00  0.00    -0.000 C 
BRANCH   8   9
ATOM      9  C   UNL     1      -1.600  13.528  -2.343  1.00  0.00    -0.003 C 
ATOM     10  C   UNL     1      -1.740  14.876  -1.639  1.00  0.00     0.004 C 
ENDBRANCH   8   9
ENDBRANCH   7   8
ENDBRANCH   1   7
TORSDOF 6
ENDMDL
MODEL 3
REMARK VINA RESULT:    -2.321      0.814      1.786
REMARK INTER + INTRA:          -3.444
REMARK INTER:                  -3.163
REMARK INTRA:                  -0.281
REMARK UNBOUND:                -0.309
REMARK SMILES CCCCCCCC(=O)[O-]
REMARK SMILES IDX 5 1 6 2 7 3 8 4 9 5 10 6 4 7 3 8 2 9 1 10
REMARK H PARENT
REMARK Flexibility Score: inf
ROOT
ATOM      1  C   UNL     1       0.596  14.446  -3.506  1.00  0.00     0.000 C 
ENDROOT
BRANCH   1   2
ATOM      2  C   UNL     1       0.656  14.414  -5.047  1.00  0.00     0.006 C 
BRANCH   2   3
ATOM      3  C   UNL     1      -0.145  13.270  -5.689  1.00  0.00     0.053 C 
BRANCH   3   4
ATOM      4  C   UNL     1       0.020  13.239  -7.178  1.00  0.00     0.041 C 
ATOM      5  O   UNL     1       1.112  13.582  -7.702  1.00  0.00    -0.550 OA
ATOM      6  O   UNL     1      -1.044  12.863  -7.987  1.00  0.00    -0.550 OA
ENDBRANCH   3   4
ENDBRANCH   2   3
ENDBRANCH   1   2
BRANCH   1   7
ATOM      7  C   UNL     1      -0.467  13.524  -2.876  1.00  0.00     0.000 C 
BRANCH   7   8
ATOM      8  C   UNL     1      -1.511  14.237  -1.993  1.00  0.00    -0.000 C 
BRANCH   8   9
ATOM      9  C   UNL     1      -1.104  15.643  -1.518  1.00  0.00    -0.003 C 
ATOM     10  C   UNL     1      -2.266  16.633  -1.526  1.00  0.00     0.004 C 
ENDBRANCH   8   9
ENDBRANCH   7   8
ENDBRANCH   1   7
TORSDOF 6
ENDMDL
MODEL 4
REMARK VINA RESULT:    -2.244      1.266      2.168
REMARK INTER + INTRA:          -3.340
REMARK INTER:                  -3.116
REMARK INTRA:                  -0.224
REMARK UNBOUND:                -0.309
REMARK SMILES CCCCCCCC(=O)[O-]
REMARK SMILES IDX 5 1 6 2 7 3 8 4 9 5 10 6 4 7 3 8 2 9 1 10
REMARK H PARENT
REMARK Flexibility Score: inf
ROOT
ATOM      1  C   UNL     1      -0.421  14.395  -2.296  1.00  0.00     0.000 C 
ENDROOT
BRANCH   1   2
ATOM      2  C   UNL     1       0.242  14.373  -3.688  1.00  0.00     0.006 C 
BRANCH   2   3
ATOM      3  C   UNL     1      -0.316  13.302  -4.639  1.00  0.00     0.053 C 
BRANCH   3   4
ATOM      4  C   UNL     1       0.095  13.545  -6.059  1.00  0.00     0.041 C 
ATOM      5  O   UNL     1      -0.662  13.203  -7.005  1.00  0.00    -0.550 OA
ATOM      6  O   UNL     1       1.328  14.120  -6.337  1.00  0.00    -0.550 OA
ENDBRANCH   3   4
ENDBRANCH   2   3
ENDBRANCH   1   2
BRANCH   1   7
ATOM      7  C   UNL     1      -1.783  13.677  -2.211  1.00  0.00     0.000 C 
BRANCH   7   8
ATOM      8  C   UNL     1      -2.204  13.241  -0.793  1.00  0.00    -0.000 C 
BRANCH   8   9
ATOM      9  C   UNL     1      -3.216  14.173  -0.104  1.00  0.00    -0.003 C 
ATOM     10  C   UNL     1      -3.944  15.090  -1.085  1.00  0.00     0.004 C 
ENDBRANCH   8   9
ENDBRANCH   7   8
ENDBRANCH   1   7
TORSDOF 6
ENDMDL
MODEL 5
REMARK VINA RESULT:    -2.166      5.808      7.067
REMARK INTER + INTRA:          -3.234
REMARK INTER:                  -2.570
REMARK INTRA:                  -0.665
REMARK UNBOUND:                -0.309
REMARK SMILES CCCCCCCC(=O)[O-]
REMARK SMILES IDX 5 1 6 2 7 3 8 4 9 5 10 6 4 7 3 8 2 9 1 10
REMARK H PARENT
REMARK Flexibility Score: inf
ROOT
ATOM      1  C   UNL     1      -0.671   9.331  -9.435  1.00  0.00     0.000 C 
ENDROOT
BRANCH   1   2
ATOM      2  C   UNL     1       0.163  10.627  -9.490  1.00  0.00     0.006 C 
BRANCH   2   3
ATOM      3  C   UNL     1      -0.426  11.723 -10.392  1.00  0.00     0.053 C 
BRANCH   3   4
ATOM      4  C   UNL     1      -1.233  12.715  -9.612  1.00  0.00     0.041 C 
ATOM      5  O   UNL     1      -1.066  12.831  -8.370  1.00  0.00    -0.550 OA
ATOM      6  O   UNL     1      -2.192  13.489 -10.253  1.00  0.00    -0.550 OA
ENDBRANCH   3   4
ENDBRANCH   2   3
ENDBRANCH   1   2
BRANCH   1   7
ATOM      7  C   UNL     1      -1.750   9.296  -8.335  1.00  0.00     0.000 C 
BRANCH   7   8
ATOM      8  C   UNL     1      -3.186   9.583  -8.818  1.00  0.00    -0.000 C 
BRANCH   8   9
ATOM      9  C   UNL     1      -3.446   9.263 -10.300  1.00  0.00    -0.003 C 
ATOM     10  C   UNL     1      -3.909  10.480 -11.099  1.00  0.00     0.004 C 
ENDBRANCH   8   9
ENDBRANCH   7   8
ENDBRANCH   1   7
TORSDOF 6
ENDMDL
MODEL 6
REMARK VINA RESULT:    -2.156      3.359      4.698
REMARK INTER + INTRA:          -3.221
REMARK INTER:                  -2.819
REMARK INTRA:                  -0.403
REMARK UNBOUND:                -0.309
REMARK SMILES CCCCCCCC(=O)[O-]
REMARK SMILES IDX 5 1 6 2 7 3 8 4 9 5 10 6 4 7 3 8 2 9 1 10
REMARK H PARENT
REMARK Flexibility Score: inf
ROOT
ATOM      1  C   UNL     1       0.842  15.055  -2.963  1.00  0.00     0.000 C 
ENDROOT
BRANCH   1   2
ATOM      2  C   UNL     1       2.033  14.299  -2.342  1.00  0.00     0.006 C 
BRANCH   2   3
ATOM      3  C   UNL     1       1.634  13.196  -1.348  1.00  0.00     0.053 C 
BRANCH   3   4
ATOM      4  C   UNL     1       1.993  11.832  -1.853  1.00  0.00     0.041 C 
ATOM      5  O   UNL     1       1.913  10.833  -1.090  1.00  0.00    -0.550 OA
ATOM      6  O   UNL     1       2.445  11.669  -3.155  1.00  0.00    -0.550 OA
ENDBRANCH   3   4
ENDBRANCH   2   3
ENDBRANCH   1   2
BRANCH   1   7
ATOM      7  C   UNL     1      -0.458  14.236  -3.089  1.00  0.00     0.000 C 
BRANCH   7   8
ATOM      8  C   UNL     1      -0.525  13.301  -4.313  1.00  0.00    -0.000 C 
BRANCH   8   9
ATOM      9  C   UNL     1       0.300  13.763  -5.527  1.00  0.00    -0.003 C 
ATOM     10  C   UNL     1      -0.107  13.066  -6.823  1.00  0.00     0.004 C 
ENDBRANCH   8   9
ENDBRANCH   7   8
ENDBRANCH   1   7
TORSDOF 6
ENDMDL
MODEL 7
REMARK VINA RESULT:    -2.149      2.031      3.613
REMARK INTER + INTRA:          -3.211
REMARK INTER:                  -2.980
REMARK INTRA:                  -0.231
REMARK UNBOUND:                -0.309
REMARK SMILES CCCCCCCC(=O)[O-]
REMARK SMILES IDX 5 1 6 2 7 3 8 4 9 5 10 6 4 7 3 8 2 9 1 10
REMARK H PARENT
REMARK Flexibility Score: inf
ROOT
ATOM      1  C   UNL     1       0.731  12.852  -7.727  1.00  0.00     0.000 C 
ENDROOT
BRANCH   1   2
ATOM      2  C   UNL     1       0.170  11.516  -8.255  1.00  0.00     0.006 C 
BRANCH   2   3
ATOM      3  C   UNL     1      -1.349  11.515  -8.489  1.00  0.00     0.053 C 
BRANCH   3   4
ATOM      4  C   UNL     1      -1.709  12.075  -9.831  1.00  0.00     0.041 C 
ATOM      5  O   UNL     1      -1.769  11.321 -10.837  1.00  0.00    -0.550 OA
ATOM      6  O   UNL     1      -1.945  13.436  -9.975  1.00  0.00    -0.550 OA
ENDBRANCH   3   4
ENDBRANCH   2   3
ENDBRANCH   1   2
BRANCH   1   7
ATOM      7  C   UNL     1       0.038  13.397  -6.463  1.00  0.00     0.000 C 
BRANCH   7   8
ATOM      8  C   UNL     1       0.978  14.061  -5.436  1.00  0.00    -0.000 C 
BRANCH   8   9
ATOM      9  C   UNL     1       0.319  14.418  -4.093  1.00  0.00    -0.003 C 
ATOM     10  C   UNL     1      -0.643  13.341  -3.597  1.00  0.00     0.004 C 
ENDBRANCH   8   9
ENDBRANCH   7   8
ENDBRANCH   1   7
TORSDOF 6
ENDMDL
MODEL 8
REMARK VINA RESULT:    -2.147      4.859      7.204
REMARK INTER + INTRA:          -3.209
REMARK INTER:                  -2.655
REMARK INTRA:                  -0.554
REMARK UNBOUND:                -0.309
REMARK SMILES CCCCCCCC(=O)[O-]
REMARK SMILES IDX 5 1 6 2 7 3 8 4 9 5 10 6 4 7 3 8 2 9 1 10
REMARK H PARENT
REMARK Flexibility Score: inf
ROOT
ATOM      1  C   UNL     1      -3.054  10.572 -10.256  1.00  0.00     0.000 C 
ENDROOT
BRANCH   1   2
ATOM      2  C   UNL     1      -1.602  10.400  -9.766  1.00  0.00     0.006 C 
BRANCH   2   3
ATOM      3  C   UNL     1      -1.390  10.739  -8.282  1.00  0.00     0.053 C 
BRANCH   3   4
ATOM      4  C   UNL     1      -0.485  11.919  -8.102  1.00  0.00     0.041 C 
ATOM      5  O   UNL     1      -0.966  13.053  -7.839  1.00  0.00    -0.550 OA
ATOM      6  O   UNL     1       0.887  11.773  -8.255  1.00  0.00    -0.550 OA
ENDBRANCH   3   4
ENDBRANCH   2   3
ENDBRANCH   1   2
BRANCH   1   7
ATOM      7  C   UNL     1      -3.252  11.640 -11.350  1.00  0.00     0.000 C 
BRANCH   7   8
ATOM      8  C   UNL     1      -2.801  13.063 -10.963  1.00  0.00    -0.000 C 
BRANCH   8   9
ATOM      9  C   UNL     1      -1.760  13.690 -11.906  1.00  0.00    -0.003 C 
ATOM     10  C   UNL     1      -0.361  13.746 -11.294  1.00  0.00     0.004 C 
ENDBRANCH   8   9
ENDBRANCH   7   8
ENDBRANCH   1   7
TORSDOF 6
ENDMDL
MODEL 9
REMARK VINA RESULT:    -2.121      4.812      5.653
REMARK INTER + INTRA:          -3.174
REMARK INTER:                  -2.727
REMARK INTRA:                  -0.447
REMARK UNBOUND:                -0.309
REMARK SMILES CCCCCCCC(=O)[O-]
REMARK SMILES IDX 5 1 6 2 7 3 8 4 9 5 10 6 4 7 3 8 2 9 1 10
REMARK H PARENT
REMARK Flexibility Score: inf
ROOT
ATOM      1  C   UNL     1       1.719  13.019  -2.061  1.00  0.00     0.000 C 
ENDROOT
BRANCH   1   2
ATOM      2  C   UNL     1       1.768  11.694  -1.274  1.00  0.00     0.006 C 
BRANCH   2   3
ATOM      3  C   UNL     1       0.639  11.526  -0.245  1.00  0.00     0.053 C 
BRANCH   3   4
ATOM      4  C   UNL     1       0.508  10.107   0.215  1.00  0.00     0.041 C 
ATOM      5  O   UNL     1      -0.307   9.809   1.128  1.00  0.00    -0.550 OA
ATOM      6  O   UNL     1       1.309   9.119  -0.342  1.00  0.00    -0.550 OA
ENDBRANCH   3   4
ENDBRANCH   2   3
ENDBRANCH   1   2
BRANCH   1   7
ATOM      7  C   UNL     1       1.194  12.902  -3.505  1.00  0.00     0.000 C 
BRANCH   7   8
ATOM      8  C   UNL     1      -0.234  13.440  -3.728  1.00  0.00    -0.000 C 
BRANCH   8   9
ATOM      9  C   UNL     1      -0.790  14.294  -2.575  1.00  0.00    -0.003 C 
ATOM     10  C   UNL     1      -1.998  13.656  -1.891  1.00  0.00     0.004 C 
ENDBRANCH   8   9
ENDBRANCH   7   8
ENDBRANCH   1   7
TORSDOF 6
ENDMDL
