MODEL 1
REMARK VINA RESULT:    -3.204      0.000      0.000
REMARK INTER + INTRA:          -3.619
REMARK INTER:                  -3.579
REMARK INTRA:                  -0.040
REMARK UNBOUND:                -0.040
REMARK SMILES CCCC(=O)[O-]
REMARK SMILES IDX 3 1 4 2 5 3 6 4 2 5 1 6
REMARK H PARENT
REMARK Flexibility Score: inf
ROOT
ATOM      1  C   UNL     1       3.443  57.723  23.987  1.00  0.00     0.052 C 
ENDROOT
BRANCH   1   2
ATOM      2  C   UNL     1       2.433  57.353  25.030  1.00  0.00     0.041 C 
ATOM      3  O   UNL     1       2.675  56.427  25.847  1.00  0.00    -0.550 OA
ATOM      4  O   UNL     1       1.209  58.009  25.077  1.00  0.00    -0.550 OA
ENDBRANCH   1   2
BRANCH   1   5
ATOM      5  C   UNL     1       2.774  58.176  22.684  1.00  0.00     0.003 C 
ATOM      6  C   UNL     1       2.193  57.006  21.891  1.00  0.00     0.004 C 
ENDBRANCH   1   5
TORSDOF 2
ENDMDL
MODEL 2
REMARK VINA RESULT:    -3.162      2.235      2.998
REMARK INTER + INTRA:          -3.571
REMARK INTER:                  -3.522
REMARK INTRA:                  -0.049
REMARK UNBOUND:                -0.040
REMARK SMILES CCCC(=O)[O-]
REMARK SMILES IDX 3 1 4 2 5 3 6 4 2 5 1 6
REMARK H PARENT
REMARK Flexibility Score: inf
ROOT
ATOM      1  C   UNL     1       1.935  56.836  22.864  1.00  0.00     0.052 C 
ENDROOT
BRANCH   1   2
ATOM      2  C   UNL     1       3.049  57.829  22.992  1.00  0.00     0.041 C 
ATOM      3  O   UNL     1       3.230  58.699  22.099  1.00  0.00    -0.550 OA
ATOM      4  O   UNL     1       3.909  57.773  24.082  1.00  0.00    -0.550 OA
ENDBRANCH   1   2
BRANCH   1   5
ATOM      5  C   UNL     1       0.576  57.460  23.204  1.00  0.00     0.003 C 
ATOM      6  C   UNL     1       0.490  57.908  24.663  1.00  0.00     0.004 C 
ENDBRANCH   1   5
TORSDOF 2
ENDMDL
MODEL 3
REMARK VINA RESULT:    -3.158      2.330      3.204
REMARK INTER + INTRA:          -3.567
REMARK INTER:                  -3.547
REMARK INTRA:                  -0.020
REMARK UNBOUND:                -0.040
REMARK SMILES CCCC(=O)[O-]
REMARK SMILES IDX 3 1 4 2 5 3 6 4 2 5 1 6
REMARK H PARENT
REMARK Flexibility Score: inf
ROOT
ATOM      1  C   UNL     1       3.475  58.106  23.934  1.00  0.00     0.052 C 
ENDROOT
BRANCH   1   2
ATOM      2  C   UNL     1       3.187  58.081  22.464  1.00  0.00     0.041 C 
ATOM      3  O   UNL     1       3.605  59.006  21.720  1.00  0.00    -0.550 OA
ATOM      4  O   UNL     1       2.427  57.052  21.922  1.00  0.00    -0.550 OA
ENDBRANCH   1   2
BRANCH   1   5
ATOM      5  C   UNL     1       2.554  57.158  24.710  1.00  0.00     0.003 C 
ATOM      6  C   UNL     1       1.215  57.805  25.062  1.00  0.00     0.004 C 
ENDBRANCH   1   5
TORSDOF 2
ENDMDL
MODEL 4
REMARK VINA RESULT:    -3.152      1.300      1.655
REMARK INTER + INTRA:          -3.560
REMARK INTER:                  -3.532
REMARK INTRA:                  -0.028
REMARK UNBOUND:                -0.040
REMARK SMILES CCCC(=O)[O-]
REMARK SMILES IDX 3 1 4 2 5 3 6 4 2 5 1 6
REMARK H PARENT
REMARK Flexibility Score: inf
ROOT
ATOM      1  C   UNL     1       0.876  57.632  23.264  1.00  0.00     0.052 C 
ENDROOT
BRANCH   1   2
ATOM      2  C   UNL     1       1.011  57.771  24.750  1.00  0.00     0.041 C 
ATOM      3  O   UNL     1       1.959  57.208  25.356  1.00  0.00    -0.550 OA
ATOM      4  O   UNL     1       0.068  58.496  25.468  1.00  0.00    -0.550 OA
ENDBRANCH   1   2
BRANCH   1   5
ATOM      5  C   UNL     1       2.165  57.103  22.624  1.00  0.00     0.003 C 
ATOM      6  C   UNL     1       3.119  58.227  22.223  1.00  0.00     0.004 C 
ENDBRANCH   1   5
TORSDOF 2
ENDMDL
MODEL 5
REMARK VINA RESULT:    -3.140      1.709      2.135
REMARK INTER + INTRA:          -3.547
REMARK INTER:                  -3.522
REMARK INTRA:                  -0.025
REMARK UNBOUND:                -0.040
REMARK SMILES CCCC(=O)[O-]
REMARK SMILES IDX 3 1 4 2 5 3 6 4 2 5 1 6
REMARK H PARENT
REMARK Flexibility Score: inf
ROOT
ATOM      1  C   UNL     1       2.360  57.285  24.648  1.00  0.00     0.052 C 
ENDROOT
BRANCH   1   2
ATOM      2  C   UNL     1       1.070  57.904  24.202  1.00  0.00     0.041 C 
ATOM      3  O   UNL     1       0.686  58.995  24.698  1.00  0.00    -0.550 OA
ATOM      4  O   UNL     1       0.276  57.256  23.264  1.00  0.00    -0.550 OA
ENDBRANCH   1   2
BRANCH   1   5
ATOM      5  C   UNL     1       3.573  58.014  24.058  1.00  0.00     0.003 C 
ATOM      6  C   UNL     1       3.430  58.261  22.557  1.00  0.00     0.004 C 
ENDBRANCH   1   5
TORSDOF 2
ENDMDL
MODEL 6
REMARK VINA RESULT:    -3.136      1.965      3.013
REMARK INTER + INTRA:          -3.543
REMARK INTER:                  -3.513
REMARK INTRA:                  -0.030
REMARK UNBOUND:                -0.040
REMARK SMILES CCCC(=O)[O-]
REMARK SMILES IDX 3 1 4 2 5 3 6 4 2 5 1 6
REMARK H PARENT
REMARK Flexibility Score: inf
ROOT
ATOM      1  C   UNL     1       2.578  58.343  23.271  1.00  0.00     0.052 C 
ENDROOT
BRANCH   1   2
ATOM      2  C   UNL     1       1.672  57.394  22.549  1.00  0.00     0.041 C 
ATOM      3  O   UNL     1       0.474  57.259  22.913  1.00  0.00    -0.550 OA
ATOM      4  O   UNL     1       2.160  56.633  21.495  1.00  0.00    -0.550 OA
ENDBRANCH   1   2
BRANCH   1   5
ATOM      5  C   UNL     1       3.522  57.608  24.230  1.00  0.00     0.003 C 
ATOM      6  C   UNL     1       2.793  57.050  25.451  1.00  0.00     0.004 C 
ENDBRANCH   1   5
TORSDOF 2
ENDMDL
MODEL 7
REMARK VINA RESULT:    -3.134      2.115      2.872
REMARK INTER + INTRA:          -3.540
REMARK INTER:                  -3.514
REMARK INTRA:                  -0.026
REMARK UNBOUND:                -0.040
REMARK SMILES CCCC(=O)[O-]
REMARK SMILES IDX 3 1 4 2 5 3 6 4 2 5 1 6
REMARK H PARENT
REMARK Flexibility Score: inf
ROOT
ATOM      1  C   UNL     1       1.021  57.716  24.312  1.00  0.00     0.052 C 
ENDROOT
BRANCH   1   2
ATOM      2  C   UNL     1       2.379  57.368  24.841  1.00  0.00     0.041 C 
ATOM      3  O   UNL     1       2.496  56.600  25.833  1.00  0.00    -0.550 OA
ATOM      4  O   UNL     1       3.514  57.919  24.261  1.00  0.00    -0.550 OA
ENDBRANCH   1   2
BRANCH   1   5
ATOM      5  C   UNL     1       0.170  58.439  25.363  1.00  0.00     0.003 C 
ATOM      6  C   UNL     1       0.082  59.943  25.106  1.00  0.00     0.004 C 
ENDBRANCH   1   5
TORSDOF 2
ENDMDL
MODEL 8
REMARK VINA RESULT:    -3.122      2.553      3.430
REMARK INTER + INTRA:          -3.527
REMARK INTER:                  -3.500
REMARK INTRA:                  -0.026
REMARK UNBOUND:                -0.040
REMARK SMILES CCCC(=O)[O-]
REMARK SMILES IDX 3 1 4 2 5 3 6 4 2 5 1 6
REMARK H PARENT
REMARK Flexibility Score: inf
ROOT
ATOM      1  C   UNL     1       0.731  57.393  23.251  1.00  0.00     0.052 C 
ENDROOT
BRANCH   1   2
ATOM      2  C   UNL     1       1.961  57.354  22.397  1.00  0.00     0.041 C 
ATOM      3  O   UNL     1       2.017  56.588  21.400  1.00  0.00    -0.550 OA
ATOM      4  O   UNL     1       3.060  58.139  22.724  1.00  0.00    -0.550 OA
ENDBRANCH   1   2
BRANCH   1   5
ATOM      5  C   UNL     1       1.065  57.702  24.715  1.00  0.00     0.003 C 
ATOM      6  C   UNL     1       0.162  58.786  25.301  1.00  0.00     0.004 C 
ENDBRANCH   1   5
TORSDOF 2
ENDMDL
MODEL 9
REMARK VINA RESULT:    -3.117      2.191      2.713
REMARK INTER + INTRA:          -3.521
REMARK INTER:                  -3.473
REMARK INTRA:                  -0.049
REMARK UNBOUND:                -0.040
REMARK SMILES CCCC(=O)[O-]
REMARK SMILES IDX 3 1 4 2 5 3 6 4 2 5 1 6
REMARK H PARENT
REMARK Flexibility Score: inf
ROOT
ATOM      1  C   UNL     1       1.902  56.807  22.902  1.00  0.00     0.052 C 
ENDROOT
BRANCH   1   2
ATOM      2  C   UNL     1       3.039  57.757  23.120  1.00  0.00     0.041 C 
ATOM      3  O   UNL     1       3.850  57.570  24.066  1.00  0.00    -0.550 OA
ATOM      4  O   UNL     1       3.185  58.869  22.299  1.00  0.00    -0.550 OA
ENDBRANCH   1   2
BRANCH   1   5
ATOM      5  C   UNL     1       0.551  57.454  23.231  1.00  0.00     0.003 C 
ATOM      6  C   UNL     1       0.469  57.923  24.683  1.00  0.00     0.004 C 
ENDBRANCH   1   5
TORSDOF 2
ENDMDL
