MODEL 1
REMARK VINA RESULT:    -5.025      0.000      0.000
REMARK INTER + INTRA:         -15.237
REMARK INTER:                 -11.488
REMARK INTRA:                  -3.750
REMARK UNBOUND:                -3.750
REMARK SMILES CCCCCCCCCCCCCCCCCCCCCCCC(=O)[O-]
REMARK SMILES IDX 13 1 14 2 15 3 16 4 17 5 18 6 19 7 20 8 21 9 22 10 23 11
REMARK SMILES IDX 24 12 25 13 26 14 12 15 11 16 10 17 9 18 8 19 7 20 6 21 5 22
REMARK SMILES IDX 4 23 3 24 2 25 1 26
REMARK H PARENT
REMARK Flexibility Score: inf
ROOT
ATOM      1  C   UNL     1      18.666 -36.258  21.925  1.00  0.00     0.000 C 
ENDROOT
BRANCH   1   2
ATOM      2  C   UNL     1      18.025 -37.295  20.992  1.00  0.00     0.000 C 
BRANCH   2   3
ATOM      3  C   UNL     1      16.936 -36.653  20.116  1.00  0.00     0.000 C 
BRANCH   3   4
ATOM      4  C   UNL     1      17.444 -35.422  19.340  1.00  0.00     0.000 C 
BRANCH   4   5
ATOM      5  C   UNL     1      16.429 -34.266  19.287  1.00  0.00     0.000 C 
BRANCH   5   6
ATOM      6  C   UNL     1      15.140 -34.544  20.094  1.00  0.00     0.000 C 
BRANCH   6   7
ATOM      7  C   UNL     1      14.731 -33.352  20.981  1.00  0.00     0.000 C 
BRANCH   7   8
ATOM      8  C   UNL     1      13.594 -32.519  20.359  1.00  0.00     0.000 C 
BRANCH   8   9
ATOM      9  C   UNL     1      13.600 -31.059  20.854  1.00  0.00     0.000 C 
BRANCH   9  10
ATOM     10  C   UNL     1      12.328 -30.729  21.641  1.00  0.00     0.006 C 
BRANCH  10  11
ATOM     11  C   UNL     1      12.660 -30.289  23.073  1.00  0.00     0.053 C 
BRANCH  11  12
ATOM     12  C   UNL     1      12.607 -28.795  23.258  1.00  0.00     0.041 C 
ATOM     13  O   UNL     1      13.649 -28.123  23.479  1.00  0.00    -0.550 OA
ATOM     14  O   UNL     1      11.387 -28.141  23.148  1.00  0.00    -0.550 OA
ENDBRANCH  11  12
ENDBRANCH  10  11
ENDBRANCH   9  10
ENDBRANCH   8   9
ENDBRANCH   7   8
ENDBRANCH   6   7
ENDBRANCH   5   6
ENDBRANCH   4   5
ENDBRANCH   3   4
ENDBRANCH   2   3
ENDBRANCH   1   2
BRANCH   1  15
ATOM     15  C   UNL     1      17.652 -35.674  22.924  1.00  0.00     0.000 C 
BRANCH  15  16
ATOM     16  C   UNL     1      17.994 -34.228  23.320  1.00  0.00     0.000 C 
BRANCH  16  17
ATOM     17  C   UNL     1      16.738 -33.413  23.670  1.00  0.00     0.000 C 
BRANCH  17  18
ATOM     18  C   UNL     1      17.088 -32.009  24.190  1.00  0.00    -0.000 C 
BRANCH  18  19
ATOM     19  C   UNL     1      16.281 -30.896  23.496  1.00  0.00    -0.000 C 
BRANCH  19  20
ATOM     20  C   UNL     1      17.091 -30.033  22.508  1.00  0.00    -0.000 C 
BRANCH  20  21
ATOM     21  C   UNL     1      17.205 -30.607  21.081  1.00  0.00    -0.000 C 
BRANCH  21  22
ATOM     22  C   UNL     1      18.455 -31.472  20.817  1.00  0.00    -0.000 C 
BRANCH  22  23
ATOM     23  C   UNL     1      19.699 -31.068  21.629  1.00  0.00    -0.000 C 
BRANCH  23  24
ATOM     24  C   UNL     1      20.625 -30.117  20.853  1.00  0.00    -0.000 C 
BRANCH  24  25
ATOM     25  C   UNL     1      20.624 -28.692  21.427  1.00  0.00    -0.003 C 
ATOM     26  C   UNL     1      19.962 -27.683  20.486  1.00  0.00     0.004 C 
ENDBRANCH  24  25
ENDBRANCH  23  24
ENDBRANCH  22  23
ENDBRANCH  21  22
ENDBRANCH  20  21
ENDBRANCH  19  20
ENDBRANCH  18  19
ENDBRANCH  17  18
ENDBRANCH  16  17
ENDBRANCH  15  16
ENDBRANCH   1  15
TORSDOF 22
ENDMDL
MODEL 2
REMARK VINA RESULT:    -4.976      3.181      6.106
REMARK INTER + INTRA:         -15.125
REMARK INTER:                 -11.065
REMARK INTRA:                  -4.059
REMARK UNBOUND:                -3.750
REMARK SMILES CCCCCCCCCCCCCCCCCCCCCCCC(=O)[O-]
REMARK SMILES IDX 13 1 14 2 15 3 16 4 17 5 18 6 19 7 20 8 21 9 22 10 23 11
REMARK SMILES IDX 24 12 25 13 26 14 12 15 11 16 10 17 9 18 8 19 7 20 6 21 5 22
REMARK SMILES IDX 4 23 3 24 2 25 1 26
REMARK H PARENT
REMARK Flexibility Score: inf
ROOT
ATOM      1  C   UNL     1      16.087 -34.390  22.669  1.00  0.00     0.000 C 
ENDROOT
BRANCH   1   2
ATOM      2  C   UNL     1      15.123 -33.916  21.572  1.00  0.00     0.000 C 
BRANCH   2   3
ATOM      3  C   UNL     1      15.339 -34.701  20.267  1.00  0.00     0.000 C 
BRANCH   3   4
ATOM      4  C   UNL     1      16.580 -34.225  19.486  1.00  0.00     0.000 C 
BRANCH   4   5
ATOM      5  C   UNL     1      17.713 -35.266  19.437  1.00  0.00     0.000 C 
BRANCH   5   6
ATOM      6  C   UNL     1      17.210 -36.724  19.542  1.00  0.00     0.000 C 
BRANCH   6   7
ATOM      7  C   UNL     1      17.864 -37.490  20.708  1.00  0.00     0.000 C 
BRANCH   7   8
ATOM      8  C   UNL     1      18.737 -36.580  21.594  1.00  0.00     0.000 C 
BRANCH   8   9
ATOM      9  C   UNL     1      19.275 -37.316  22.837  1.00  0.00     0.000 C 
BRANCH   9  10
ATOM     10  C   UNL     1      18.797 -36.652  24.132  1.00  0.00     0.006 C 
BRANCH  10  11
ATOM     11  C   UNL     1      18.575 -37.690  25.239  1.00  0.00     0.053 C 
BRANCH  11  12
ATOM     12  C   UNL     1      18.053 -37.088  26.517  1.00  0.00     0.041 C 
ATOM     13  O   UNL     1      18.534 -37.406  27.637  1.00  0.00    -0.550 OA
ATOM     14  O   UNL     1      17.045 -36.136  26.456  1.00  0.00    -0.550 OA
ENDBRANCH  11  12
ENDBRANCH  10  11
ENDBRANCH   9  10
ENDBRANCH   8   9
ENDBRANCH   7   8
ENDBRANCH   6   7
ENDBRANCH   5   6
ENDBRANCH   4   5
ENDBRANCH   3   4
ENDBRANCH   2   3
ENDBRANCH   1   2
BRANCH   1  15
ATOM     15  C   UNL     1      16.242 -33.350  23.792  1.00  0.00     0.000 C 
BRANCH  15  16
ATOM     16  C   UNL     1      17.700 -32.894  23.965  1.00  0.00     0.000 C 
BRANCH  16  17
ATOM     17  C   UNL     1      18.571 -33.277  22.757  1.00  0.00     0.000 C 
BRANCH  17  18
ATOM     18  C   UNL     1      19.598 -32.183  22.418  1.00  0.00    -0.000 C 
BRANCH  18  19
ATOM     19  C   UNL     1      19.366 -31.558  21.030  1.00  0.00    -0.000 C 
BRANCH  19  20
ATOM     20  C   UNL     1      17.921 -31.088  20.768  1.00  0.00    -0.000 C 
BRANCH  20  21
ATOM     21  C   UNL     1      17.561 -29.716  21.376  1.00  0.00    -0.000 C 
BRANCH  21  22
ATOM     22  C   UNL     1      16.432 -29.738  22.427  1.00  0.00    -0.000 C 
BRANCH  22  23
ATOM     23  C   UNL     1      15.058 -29.280  21.904  1.00  0.00    -0.000 C 
BRANCH  23  24
ATOM     24  C   UNL     1      14.292 -30.409  21.193  1.00  0.00    -0.000 C 
BRANCH  24  25
ATOM     25  C   UNL     1      12.982 -30.775  21.907  1.00  0.00    -0.003 C 
ATOM     26  C   UNL     1      13.213 -31.254  23.342  1.00  0.00     0.004 C 
ENDBRANCH  24  25
ENDBRANCH  23  24
ENDBRANCH  22  23
ENDBRANCH  21  22
ENDBRANCH  20  21
ENDBRANCH  19  20
ENDBRANCH  18  19
ENDBRANCH  17  18
ENDBRANCH  16  17
ENDBRANCH  15  16
ENDBRANCH   1  15
TORSDOF 22
ENDMDL
MODEL 3
REMARK VINA RESULT:    -4.925      2.686      6.251
REMARK INTER + INTRA:         -15.010
REMARK INTER:                 -10.905
REMARK INTRA:                  -4.105
REMARK UNBOUND:                -3.750
REMARK SMILES CCCCCCCCCCCCCCCCCCCCCCCC(=O)[O-]
REMARK SMILES IDX 13 1 14 2 15 3 16 4 17 5 18 6 19 7 20 8 21 9 22 10 23 11
REMARK SMILES IDX 24 12 25 13 26 14 12 15 11 16 10 17 9 18 8 19 7 20 6 21 5 22
REMARK SMILES IDX 4 23 3 24 2 25 1 26
REMARK H PARENT
REMARK Flexibility Score: inf
ROOT
ATOM      1  C   UNL     1      16.032 -34.017  22.013  1.00  0.00     0.000 C 
ENDROOT
BRANCH   1   2
ATOM      2  C   UNL     1      15.339 -34.035  23.383  1.00  0.00     0.000 C 
BRANCH   2   3
ATOM      3  C   UNL     1      15.219 -32.615  23.962  1.00  0.00     0.000 C 
BRANCH   3   4
ATOM      4  C   UNL     1      13.756 -32.190  24.194  1.00  0.00     0.000 C 
BRANCH   4   5
ATOM      5  C   UNL     1      13.373 -30.886  23.469  1.00  0.00     0.000 C 
BRANCH   5   6
ATOM      6  C   UNL     1      13.192 -31.063  21.945  1.00  0.00     0.000 C 
BRANCH   6   7
ATOM      7  C   UNL     1      14.335 -30.415  21.138  1.00  0.00     0.000 C 
BRANCH   7   8
ATOM      8  C   UNL     1      15.016 -29.263  21.902  1.00  0.00     0.000 C 
BRANCH   8   9
ATOM      9  C   UNL     1      16.543 -29.444  21.993  1.00  0.00     0.000 C 
BRANCH   9  10
ATOM     10  C   UNL     1      16.995 -30.739  21.310  1.00  0.00     0.006 C 
BRANCH  10  11
ATOM     11  C   UNL     1      18.471 -30.662  20.897  1.00  0.00     0.053 C 
BRANCH  11  12
ATOM     12  C   UNL     1      19.388 -31.387  21.847  1.00  0.00     0.041 C 
ATOM     13  O   UNL     1      19.597 -32.625  21.741  1.00  0.00    -0.550 OA
ATOM     14  O   UNL     1      20.041 -30.669  22.839  1.00  0.00    -0.550 OA
ENDBRANCH  11  12
ENDBRANCH  10  11
ENDBRANCH   9  10
ENDBRANCH   8   9
ENDBRANCH   7   8
ENDBRANCH   6   7
ENDBRANCH   5   6
ENDBRANCH   4   5
ENDBRANCH   3   4
ENDBRANCH   2   3
ENDBRANCH   1   2
BRANCH   1  15
ATOM     15  C   UNL     1      15.028 -34.161  20.856  1.00  0.00     0.000 C 
BRANCH  15  16
ATOM     16  C   UNL     1      15.727 -34.391  19.506  1.00  0.00     0.000 C 
BRANCH  16  17
ATOM     17  C   UNL     1      17.200 -33.950  19.536  1.00  0.00     0.000 C 
BRANCH  17  18
ATOM     18  C   UNL     1      18.154 -35.103  19.180  1.00  0.00    -0.000 C 
BRANCH  18  19
ATOM     19  C   UNL     1      17.516 -36.490  19.384  1.00  0.00    -0.000 C 
BRANCH  19  20
ATOM     20  C   UNL     1      17.734 -37.101  20.783  1.00  0.00    -0.000 C 
BRANCH  20  21
ATOM     21  C   UNL     1      18.854 -36.443  21.615  1.00  0.00    -0.000 C 
BRANCH  21  22
ATOM     22  C   UNL     1      18.709 -36.586  23.144  1.00  0.00    -0.000 C 
BRANCH  22  23
ATOM     23  C   UNL     1      19.151 -35.350  23.950  1.00  0.00    -0.000 C 
BRANCH  23  24
ATOM     24  C   UNL     1      18.278 -35.117  25.195  1.00  0.00    -0.000 C 
BRANCH  24  25
ATOM     25  C   UNL     1      17.569 -36.396  25.667  1.00  0.00    -0.003 C 
ATOM     26  C   UNL     1      18.407 -37.193  26.668  1.00  0.00     0.004 C 
ENDBRANCH  24  25
ENDBRANCH  23  24
ENDBRANCH  22  23
ENDBRANCH  21  22
ENDBRANCH  20  21
ENDBRANCH  19  20
ENDBRANCH  18  19
ENDBRANCH  17  18
ENDBRANCH  16  17
ENDBRANCH  15  16
ENDBRANCH   1  15
TORSDOF 22
ENDMDL
MODEL 4
REMARK VINA RESULT:    -4.914      2.866      6.732
REMARK INTER + INTRA:         -14.984
REMARK INTER:                 -10.516
REMARK INTRA:                  -4.468
REMARK UNBOUND:                -3.750
REMARK SMILES CCCCCCCCCCCCCCCCCCCCCCCC(=O)[O-]
REMARK SMILES IDX 13 1 14 2 15 3 16 4 17 5 18 6 19 7 20 8 21 9 22 10 23 11
REMARK SMILES IDX 24 12 25 13 26 14 12 15 11 16 10 17 9 18 8 19 7 20 6 21 5 22
REMARK SMILES IDX 4 23 3 24 2 25 1 26
REMARK H PARENT
REMARK Flexibility Score: inf
ROOT
ATOM      1  C   UNL     1      13.499 -31.772  23.418  1.00  0.00     0.000 C 
ENDROOT
BRANCH   1   2
ATOM      2  C   UNL     1      12.628 -30.824  22.581  1.00  0.00     0.000 C 
BRANCH   2   3
ATOM      3  C   UNL     1      12.703 -29.385  23.118  1.00  0.00     0.000 C 
BRANCH   3   4
ATOM      4  C   UNL     1      14.144 -28.945  23.443  1.00  0.00     0.000 C 
BRANCH   4   5
ATOM      5  C   UNL     1      14.939 -28.480  22.208  1.00  0.00     0.000 C 
BRANCH   5   6
ATOM      6  C   UNL     1      16.073 -29.451  21.808  1.00  0.00     0.000 C 
BRANCH   6   7
ATOM      7  C   UNL     1      16.796 -30.047  23.031  1.00  0.00     0.000 C 
BRANCH   7   8
ATOM      8  C   UNL     1      17.463 -31.401  22.718  1.00  0.00     0.000 C 
BRANCH   8   9
ATOM      9  C   UNL     1      17.756 -31.576  21.215  1.00  0.00     0.000 C 
BRANCH   9  10
ATOM     10  C   UNL     1      19.248 -31.814  20.960  1.00  0.00     0.006 C 
BRANCH  10  11
ATOM     11  C   UNL     1      19.957 -32.302  22.230  1.00  0.00     0.053 C 
BRANCH  11  12
ATOM     12  C   UNL     1      21.124 -31.435  22.624  1.00  0.00     0.041 C 
ATOM     13  O   UNL     1      20.981 -30.203  22.846  1.00  0.00    -0.550 OA
ATOM     14  O   UNL     1      22.377 -32.012  22.778  1.00  0.00    -0.550 OA
ENDBRANCH  11  12
ENDBRANCH  10  11
ENDBRANCH   9  10
ENDBRANCH   8   9
ENDBRANCH   7   8
ENDBRANCH   6   7
ENDBRANCH   5   6
ENDBRANCH   4   5
ENDBRANCH   3   4
ENDBRANCH   2   3
ENDBRANCH   1   2
BRANCH   1  15
ATOM     15  C   UNL     1      14.294 -32.753  22.539  1.00  0.00     0.000 C 
BRANCH  15  16
ATOM     16  C   UNL     1      14.116 -32.468  21.040  1.00  0.00     0.000 C 
BRANCH  16  17
ATOM     17  C   UNL     1      14.524 -33.669  20.171  1.00  0.00     0.000 C 
BRANCH  17  18
ATOM     18  C   UNL     1      15.310 -34.720  20.973  1.00  0.00    -0.000 C 
BRANCH  18  19
ATOM     19  C   UNL     1      16.234 -35.578  20.089  1.00  0.00    -0.000 C 
BRANCH  19  20
ATOM     20  C   UNL     1      17.665 -35.026  19.927  1.00  0.00    -0.000 C 
BRANCH  20  21
ATOM     21  C   UNL     1      18.695 -35.578  20.933  1.00  0.00    -0.000 C 
BRANCH  21  22
ATOM     22  C   UNL     1      18.097 -36.188  22.219  1.00  0.00    -0.000 C 
BRANCH  22  23
ATOM     23  C   UNL     1      18.231 -35.303  23.472  1.00  0.00    -0.000 C 
BRANCH  23  24
ATOM     24  C   UNL     1      16.894 -35.128  24.213  1.00  0.00    -0.000 C 
BRANCH  24  25
ATOM     25  C   UNL     1      16.975 -34.082  25.336  1.00  0.00    -0.003 C 
ATOM     26  C   UNL     1      18.390 -33.531  25.522  1.00  0.00     0.004 C 
ENDBRANCH  24  25
ENDBRANCH  23  24
ENDBRANCH  22  23
ENDBRANCH  21  22
ENDBRANCH  20  21
ENDBRANCH  19  20
ENDBRANCH  18  19
ENDBRANCH  17  18
ENDBRANCH  16  17
ENDBRANCH  15  16
ENDBRANCH   1  15
TORSDOF 22
ENDMDL
MODEL 5
REMARK VINA RESULT:    -4.883      1.671      4.748
REMARK INTER + INTRA:         -14.913
REMARK INTER:                 -11.069
REMARK INTRA:                  -3.845
REMARK UNBOUND:                -3.750
REMARK SMILES CCCCCCCCCCCCCCCCCCCCCCCC(=O)[O-]
REMARK SMILES IDX 13 1 14 2 15 3 16 4 17 5 18 6 19 7 20 8 21 9 22 10 23 11
REMARK SMILES IDX 24 12 25 13 26 14 12 15 11 16 10 17 9 18 8 19 7 20 6 21 5 22
REMARK SMILES IDX 4 23 3 24 2 25 1 26
REMARK H PARENT
REMARK Flexibility Score: inf
ROOT
ATOM      1  C   UNL     1      18.696 -33.209  20.487  1.00  0.00     0.000 C 
ENDROOT
BRANCH   1   2
ATOM      2  C   UNL     1      19.023 -31.758  20.865  1.00  0.00     0.000 C 
BRANCH   2   3
ATOM      3  C   UNL     1      17.753 -30.891  20.892  1.00  0.00     0.000 C 
BRANCH   3   4
ATOM      4  C   UNL     1      17.760 -29.861  22.038  1.00  0.00     0.000 C 
BRANCH   4   5
ATOM      5  C   UNL     1      16.667 -30.109  23.095  1.00  0.00     0.000 C 
BRANCH   5   6
ATOM      6  C   UNL     1      15.728 -31.285  22.741  1.00  0.00     0.000 C 
BRANCH   6   7
ATOM      7  C   UNL     1      14.781 -31.651  23.899  1.00  0.00     0.000 C 
BRANCH   7   8
ATOM      8  C   UNL     1      13.298 -31.609  23.483  1.00  0.00     0.000 C 
BRANCH   8   9
ATOM      9  C   UNL     1      13.058 -30.696  22.265  1.00  0.00     0.000 C 
BRANCH   9  10
ATOM     10  C   UNL     1      12.215 -29.473  22.638  1.00  0.00     0.006 C 
BRANCH  10  11
ATOM     11  C   UNL     1      12.403 -29.099  24.114  1.00  0.00     0.053 C 
BRANCH  11  12
ATOM     12  C   UNL     1      13.212 -27.843  24.306  1.00  0.00     0.041 C 
ATOM     13  O   UNL     1      13.042 -27.100  25.309  1.00  0.00    -0.550 OA
ATOM     14  O   UNL     1      14.189 -27.517  23.376  1.00  0.00    -0.550 OA
ENDBRANCH  11  12
ENDBRANCH  10  11
ENDBRANCH   9  10
ENDBRANCH   8   9
ENDBRANCH   7   8
ENDBRANCH   6   7
ENDBRANCH   5   6
ENDBRANCH   4   5
ENDBRANCH   3   4
ENDBRANCH   2   3
ENDBRANCH   1   2
BRANCH   1  15
ATOM     15  C   UNL     1      17.192 -33.418  20.241  1.00  0.00     0.000 C 
BRANCH  15  16
ATOM     16  C   UNL     1      16.921 -34.368  19.064  1.00  0.00     0.000 C 
BRANCH  16  17
ATOM     17  C   UNL     1      16.561 -35.786  19.539  1.00  0.00     0.000 C 
BRANCH  17  18
ATOM     18  C   UNL     1      17.805 -36.682  19.674  1.00  0.00    -0.000 C 
BRANCH  18  19
ATOM     19  C   UNL     1      17.958 -37.281  21.084  1.00  0.00    -0.000 C 
BRANCH  19  20
ATOM     20  C   UNL     1      18.950 -36.533  21.998  1.00  0.00    -0.000 C 
BRANCH  20  21
ATOM     21  C   UNL     1      18.449 -36.278  23.434  1.00  0.00    -0.000 C 
BRANCH  21  22
ATOM     22  C   UNL     1      17.488 -35.082  23.593  1.00  0.00    -0.000 C 
BRANCH  22  23
ATOM     23  C   UNL     1      18.171 -33.754  23.969  1.00  0.00    -0.000 C 
BRANCH  23  24
ATOM     24  C   UNL     1      17.814 -33.291  25.392  1.00  0.00    -0.000 C 
BRANCH  24  25
ATOM     25  C   UNL     1      18.586 -32.032  25.814  1.00  0.00    -0.003 C 
ATOM     26  C   UNL     1      19.611 -31.596  24.765  1.00  0.00     0.004 C 
ENDBRANCH  24  25
ENDBRANCH  23  24
ENDBRANCH  22  23
ENDBRANCH  21  22
ENDBRANCH  20  21
ENDBRANCH  19  20
ENDBRANCH  18  19
ENDBRANCH  17  18
ENDBRANCH  16  17
ENDBRANCH  15  16
ENDBRANCH   1  15
TORSDOF 22
ENDMDL
MODEL 6
REMARK VINA RESULT:    -4.864      2.481      6.340
REMARK INTER + INTRA:         -14.870
REMARK INTER:                 -10.605
REMARK INTRA:                  -4.265
REMARK UNBOUND:                -3.750
REMARK SMILES CCCCCCCCCCCCCCCCCCCCCCCC(=O)[O-]
REMARK SMILES IDX 13 1 14 2 15 3 16 4 17 5 18 6 19 7 20 8 21 9 22 10 23 11
REMARK SMILES IDX 24 12 25 13 26 14 12 15 11 16 10 17 9 18 8 19 7 20 6 21 5 22
REMARK SMILES IDX 4 23 3 24 2 25 1 26
REMARK H PARENT
REMARK Flexibility Score: inf
ROOT
ATOM      1  C   UNL     1      15.489 -33.138  23.159  1.00  0.00     0.000 C 
ENDROOT
BRANCH   1   2
ATOM      2  C   UNL     1      14.246 -32.695  23.944  1.00  0.00     0.000 C 
BRANCH   2   3
ATOM      3  C   UNL     1      13.943 -31.206  23.708  1.00  0.00     0.000 C 
BRANCH   3   4
ATOM      4  C   UNL     1      13.404 -30.926  22.291  1.00  0.00     0.000 C 
BRANCH   4   5
ATOM      5  C   UNL     1      14.402 -30.173  21.392  1.00  0.00     0.000 C 
BRANCH   5   6
ATOM      6  C   UNL     1      15.574 -29.538  22.174  1.00  0.00     0.000 C 
BRANCH   6   7
ATOM      7  C   UNL     1      16.949 -29.999  21.651  1.00  0.00     0.000 C 
BRANCH   7   8
ATOM      8  C   UNL     1      17.844 -30.567  22.770  1.00  0.00     0.000 C 
BRANCH   8   9
ATOM      9  C   UNL     1      18.963 -31.473  22.220  1.00  0.00     0.000 C 
BRANCH   9  10
ATOM     10  C   UNL     1      19.777 -30.762  21.134  1.00  0.00     0.006 C 
BRANCH  10  11
ATOM     11  C   UNL     1      20.670 -29.669  21.735  1.00  0.00     0.053 C 
BRANCH  11  12
ATOM     12  C   UNL     1      20.679 -28.401  20.923  1.00  0.00     0.041 C 
ATOM     13  O   UNL     1      19.623 -27.744  20.720  1.00  0.00    -0.550 OA
ATOM     14  O   UNL     1      21.881 -27.929  20.416  1.00  0.00    -0.550 OA
ENDBRANCH  11  12
ENDBRANCH  10  11
ENDBRANCH   9  10
ENDBRANCH   8   9
ENDBRANCH   7   8
ENDBRANCH   6   7
ENDBRANCH   5   6
ENDBRANCH   4   5
ENDBRANCH   3   4
ENDBRANCH   2   3
ENDBRANCH   1   2
BRANCH   1  15
ATOM     15  C   UNL     1      15.171 -34.259  22.156  1.00  0.00     0.000 C 
BRANCH  15  16
ATOM     16  C   UNL     1      15.305 -33.791  20.698  1.00  0.00     0.000 C 
BRANCH  16  17
ATOM     17  C   UNL     1      16.758 -33.437  20.337  1.00  0.00     0.000 C 
BRANCH  17  18
ATOM     18  C   UNL     1      17.213 -34.127  19.039  1.00  0.00    -0.000 C 
BRANCH  18  19
ATOM     19  C   UNL     1      18.216 -35.268  19.289  1.00  0.00    -0.000 C 
BRANCH  19  20
ATOM     20  C   UNL     1      17.573 -36.623  19.650  1.00  0.00    -0.000 C 
BRANCH  20  21
ATOM     21  C   UNL     1      17.954 -37.177  21.038  1.00  0.00    -0.000 C 
BRANCH  21  22
ATOM     22  C   UNL     1      18.777 -36.219  21.925  1.00  0.00    -0.000 C 
BRANCH  22  23
ATOM     23  C   UNL     1      18.159 -35.932  23.306  1.00  0.00    -0.000 C 
BRANCH  23  24
ATOM     24  C   UNL     1      18.821 -34.735  24.010  1.00  0.00    -0.000 C 
BRANCH  24  25
ATOM     25  C   UNL     1      18.104 -34.344  25.311  1.00  0.00    -0.003 C 
ATOM     26  C   UNL     1      18.372 -32.893  25.713  1.00  0.00     0.004 C 
ENDBRANCH  24  25
ENDBRANCH  23  24
ENDBRANCH  22  23
ENDBRANCH  21  22
ENDBRANCH  20  21
ENDBRANCH  19  20
ENDBRANCH  18  19
ENDBRANCH  17  18
ENDBRANCH  16  17
ENDBRANCH  15  16
ENDBRANCH   1  15
TORSDOF 22
ENDMDL
MODEL 7
REMARK VINA RESULT:    -4.854      2.027      3.870
REMARK INTER + INTRA:         -14.847
REMARK INTER:                 -12.137
REMARK INTRA:                  -2.710
REMARK UNBOUND:                -3.750
REMARK SMILES CCCCCCCCCCCCCCCCCCCCCCCC(=O)[O-]
REMARK SMILES IDX 13 1 14 2 15 3 16 4 17 5 18 6 19 7 20 8 21 9 22 10 23 11
REMARK SMILES IDX 24 12 25 13 26 14 12 15 11 16 10 17 9 18 8 19 7 20 6 21 5 22
REMARK SMILES IDX 4 23 3 24 2 25 1 26
REMARK H PARENT
REMARK Flexibility Score: inf
ROOT
ATOM      1  C   UNL     1      17.833 -34.343  19.067  1.00  0.00     0.000 C 
ENDROOT
BRANCH   1   2
ATOM      2  C   UNL     1      17.287 -35.740  19.398  1.00  0.00     0.000 C 
BRANCH   2   3
ATOM      3  C   UNL     1      16.855 -35.831  20.871  1.00  0.00     0.000 C 
BRANCH   3   4
ATOM      4  C   UNL     1      17.996 -36.293  21.799  1.00  0.00     0.000 C 
BRANCH   4   5
ATOM      5  C   UNL     1      18.076 -35.501  23.117  1.00  0.00     0.000 C 
BRANCH   5   6
ATOM      6  C   UNL     1      16.819 -34.646  23.395  1.00  0.00     0.000 C 
BRANCH   6   7
ATOM      7  C   UNL     1      17.141 -33.367  24.193  1.00  0.00     0.000 C 
BRANCH   7   8
ATOM      8  C   UNL     1      16.251 -32.178  23.784  1.00  0.00     0.000 C 
BRANCH   8   9
ATOM      9  C   UNL     1      14.846 -32.625  23.335  1.00  0.00     0.000 C 
BRANCH   9  10
ATOM     10  C   UNL     1      13.774 -31.621  23.770  1.00  0.00     0.006 C 
BRANCH  10  11
ATOM     11  C   UNL     1      12.870 -31.231  22.594  1.00  0.00     0.053 C 
BRANCH  11  12
ATOM     12  C   UNL     1      13.602 -31.177  21.279  1.00  0.00     0.041 C 
ATOM     13  O   UNL     1      14.455 -30.280  21.039  1.00  0.00    -0.550 OA
ATOM     14  O   UNL     1      13.358 -32.155  20.326  1.00  0.00    -0.550 OA
ENDBRANCH  11  12
ENDBRANCH  10  11
ENDBRANCH   9  10
ENDBRANCH   8   9
ENDBRANCH   7   8
ENDBRANCH   6   7
ENDBRANCH   5   6
ENDBRANCH   4   5
ENDBRANCH   3   4
ENDBRANCH   2   3
ENDBRANCH   1   2
BRANCH   1  15
ATOM     15  C   UNL     1      17.288 -33.268  20.023  1.00  0.00     0.000 C 
BRANCH  15  16
ATOM     16  C   UNL     1      18.409 -32.410  20.633  1.00  0.00     0.000 C 
BRANCH  16  17
ATOM     17  C   UNL     1      17.977 -30.947  20.823  1.00  0.00     0.000 C 
BRANCH  17  18
ATOM     18  C   UNL     1      18.830 -30.227  21.882  1.00  0.00    -0.000 C 
BRANCH  18  19
ATOM     19  C   UNL     1      20.334 -30.248  21.551  1.00  0.00    -0.000 C 
BRANCH  19  20
ATOM     20  C   UNL     1      20.850 -28.995  20.816  1.00  0.00    -0.000 C 
BRANCH  20  21
ATOM     21  C   UNL     1      19.779 -27.924  20.521  1.00  0.00    -0.000 C 
BRANCH  21  22
ATOM     22  C   UNL     1      20.065 -26.528  21.112  1.00  0.00    -0.000 C 
BRANCH  22  23
ATOM     23  C   UNL     1      20.669 -25.520  20.115  1.00  0.00    -0.000 C 
BRANCH  23  24
ATOM     24  C   UNL     1      22.150 -25.222  20.404  1.00  0.00    -0.000 C 
BRANCH  24  25
ATOM     25  C   UNL     1      23.096 -25.917  19.414  1.00  0.00    -0.003 C 
ATOM     26  C   UNL     1      23.905 -27.038  20.068  1.00  0.00     0.004 C 
ENDBRANCH  24  25
ENDBRANCH  23  24
ENDBRANCH  22  23
ENDBRANCH  21  22
ENDBRANCH  20  21
ENDBRANCH  19  20
ENDBRANCH  18  19
ENDBRANCH  17  18
ENDBRANCH  16  17
ENDBRANCH  15  16
ENDBRANCH   1  15
TORSDOF 22
ENDMDL
MODEL 8
REMARK VINA RESULT:    -4.839      3.308      7.012
REMARK INTER + INTRA:         -14.813
REMARK INTER:                 -11.013
REMARK INTRA:                  -3.800
REMARK UNBOUND:                -3.750
REMARK SMILES CCCCCCCCCCCCCCCCCCCCCCCC(=O)[O-]
REMARK SMILES IDX 13 1 14 2 15 3 16 4 17 5 18 6 19 7 20 8 21 9 22 10 23 11
REMARK SMILES IDX 24 12 25 13 26 14 12 15 11 16 10 17 9 18 8 19 7 20 6 21 5 22
REMARK SMILES IDX 4 23 3 24 2 25 1 26
REMARK H PARENT
REMARK Flexibility Score: inf
ROOT
ATOM      1  C   UNL     1      19.172 -31.347  21.199  1.00  0.00     0.000 C 
ENDROOT
BRANCH   1   2
ATOM      2  C   UNL     1      18.949 -31.193  22.710  1.00  0.00     0.000 C 
BRANCH   2   3
ATOM      3  C   UNL     1      17.462 -30.962  23.031  1.00  0.00     0.000 C 
BRANCH   3   4
ATOM      4  C   UNL     1      16.954 -31.861  24.175  1.00  0.00     0.000 C 
BRANCH   4   5
ATOM      5  C   UNL     1      16.483 -33.250  23.703  1.00  0.00     0.000 C 
BRANCH   5   6
ATOM      6  C   UNL     1      16.512 -34.318  24.820  1.00  0.00     0.000 C 
BRANCH   6   7
ATOM      7  C   UNL     1      17.380 -35.536  24.448  1.00  0.00     0.000 C 
BRANCH   7   8
ATOM      8  C   UNL     1      17.920 -35.456  23.007  1.00  0.00     0.000 C 
BRANCH   8   9
ATOM      9  C   UNL     1      18.899 -36.601  22.685  1.00  0.00     0.000 C 
BRANCH   9  10
ATOM     10  C   UNL     1      20.357 -36.144  22.810  1.00  0.00     0.006 C 
BRANCH  10  11
ATOM     11  C   UNL     1      20.457 -34.613  22.838  1.00  0.00     0.053 C 
BRANCH  11  12
ATOM     12  C   UNL     1      21.785 -34.119  23.349  1.00  0.00     0.041 C 
ATOM     13  O   UNL     1      22.848 -34.301  22.698  1.00  0.00    -0.550 OA
ATOM     14  O   UNL     1      21.832 -33.418  24.546  1.00  0.00    -0.550 OA
ENDBRANCH  11  12
ENDBRANCH  10  11
ENDBRANCH   9  10
ENDBRANCH   8   9
ENDBRANCH   7   8
ENDBRANCH   6   7
ENDBRANCH   5   6
ENDBRANCH   4   5
ENDBRANCH   3   4
ENDBRANCH   2   3
ENDBRANCH   1   2
BRANCH   1  15
ATOM     15  C   UNL     1      17.994 -32.058  20.510  1.00  0.00     0.000 C 
BRANCH  15  16
ATOM     16  C   UNL     1      18.341 -33.500  20.106  1.00  0.00     0.000 C 
BRANCH  16  17
ATOM     17  C   UNL     1      17.397 -34.038  19.018  1.00  0.00     0.000 C 
BRANCH  17  18
ATOM     18  C   UNL     1      16.713 -35.348  19.446  1.00  0.00    -0.000 C 
BRANCH  18  19
ATOM     19  C   UNL     1      15.432 -35.112  20.268  1.00  0.00    -0.000 C 
BRANCH  19  20
ATOM     20  C   UNL     1      14.615 -33.873  19.847  1.00  0.00    -0.000 C 
BRANCH  20  21
ATOM     21  C   UNL     1      14.302 -32.881  20.986  1.00  0.00    -0.000 C 
BRANCH  21  22
ATOM     22  C   UNL     1      13.420 -31.679  20.587  1.00  0.00    -0.000 C 
BRANCH  22  23
ATOM     23  C   UNL     1      12.665 -31.020  21.756  1.00  0.00    -0.000 C 
BRANCH  23  24
ATOM     24  C   UNL     1      13.260 -31.392  23.125  1.00  0.00    -0.000 C 
BRANCH  24  25
ATOM     25  C   UNL     1      13.560 -30.160  23.992  1.00  0.00    -0.003 C 
ATOM     26  C   UNL     1      12.497 -29.070  23.848  1.00  0.00     0.004 C 
ENDBRANCH  24  25
ENDBRANCH  23  24
ENDBRANCH  22  23
ENDBRANCH  21  22
ENDBRANCH  20  21
ENDBRANCH  19  20
ENDBRANCH  18  19
ENDBRANCH  17  18
ENDBRANCH  16  17
ENDBRANCH  15  16
ENDBRANCH   1  15
TORSDOF 22
ENDMDL
MODEL 9
REMARK VINA RESULT:    -4.798      2.759      6.163
REMARK INTER + INTRA:         -14.718
REMARK INTER:                 -11.323
REMARK INTRA:                  -3.396
REMARK UNBOUND:                -3.750
REMARK SMILES CCCCCCCCCCCCCCCCCCCCCCCC(=O)[O-]
REMARK SMILES IDX 13 1 14 2 15 3 16 4 17 5 18 6 19 7 20 8 21 9 22 10 23 11
REMARK SMILES IDX 24 12 25 13 26 14 12 15 11 16 10 17 9 18 8 19 7 20 6 21 5 22
REMARK SMILES IDX 4 23 3 24 2 25 1 26
REMARK H PARENT
REMARK Flexibility Score: inf
ROOT
ATOM      1  C   UNL     1      18.826 -36.342  21.685  1.00  0.00     0.000 C 
ENDROOT
BRANCH   1   2
ATOM      2  C   UNL     1      18.370 -36.292  23.150  1.00  0.00     0.000 C 
BRANCH   2   3
ATOM      3  C   UNL     1      18.761 -34.958  23.807  1.00  0.00     0.000 C 
BRANCH   3   4
ATOM      4  C   UNL     1      19.465 -33.997  22.829  1.00  0.00     0.000 C 
BRANCH   4   5
ATOM      5  C   UNL     1      18.666 -32.711  22.549  1.00  0.00     0.000 C 
BRANCH   5   6
ATOM      6  C   UNL     1      19.016 -32.054  21.194  1.00  0.00     0.000 C 
BRANCH   6   7
ATOM      7  C   UNL     1      17.978 -30.998  20.766  1.00  0.00     0.000 C 
BRANCH   7   8
ATOM      8  C   UNL     1      18.505 -29.559  20.919  1.00  0.00     0.000 C 
BRANCH   8   9
ATOM      9  C   UNL     1      19.920 -29.515  21.528  1.00  0.00     0.000 C 
BRANCH   9  10
ATOM     10  C   UNL     1      20.905 -28.791  20.603  1.00  0.00     0.006 C 
BRANCH  10  11
ATOM     11  C   UNL     1      21.479 -27.538  21.277  1.00  0.00     0.053 C 
BRANCH  11  12
ATOM     12  C   UNL     1      21.388 -26.309  20.411  1.00  0.00     0.041 C 
ATOM     13  O   UNL     1      22.393 -25.865  19.794  1.00  0.00    -0.550 OA
ATOM     14  O   UNL     1      20.164 -25.673  20.263  1.00  0.00    -0.550 OA
ENDBRANCH  11  12
ENDBRANCH  10  11
ENDBRANCH   9  10
ENDBRANCH   8   9
ENDBRANCH   7   8
ENDBRANCH   6   7
ENDBRANCH   5   6
ENDBRANCH   4   5
ENDBRANCH   3   4
ENDBRANCH   2   3
ENDBRANCH   1   2
BRANCH   1  15
ATOM     15  C   UNL     1      17.944 -37.273  20.835  1.00  0.00     0.000 C 
BRANCH  15  16
ATOM     16  C   UNL     1      17.588 -36.654  19.474  1.00  0.00     0.000 C 
BRANCH  16  17
ATOM     17  C   UNL     1      18.121 -35.219  19.335  1.00  0.00     0.000 C 
BRANCH  17  18
ATOM     18  C   UNL     1      16.996 -34.212  19.041  1.00  0.00    -0.000 C 
BRANCH  18  19
ATOM     19  C   UNL     1      15.638 -34.648  19.623  1.00  0.00    -0.000 C 
BRANCH  19  20
ATOM     20  C   UNL     1      15.125 -33.774  20.786  1.00  0.00    -0.000 C 
BRANCH  20  21
ATOM     21  C   UNL     1      15.450 -34.310  22.196  1.00  0.00    -0.000 C 
BRANCH  21  22
ATOM     22  C   UNL     1      15.026 -33.392  23.362  1.00  0.00    -0.000 C 
BRANCH  22  23
ATOM     23  C   UNL     1      15.030 -31.888  23.030  1.00  0.00    -0.000 C 
BRANCH  23  24
ATOM     24  C   UNL     1      13.880 -31.131  23.716  1.00  0.00    -0.000 C 
BRANCH  24  25
ATOM     25  C   UNL     1      13.973 -29.611  23.519  1.00  0.00    -0.003 C 
ATOM     26  C   UNL     1      12.602 -28.962  23.315  1.00  0.00     0.004 C 
ENDBRANCH  24  25
ENDBRANCH  23  24
ENDBRANCH  22  23
ENDBRANCH  21  22
ENDBRANCH  20  21
ENDBRANCH  19  20
ENDBRANCH  18  19
ENDBRANCH  17  18
ENDBRANCH  16  17
ENDBRANCH  15  16
ENDBRANCH   1  15
TORSDOF 22
ENDMDL
