MODEL 1
REMARK VINA RESULT:    -6.302      0.000      0.000
REMARK INTER + INTRA:         -10.345
REMARK INTER:                  -8.328
REMARK INTRA:                  -2.017
REMARK UNBOUND:                -2.017
REMARK SMILES CC[C@@H](C=C[C@@H](C)[C@@H]1CC[C@H]2[C@@H]3CC=C4C[C@H](O)CC[C@@]4(C)[C@H]3CC[C@]21C)C(C)C
REMARK SMILES IDX 6 1 7 2 5 3 4 4 3 5 2 6 1 7 28 8 29 9 30 10 8 11 9 12 26 13
REMARK SMILES IDX 10 14 11 15 25 16 27 17 12 18 24 19 23 20 13 21 21 22 14 23
REMARK SMILES IDX 15 24 20 25 22 26 16 27 19 28 17 29 18 30
REMARK H PARENT 18 31
REMARK Flexibility Score: inf
ROOT
ATOM      1  C   UNL     1      24.011  22.022 -13.319  1.00  0.00     0.012 C 
ATOM      2  C   UNL     1      22.754  21.360 -13.914  1.00  0.00     0.012 C 
ENDROOT
BRANCH   1   3
ATOM      3  C   UNL     1      23.914  21.950 -11.809  1.00  0.00    -0.028 C 
ATOM      4  C   UNL     1      24.839  21.396 -11.000  1.00  0.00    -0.027 C 
BRANCH   4   5
ATOM      5  C   UNL     1      26.146  20.762 -11.457  1.00  0.00     0.014 C 
BRANCH   5   6
ATOM      6  C   UNL     1      26.020  19.217 -11.434  1.00  0.00     0.004 C 
ATOM      7  C   UNL     1      26.997  18.545 -12.400  1.00  0.00     0.004 C 
ENDBRANCH   5   6
BRANCH   5   8
ATOM      8  C   UNL     1      27.337  21.293 -10.602  1.00  0.00    -0.011 C 
ATOM      9  C   UNL     1      28.557  21.709 -11.439  1.00  0.00     0.008 C 
ATOM     10  C   UNL     1      26.915  22.436  -9.665  1.00  0.00     0.008 C 
ENDBRANCH   5   8
ENDBRANCH   4   5
ENDBRANCH   1   3
BRANCH   1  11
ATOM     11  C   UNL     1      24.146  23.501 -13.822  1.00  0.00     0.002 C 
ATOM     12  C   UNL     1      23.677  23.651 -15.268  1.00  0.00     0.005 C 
ATOM     13  C   UNL     1      25.566  24.160 -13.811  1.00  0.00    -0.026 C 
ATOM     14  C   UNL     1      24.221  24.983 -15.739  1.00  0.00     0.005 C 
ATOM     15  C   UNL     1      25.483  25.281 -14.905  1.00  0.00    -0.001 C 
ATOM     16  C   UNL     1      25.908  24.746 -12.407  1.00  0.00     0.007 C 
ATOM     17  C   UNL     1      26.663  23.141 -14.220  1.00  0.00     0.012 C 
ATOM     18  C   UNL     1      25.453  26.721 -14.318  1.00  0.00     0.000 C 
ATOM     19  C   UNL     1      27.023  25.794 -12.474  1.00  0.00     0.005 C 
ATOM     20  C   UNL     1      26.673  26.995 -13.401  1.00  0.00     0.003 C 
ATOM     21  C   UNL     1      25.460  27.790 -15.426  1.00  0.00     0.031 C 
ATOM     22  C   UNL     1      26.541  28.391 -12.672  1.00  0.00    -0.008 C 
ATOM     23  C   UNL     1      25.455  29.170 -14.836  1.00  0.00    -0.027 C 
ATOM     24  C   UNL     1      25.972  29.464 -13.620  1.00  0.00    -0.065 C 
ATOM     25  C   UNL     1      25.581  28.317 -11.438  1.00  0.00     0.014 C 
ATOM     26  C   UNL     1      27.960  28.826 -12.219  1.00  0.00     0.016 C 
ATOM     27  C   UNL     1      25.707  30.838 -13.041  1.00  0.00     0.063 C 
ATOM     28  C   UNL     1      25.263  29.693 -10.814  1.00  0.00     0.033 C 
ATOM     29  C   UNL     1      24.736  30.696 -11.859  1.00  0.00     0.118 C 
BRANCH  29  30
ATOM     30  O   UNL     1      24.491  31.948 -11.268  1.00  0.00    -0.393 OA
ATOM     31  H   UNL     1      25.142  32.064 -10.527  1.00  0.00     0.210 HD
ENDBRANCH  29  30
ENDBRANCH   1  11
TORSDOF 6
ENDMDL
MODEL 2
REMARK VINA RESULT:    -6.227      2.585      7.095
REMARK INTER + INTRA:         -10.246
REMARK INTER:                  -8.430
REMARK INTRA:                  -1.816
REMARK UNBOUND:                -2.017
REMARK SMILES CC[C@@H](C=C[C@@H](C)[C@@H]1CC[C@H]2[C@@H]3CC=C4C[C@H](O)CC[C@@]4(C)[C@H]3CC[C@]21C)C(C)C
REMARK SMILES IDX 6 1 7 2 5 3 4 4 3 5 2 6 1 7 28 8 29 9 30 10 8 11 9 12 26 13
REMARK SMILES IDX 10 14 11 15 25 16 27 17 12 18 24 19 23 20 13 21 21 22 14 23
REMARK SMILES IDX 15 24 20 25 22 26 16 27 19 28 17 29 18 30
REMARK H PARENT 18 31
REMARK Flexibility Score: inf
ROOT
ATOM      1  C   UNL     1      24.767  30.385 -13.378  1.00  0.00     0.012 C 
ATOM      2  C   UNL     1      25.506  31.421 -14.247  1.00  0.00     0.012 C 
ENDROOT
BRANCH   1   3
ATOM      3  C   UNL     1      25.033  30.713 -11.924  1.00  0.00    -0.028 C 
ATOM      4  C   UNL     1      26.020  30.177 -11.178  1.00  0.00    -0.027 C 
BRANCH   4   5
ATOM      5  C   UNL     1      27.049  29.166 -11.669  1.00  0.00     0.014 C 
BRANCH   5   6
ATOM      6  C   UNL     1      26.954  27.866 -10.830  1.00  0.00     0.004 C 
ATOM      7  C   UNL     1      26.227  28.091  -9.502  1.00  0.00     0.004 C 
ENDBRANCH   5   6
BRANCH   5   8
ATOM      8  C   UNL     1      28.475  29.795 -11.667  1.00  0.00    -0.011 C 
ATOM      9  C   UNL     1      28.896  30.369 -13.029  1.00  0.00     0.008 C 
ATOM     10  C   UNL     1      28.641  30.855 -10.566  1.00  0.00     0.008 C 
ENDBRANCH   5   8
ENDBRANCH   4   5
ENDBRANCH   1   3
BRANCH   1  11
ATOM     11  C   UNL     1      25.230  28.931 -13.740  1.00  0.00     0.002 C 
ATOM     12  C   UNL     1      25.803  28.857 -15.153  1.00  0.00     0.005 C 
ATOM     13  C   UNL     1      24.166  27.784 -13.699  1.00  0.00    -0.026 C 
ATOM     14  C   UNL     1      25.831  27.385 -15.507  1.00  0.00     0.005 C 
ATOM     15  C   UNL     1      24.729  26.696 -14.677  1.00  0.00    -0.001 C 
ATOM     16  C   UNL     1      23.990  27.226 -12.253  1.00  0.00     0.007 C 
ATOM     17  C   UNL     1      22.790  28.272 -14.229  1.00  0.00     0.012 C 
ATOM     18  C   UNL     1      25.267  25.428 -13.955  1.00  0.00     0.000 C 
ATOM     19  C   UNL     1      23.359  25.831 -12.245  1.00  0.00     0.005 C 
ATOM     20  C   UNL     1      24.189  24.784 -13.044  1.00  0.00     0.003 C 
ATOM     21  C   UNL     1      25.728  24.352 -14.955  1.00  0.00     0.031 C 
ATOM     22  C   UNL     1      24.796  23.607 -12.181  1.00  0.00    -0.008 C 
ATOM     23  C   UNL     1      26.219  23.130 -14.235  1.00  0.00    -0.027 C 
ATOM     24  C   UNL     1      25.782  22.759 -13.009  1.00  0.00    -0.065 C 
ATOM     25  C   UNL     1      25.583  24.140 -10.938  1.00  0.00     0.014 C 
ATOM     26  C   UNL     1      23.623  22.702 -11.722  1.00  0.00     0.016 C 
ATOM     27  C   UNL     1      26.512  21.642 -12.294  1.00  0.00     0.063 C 
ATOM     28  C   UNL     1      26.361  23.043 -10.177  1.00  0.00     0.033 C 
ATOM     29  C   UNL     1      27.287  22.237 -11.109  1.00  0.00     0.118 C 
BRANCH  29  30
ATOM     30  O   UNL     1      27.952  21.225 -10.395  1.00  0.00    -0.393 OA
ATOM     31  H   UNL     1      28.410  21.652  -9.624  1.00  0.00     0.210 HD
ENDBRANCH  29  30
ENDBRANCH   1  11
TORSDOF 6
ENDMDL
MODEL 3
REMARK VINA RESULT:    -6.088      0.804      1.028
REMARK INTER + INTRA:         -10.062
REMARK INTER:                  -8.000
REMARK INTRA:                  -2.062
REMARK UNBOUND:                -2.017
REMARK SMILES CC[C@@H](C=C[C@@H](C)[C@@H]1CC[C@H]2[C@@H]3CC=C4C[C@H](O)CC[C@@]4(C)[C@H]3CC[C@]21C)C(C)C
REMARK SMILES IDX 6 1 7 2 5 3 4 4 3 5 2 6 1 7 28 8 29 9 30 10 8 11 9 12 26 13
REMARK SMILES IDX 10 14 11 15 25 16 27 17 12 18 24 19 23 20 13 21 21 22 14 23
REMARK SMILES IDX 15 24 20 25 22 26 16 27 19 28 17 29 18 30
REMARK H PARENT 18 31
REMARK Flexibility Score: inf
ROOT
ATOM      1  C   UNL     1      23.992  22.381 -13.070  1.00  0.00     0.012 C 
ATOM      2  C   UNL     1      22.873  21.603 -13.789  1.00  0.00     0.012 C 
ENDROOT
BRANCH   1   3
ATOM      3  C   UNL     1      23.631  22.479 -11.602  1.00  0.00    -0.028 C 
ATOM      4  C   UNL     1      24.467  22.209 -10.580  1.00  0.00    -0.027 C 
BRANCH   4   5
ATOM      5  C   UNL     1      25.921  21.777 -10.719  1.00  0.00     0.014 C 
BRANCH   5   6
ATOM      6  C   UNL     1      26.007  20.230 -10.790  1.00  0.00     0.004 C 
ATOM      7  C   UNL     1      26.617  19.748 -12.108  1.00  0.00     0.004 C 
ENDBRANCH   5   6
BRANCH   5   8
ATOM      8  C   UNL     1      26.783  22.386  -9.571  1.00  0.00    -0.011 C 
ATOM      9  C   UNL     1      26.235  23.718  -9.033  1.00  0.00     0.008 C 
ATOM     10  C   UNL     1      27.003  21.393  -8.419  1.00  0.00     0.008 C 
ENDBRANCH   5   8
ENDBRANCH   4   5
ENDBRANCH   1   3
BRANCH   1  11
ATOM     11  C   UNL     1      24.183  23.797 -13.716  1.00  0.00     0.002 C 
ATOM     12  C   UNL     1      23.799  23.798 -15.195  1.00  0.00     0.005 C 
ATOM     13  C   UNL     1      25.614  24.433 -13.694  1.00  0.00    -0.026 C 
ATOM     14  C   UNL     1      24.394  25.066 -15.771  1.00  0.00     0.005 C 
ATOM     15  C   UNL     1      25.613  25.433 -14.902  1.00  0.00    -0.001 C 
ATOM     16  C   UNL     1      25.888  25.160 -12.341  1.00  0.00     0.007 C 
ATOM     17  C   UNL     1      26.712  23.361 -13.929  1.00  0.00     0.012 C 
ATOM     18  C   UNL     1      25.579  26.927 -14.472  1.00  0.00     0.000 C 
ATOM     19  C   UNL     1      27.025  26.180 -12.454  1.00  0.00     0.005 C 
ATOM     20  C   UNL     1      26.752  27.280 -13.520  1.00  0.00     0.003 C 
ATOM     21  C   UNL     1      25.668  27.873 -15.684  1.00  0.00     0.031 C 
ATOM     22  C   UNL     1      26.606  28.747 -12.950  1.00  0.00    -0.008 C 
ATOM     23  C   UNL     1      25.658  29.308 -15.243  1.00  0.00    -0.027 C 
ATOM     24  C   UNL     1      26.112  29.722 -14.038  1.00  0.00    -0.065 C 
ATOM     25  C   UNL     1      25.578  28.817 -11.772  1.00  0.00     0.014 C 
ATOM     26  C   UNL     1      28.006  29.208 -12.465  1.00  0.00     0.016 C 
ATOM     27  C   UNL     1      25.842  31.152 -13.622  1.00  0.00     0.063 C 
ATOM     28  C   UNL     1      25.253  30.256 -11.316  1.00  0.00     0.033 C 
ATOM     29  C   UNL     1      24.804  31.150 -12.488  1.00  0.00     0.118 C 
BRANCH  29  30
ATOM     30  O   UNL     1      24.551  32.460 -12.048  1.00  0.00    -0.393 OA
ATOM     31  H   UNL     1      24.343  33.012 -12.847  1.00  0.00     0.210 HD
ENDBRANCH  29  30
ENDBRANCH   1  11
TORSDOF 6
ENDMDL
MODEL 4
REMARK VINA RESULT:    -5.995      2.234      4.242
REMARK INTER + INTRA:          -9.939
REMARK INTER:                  -8.091
REMARK INTRA:                  -1.847
REMARK UNBOUND:                -2.017
REMARK SMILES CC[C@@H](C=C[C@@H](C)[C@@H]1CC[C@H]2[C@@H]3CC=C4C[C@H](O)CC[C@@]4(C)[C@H]3CC[C@]21C)C(C)C
REMARK SMILES IDX 6 1 7 2 5 3 4 4 3 5 2 6 1 7 28 8 29 9 30 10 8 11 9 12 26 13
REMARK SMILES IDX 10 14 11 15 25 16 27 17 12 18 24 19 23 20 13 21 21 22 14 23
REMARK SMILES IDX 15 24 20 25 22 26 16 27 19 28 17 29 18 30
REMARK H PARENT 18 31
REMARK Flexibility Score: inf
ROOT
ATOM      1  C   UNL     1      23.708  22.782 -11.161  1.00  0.00     0.012 C 
ATOM      2  C   UNL     1      23.769  21.531 -10.264  1.00  0.00     0.012 C 
ENDROOT
BRANCH   1   3
ATOM      3  C   UNL     1      24.180  22.394 -12.547  1.00  0.00    -0.028 C 
ATOM      4  C   UNL     1      25.471  22.300 -12.926  1.00  0.00    -0.027 C 
BRANCH   4   5
ATOM      5  C   UNL     1      26.676  22.551 -12.029  1.00  0.00     0.014 C 
BRANCH   5   6
ATOM      6  C   UNL     1      27.699  23.458 -12.760  1.00  0.00     0.004 C 
ATOM      7  C   UNL     1      27.229  24.912 -12.833  1.00  0.00     0.004 C 
ENDBRANCH   5   6
BRANCH   5   8
ATOM      8  C   UNL     1      27.288  21.200 -11.549  1.00  0.00    -0.011 C 
ATOM      9  C   UNL     1      27.391  21.081 -10.020  1.00  0.00     0.008 C 
ATOM     10  C   UNL     1      26.546  19.987 -12.132  1.00  0.00     0.008 C 
ENDBRANCH   5   8
ENDBRANCH   4   5
ENDBRANCH   1   3
BRANCH   1  11
ATOM     11  C   UNL     1      24.578  23.938 -10.555  1.00  0.00     0.002 C 
ATOM     12  C   UNL     1      24.973  23.648  -9.109  1.00  0.00     0.005 C 
ATOM     13  C   UNL     1      23.962  25.376 -10.501  1.00  0.00    -0.026 C 
ATOM     14  C   UNL     1      25.441  24.970  -8.539  1.00  0.00     0.005 C 
ATOM     15  C   UNL     1      24.732  26.085  -9.333  1.00  0.00    -0.001 C 
ATOM     16  C   UNL     1      24.151  26.125 -11.856  1.00  0.00     0.007 C 
ATOM     17  C   UNL     1      22.450  25.330 -10.149  1.00  0.00     0.012 C 
ATOM     18  C   UNL     1      25.738  27.168  -9.818  1.00  0.00     0.000 C 
ATOM     19  C   UNL     1      24.019  27.642 -11.701  1.00  0.00     0.005 C 
ATOM     20  C   UNL     1      25.047  28.243 -10.698  1.00  0.00     0.003 C 
ATOM     21  C   UNL     1      26.406  27.897  -8.639  1.00  0.00     0.031 C 
ATOM     22  C   UNL     1      26.104  29.232 -11.330  1.00  0.00    -0.008 C 
ATOM     23  C   UNL     1      27.353  28.953  -9.131  1.00  0.00    -0.027 C 
ATOM     24  C   UNL     1      27.209  29.590 -10.316  1.00  0.00    -0.065 C 
ATOM     25  C   UNL     1      26.813  28.611 -12.579  1.00  0.00     0.014 C 
ATOM     26  C   UNL     1      25.356  30.531 -11.732  1.00  0.00     0.016 C 
ATOM     27  C   UNL     1      28.345  30.466 -10.802  1.00  0.00     0.063 C 
ATOM     28  C   UNL     1      27.992  29.457 -13.110  1.00  0.00     0.033 C 
ATOM     29  C   UNL     1      29.015  29.784 -12.005  1.00  0.00     0.118 C 
BRANCH  29  30
ATOM     30  O   UNL     1      30.055  30.583 -12.510  1.00  0.00    -0.393 OA
ATOM     31  H   UNL     1      30.833  29.991 -12.682  1.00  0.00     0.210 HD
ENDBRANCH  29  30
ENDBRANCH   1  11
TORSDOF 6
ENDMDL
MODEL 5
REMARK VINA RESULT:    -5.882      1.565      2.938
REMARK INTER + INTRA:          -9.790
REMARK INTER:                  -7.731
REMARK INTRA:                  -2.059
REMARK UNBOUND:                -2.017
REMARK SMILES CC[C@@H](C=C[C@@H](C)[C@@H]1CC[C@H]2[C@@H]3CC=C4C[C@H](O)CC[C@@]4(C)[C@H]3CC[C@]21C)C(C)C
REMARK SMILES IDX 6 1 7 2 5 3 4 4 3 5 2 6 1 7 28 8 29 9 30 10 8 11 9 12 26 13
REMARK SMILES IDX 10 14 11 15 25 16 27 17 12 18 24 19 23 20 13 21 21 22 14 23
REMARK SMILES IDX 15 24 20 25 22 26 16 27 19 28 17 29 18 30
REMARK H PARENT 18 31
REMARK Flexibility Score: inf
ROOT
ATOM      1  C   UNL     1      24.431  22.624 -14.161  1.00  0.00     0.012 C 
ATOM      2  C   UNL     1      23.491  21.600 -13.497  1.00  0.00     0.012 C 
ENDROOT
BRANCH   1   3
ATOM      3  C   UNL     1      25.859  22.182 -13.916  1.00  0.00    -0.028 C 
ATOM      4  C   UNL     1      26.552  22.400 -12.780  1.00  0.00    -0.027 C 
BRANCH   4   5
ATOM      5  C   UNL     1      26.018  23.109 -11.542  1.00  0.00     0.014 C 
BRANCH   5   6
ATOM      6  C   UNL     1      26.690  24.498 -11.398  1.00  0.00     0.004 C 
ATOM      7  C   UNL     1      25.808  25.489 -10.636  1.00  0.00     0.004 C 
ENDBRANCH   5   6
BRANCH   5   8
ATOM      8  C   UNL     1      26.193  22.209 -10.281  1.00  0.00    -0.011 C 
ATOM      9  C   UNL     1      24.902  21.494  -9.852  1.00  0.00     0.008 C 
ATOM     10  C   UNL     1      27.337  21.197 -10.444  1.00  0.00     0.008 C 
ENDBRANCH   5   8
ENDBRANCH   4   5
ENDBRANCH   1   3
BRANCH   1  11
ATOM     11  C   UNL     1      24.165  24.063 -13.599  1.00  0.00     0.002 C 
ATOM     12  C   UNL     1      22.723  24.224 -13.121  1.00  0.00     0.005 C 
ATOM     13  C   UNL     1      24.388  25.283 -14.554  1.00  0.00    -0.026 C 
ATOM     14  C   UNL     1      22.499  25.716 -12.989  1.00  0.00     0.005 C 
ATOM     15  C   UNL     1      23.468  26.410 -13.967  1.00  0.00    -0.001 C 
ATOM     16  C   UNL     1      25.887  25.715 -14.580  1.00  0.00     0.007 C 
ATOM     17  C   UNL     1      23.925  24.960 -16.000  1.00  0.00     0.012 C 
ATOM     18  C   UNL     1      24.256  27.557 -13.272  1.00  0.00     0.000 C 
ATOM     19  C   UNL     1      26.065  27.150 -15.084  1.00  0.00     0.005 C 
ATOM     20  C   UNL     1      25.300  28.197 -14.224  1.00  0.00     0.003 C 
ATOM     21  C   UNL     1      23.322  28.681 -12.789  1.00  0.00     0.031 C 
ATOM     22  C   UNL     1      26.214  29.234 -13.458  1.00  0.00    -0.008 C 
ATOM     23  C   UNL     1      24.107  29.787 -12.144  1.00  0.00    -0.027 C 
ATOM     24  C   UNL     1      25.390  30.074 -12.461  1.00  0.00    -0.065 C 
ATOM     25  C   UNL     1      27.341  28.525 -12.636  1.00  0.00     0.014 C 
ATOM     26  C   UNL     1      26.840  30.184 -14.513  1.00  0.00     0.016 C 
ATOM     27  C   UNL     1      26.142  31.057 -11.589  1.00  0.00     0.063 C 
ATOM     28  C   UNL     1      28.133  29.480 -11.715  1.00  0.00     0.033 C 
ATOM     29  C   UNL     1      27.208  30.293 -10.788  1.00  0.00     0.118 C 
BRANCH  29  30
ATOM     30  O   UNL     1      27.954  31.176  -9.990  1.00  0.00    -0.393 OA
ATOM     31  H   UNL     1      27.438  32.021  -9.913  1.00  0.00     0.210 HD
ENDBRANCH  29  30
ENDBRANCH   1  11
TORSDOF 6
ENDMDL
MODEL 6
REMARK VINA RESULT:    -5.767      2.306      4.797
REMARK INTER + INTRA:          -9.638
REMARK INTER:                  -7.490
REMARK INTRA:                  -2.149
REMARK UNBOUND:                -2.017
REMARK SMILES CC[C@@H](C=C[C@@H](C)[C@@H]1CC[C@H]2[C@@H]3CC=C4C[C@H](O)CC[C@@]4(C)[C@H]3CC[C@]21C)C(C)C
REMARK SMILES IDX 6 1 7 2 5 3 4 4 3 5 2 6 1 7 28 8 29 9 30 10 8 11 9 12 26 13
REMARK SMILES IDX 10 14 11 15 25 16 27 17 12 18 24 19 23 20 13 21 21 22 14 23
REMARK SMILES IDX 15 24 20 25 22 26 16 27 19 28 17 29 18 30
REMARK H PARENT 18 31
REMARK Flexibility Score: inf
ROOT
ATOM      1  C   UNL     1      25.951  21.864  -8.923  1.00  0.00     0.012 C 
ATOM      2  C   UNL     1      25.829  21.104  -7.588  1.00  0.00     0.012 C 
ENDROOT
BRANCH   1   3
ATOM      3  C   UNL     1      27.018  21.185  -9.757  1.00  0.00    -0.028 C 
ATOM      4  C   UNL     1      27.044  21.157 -11.104  1.00  0.00    -0.027 C 
BRANCH   4   5
ATOM      5  C   UNL     1      26.021  21.813 -12.022  1.00  0.00     0.014 C 
BRANCH   5   6
ATOM      6  C   UNL     1      24.915  20.793 -12.394  1.00  0.00     0.004 C 
ATOM      7  C   UNL     1      23.567  21.152 -11.767  1.00  0.00     0.004 C 
ENDBRANCH   5   6
BRANCH   5   8
ATOM      8  C   UNL     1      26.726  22.435 -13.266  1.00  0.00    -0.011 C 
ATOM      9  C   UNL     1      25.758  23.133 -14.235  1.00  0.00     0.008 C 
ATOM     10  C   UNL     1      27.868  23.385 -12.873  1.00  0.00     0.008 C 
ENDBRANCH   5   8
ENDBRANCH   4   5
ENDBRANCH   1   3
BRANCH   1  11
ATOM     11  C   UNL     1      26.287  23.374  -8.669  1.00  0.00     0.002 C 
ATOM     12  C   UNL     1      26.547  23.654  -7.190  1.00  0.00     0.005 C 
ATOM     13  C   UNL     1      25.224  24.448  -9.078  1.00  0.00    -0.026 C 
ATOM     14  C   UNL     1      26.458  25.157  -7.035  1.00  0.00     0.005 C 
ATOM     15  C   UNL     1      25.538  25.677  -8.157  1.00  0.00    -0.001 C 
ATOM     16  C   UNL     1      25.341  24.813 -10.590  1.00  0.00     0.007 C 
ATOM     17  C   UNL     1      23.782  23.955  -8.783  1.00  0.00     0.012 C 
ATOM     18  C   UNL     1      26.180  26.874  -8.914  1.00  0.00     0.000 C 
ATOM     19  C   UNL     1      24.688  26.161 -10.911  1.00  0.00     0.005 C 
ATOM     20  C   UNL     1      25.301  27.342 -10.104  1.00  0.00     0.003 C 
ATOM     21  C   UNL     1      26.390  28.088  -7.991  1.00  0.00     0.031 C 
ATOM     22  C   UNL     1      26.044  28.434 -10.971  1.00  0.00    -0.008 C 
ATOM     23  C   UNL     1      26.988  29.238  -8.749  1.00  0.00    -0.027 C 
ATOM     24  C   UNL     1      26.810  29.431 -10.077  1.00  0.00    -0.065 C 
ATOM     25  C   UNL     1      27.091  27.797 -11.944  1.00  0.00     0.014 C 
ATOM     26  C   UNL     1      24.970  29.211 -11.777  1.00  0.00     0.016 C 
ATOM     27  C   UNL     1      27.642  30.490 -10.767  1.00  0.00     0.063 C 
ATOM     28  C   UNL     1      27.980  28.833 -12.666  1.00  0.00     0.033 C 
ATOM     29  C   UNL     1      28.667  29.797 -11.679  1.00  0.00     0.118 C 
BRANCH  29  30
ATOM     30  O   UNL     1      29.439  30.748 -12.367  1.00  0.00    -0.393 OA
ATOM     31  H   UNL     1      28.994  30.924 -13.237  1.00  0.00     0.210 HD
ENDBRANCH  29  30
ENDBRANCH   1  11
TORSDOF 6
ENDMDL
MODEL 7
REMARK VINA RESULT:    -5.766      2.901      7.955
REMARK INTER + INTRA:          -9.636
REMARK INTER:                  -7.461
REMARK INTRA:                  -2.176
REMARK UNBOUND:                -2.017
REMARK SMILES CC[C@@H](C=C[C@@H](C)[C@@H]1CC[C@H]2[C@@H]3CC=C4C[C@H](O)CC[C@@]4(C)[C@H]3CC[C@]21C)C(C)C
REMARK SMILES IDX 6 1 7 2 5 3 4 4 3 5 2 6 1 7 28 8 29 9 30 10 8 11 9 12 26 13
REMARK SMILES IDX 10 14 11 15 25 16 27 17 12 18 24 19 23 20 13 21 21 22 14 23
REMARK SMILES IDX 15 24 20 25 22 26 16 27 19 28 17 29 18 30
REMARK H PARENT 18 31
REMARK Flexibility Score: inf
ROOT
ATOM      1  C   UNL     1      25.911  30.778 -12.546  1.00  0.00     0.012 C 
ATOM      2  C   UNL     1      24.986  31.879 -11.991  1.00  0.00     0.012 C 
ENDROOT
BRANCH   1   3
ATOM      3  C   UNL     1      26.050  30.987 -14.040  1.00  0.00    -0.028 C 
ATOM      4  C   UNL     1      25.133  30.626 -14.960  1.00  0.00    -0.027 C 
BRANCH   4   5
ATOM      5  C   UNL     1      23.794  29.963 -14.660  1.00  0.00     0.014 C 
BRANCH   5   6
ATOM      6  C   UNL     1      23.708  28.596 -15.385  1.00  0.00     0.004 C 
ATOM      7  C   UNL     1      22.966  27.549 -14.553  1.00  0.00     0.004 C 
ENDBRANCH   5   6
BRANCH   5   8
ATOM      8  C   UNL     1      22.619  30.923 -15.020  1.00  0.00    -0.011 C 
ATOM      9  C   UNL     1      21.759  31.320 -13.809  1.00  0.00     0.008 C 
ATOM     10  C   UNL     1      23.100  32.175 -15.769  1.00  0.00     0.008 C 
ENDBRANCH   5   8
ENDBRANCH   4   5
ENDBRANCH   1   3
BRANCH   1  11
ATOM     11  C   UNL     1      25.340  29.357 -12.210  1.00  0.00     0.002 C 
ATOM     12  C   UNL     1      24.665  29.330 -10.840  1.00  0.00     0.005 C 
ATOM     13  C   UNL     1      26.336  28.151 -12.168  1.00  0.00    -0.026 C 
ATOM     14  C   UNL     1      24.527  27.865 -10.481  1.00  0.00     0.005 C 
ATOM     15  C   UNL     1      25.644  27.106 -11.226  1.00  0.00    -0.001 C 
ATOM     16  C   UNL     1      26.581  27.569 -13.595  1.00  0.00     0.007 C 
ATOM     17  C   UNL     1      27.697  28.564 -11.545  1.00  0.00     0.012 C 
ATOM     18  C   UNL     1      25.085  25.864 -11.977  1.00  0.00     0.000 C 
ATOM     19  C   UNL     1      27.129  26.139 -13.549  1.00  0.00     0.005 C 
ATOM     20  C   UNL     1      26.186  25.150 -12.805  1.00  0.00     0.003 C 
ATOM     21  C   UNL     1      24.494  24.827 -11.006  1.00  0.00     0.031 C 
ATOM     22  C   UNL     1      25.573  24.002 -13.702  1.00  0.00    -0.008 C 
ATOM     23  C   UNL     1      23.985  23.627 -11.751  1.00  0.00    -0.027 C 
ATOM     24  C   UNL     1      24.484  23.220 -12.941  1.00  0.00    -0.065 C 
ATOM     25  C   UNL     1      24.908  24.566 -15.001  1.00  0.00     0.014 C 
ATOM     26  C   UNL     1      26.722  23.026 -14.072  1.00  0.00     0.016 C 
ATOM     27  C   UNL     1      23.743  22.139 -13.699  1.00  0.00     0.063 C 
ATOM     28  C   UNL     1      24.124  23.508 -15.808  1.00  0.00     0.033 C 
ATOM     29  C   UNL     1      23.089  22.765 -14.940  1.00  0.00     0.118 C 
BRANCH  29  30
ATOM     30  O   UNL     1      22.418  21.786 -15.692  1.00  0.00    -0.393 OA
ATOM     31  H   UNL     1      22.763  21.833 -16.623  1.00  0.00     0.210 HD
ENDBRANCH  29  30
ENDBRANCH   1  11
TORSDOF 6
ENDMDL
MODEL 8
REMARK VINA RESULT:    -5.679      2.707      7.973
REMARK INTER + INTRA:          -9.522
REMARK INTER:                  -7.828
REMARK INTRA:                  -1.693
REMARK UNBOUND:                -2.017
REMARK SMILES CC[C@@H](C=C[C@@H](C)[C@@H]1CC[C@H]2[C@@H]3CC=C4C[C@H](O)CC[C@@]4(C)[C@H]3CC[C@]21C)C(C)C
REMARK SMILES IDX 6 1 7 2 5 3 4 4 3 5 2 6 1 7 28 8 29 9 30 10 8 11 9 12 26 13
REMARK SMILES IDX 10 14 11 15 25 16 27 17 12 18 24 19 23 20 13 21 21 22 14 23
REMARK SMILES IDX 15 24 20 25 22 26 16 27 19 28 17 29 18 30
REMARK H PARENT 18 31
REMARK Flexibility Score: inf
ROOT
ATOM      1  C   UNL     1      26.103  30.024 -13.756  1.00  0.00     0.012 C 
ATOM      2  C   UNL     1      27.185  30.727 -14.597  1.00  0.00     0.012 C 
ENDROOT
BRANCH   1   3
ATOM      3  C   UNL     1      26.405  30.274 -12.293  1.00  0.00    -0.028 C 
ATOM      4  C   UNL     1      25.548  30.822 -11.409  1.00  0.00    -0.027 C 
BRANCH   4   5
ATOM      5  C   UNL     1      24.125  31.270 -11.719  1.00  0.00     0.014 C 
BRANCH   5   6
ATOM      6  C   UNL     1      24.134  32.727 -12.248  1.00  0.00     0.004 C 
ATOM      7  C   UNL     1      24.071  32.784 -13.776  1.00  0.00     0.004 C 
ENDBRANCH   5   6
BRANCH   5   8
ATOM      8  C   UNL     1      23.210  31.076 -10.472  1.00  0.00    -0.011 C 
ATOM      9  C   UNL     1      21.709  31.174 -10.790  1.00  0.00     0.008 C 
ATOM     10  C   UNL     1      23.514  29.767  -9.726  1.00  0.00     0.008 C 
ENDBRANCH   5   8
ENDBRANCH   4   5
ENDBRANCH   1   3
BRANCH   1  11
ATOM     11  C   UNL     1      26.058  28.491 -14.086  1.00  0.00     0.002 C 
ATOM     12  C   UNL     1      26.020  28.239 -15.591  1.00  0.00     0.005 C 
ATOM     13  C   UNL     1      24.862  27.650 -13.528  1.00  0.00    -0.026 C 
ATOM     14  C   UNL     1      25.583  26.798 -15.754  1.00  0.00     0.005 C 
ATOM     15  C   UNL     1      24.754  26.430 -14.507  1.00  0.00    -0.001 C 
ATOM     16  C   UNL     1      25.128  27.191 -12.060  1.00  0.00     0.007 C 
ATOM     17  C   UNL     1      23.534  28.453 -13.579  1.00  0.00     0.012 C 
ATOM     18  C   UNL     1      25.228  25.087 -13.883  1.00  0.00     0.000 C 
ATOM     19  C   UNL     1      24.253  25.999 -11.661  1.00  0.00     0.005 C 
ATOM     20  C   UNL     1      24.462  24.758 -12.575  1.00  0.00     0.003 C 
ATOM     21  C   UNL     1      25.023  23.904 -14.847  1.00  0.00     0.031 C 
ATOM     22  C   UNL     1      25.073  23.489 -11.857  1.00  0.00    -0.008 C 
ATOM     23  C   UNL     1      25.465  22.617 -14.214  1.00  0.00    -0.027 C 
ATOM     24  C   UNL     1      25.455  22.399 -12.878  1.00  0.00    -0.065 C 
ATOM     25  C   UNL     1      26.370  23.839 -11.055  1.00  0.00     0.014 C 
ATOM     26  C   UNL     1      23.991  22.919 -10.901  1.00  0.00     0.016 C 
ATOM     27  C   UNL     1      26.132  21.153 -12.349  1.00  0.00     0.063 C 
ATOM     28  C   UNL     1      27.112  22.602 -10.502  1.00  0.00     0.033 C 
ATOM     29  C   UNL     1      27.411  21.565 -11.602  1.00  0.00     0.118 C 
BRANCH  29  30
ATOM     30  O   UNL     1      28.053  20.437 -11.063  1.00  0.00    -0.393 OA
ATOM     31  H   UNL     1      28.548  19.992 -11.800  1.00  0.00     0.210 HD
ENDBRANCH  29  30
ENDBRANCH   1  11
TORSDOF 6
ENDMDL
MODEL 9
REMARK VINA RESULT:    -5.554     10.997     14.172
REMARK INTER + INTRA:          -9.356
REMARK INTER:                  -7.156
REMARK INTRA:                  -2.200
REMARK UNBOUND:                -2.017
REMARK SMILES CC[C@@H](C=C[C@@H](C)[C@@H]1CC[C@H]2[C@@H]3CC=C4C[C@H](O)CC[C@@]4(C)[C@H]3CC[C@]21C)C(C)C
REMARK SMILES IDX 6 1 7 2 5 3 4 4 3 5 2 6 1 7 28 8 29 9 30 10 8 11 9 12 26 13
REMARK SMILES IDX 10 14 11 15 25 16 27 17 12 18 24 19 23 20 13 21 21 22 14 23
REMARK SMILES IDX 15 24 20 25 22 26 16 27 19 28 17 29 18 30
REMARK H PARENT 18 31
REMARK Flexibility Score: inf
ROOT
ATOM      1  C   UNL     1      24.865  18.715  -3.753  1.00  0.00     0.012 C 
ATOM      2  C   UNL     1      24.938  18.498  -5.277  1.00  0.00     0.012 C 
ENDROOT
BRANCH   1   3
ATOM      3  C   UNL     1      25.025  17.370  -3.076  1.00  0.00    -0.028 C 
ATOM      4  C   UNL     1      25.936  17.087  -2.123  1.00  0.00    -0.027 C 
BRANCH   4   5
ATOM      5  C   UNL     1      26.948  18.070  -1.548  1.00  0.00     0.014 C 
BRANCH   5   6
ATOM      6  C   UNL     1      28.359  17.765  -2.111  1.00  0.00     0.004 C 
ATOM      7  C   UNL     1      28.501  18.194  -3.573  1.00  0.00     0.004 C 
ENDBRANCH   5   6
BRANCH   5   8
ATOM      8  C   UNL     1      26.893  18.059   0.010  1.00  0.00    -0.011 C 
ATOM      9  C   UNL     1      26.760  19.459   0.630  1.00  0.00     0.008 C 
ATOM     10  C   UNL     1      25.793  17.130   0.546  1.00  0.00     0.008 C 
ENDBRANCH   5   8
ENDBRANCH   4   5
ENDBRANCH   1   3
BRANCH   1  11
ATOM     11  C   UNL     1      23.513  19.405  -3.358  1.00  0.00     0.002 C 
ATOM     12  C   UNL     1      22.970  20.272  -4.493  1.00  0.00     0.005 C 
ATOM     13  C   UNL     1      23.504  20.356  -2.115  1.00  0.00    -0.026 C 
ATOM     14  C   UNL     1      21.923  21.164  -3.861  1.00  0.00     0.005 C 
ATOM     15  C   UNL     1      22.297  21.323  -2.374  1.00  0.00    -0.001 C 
ATOM     16  C   UNL     1      23.327  19.553  -0.789  1.00  0.00     0.007 C 
ATOM     17  C   UNL     1      24.809  21.193  -2.034  1.00  0.00     0.012 C 
ATOM     18  C   UNL     1      21.077  21.057  -1.447  1.00  0.00     0.000 C 
ATOM     19  C   UNL     1      22.830  20.436   0.359  1.00  0.00     0.005 C 
ATOM     20  C   UNL     1      21.468  21.123   0.053  1.00  0.00     0.003 C 
ATOM     21  C   UNL     1      19.951  22.083  -1.674  1.00  0.00     0.031 C 
ATOM     22  C   UNL     1      20.267  20.676   0.979  1.00  0.00    -0.008 C 
ATOM     23  C   UNL     1      18.796  21.821  -0.752  1.00  0.00    -0.027 C 
ATOM     24  C   UNL     1      18.925  21.228   0.457  1.00  0.00    -0.065 C 
ATOM     25  C   UNL     1      20.126  19.119   1.043  1.00  0.00     0.014 C 
ATOM     26  C   UNL     1      20.525  21.249   2.398  1.00  0.00     0.016 C 
ATOM     27  C   UNL     1      17.668  20.816   1.193  1.00  0.00     0.063 C 
ATOM     28  C   UNL     1      18.851  18.640   1.772  1.00  0.00     0.033 C 
ATOM     29  C   UNL     1      17.576  19.282   1.191  1.00  0.00     0.118 C 
BRANCH  29  30
ATOM     30  O   UNL     1      16.438  18.855   1.897  1.00  0.00    -0.393 OA
ATOM     31  H   UNL     1      16.426  19.333   2.767  1.00  0.00     0.210 HD
ENDBRANCH  29  30
ENDBRANCH   1  11
TORSDOF 6
ENDMDL
