MODEL 1
REMARK VINA RESULT:    -3.580      0.000      0.000
REMARK INTER + INTRA:          -4.828
REMARK INTER:                  -4.627
REMARK INTRA:                  -0.201
REMARK UNBOUND:                -0.201
REMARK SMILES CCCCCCC(=O)[O-]
REMARK SMILES IDX 5 1 6 2 7 3 8 4 9 5 4 6 3 7 2 8 1 9
REMARK H PARENT
REMARK Flexibility Score: inf
ROOT
ATOM      1  C   UNL     1      18.786 -42.896  25.287  1.00  0.00     0.006 C 
ENDROOT
BRANCH   1   2
ATOM      2  C   UNL     1      18.345 -41.789  26.250  1.00  0.00     0.053 C 
BRANCH   2   3
ATOM      3  C   UNL     1      18.395 -40.456  25.574  1.00  0.00     0.041 C 
ATOM      4  O   UNL     1      18.125 -40.356  24.348  1.00  0.00    -0.550 OA
ATOM      5  O   UNL     1      18.691 -39.314  26.309  1.00  0.00    -0.550 OA
ENDBRANCH   2   3
ENDBRANCH   1   2
BRANCH   1   6
ATOM      6  C   UNL     1      17.947 -44.166  25.491  1.00  0.00     0.000 C 
BRANCH   6   7
ATOM      7  C   UNL     1      17.144 -44.141  26.802  1.00  0.00    -0.000 C 
BRANCH   7   8
ATOM      8  C   UNL     1      17.128 -45.502  27.511  1.00  0.00    -0.003 C 
ATOM      9  C   UNL     1      17.474 -45.355  28.991  1.00  0.00     0.004 C 
ENDBRANCH   7   8
ENDBRANCH   6   7
ENDBRANCH   1   6
TORSDOF 5
ENDMDL
MODEL 2
REMARK VINA RESULT:    -3.564      3.566      5.180
REMARK INTER + INTRA:          -4.807
REMARK INTER:                  -4.606
REMARK INTRA:                  -0.201
REMARK UNBOUND:                -0.201
REMARK SMILES CCCCCCC(=O)[O-]
REMARK SMILES IDX 5 1 6 2 7 3 8 4 9 5 4 6 3 7 2 8 1 9
REMARK H PARENT
REMARK Flexibility Score: inf
ROOT
ATOM      1  C   UNL     1      17.156 -45.528  27.553  1.00  0.00     0.006 C 
ENDROOT
BRANCH   1   2
ATOM      2  C   UNL     1      17.392 -45.414  29.062  1.00  0.00     0.053 C 
BRANCH   2   3
ATOM      3  C   UNL     1      16.127 -45.032  29.763  1.00  0.00     0.041 C 
ATOM      4  O   UNL     1      16.157 -44.231  30.734  1.00  0.00    -0.550 OA
ATOM      5  O   UNL     1      14.907 -45.521  29.312  1.00  0.00    -0.550 OA
ENDBRANCH   2   3
ENDBRANCH   1   2
BRANCH   1   6
ATOM      6  C   UNL     1      17.184 -44.143  26.888  1.00  0.00     0.000 C 
BRANCH   6   7
ATOM      7  C   UNL     1      17.891 -44.156  25.522  1.00  0.00    -0.000 C 
BRANCH   7   8
ATOM      8  C   UNL     1      18.715 -42.885  25.272  1.00  0.00    -0.003 C 
ATOM      9  C   UNL     1      18.413 -41.819  26.322  1.00  0.00     0.004 C 
ENDBRANCH   7   8
ENDBRANCH   6   7
ENDBRANCH   1   6
TORSDOF 5
ENDMDL
MODEL 3
REMARK VINA RESULT:    -3.563      3.032      4.808
REMARK INTER + INTRA:          -4.806
REMARK INTER:                  -4.579
REMARK INTRA:                  -0.227
REMARK UNBOUND:                -0.201
REMARK SMILES CCCCCCC(=O)[O-]
REMARK SMILES IDX 5 1 6 2 7 3 8 4 9 5 4 6 3 7 2 8 1 9
REMARK H PARENT
REMARK Flexibility Score: inf
ROOT
ATOM      1  C   UNL     1      16.932 -44.088  26.531  1.00  0.00     0.006 C 
ENDROOT
BRANCH   1   2
ATOM      2  C   UNL     1      17.160 -45.283  27.462  1.00  0.00     0.053 C 
BRANCH   2   3
ATOM      3  C   UNL     1      17.485 -44.814  28.845  1.00  0.00     0.041 C 
ATOM      4  O   UNL     1      17.504 -45.631  29.803  1.00  0.00    -0.550 OA
ATOM      5  O   UNL     1      17.818 -43.484  29.068  1.00  0.00    -0.550 OA
ENDBRANCH   2   3
ENDBRANCH   1   2
BRANCH   1   6
ATOM      6  C   UNL     1      17.979 -44.062  25.407  1.00  0.00     0.000 C 
BRANCH   6   7
ATOM      7  C   UNL     1      18.868 -42.808  25.455  1.00  0.00    -0.000 C 
BRANCH   7   8
ATOM      8  C   UNL     1      18.052 -41.508  25.490  1.00  0.00    -0.003 C 
ATOM      9  C   UNL     1      18.150 -40.763  24.161  1.00  0.00     0.004 C 
ENDBRANCH   7   8
ENDBRANCH   6   7
ENDBRANCH   1   6
TORSDOF 5
ENDMDL
MODEL 4
REMARK VINA RESULT:    -3.533      3.033      4.986
REMARK INTER + INTRA:          -4.767
REMARK INTER:                  -4.618
REMARK INTRA:                  -0.149
REMARK UNBOUND:                -0.201
REMARK SMILES CCCCCCC(=O)[O-]
REMARK SMILES IDX 5 1 6 2 7 3 8 4 9 5 4 6 3 7 2 8 1 9
REMARK H PARENT
REMARK Flexibility Score: inf
ROOT
ATOM      1  C   UNL     1      17.247 -43.553  25.588  1.00  0.00     0.006 C 
ENDROOT
BRANCH   1   2
ATOM      2  C   UNL     1      17.419 -44.878  26.337  1.00  0.00     0.053 C 
BRANCH   2   3
ATOM      3  C   UNL     1      17.137 -44.696  27.794  1.00  0.00     0.041 C 
ATOM      4  O   UNL     1      16.505 -43.684  28.197  1.00  0.00    -0.550 OA
ATOM      5  O   UNL     1      17.530 -45.670  28.705  1.00  0.00    -0.550 OA
ENDBRANCH   2   3
ENDBRANCH   1   2
BRANCH   1   6
ATOM      6  C   UNL     1      18.598 -42.843  25.412  1.00  0.00     0.000 C 
BRANCH   6   7
ATOM      7  C   UNL     1      18.500 -41.324  25.626  1.00  0.00    -0.000 C 
BRANCH   7   8
ATOM      8  C   UNL     1      18.187 -40.564  24.330  1.00  0.00    -0.003 C 
ATOM      9  C   UNL     1      18.537 -39.084  24.462  1.00  0.00     0.004 C 
ENDBRANCH   7   8
ENDBRANCH   6   7
ENDBRANCH   1   6
TORSDOF 5
ENDMDL
MODEL 5
REMARK VINA RESULT:    -3.482      3.261      4.896
REMARK INTER + INTRA:          -4.701
REMARK INTER:                  -4.493
REMARK INTRA:                  -0.208
REMARK UNBOUND:                -0.201
REMARK SMILES CCCCCCC(=O)[O-]
REMARK SMILES IDX 5 1 6 2 7 3 8 4 9 5 4 6 3 7 2 8 1 9
REMARK H PARENT
REMARK Flexibility Score: inf
ROOT
ATOM      1  C   UNL     1      17.033 -44.680  28.159  1.00  0.00     0.006 C 
ENDROOT
BRANCH   1   2
ATOM      2  C   UNL     1      17.549 -45.456  29.374  1.00  0.00     0.053 C 
BRANCH   2   3
ATOM      3  C   UNL     1      18.331 -44.556  30.277  1.00  0.00     0.041 C 
ATOM      4  O   UNL     1      18.693 -43.418  29.879  1.00  0.00    -0.550 OA
ATOM      5  O   UNL     1      18.618 -44.955  31.577  1.00  0.00    -0.550 OA
ENDBRANCH   2   3
ENDBRANCH   1   2
BRANCH   1   6
ATOM      6  C   UNL     1      17.200 -45.502  26.872  1.00  0.00     0.000 C 
BRANCH   6   7
ATOM      7  C   UNL     1      17.581 -44.635  25.661  1.00  0.00    -0.000 C 
BRANCH   7   8
ATOM      8  C   UNL     1      17.833 -43.169  26.040  1.00  0.00    -0.003 C 
ATOM      9  C   UNL     1      18.938 -42.561  25.180  1.00  0.00     0.004 C 
ENDBRANCH   7   8
ENDBRANCH   6   7
ENDBRANCH   1   6
TORSDOF 5
ENDMDL
MODEL 6
REMARK VINA RESULT:    -3.323      1.670      2.068
REMARK INTER + INTRA:          -4.495
REMARK INTER:                  -4.182
REMARK INTRA:                  -0.314
REMARK UNBOUND:                -0.201
REMARK SMILES CCCCCCC(=O)[O-]
REMARK SMILES IDX 5 1 6 2 7 3 8 4 9 5 4 6 3 7 2 8 1 9
REMARK H PARENT
REMARK Flexibility Score: inf
ROOT
ATOM      1  C   UNL     1      17.312 -43.286  25.746  1.00  0.00     0.006 C 
ENDROOT
BRANCH   1   2
ATOM      2  C   UNL     1      18.624 -42.532  25.983  1.00  0.00     0.053 C 
BRANCH   2   3
ATOM      3  C   UNL     1      18.510 -41.648  27.184  1.00  0.00     0.041 C 
ATOM      4  O   UNL     1      18.711 -42.113  28.336  1.00  0.00    -0.550 OA
ATOM      5  O   UNL     1      18.230 -40.295  27.027  1.00  0.00    -0.550 OA
ENDBRANCH   2   3
ENDBRANCH   1   2
BRANCH   1   6
ATOM      6  C   UNL     1      17.516 -44.802  25.898  1.00  0.00     0.000 C 
BRANCH   6   7
ATOM      7  C   UNL     1      17.200 -45.303  27.317  1.00  0.00    -0.000 C 
BRANCH   7   8
ATOM      8  C   UNL     1      16.080 -44.498  27.991  1.00  0.00    -0.003 C 
ATOM      9  C   UNL     1      15.145 -45.411  28.779  1.00  0.00     0.004 C 
ENDBRANCH   7   8
ENDBRANCH   6   7
ENDBRANCH   1   6
TORSDOF 5
ENDMDL
MODEL 7
REMARK VINA RESULT:    -3.265      1.342      2.267
REMARK INTER + INTRA:          -4.420
REMARK INTER:                  -4.197
REMARK INTRA:                  -0.223
REMARK UNBOUND:                -0.201
REMARK SMILES CCCCCCC(=O)[O-]
REMARK SMILES IDX 5 1 6 2 7 3 8 4 9 5 4 6 3 7 2 8 1 9
REMARK H PARENT
REMARK Flexibility Score: inf
ROOT
ATOM      1  C   UNL     1      17.594 -40.839  26.702  1.00  0.00     0.006 C 
ENDROOT
BRANCH   1   2
ATOM      2  C   UNL     1      18.481 -39.648  26.325  1.00  0.00     0.053 C 
BRANCH   2   3
ATOM      3  C   UNL     1      18.107 -39.122  24.976  1.00  0.00     0.041 C 
ATOM      4  O   UNL     1      18.755 -39.475  23.955  1.00  0.00    -0.550 OA
ATOM      5  O   UNL     1      17.011 -38.280  24.838  1.00  0.00    -0.550 OA
ENDBRANCH   2   3
ENDBRANCH   1   2
BRANCH   1   6
ATOM      6  C   UNL     1      18.423 -42.128  26.810  1.00  0.00     0.000 C 
BRANCH   6   7
ATOM      7  C   UNL     1      18.608 -42.828  25.454  1.00  0.00    -0.000 C 
BRANCH   7   8
ATOM      8  C   UNL     1      17.949 -44.214  25.411  1.00  0.00    -0.003 C 
ATOM      9  C   UNL     1      17.246 -44.529  26.729  1.00  0.00     0.004 C 
ENDBRANCH   7   8
ENDBRANCH   6   7
ENDBRANCH   1   6
TORSDOF 5
ENDMDL
MODEL 8
REMARK VINA RESULT:    -3.255      2.367      3.140
REMARK INTER + INTRA:          -4.407
REMARK INTER:                  -4.168
REMARK INTRA:                  -0.240
REMARK UNBOUND:                -0.201
REMARK SMILES CCCCCCC(=O)[O-]
REMARK SMILES IDX 5 1 6 2 7 3 8 4 9 5 4 6 3 7 2 8 1 9
REMARK H PARENT
REMARK Flexibility Score: inf
ROOT
ATOM      1  C   UNL     1      17.746 -40.509  25.990  1.00  0.00     0.006 C 
ENDROOT
BRANCH   1   2
ATOM      2  C   UNL     1      18.567 -39.492  26.788  1.00  0.00     0.053 C 
BRANCH   2   3
ATOM      3  C   UNL     1      18.433 -39.747  28.256  1.00  0.00     0.041 C 
ATOM      4  O   UNL     1      19.030 -40.720  28.787  1.00  0.00    -0.550 OA
ATOM      5  O   UNL     1      17.689 -38.880  29.047  1.00  0.00    -0.550 OA
ENDBRANCH   2   3
ENDBRANCH   1   2
BRANCH   1   6
ATOM      6  C   UNL     1      18.568 -41.084  24.826  1.00  0.00     0.000 C 
BRANCH   6   7
ATOM      7  C   UNL     1      18.876 -42.580  25.001  1.00  0.00    -0.000 C 
BRANCH   7   8
ATOM      8  C   UNL     1      17.968 -43.252  26.041  1.00  0.00    -0.003 C 
ATOM      9  C   UNL     1      17.606 -44.672  25.616  1.00  0.00     0.004 C 
ENDBRANCH   7   8
ENDBRANCH   6   7
ENDBRANCH   1   6
TORSDOF 5
ENDMDL
MODEL 9
REMARK VINA RESULT:    -3.208      1.508      2.144
REMARK INTER + INTRA:          -4.347
REMARK INTER:                  -3.960
REMARK INTRA:                  -0.387
REMARK UNBOUND:                -0.201
REMARK SMILES CCCCCCC(=O)[O-]
REMARK SMILES IDX 5 1 6 2 7 3 8 4 9 5 4 6 3 7 2 8 1 9
REMARK H PARENT
REMARK Flexibility Score: inf
ROOT
ATOM      1  C   UNL     1      17.505 -44.636  25.968  1.00  0.00     0.006 C 
ENDROOT
BRANCH   1   2
ATOM      2  C   UNL     1      17.017 -43.195  26.147  1.00  0.00     0.053 C 
BRANCH   2   3
ATOM      3  C   UNL     1      18.165 -42.288  26.456  1.00  0.00     0.041 C 
ATOM      4  O   UNL     1      18.678 -41.582  25.548  1.00  0.00    -0.550 OA
ATOM      5  O   UNL     1      18.639 -42.184  27.758  1.00  0.00    -0.550 OA
ENDBRANCH   2   3
ENDBRANCH   1   2
BRANCH   1   6
ATOM      6  C   UNL     1      17.232 -45.468  27.231  1.00  0.00     0.000 C 
BRANCH   6   7
ATOM      7  C   UNL     1      16.060 -44.918  28.060  1.00  0.00    -0.000 C 
BRANCH   7   8
ATOM      8  C   UNL     1      16.367 -44.881  29.564  1.00  0.00    -0.003 C 
ATOM      9  C   UNL     1      17.861 -45.055  29.823  1.00  0.00     0.004 C 
ENDBRANCH   7   8
ENDBRANCH   6   7
ENDBRANCH   1   6
TORSDOF 5
ENDMDL
