MODEL 1
REMARK VINA RESULT:    -4.743      0.000      0.000
REMARK INTER + INTRA:          -8.185
REMARK INTER:                  -7.515
REMARK INTRA:                  -0.670
REMARK UNBOUND:                -0.670
REMARK SMILES CCCCCCCCCCCC(=O)[O-]
REMARK SMILES IDX 7 1 8 2 9 3 10 4 11 5 12 6 13 7 14 8 6 9 5 10 4 11 3 12 2 13
REMARK SMILES IDX 1 14
REMARK H PARENT
REMARK Flexibility Score: inf
ROOT
ATOM      1  C   UNL     1      10.205   2.375  -0.329  1.00  0.00     0.000 C 
ENDROOT
BRANCH   1   2
ATOM      2  C   UNL     1       9.976   3.215   0.937  1.00  0.00     0.000 C 
BRANCH   2   3
ATOM      3  C   UNL     1       8.585   3.867   0.973  1.00  0.00     0.000 C 
BRANCH   3   4
ATOM      4  C   UNL     1       8.668   5.357   0.619  1.00  0.00     0.006 C 
BRANCH   4   5
ATOM      5  C   UNL     1       9.962   5.978   1.153  1.00  0.00     0.053 C 
BRANCH   5   6
ATOM      6  C   UNL     1       9.777   6.437   2.565  1.00  0.00     0.041 C 
ATOM      7  O   UNL     1       8.716   7.023   2.907  1.00  0.00    -0.550 OA
ATOM      8  O   UNL     1      10.756   6.176   3.515  1.00  0.00    -0.550 OA
ENDBRANCH   5   6
ENDBRANCH   4   5
ENDBRANCH   3   4
ENDBRANCH   2   3
ENDBRANCH   1   2
BRANCH   1   9
ATOM      9  C   UNL     1      11.513   1.565  -0.276  1.00  0.00     0.000 C 
BRANCH   9  10
ATOM     10  C   UNL     1      12.330   1.693  -1.580  1.00  0.00    -0.000 C 
BRANCH  10  11
ATOM     11  C   UNL     1      11.923   2.900  -2.443  1.00  0.00    -0.000 C 
BRANCH  11  12
ATOM     12  C   UNL     1      11.453   2.495  -3.850  1.00  0.00    -0.000 C 
BRANCH  12  13
ATOM     13  C   UNL     1      11.533   0.977  -4.083  1.00  0.00    -0.003 C 
ATOM     14  C   UNL     1      11.606   0.611  -5.564  1.00  0.00     0.004 C 
ENDBRANCH  12  13
ENDBRANCH  11  12
ENDBRANCH  10  11
ENDBRANCH   9  10
ENDBRANCH   1   9
TORSDOF 10
ENDMDL
MODEL 2
REMARK VINA RESULT:    -4.653      4.242      6.340
REMARK INTER + INTRA:          -8.043
REMARK INTER:                  -7.008
REMARK INTRA:                  -1.035
REMARK UNBOUND:                -0.670
REMARK SMILES CCCCCCCCCCCC(=O)[O-]
REMARK SMILES IDX 7 1 8 2 9 3 10 4 11 5 12 6 13 7 14 8 6 9 5 10 4 11 3 12 2 13
REMARK SMILES IDX 1 14
REMARK H PARENT
REMARK Flexibility Score: inf
ROOT
ATOM      1  C   UNL     1      10.194   2.452  -0.374  1.00  0.00     0.000 C 
ENDROOT
BRANCH   1   2
ATOM      2  C   UNL     1      11.492   1.633  -0.448  1.00  0.00     0.000 C 
BRANCH   2   3
ATOM      3  C   UNL     1      12.372   2.023  -1.646  1.00  0.00     0.000 C 
BRANCH   3   4
ATOM      4  C   UNL     1      11.512   2.373  -2.867  1.00  0.00     0.006 C 
BRANCH   4   5
ATOM      5  C   UNL     1      11.103   1.111  -3.631  1.00  0.00     0.053 C 
BRANCH   5   6
ATOM      6  C   UNL     1      11.536   1.200  -5.060  1.00  0.00     0.041 C 
ATOM      7  O   UNL     1      11.903   0.165  -5.677  1.00  0.00    -0.550 OA
ATOM      8  O   UNL     1      11.490   2.418  -5.726  1.00  0.00    -0.550 OA
ENDBRANCH   5   6
ENDBRANCH   4   5
ENDBRANCH   3   4
ENDBRANCH   2   3
ENDBRANCH   1   2
BRANCH   1   9
ATOM      9  C   UNL     1       9.987   3.112   1.001  1.00  0.00     0.000 C 
BRANCH   9  10
ATOM     10  C   UNL     1       9.203   4.439   0.898  1.00  0.00    -0.000 C 
BRANCH  10  11
ATOM     11  C   UNL     1       9.252   5.073  -0.502  1.00  0.00    -0.000 C 
BRANCH  11  12
ATOM     12  C   UNL     1      10.343   6.150  -0.631  1.00  0.00    -0.000 C 
BRANCH  12  13
ATOM     13  C   UNL     1      11.101   6.063  -1.965  1.00  0.00    -0.003 C 
ATOM     14  C   UNL     1      10.188   5.716  -3.140  1.00  0.00     0.004 C 
ENDBRANCH  12  13
ENDBRANCH  11  12
ENDBRANCH  10  11
ENDBRANCH   9  10
ENDBRANCH   1   9
TORSDOF 10
ENDMDL
MODEL 3
REMARK VINA RESULT:    -4.641      1.523      2.998
REMARK INTER + INTRA:          -8.023
REMARK INTER:                  -7.085
REMARK INTRA:                  -0.938
REMARK UNBOUND:                -0.670
REMARK SMILES CCCCCCCCCCCC(=O)[O-]
REMARK SMILES IDX 7 1 8 2 9 3 10 4 11 5 12 6 13 7 14 8 6 9 5 10 4 11 3 12 2 13
REMARK SMILES IDX 1 14
REMARK H PARENT
REMARK Flexibility Score: inf
ROOT
ATOM      1  C   UNL     1       9.446   3.024  -2.142  1.00  0.00     0.000 C 
ENDROOT
BRANCH   1   2
ATOM      2  C   UNL     1       8.691   3.719  -0.998  1.00  0.00     0.000 C 
BRANCH   2   3
ATOM      3  C   UNL     1       9.040   3.140   0.381  1.00  0.00     0.000 C 
BRANCH   3   4
ATOM      4  C   UNL     1       9.985   4.074   1.146  1.00  0.00     0.006 C 
BRANCH   4   5
ATOM      5  C   UNL     1       9.366   5.465   1.314  1.00  0.00     0.053 C 
BRANCH   5   6
ATOM      6  C   UNL     1       9.865   6.111   2.567  1.00  0.00     0.041 C 
ATOM      7  O   UNL     1      11.001   5.817   3.024  1.00  0.00    -0.550 OA
ATOM      8  O   UNL     1       9.096   7.076   3.206  1.00  0.00    -0.550 OA
ENDBRANCH   5   6
ENDBRANCH   4   5
ENDBRANCH   3   4
ENDBRANCH   2   3
ENDBRANCH   1   2
BRANCH   1   9
ATOM      9  C   UNL     1      10.740   3.760  -2.532  1.00  0.00     0.000 C 
BRANCH   9  10
ATOM     10  C   UNL     1      12.004   2.966  -2.137  1.00  0.00    -0.000 C 
BRANCH  10  11
ATOM     11  C   UNL     1      11.712   1.511  -1.732  1.00  0.00    -0.000 C 
BRANCH  11  12
ATOM     12  C   UNL     1      12.053   1.221  -0.261  1.00  0.00    -0.000 C 
BRANCH  12  13
ATOM     13  C   UNL     1      13.114   0.120  -0.108  1.00  0.00    -0.003 C 
ATOM     14  C   UNL     1      13.227  -0.396   1.325  1.00  0.00     0.004 C 
ENDBRANCH  12  13
ENDBRANCH  11  12
ENDBRANCH  10  11
ENDBRANCH   9  10
ENDBRANCH   1   9
TORSDOF 10
ENDMDL
MODEL 4
REMARK VINA RESULT:    -4.528      2.940      3.695
REMARK INTER + INTRA:          -7.845
REMARK INTER:                  -6.677
REMARK INTRA:                  -1.168
REMARK UNBOUND:                -0.670
REMARK SMILES CCCCCCCCCCCC(=O)[O-]
REMARK SMILES IDX 7 1 8 2 9 3 10 4 11 5 12 6 13 7 14 8 6 9 5 10 4 11 3 12 2 13
REMARK SMILES IDX 1 14
REMARK H PARENT
REMARK Flexibility Score: inf
ROOT
ATOM      1  C   UNL     1       9.841   3.167   0.937  1.00  0.00     0.000 C 
ENDROOT
BRANCH   1   2
ATOM      2  C   UNL     1       9.401   4.582   0.528  1.00  0.00     0.000 C 
BRANCH   2   3
ATOM      3  C   UNL     1       9.941   4.995  -0.850  1.00  0.00     0.000 C 
BRANCH   3   4
ATOM      4  C   UNL     1       8.801   5.431  -1.779  1.00  0.00     0.006 C 
BRANCH   4   5
ATOM      5  C   UNL     1       8.225   4.233  -2.540  1.00  0.00     0.053 C 
BRANCH   5   6
ATOM      6  C   UNL     1       6.783   4.037  -2.193  1.00  0.00     0.041 C 
ATOM      7  O   UNL     1       6.298   4.583  -1.167  1.00  0.00    -0.550 OA
ATOM      8  O   UNL     1       5.961   3.292  -3.029  1.00  0.00    -0.550 OA
ENDBRANCH   5   6
ENDBRANCH   4   5
ENDBRANCH   3   4
ENDBRANCH   2   3
ENDBRANCH   1   2
BRANCH   1   9
ATOM      9  C   UNL     1      10.107   2.255  -0.274  1.00  0.00     0.000 C 
BRANCH   9  10
ATOM     10  C   UNL     1      11.508   1.608  -0.219  1.00  0.00    -0.000 C 
BRANCH  10  11
ATOM     11  C   UNL     1      12.140   1.393  -1.605  1.00  0.00    -0.000 C 
BRANCH  11  12
ATOM     12  C   UNL     1      12.139   2.668  -2.464  1.00  0.00    -0.000 C 
BRANCH  12  13
ATOM     13  C   UNL     1      11.396   2.479  -3.797  1.00  0.00    -0.003 C 
ATOM     14  C   UNL     1      11.440   1.036  -4.296  1.00  0.00     0.004 C 
ENDBRANCH  12  13
ENDBRANCH  11  12
ENDBRANCH  10  11
ENDBRANCH   9  10
ENDBRANCH   1   9
TORSDOF 10
ENDMDL
MODEL 5
REMARK VINA RESULT:    -4.494      2.236      2.527
REMARK INTER + INTRA:          -7.791
REMARK INTER:                  -6.920
REMARK INTRA:                  -0.871
REMARK UNBOUND:                -0.670
REMARK SMILES CCCCCCCCCCCC(=O)[O-]
REMARK SMILES IDX 7 1 8 2 9 3 10 4 11 5 12 6 13 7 14 8 6 9 5 10 4 11 3 12 2 13
REMARK SMILES IDX 1 14
REMARK H PARENT
REMARK Flexibility Score: inf
ROOT
ATOM      1  C   UNL     1      10.197   2.043  -0.637  1.00  0.00     0.000 C 
ENDROOT
BRANCH   1   2
ATOM      2  C   UNL     1       9.942   2.788   0.683  1.00  0.00     0.000 C 
BRANCH   2   3
ATOM      3  C   UNL     1       9.051   4.026   0.503  1.00  0.00     0.000 C 
BRANCH   3   4
ATOM      4  C   UNL     1       9.791   5.301   0.926  1.00  0.00     0.006 C 
BRANCH   4   5
ATOM      5  C   UNL     1       9.588   6.420  -0.100  1.00  0.00     0.053 C 
BRANCH   5   6
ATOM      6  C   UNL     1      10.207   6.047  -1.410  1.00  0.00     0.041 C 
ATOM      7  O   UNL     1      11.460   6.007  -1.530  1.00  0.00    -0.550 OA
ATOM      8  O   UNL     1       9.401   5.697  -2.486  1.00  0.00    -0.550 OA
ENDBRANCH   5   6
ENDBRANCH   4   5
ENDBRANCH   3   4
ENDBRANCH   2   3
ENDBRANCH   1   2
BRANCH   1   9
ATOM      9  C   UNL     1      11.667   1.619  -0.806  1.00  0.00     0.000 C 
BRANCH   9  10
ATOM     10  C   UNL     1      12.321   2.268  -2.045  1.00  0.00    -0.000 C 
BRANCH  10  11
ATOM     11  C   UNL     1      11.303   2.801  -3.068  1.00  0.00    -0.000 C 
BRANCH  11  12
ATOM     12  C   UNL     1      11.495   2.199  -4.469  1.00  0.00    -0.000 C 
BRANCH  12  13
ATOM     13  C   UNL     1      11.427   0.664  -4.465  1.00  0.00    -0.003 C 
ATOM     14  C   UNL     1      11.756   0.055  -5.827  1.00  0.00     0.004 C 
ENDBRANCH  12  13
ENDBRANCH  11  12
ENDBRANCH  10  11
ENDBRANCH   9  10
ENDBRANCH   1   9
TORSDOF 10
ENDMDL
MODEL 6
REMARK VINA RESULT:    -4.462      1.739      3.438
REMARK INTER + INTRA:          -7.740
REMARK INTER:                  -6.260
REMARK INTRA:                  -1.480
REMARK UNBOUND:                -0.670
REMARK SMILES CCCCCCCCCCCC(=O)[O-]
REMARK SMILES IDX 7 1 8 2 9 3 10 4 11 5 12 6 13 7 14 8 6 9 5 10 4 11 3 12 2 13
REMARK SMILES IDX 1 14
REMARK H PARENT
REMARK Flexibility Score: inf
ROOT
ATOM      1  C   UNL     1      12.260   2.126  -2.130  1.00  0.00     0.000 C 
ENDROOT
BRANCH   1   2
ATOM      2  C   UNL     1      11.680   1.579  -0.817  1.00  0.00     0.000 C 
BRANCH   2   3
ATOM      3  C   UNL     1      10.240   2.053  -0.563  1.00  0.00     0.000 C 
BRANCH   3   4
ATOM      4  C   UNL     1      10.180   3.009   0.635  1.00  0.00     0.006 C 
BRANCH   4   5
ATOM      5  C   UNL     1       8.744   3.471   0.897  1.00  0.00     0.053 C 
BRANCH   5   6
ATOM      6  C   UNL     1       8.720   4.920   1.268  1.00  0.00     0.041 C 
ATOM      7  O   UNL     1       9.702   5.439   1.862  1.00  0.00    -0.550 OA
ATOM      8  O   UNL     1       7.634   5.711   0.915  1.00  0.00    -0.550 OA
ENDBRANCH   5   6
ENDBRANCH   4   5
ENDBRANCH   3   4
ENDBRANCH   2   3
ENDBRANCH   1   2
BRANCH   1   9
ATOM      9  C   UNL     1      11.603   1.502  -3.375  1.00  0.00     0.000 C 
BRANCH   9  10
ATOM     10  C   UNL     1      11.163   2.571  -4.398  1.00  0.00    -0.000 C 
BRANCH  10  11
ATOM     11  C   UNL     1      11.045   3.983  -3.798  1.00  0.00    -0.000 C 
BRANCH  11  12
ATOM     12  C   UNL     1       9.588   4.403  -3.543  1.00  0.00    -0.000 C 
BRANCH  12  13
ATOM     13  C   UNL     1       9.437   5.272  -2.284  1.00  0.00    -0.003 C 
ATOM     14  C   UNL     1      10.771   5.827  -1.788  1.00  0.00     0.004 C 
ENDBRANCH  12  13
ENDBRANCH  11  12
ENDBRANCH  10  11
ENDBRANCH   9  10
ENDBRANCH   1   9
TORSDOF 10
ENDMDL
MODEL 7
REMARK VINA RESULT:    -4.456      3.296      5.859
REMARK INTER + INTRA:          -7.731
REMARK INTER:                  -6.702
REMARK INTRA:                  -1.029
REMARK UNBOUND:                -0.670
REMARK SMILES CCCCCCCCCCCC(=O)[O-]
REMARK SMILES IDX 7 1 8 2 9 3 10 4 11 5 12 6 13 7 14 8 6 9 5 10 4 11 3 12 2 13
REMARK SMILES IDX 1 14
REMARK H PARENT
REMARK Flexibility Score: inf
ROOT
ATOM      1  C   UNL     1      10.862   3.753  -3.924  1.00  0.00     0.000 C 
ENDROOT
BRANCH   1   2
ATOM      2  C   UNL     1      11.395   2.366  -3.532  1.00  0.00     0.000 C 
BRANCH   2   3
ATOM      3  C   UNL     1      11.001   1.963  -2.102  1.00  0.00     0.000 C 
BRANCH   3   4
ATOM      4  C   UNL     1      12.236   1.568  -1.283  1.00  0.00     0.006 C 
BRANCH   4   5
ATOM      5  C   UNL     1      11.832   1.013   0.086  1.00  0.00     0.053 C 
BRANCH   5   6
ATOM      6  C   UNL     1      12.855   0.038   0.578  1.00  0.00     0.041 C 
ATOM      7  O   UNL     1      13.824  -0.289  -0.158  1.00  0.00    -0.550 OA
ATOM      8  O   UNL     1      12.766  -0.474   1.866  1.00  0.00    -0.550 OA
ENDBRANCH   5   6
ENDBRANCH   4   5
ENDBRANCH   3   4
ENDBRANCH   2   3
ENDBRANCH   1   2
BRANCH   1   9
ATOM      9  C   UNL     1      10.142   4.463  -2.764  1.00  0.00     0.000 C 
BRANCH   9  10
ATOM     10  C   UNL     1      11.056   5.481  -2.048  1.00  0.00    -0.000 C 
BRANCH  10  11
ATOM     11  C   UNL     1      10.367   6.207  -0.879  1.00  0.00    -0.000 C 
BRANCH  11  12
ATOM     12  C   UNL     1       9.211   5.395  -0.271  1.00  0.00    -0.000 C 
BRANCH  12  13
ATOM     13  C   UNL     1       9.674   4.478   0.873  1.00  0.00    -0.003 C 
ATOM     14  C   UNL     1       8.979   3.118   0.856  1.00  0.00     0.004 C 
ENDBRANCH  12  13
ENDBRANCH  11  12
ENDBRANCH  10  11
ENDBRANCH   9  10
ENDBRANCH   1   9
TORSDOF 10
ENDMDL
MODEL 8
REMARK VINA RESULT:    -4.391      2.843      3.285
REMARK INTER + INTRA:          -7.627
REMARK INTER:                  -6.356
REMARK INTRA:                  -1.271
REMARK UNBOUND:                -0.670
REMARK SMILES CCCCCCCCCCCC(=O)[O-]
REMARK SMILES IDX 7 1 8 2 9 3 10 4 11 5 12 6 13 7 14 8 6 9 5 10 4 11 3 12 2 13
REMARK SMILES IDX 1 14
REMARK H PARENT
REMARK Flexibility Score: inf
ROOT
ATOM      1  C   UNL     1       9.676   3.113   0.534  1.00  0.00     0.000 C 
ENDROOT
BRANCH   1   2
ATOM      2  C   UNL     1       8.766   4.139  -0.161  1.00  0.00     0.000 C 
BRANCH   2   3
ATOM      3  C   UNL     1       8.323   3.686  -1.560  1.00  0.00     0.000 C 
BRANCH   3   4
ATOM      4  C   UNL     1       8.638   4.758  -2.610  1.00  0.00     0.006 C 
BRANCH   4   5
ATOM      5  C   UNL     1       9.093   6.061  -1.946  1.00  0.00     0.053 C 
BRANCH   5   6
ATOM      6  C   UNL     1      10.480   6.413  -2.382  1.00  0.00     0.041 C 
ATOM      7  O   UNL     1      11.467   6.119  -1.656  1.00  0.00    -0.550 OA
ATOM      8  O   UNL     1      10.689   7.023  -3.612  1.00  0.00    -0.550 OA
ENDBRANCH   5   6
ENDBRANCH   4   5
ENDBRANCH   3   4
ENDBRANCH   2   3
ENDBRANCH   1   2
BRANCH   1   9
ATOM      9  C   UNL     1      10.055   1.938  -0.384  1.00  0.00     0.000 C 
BRANCH   9  10
ATOM     10  C   UNL     1      11.568   1.635  -0.347  1.00  0.00    -0.000 C 
BRANCH  10  11
ATOM     11  C   UNL     1      12.221   1.595  -1.740  1.00  0.00    -0.000 C 
BRANCH  11  12
ATOM     12  C   UNL     1      11.890   2.833  -2.589  1.00  0.00    -0.000 C 
BRANCH  12  13
ATOM     13  C   UNL     1      11.442   2.467  -4.013  1.00  0.00    -0.003 C 
ATOM     14  C   UNL     1      11.490   0.963  -4.278  1.00  0.00     0.004 C 
ENDBRANCH  12  13
ENDBRANCH  11  12
ENDBRANCH  10  11
ENDBRANCH   9  10
ENDBRANCH   1   9
TORSDOF 10
ENDMDL
MODEL 9
REMARK VINA RESULT:    -4.332      3.492      6.361
REMARK INTER + INTRA:          -7.533
REMARK INTER:                  -6.545
REMARK INTRA:                  -0.989
REMARK UNBOUND:                -0.670
REMARK SMILES CCCCCCCCCCCC(=O)[O-]
REMARK SMILES IDX 7 1 8 2 9 3 10 4 11 5 12 6 13 7 14 8 6 9 5 10 4 11 3 12 2 13
REMARK SMILES IDX 1 14
REMARK H PARENT
REMARK Flexibility Score: inf
ROOT
ATOM      1  C   UNL     1       8.923   3.200   0.685  1.00  0.00     0.000 C 
ENDROOT
BRANCH   1   2
ATOM      2  C   UNL     1      10.376   2.815   0.363  1.00  0.00     0.000 C 
BRANCH   2   3
ATOM      3  C   UNL     1      10.477   1.760  -0.749  1.00  0.00     0.000 C 
BRANCH   3   4
ATOM      4  C   UNL     1      11.927   1.598  -1.222  1.00  0.00     0.006 C 
BRANCH   4   5
ATOM      5  C   UNL     1      12.278   2.646  -2.283  1.00  0.00     0.053 C 
BRANCH   5   6
ATOM      6  C   UNL     1      11.647   2.294  -3.594  1.00  0.00     0.041 C 
ATOM      7  O   UNL     1      11.055   3.177  -4.269  1.00  0.00    -0.550 OA
ATOM      8  O   UNL     1      11.755   1.002  -4.094  1.00  0.00    -0.550 OA
ENDBRANCH   5   6
ENDBRANCH   4   5
ENDBRANCH   3   4
ENDBRANCH   2   3
ENDBRANCH   1   2
BRANCH   1   9
ATOM      9  C   UNL     1       8.355   4.246  -0.291  1.00  0.00     0.000 C 
BRANCH   9  10
ATOM     10  C   UNL     1       9.469   5.035  -1.011  1.00  0.00    -0.000 C 
BRANCH  10  11
ATOM     11  C   UNL     1       9.490   6.531  -0.654  1.00  0.00    -0.000 C 
BRANCH  11  12
ATOM     12  C   UNL     1       8.857   6.826   0.716  1.00  0.00    -0.000 C 
BRANCH  12  13
ATOM     13  C   UNL     1       9.900   7.225   1.773  1.00  0.00    -0.003 C 
ATOM     14  C   UNL     1      10.386   6.035   2.599  1.00  0.00     0.004 C 
ENDBRANCH  12  13
ENDBRANCH  11  12
ENDBRANCH  10  11
ENDBRANCH   9  10
ENDBRANCH   1   9
TORSDOF 10
ENDMDL
