MODEL 1
REMARK VINA RESULT:    -7.102      0.000      0.000
REMARK INTER + INTRA:         -13.847
REMARK INTER:                 -11.254
REMARK INTRA:                  -2.593
REMARK UNBOUND:                -2.593
REMARK SMILES C[C@H]1O[C@@H](O[C@H]2[C@@H](Oc3cc(O)c4c(c3)O[C@@H](c3ccc(O)cc3)CC4=O)O[C@H](CO)[C@H](O)[C@@H]2O)[C@H](O)[C@@H](O)[C@H]1O
REMARK SMILES IDX 6 1 34 2 32 3 29 4 28 5 7 6 5 7 4 8 1 9 2 10 40 11 3 12
REMARK SMILES IDX 38 13 36 14 41 15 39 17 37 19 35 21 8 23 9 24 10 25 15 26
REMARK SMILES IDX 11 27 14 28 13 29 16 30 26 31 17 32 27 33 25 34 12 35 18 37
REMARK SMILES IDX 19 38 24 39 20 40 23 41 21 42 22 43 33 45 30 47 31 48
REMARK H PARENT 41 16 39 18 37 20 35 22 12 36 22 44 33 46 31 49
REMARK Flexibility Score: inf
ROOT
ATOM      1  C   UNL     1      46.797  49.963 135.561  1.00  0.00     0.221 C 
ATOM      2  C   UNL     1      48.185  50.639 135.466  1.00  0.00     0.181 C 
ATOM      3  C   UNL     1      49.312  49.594 135.583  1.00  0.00     0.177 C 
ATOM      4  C   UNL     1      49.066  48.486 134.533  1.00  0.00     0.179 C 
ATOM      5  O   UNL     1      47.798  47.878 134.736  1.00  0.00    -0.332 OA
ATOM      6  C   UNL     1      46.729  48.803 134.538  1.00  0.00     0.339 C 
ENDROOT
BRANCH   1   7
ATOM      7  O   UNL     1      45.791  50.906 135.233  1.00  0.00    -0.337 OA
BRANCH   7   8
ATOM      8  C   UNL     1      44.623  50.776 136.024  1.00  0.00     0.282 C 
ATOM      9  C   UNL     1      44.223  52.766 133.648  1.00  0.00     0.041 C 
ATOM     10  C   UNL     1      43.345  52.434 134.868  1.00  0.00     0.150 C 
ATOM     11  C   UNL     1      43.476  53.436 136.048  1.00  0.00     0.174 C 
ATOM     12  O   UNL     1      43.464  51.072 135.263  1.00  0.00    -0.344 OA
ATOM     13  C   UNL     1      44.708  53.151 136.921  1.00  0.00     0.179 C 
ATOM     14  C   UNL     1      44.744  51.661 137.284  1.00  0.00     0.202 C 
BRANCH  11  15
ATOM     15  O   UNL     1      43.504  54.764 135.596  1.00  0.00    -0.388 OA
ATOM     16  H   UNL     1      44.461  55.037 135.575  1.00  0.00     0.211 HD
ENDBRANCH  11  15
BRANCH  13  17
ATOM     17  O   UNL     1      45.896  53.509 136.264  1.00  0.00    -0.387 OA
ATOM     18  H   UNL     1      46.544  53.801 136.958  1.00  0.00     0.211 HD
ENDBRANCH  13  17
BRANCH  14  19
ATOM     19  O   UNL     1      43.687  51.372 138.171  1.00  0.00    -0.385 OA
ATOM     20  H   UNL     1      43.608  52.137 138.793  1.00  0.00     0.211 HD
ENDBRANCH  14  19
ENDBRANCH   7   8
ENDBRANCH   1   7
BRANCH   2  21
ATOM     21  O   UNL     1      48.357  51.667 136.413  1.00  0.00    -0.387 OA
ATOM     22  H   UNL     1      48.065  51.320 137.303  1.00  0.00     0.211 HD
ENDBRANCH   2  21
BRANCH   6  23
ATOM     23  O   UNL     1      46.717  49.343 133.208  1.00  0.00    -0.462 OA
BRANCH  23  24
ATOM     24  C   UNL     1      45.620  49.394 132.328  1.00  0.00     0.130 A 
ATOM     25  C   UNL     1      45.718  49.855 131.003  1.00  0.00     0.093 A 
ATOM     26  C   UNL     1      44.378  49.013 132.825  1.00  0.00     0.094 A 
ATOM     27  C   UNL     1      44.569  50.057 130.227  1.00  0.00     0.133 A 
ATOM     28  C   UNL     1      43.225  49.159 132.053  1.00  0.00     0.138 A 
ATOM     29  C   UNL     1      43.293  49.704 130.753  1.00  0.00     0.102 A 
ATOM     30  O   UNL     1      42.000  48.768 132.601  1.00  0.00    -0.484 OA
ATOM     31  C   UNL     1      41.998  49.887 130.032  1.00  0.00     0.174 C 
ATOM     32  C   UNL     1      40.827  48.606 131.805  1.00  0.00     0.211 C 
ATOM     33  O   UNL     1      41.939  50.107 128.797  1.00  0.00    -0.294 OA
ATOM     34  C   UNL     1      40.719  49.785 130.818  1.00  0.00     0.131 C 
BRANCH  27  35
ATOM     35  O   UNL     1      44.752  50.637 128.969  1.00  0.00    -0.507 OA
ATOM     36  H   UNL     1      45.077  51.580 128.803  1.00  0.00     0.293 HD
ENDBRANCH  27  35
BRANCH  32  37
ATOM     37  C   UNL     1      39.632  48.390 132.717  1.00  0.00    -0.007 A 
ATOM     38  C   UNL     1      39.250  49.309 133.718  1.00  0.00     0.011 A 
ATOM     39  C   UNL     1      38.862  47.226 132.536  1.00  0.00     0.011 A 
ATOM     40  C   UNL     1      38.114  49.074 134.500  1.00  0.00     0.046 A 
ATOM     41  C   UNL     1      37.741  46.984 133.330  1.00  0.00     0.046 A 
ATOM     42  C   UNL     1      37.357  47.910 134.307  1.00  0.00     0.115 A 
BRANCH  42  43
ATOM     43  O   UNL     1      36.219  47.669 135.071  1.00  0.00    -0.508 OA
ATOM     44  H   UNL     1      35.478  48.360 135.156  1.00  0.00     0.293 HD
ENDBRANCH  42  43
ENDBRANCH  32  37
ENDBRANCH  23  24
ENDBRANCH   6  23
BRANCH   3  45
ATOM     45  O   UNL     1      49.323  49.044 136.881  1.00  0.00    -0.387 OA
ATOM     46  H   UNL     1      49.278  49.804 137.519  1.00  0.00     0.211 HD
ENDBRANCH   3  45
BRANCH   4  47
ATOM     47  C   UNL     1      50.137  47.391 134.583  1.00  0.00     0.191 C 
BRANCH  47  48
ATOM     48  O   UNL     1      49.889  46.518 135.652  1.00  0.00    -0.394 OA
ATOM     49  H   UNL     1      48.900  46.439 135.723  1.00  0.00     0.210 HD
ENDBRANCH  47  48
ENDBRANCH   4  47
TORSDOF 14
ENDMDL
MODEL 2
REMARK VINA RESULT:    -6.903      3.339      8.506
REMARK INTER + INTRA:         -13.531
REMARK INTER:                 -11.798
REMARK INTRA:                  -1.734
REMARK UNBOUND:                -2.593
REMARK SMILES C[C@H]1O[C@@H](O[C@H]2[C@@H](Oc3cc(O)c4c(c3)O[C@@H](c3ccc(O)cc3)CC4=O)O[C@H](CO)[C@H](O)[C@@H]2O)[C@H](O)[C@@H](O)[C@H]1O
REMARK SMILES IDX 6 1 34 2 32 3 29 4 28 5 7 6 5 7 4 8 1 9 2 10 40 11 3 12
REMARK SMILES IDX 38 13 36 14 41 15 39 17 37 19 35 21 8 23 9 24 10 25 15 26
REMARK SMILES IDX 11 27 14 28 13 29 16 30 26 31 17 32 27 33 25 34 12 35 18 37
REMARK SMILES IDX 19 38 24 39 20 40 23 41 21 42 22 43 33 45 30 47 31 48
REMARK H PARENT 41 16 39 18 37 20 35 22 12 36 22 44 33 46 31 49
REMARK Flexibility Score: inf
ROOT
ATOM      1  C   UNL     1      42.377  52.102 134.238  1.00  0.00     0.221 C 
ATOM      2  C   UNL     1      43.764  52.787 134.260  1.00  0.00     0.181 C 
ATOM      3  C   UNL     1      44.094  53.310 135.672  1.00  0.00     0.177 C 
ATOM      4  C   UNL     1      43.938  52.143 136.677  1.00  0.00     0.179 C 
ATOM      5  O   UNL     1      42.618  51.619 136.634  1.00  0.00    -0.332 OA
ATOM      6  C   UNL     1      42.319  51.041 135.363  1.00  0.00     0.339 C 
ENDROOT
BRANCH   1   7
ATOM      7  O   UNL     1      42.198  51.444 132.995  1.00  0.00    -0.337 OA
BRANCH   7   8
ATOM      8  C   UNL     1      40.884  51.570 132.480  1.00  0.00     0.282 C 
ATOM      9  C   UNL     1      41.973  48.652 132.234  1.00  0.00     0.041 C 
ATOM     10  C   UNL     1      40.712  49.328 131.667  1.00  0.00     0.150 C 
ATOM     11  C   UNL     1      40.840  49.795 130.191  1.00  0.00     0.174 C 
ATOM     12  O   UNL     1      40.200  50.330 132.538  1.00  0.00    -0.344 OA
ATOM     13  C   UNL     1      41.559  51.149 130.068  1.00  0.00     0.179 C 
ATOM     14  C   UNL     1      40.937  52.150 131.049  1.00  0.00     0.202 C 
BRANCH  11  15
ATOM     15  O   UNL     1      41.487  48.834 129.399  1.00  0.00    -0.388 OA
ATOM     16  H   UNL     1      42.409  49.173 129.237  1.00  0.00     0.211 HD
ENDBRANCH  11  15
BRANCH  13  17
ATOM     17  O   UNL     1      42.934  51.023 130.325  1.00  0.00    -0.387 OA
ATOM     18  H   UNL     1      43.139  51.575 131.126  1.00  0.00     0.211 HD
ENDBRANCH  13  17
BRANCH  14  19
ATOM     19  O   UNL     1      39.634  52.474 130.620  1.00  0.00    -0.385 OA
ATOM     20  H   UNL     1      39.337  53.255 131.149  1.00  0.00     0.211 HD
ENDBRANCH  14  19
ENDBRANCH   7   8
ENDBRANCH   1   7
BRANCH   2  21
ATOM     21  O   UNL     1      43.880  53.817 133.308  1.00  0.00    -0.387 OA
ATOM     22  H   UNL     1      43.048  54.370 133.347  1.00  0.00     0.211 HD
ENDBRANCH   2  21
BRANCH   6  23
ATOM     23  O   UNL     1      43.202  49.956 135.039  1.00  0.00    -0.462 OA
BRANCH  23  24
ATOM     24  C   UNL     1      43.398  48.776 135.780  1.00  0.00     0.130 A 
ATOM     25  C   UNL     1      42.340  47.987 136.264  1.00  0.00     0.093 A 
ATOM     26  C   UNL     1      44.708  48.416 136.082  1.00  0.00     0.094 A 
ATOM     27  C   UNL     1      42.582  46.926 137.148  1.00  0.00     0.133 A 
ATOM     28  C   UNL     1      44.976  47.333 136.920  1.00  0.00     0.138 A 
ATOM     29  C   UNL     1      43.923  46.584 137.487  1.00  0.00     0.102 A 
ATOM     30  O   UNL     1      46.309  47.018 137.198  1.00  0.00    -0.484 OA
ATOM     31  C   UNL     1      44.308  45.490 138.427  1.00  0.00     0.174 C 
ATOM     32  C   UNL     1      46.689  45.778 137.793  1.00  0.00     0.211 C 
ATOM     33  O   UNL     1      43.503  44.595 138.786  1.00  0.00    -0.294 OA
ATOM     34  C   UNL     1      45.719  45.453 138.947  1.00  0.00     0.131 C 
BRANCH  27  35
ATOM     35  O   UNL     1      41.463  46.278 137.676  1.00  0.00    -0.507 OA
ATOM     36  H   UNL     1      41.138  45.359 137.405  1.00  0.00     0.293 HD
ENDBRANCH  27  35
BRANCH  32  37
ATOM     37  C   UNL     1      48.162  45.831 138.157  1.00  0.00    -0.007 A 
ATOM     38  C   UNL     1      49.108  46.594 137.438  1.00  0.00     0.011 A 
ATOM     39  C   UNL     1      48.595  45.099 139.278  1.00  0.00     0.011 A 
ATOM     40  C   UNL     1      50.445  46.635 137.847  1.00  0.00     0.046 A 
ATOM     41  C   UNL     1      49.932  45.126 139.674  1.00  0.00     0.046 A 
ATOM     42  C   UNL     1      50.859  45.901 138.967  1.00  0.00     0.115 A 
BRANCH  42  43
ATOM     43  O   UNL     1      52.184  45.942 139.391  1.00  0.00    -0.508 OA
ATOM     44  H   UNL     1      52.454  45.645 140.325  1.00  0.00     0.293 HD
ENDBRANCH  42  43
ENDBRANCH  32  37
ENDBRANCH  23  24
ENDBRANCH   6  23
BRANCH   3  45
ATOM     45  O   UNL     1      43.221  54.364 136.009  1.00  0.00    -0.387 OA
ATOM     46  H   UNL     1      43.389  55.098 135.362  1.00  0.00     0.211 HD
ENDBRANCH   3  45
BRANCH   4  47
ATOM     47  C   UNL     1      44.237  52.574 138.117  1.00  0.00     0.191 C 
BRANCH  47  48
ATOM     48  O   UNL     1      43.388  51.902 139.010  1.00  0.00    -0.394 OA
ATOM     49  H   UNL     1      43.959  51.617 139.774  1.00  0.00     0.210 HD
ENDBRANCH  47  48
ENDBRANCH   4  47
TORSDOF 14
ENDMDL
MODEL 3
REMARK VINA RESULT:    -6.728      4.901      8.385
REMARK INTER + INTRA:         -13.253
REMARK INTER:                 -11.379
REMARK INTRA:                  -1.874
REMARK UNBOUND:                -2.593
REMARK SMILES C[C@H]1O[C@@H](O[C@H]2[C@@H](Oc3cc(O)c4c(c3)O[C@@H](c3ccc(O)cc3)CC4=O)O[C@H](CO)[C@H](O)[C@@H]2O)[C@H](O)[C@@H](O)[C@H]1O
REMARK SMILES IDX 6 1 34 2 32 3 29 4 28 5 7 6 5 7 4 8 1 9 2 10 40 11 3 12
REMARK SMILES IDX 38 13 36 14 41 15 39 17 37 19 35 21 8 23 9 24 10 25 15 26
REMARK SMILES IDX 11 27 14 28 13 29 16 30 26 31 17 32 27 33 25 34 12 35 18 37
REMARK SMILES IDX 19 38 24 39 20 40 23 41 21 42 22 43 33 45 30 47 31 48
REMARK H PARENT 41 16 39 18 37 20 35 22 12 36 22 44 33 46 31 49
REMARK Flexibility Score: inf
ROOT
ATOM      1  C   UNL     1      42.227  49.028 133.259  1.00  0.00     0.221 C 
ATOM      2  C   UNL     1      41.430  50.328 133.524  1.00  0.00     0.181 C 
ATOM      3  C   UNL     1      39.918  50.039 133.593  1.00  0.00     0.177 C 
ATOM      4  C   UNL     1      39.679  48.917 134.631  1.00  0.00     0.179 C 
ATOM      5  O   UNL     1      40.395  47.744 134.273  1.00  0.00    -0.332 OA
ATOM      6  C   UNL     1      41.807  47.957 134.295  1.00  0.00     0.339 C 
ENDROOT
BRANCH   1   7
ATOM      7  O   UNL     1      43.612  49.284 133.418  1.00  0.00    -0.337 OA
BRANCH   7   8
ATOM      8  C   UNL     1      44.430  48.453 132.615  1.00  0.00     0.282 C 
ATOM      9  C   UNL     1      46.069  50.698 134.042  1.00  0.00     0.041 C 
ATOM     10  C   UNL     1      46.451  49.688 132.945  1.00  0.00     0.150 C 
ATOM     11  C   UNL     1      46.405  50.257 131.501  1.00  0.00     0.174 C 
ATOM     12  O   UNL     1      45.765  48.449 133.091  1.00  0.00    -0.344 OA
ATOM     13  C   UNL     1      44.980  50.267 130.924  1.00  0.00     0.179 C 
ATOM     14  C   UNL     1      44.331  48.894 131.138  1.00  0.00     0.202 C 
BRANCH  11  15
ATOM     15  O   UNL     1      46.959  51.544 131.435  1.00  0.00    -0.388 OA
ATOM     16  H   UNL     1      46.514  52.007 130.674  1.00  0.00     0.211 HD
ENDBRANCH  11  15
BRANCH  13  17
ATOM     17  O   UNL     1      44.192  51.263 131.523  1.00  0.00    -0.387 OA
ATOM     18  H   UNL     1      43.241  51.038 131.342  1.00  0.00     0.211 HD
ENDBRANCH  13  17
BRANCH  14  19
ATOM     19  O   UNL     1      44.971  47.943 130.315  1.00  0.00    -0.385 OA
ATOM     20  H   UNL     1      44.321  47.674 129.619  1.00  0.00     0.211 HD
ENDBRANCH  14  19
ENDBRANCH   7   8
ENDBRANCH   1   7
BRANCH   2  21
ATOM     21  O   UNL     1      41.703  51.336 132.581  1.00  0.00    -0.387 OA
ATOM     22  H   UNL     1      42.415  51.928 132.957  1.00  0.00     0.211 HD
ENDBRANCH   2  21
BRANCH   6  23
ATOM     23  O   UNL     1      42.277  48.345 135.595  1.00  0.00    -0.462 OA
BRANCH  23  24
ATOM     24  C   UNL     1      43.398  47.834 136.275  1.00  0.00     0.130 A 
ATOM     25  C   UNL     1      44.670  48.428 136.217  1.00  0.00     0.093 A 
ATOM     26  C   UNL     1      43.231  46.655 136.995  1.00  0.00     0.094 A 
ATOM     27  C   UNL     1      45.789  47.783 136.760  1.00  0.00     0.133 A 
ATOM     28  C   UNL     1      44.323  46.019 137.587  1.00  0.00     0.138 A 
ATOM     29  C   UNL     1      45.622  46.555 137.462  1.00  0.00     0.102 A 
ATOM     30  O   UNL     1      44.103  44.833 138.293  1.00  0.00    -0.484 OA
ATOM     31  C   UNL     1      46.735  45.766 138.069  1.00  0.00     0.174 C 
ATOM     32  C   UNL     1      45.084  44.273 139.165  1.00  0.00     0.211 C 
ATOM     33  O   UNL     1      47.879  46.249 138.259  1.00  0.00    -0.294 OA
ATOM     34  C   UNL     1      46.465  44.345 138.484  1.00  0.00     0.131 C 
BRANCH  27  35
ATOM     35  O   UNL     1      47.031  48.386 136.544  1.00  0.00    -0.507 OA
ATOM     36  H   UNL     1      47.519  48.973 137.208  1.00  0.00     0.293 HD
ENDBRANCH  27  35
BRANCH  32  37
ATOM     37  C   UNL     1      44.630  42.892 139.604  1.00  0.00    -0.007 A 
ATOM     38  C   UNL     1      43.463  42.671 140.367  1.00  0.00     0.011 A 
ATOM     39  C   UNL     1      45.403  41.785 139.212  1.00  0.00     0.011 A 
ATOM     40  C   UNL     1      43.075  41.370 140.707  1.00  0.00     0.046 A 
ATOM     41  C   UNL     1      45.025  40.490 139.568  1.00  0.00     0.046 A 
ATOM     42  C   UNL     1      43.855  40.277 140.307  1.00  0.00     0.115 A 
BRANCH  42  43
ATOM     43  O   UNL     1      43.475  38.978 140.630  1.00  0.00    -0.508 OA
ATOM     44  H   UNL     1      42.784  38.473 140.081  1.00  0.00     0.293 HD
ENDBRANCH  42  43
ENDBRANCH  32  37
ENDBRANCH  23  24
ENDBRANCH   6  23
BRANCH   3  45
ATOM     45  O   UNL     1      39.448  49.639 132.326  1.00  0.00    -0.387 OA
ATOM     46  H   UNL     1      39.255  50.468 131.813  1.00  0.00     0.211 HD
ENDBRANCH   3  45
BRANCH   4  47
ATOM     47  C   UNL     1      38.195  48.553 134.761  1.00  0.00     0.191 C 
BRANCH  47  48
ATOM     48  O   UNL     1      37.408  49.714 134.739  1.00  0.00    -0.394 OA
ATOM     49  H   UNL     1      38.032  50.470 134.571  1.00  0.00     0.210 HD
ENDBRANCH  47  48
ENDBRANCH   4  47
TORSDOF 14
ENDMDL
MODEL 4
REMARK VINA RESULT:    -6.512      4.115      7.178
REMARK INTER + INTRA:         -12.911
REMARK INTER:                 -10.972
REMARK INTRA:                  -1.939
REMARK UNBOUND:                -2.593
REMARK SMILES C[C@H]1O[C@@H](O[C@H]2[C@@H](Oc3cc(O)c4c(c3)O[C@@H](c3ccc(O)cc3)CC4=O)O[C@H](CO)[C@H](O)[C@@H]2O)[C@H](O)[C@@H](O)[C@H]1O
REMARK SMILES IDX 6 1 34 2 32 3 29 4 28 5 7 6 5 7 4 8 1 9 2 10 40 11 3 12
REMARK SMILES IDX 38 13 36 14 41 15 39 17 37 19 35 21 8 23 9 24 10 25 15 26
REMARK SMILES IDX 11 27 14 28 13 29 16 30 26 31 17 32 27 33 25 34 12 35 18 37
REMARK SMILES IDX 19 38 24 39 20 40 23 41 21 42 22 43 33 45 30 47 31 48
REMARK H PARENT 41 16 39 18 37 20 35 22 12 36 22 44 33 46 31 49
REMARK Flexibility Score: inf
ROOT
ATOM      1  C   UNL     1      47.595  44.714 139.042  1.00  0.00     0.221 C 
ATOM      2  C   UNL     1      47.136  43.340 138.499  1.00  0.00     0.181 C 
ATOM      3  C   UNL     1      45.781  42.934 139.112  1.00  0.00     0.177 C 
ATOM      4  C   UNL     1      44.773  44.084 138.881  1.00  0.00     0.179 C 
ATOM      5  O   UNL     1      45.246  45.288 139.467  1.00  0.00    -0.332 OA
ATOM      6  C   UNL     1      46.452  45.740 138.852  1.00  0.00     0.339 C 
ENDROOT
BRANCH   1   7
ATOM      7  O   UNL     1      48.721  45.159 138.304  1.00  0.00    -0.337 OA
BRANCH   7   8
ATOM      8  C   UNL     1      49.864  45.384 139.110  1.00  0.00     0.282 C 
ATOM      9  C   UNL     1      49.957  47.016 136.448  1.00  0.00     0.041 C 
ATOM     10  C   UNL     1      51.014  46.774 137.542  1.00  0.00     0.150 C 
ATOM     11  C   UNL     1      52.036  45.652 137.212  1.00  0.00     0.174 C 
ATOM     12  O   UNL     1      50.432  46.653 138.835  1.00  0.00    -0.344 OA
ATOM     13  C   UNL     1      51.480  44.251 137.512  1.00  0.00     0.179 C 
ATOM     14  C   UNL     1      50.873  44.230 138.920  1.00  0.00     0.202 C 
BRANCH  11  15
ATOM     15  O   UNL     1      52.469  45.723 135.880  1.00  0.00    -0.388 OA
ATOM     16  H   UNL     1      52.591  44.784 135.570  1.00  0.00     0.211 HD
ENDBRANCH  11  15
BRANCH  13  17
ATOM     17  O   UNL     1      50.508  43.874 136.570  1.00  0.00    -0.387 OA
ATOM     18  H   UNL     1      49.809  44.582 136.565  1.00  0.00     0.211 HD
ENDBRANCH  13  17
BRANCH  14  19
ATOM     19  O   UNL     1      51.906  44.342 139.873  1.00  0.00    -0.385 OA
ATOM     20  H   UNL     1      52.486  43.547 139.771  1.00  0.00     0.211 HD
ENDBRANCH  14  19
ENDBRANCH   7   8
ENDBRANCH   1   7
BRANCH   2  21
ATOM     21  O   UNL     1      48.095  42.328 138.695  1.00  0.00    -0.387 OA
ATOM     22  H   UNL     1      48.531  42.481 139.581  1.00  0.00     0.211 HD
ENDBRANCH   2  21
BRANCH   6  23
ATOM     23  O   UNL     1      46.281  46.005 137.451  1.00  0.00    -0.462 OA
BRANCH  23  24
ATOM     24  C   UNL     1      45.687  47.143 136.874  1.00  0.00     0.130 A 
ATOM     25  C   UNL     1      46.289  48.413 136.883  1.00  0.00     0.093 A 
ATOM     26  C   UNL     1      44.421  46.994 136.314  1.00  0.00     0.094 A 
ATOM     27  C   UNL     1      45.580  49.546 136.458  1.00  0.00     0.133 A 
ATOM     28  C   UNL     1      43.716  48.100 135.839  1.00  0.00     0.138 A 
ATOM     29  C   UNL     1      44.269  49.396 135.923  1.00  0.00     0.102 A 
ATOM     30  O   UNL     1      42.445  47.898 135.294  1.00  0.00    -0.484 OA
ATOM     31  C   UNL     1      43.410  50.524 135.455  1.00  0.00     0.174 C 
ATOM     32  C   UNL     1      41.777  48.901 134.530  1.00  0.00     0.211 C 
ATOM     33  O   UNL     1      43.867  51.672 135.230  1.00  0.00    -0.294 OA
ATOM     34  C   UNL     1      41.945  50.265 135.228  1.00  0.00     0.131 C 
BRANCH  27  35
ATOM     35  O   UNL     1      46.211  50.782 136.621  1.00  0.00    -0.507 OA
ATOM     36  H   UNL     1      46.521  51.383 135.869  1.00  0.00     0.293 HD
ENDBRANCH  27  35
BRANCH  32  37
ATOM     37  C   UNL     1      40.348  48.458 134.268  1.00  0.00    -0.007 A 
ATOM     38  C   UNL     1      39.222  49.197 134.693  1.00  0.00     0.011 A 
ATOM     39  C   UNL     1      40.144  47.265 133.552  1.00  0.00     0.011 A 
ATOM     40  C   UNL     1      37.930  48.758 134.386  1.00  0.00     0.046 A 
ATOM     41  C   UNL     1      38.855  46.819 133.264  1.00  0.00     0.046 A 
ATOM     42  C   UNL     1      37.744  47.568 133.670  1.00  0.00     0.115 A 
BRANCH  42  43
ATOM     43  O   UNL     1      36.464  47.126 133.350  1.00  0.00    -0.508 OA
ATOM     44  H   UNL     1      35.909  47.578 132.629  1.00  0.00     0.293 HD
ENDBRANCH  42  43
ENDBRANCH  32  37
ENDBRANCH  23  24
ENDBRANCH   6  23
BRANCH   3  45
ATOM     45  O   UNL     1      45.933  42.688 140.492  1.00  0.00    -0.387 OA
ATOM     46  H   UNL     1      46.896  42.809 140.704  1.00  0.00     0.211 HD
ENDBRANCH   3  45
BRANCH   4  47
ATOM     47  C   UNL     1      43.393  43.773 139.469  1.00  0.00     0.191 C 
BRANCH  47  48
ATOM     48  O   UNL     1      43.329  44.194 140.806  1.00  0.00    -0.394 OA
ATOM     49  H   UNL     1      42.853  45.068 140.799  1.00  0.00     0.210 HD
ENDBRANCH  47  48
ENDBRANCH   4  47
TORSDOF 14
ENDMDL
MODEL 5
REMARK VINA RESULT:    -6.508      3.188      6.849
REMARK INTER + INTRA:         -12.904
REMARK INTER:                 -10.401
REMARK INTRA:                  -2.503
REMARK UNBOUND:                -2.593
REMARK SMILES C[C@H]1O[C@@H](O[C@H]2[C@@H](Oc3cc(O)c4c(c3)O[C@@H](c3ccc(O)cc3)CC4=O)O[C@H](CO)[C@H](O)[C@@H]2O)[C@H](O)[C@@H](O)[C@H]1O
REMARK SMILES IDX 6 1 34 2 32 3 29 4 28 5 7 6 5 7 4 8 1 9 2 10 40 11 3 12
REMARK SMILES IDX 38 13 36 14 41 15 39 17 37 19 35 21 8 23 9 24 10 25 15 26
REMARK SMILES IDX 11 27 14 28 13 29 16 30 26 31 17 32 27 33 25 34 12 35 18 37
REMARK SMILES IDX 19 38 24 39 20 40 23 41 21 42 22 43 33 45 30 47 31 48
REMARK H PARENT 41 16 39 18 37 20 35 22 12 36 22 44 33 46 31 49
REMARK Flexibility Score: inf
ROOT
ATOM      1  C   UNL     1      43.721  51.720 134.652  1.00  0.00     0.221 C 
ATOM      2  C   UNL     1      42.917  52.678 135.563  1.00  0.00     0.181 C 
ATOM      3  C   UNL     1      43.814  53.816 136.089  1.00  0.00     0.177 C 
ATOM      4  C   UNL     1      44.498  54.500 134.882  1.00  0.00     0.179 C 
ATOM      5  O   UNL     1      45.264  53.561 134.142  1.00  0.00    -0.332 OA
ATOM      6  C   UNL     1      44.444  52.547 133.561  1.00  0.00     0.339 C 
ENDROOT
BRANCH   1   7
ATOM      7  O   UNL     1      42.830  50.820 134.014  1.00  0.00    -0.337 OA
BRANCH   7   8
ATOM      8  C   UNL     1      43.373  49.523 133.843  1.00  0.00     0.282 C 
ATOM      9  C   UNL     1      40.427  49.714 132.820  1.00  0.00     0.041 C 
ATOM     10  C   UNL     1      41.366  48.512 133.026  1.00  0.00     0.150 C 
ATOM     11  C   UNL     1      41.146  47.743 134.358  1.00  0.00     0.174 C 
ATOM     12  O   UNL     1      42.728  48.844 132.779  1.00  0.00    -0.344 OA
ATOM     13  C   UNL     1      41.842  48.426 135.547  1.00  0.00     0.179 C 
ATOM     14  C   UNL     1      43.295  48.745 135.175  1.00  0.00     0.202 C 
BRANCH  11  15
ATOM     15  O   UNL     1      39.781  47.570 134.634  1.00  0.00    -0.388 OA
ATOM     16  H   UNL     1      39.303  48.318 134.184  1.00  0.00     0.211 HD
ENDBRANCH  11  15
BRANCH  13  17
ATOM     17  O   UNL     1      41.177  49.605 135.921  1.00  0.00    -0.387 OA
ATOM     18  H   UNL     1      41.804  50.135 136.481  1.00  0.00     0.211 HD
ENDBRANCH  13  17
BRANCH  14  19
ATOM     19  O   UNL     1      44.023  47.542 135.064  1.00  0.00    -0.385 OA
ATOM     20  H   UNL     1      43.381  46.800 135.189  1.00  0.00     0.211 HD
ENDBRANCH  14  19
ENDBRANCH   7   8
ENDBRANCH   1   7
BRANCH   2  21
ATOM     21  O   UNL     1      42.280  52.014 136.627  1.00  0.00    -0.387 OA
ATOM     22  H   UNL     1      41.869  51.176 136.269  1.00  0.00     0.211 HD
ENDBRANCH   2  21
BRANCH   6  23
ATOM     23  O   UNL     1      43.472  53.088 132.654  1.00  0.00    -0.462 OA
BRANCH  23  24
ATOM     24  C   UNL     1      43.054  52.530 131.432  1.00  0.00     0.130 A 
ATOM     25  C   UNL     1      41.727  52.588 130.973  1.00  0.00     0.093 A 
ATOM     26  C   UNL     1      44.005  51.849 130.678  1.00  0.00     0.094 A 
ATOM     27  C   UNL     1      41.326  51.863 129.843  1.00  0.00     0.133 A 
ATOM     28  C   UNL     1      43.639  51.160 129.521  1.00  0.00     0.138 A 
ATOM     29  C   UNL     1      42.294  51.133 129.095  1.00  0.00     0.102 A 
ATOM     30  O   UNL     1      44.630  50.485 128.804  1.00  0.00    -0.484 OA
ATOM     31  C   UNL     1      41.988  50.310 127.887  1.00  0.00     0.174 C 
ATOM     32  C   UNL     1      44.417  50.005 127.477  1.00  0.00     0.211 C 
ATOM     33  O   UNL     1      40.906  50.411 127.258  1.00  0.00    -0.294 OA
ATOM     34  C   UNL     1      43.028  49.339 127.398  1.00  0.00     0.131 C 
BRANCH  27  35
ATOM     35  O   UNL     1      39.963  51.877 129.535  1.00  0.00    -0.507 OA
ATOM     36  H   UNL     1      39.212  51.775 130.205  1.00  0.00     0.293 HD
ENDBRANCH  27  35
BRANCH  32  37
ATOM     37  C   UNL     1      45.594  49.141 127.064  1.00  0.00    -0.007 A 
ATOM     38  C   UNL     1      46.341  49.366 125.887  1.00  0.00     0.011 A 
ATOM     39  C   UNL     1      45.965  48.078 127.908  1.00  0.00     0.011 A 
ATOM     40  C   UNL     1      47.442  48.559 125.581  1.00  0.00     0.046 A 
ATOM     41  C   UNL     1      47.051  47.263 127.592  1.00  0.00     0.046 A 
ATOM     42  C   UNL     1      47.799  47.505 126.434  1.00  0.00     0.115 A 
BRANCH  42  43
ATOM     43  O   UNL     1      48.898  46.702 126.146  1.00  0.00    -0.508 OA
ATOM     44  H   UNL     1      49.168  45.931 126.751  1.00  0.00     0.293 HD
ENDBRANCH  42  43
ENDBRANCH  32  37
ENDBRANCH  23  24
ENDBRANCH   6  23
BRANCH   3  45
ATOM     45  O   UNL     1      44.785  53.294 136.967  1.00  0.00    -0.387 OA
ATOM     46  H   UNL     1      45.195  52.510 136.515  1.00  0.00     0.211 HD
ENDBRANCH   3  45
BRANCH   4  47
ATOM     47  C   UNL     1      45.424  55.644 135.310  1.00  0.00     0.191 C 
BRANCH  47  48
ATOM     48  O   UNL     1      46.652  55.132 135.755  1.00  0.00    -0.394 OA
ATOM     49  H   UNL     1      46.530  54.913 136.717  1.00  0.00     0.210 HD
ENDBRANCH  47  48
ENDBRANCH   4  47
TORSDOF 14
ENDMDL
MODEL 6
REMARK VINA RESULT:    -6.421      3.762      7.236
REMARK INTER + INTRA:         -12.767
REMARK INTER:                 -10.711
REMARK INTRA:                  -2.056
REMARK UNBOUND:                -2.593
REMARK SMILES C[C@H]1O[C@@H](O[C@H]2[C@@H](Oc3cc(O)c4c(c3)O[C@@H](c3ccc(O)cc3)CC4=O)O[C@H](CO)[C@H](O)[C@@H]2O)[C@H](O)[C@@H](O)[C@H]1O
REMARK SMILES IDX 6 1 34 2 32 3 29 4 28 5 7 6 5 7 4 8 1 9 2 10 40 11 3 12
REMARK SMILES IDX 38 13 36 14 41 15 39 17 37 19 35 21 8 23 9 24 10 25 15 26
REMARK SMILES IDX 11 27 14 28 13 29 16 30 26 31 17 32 27 33 25 34 12 35 18 37
REMARK SMILES IDX 19 38 24 39 20 40 23 41 21 42 22 43 33 45 30 47 31 48
REMARK H PARENT 41 16 39 18 37 20 35 22 12 36 22 44 33 46 31 49
REMARK Flexibility Score: inf
ROOT
ATOM      1  C   UNL     1      41.713  49.817 134.189  1.00  0.00     0.221 C 
ATOM      2  C   UNL     1      42.143  48.335 134.078  1.00  0.00     0.181 C 
ATOM      3  C   UNL     1      40.923  47.400 134.198  1.00  0.00     0.177 C 
ATOM      4  C   UNL     1      39.863  47.840 133.161  1.00  0.00     0.179 C 
ATOM      5  O   UNL     1      39.481  49.191 133.378  1.00  0.00    -0.332 OA
ATOM      6  C   UNL     1      40.572  50.090 133.179  1.00  0.00     0.339 C 
ENDROOT
BRANCH   1   7
ATOM      7  O   UNL     1      42.811  50.651 133.859  1.00  0.00    -0.337 OA
BRANCH   7   8
ATOM      8  C   UNL     1      42.648  51.989 134.294  1.00  0.00     0.282 C 
ATOM      9  C   UNL     1      45.603  51.358 133.499  1.00  0.00     0.041 C 
ATOM     10  C   UNL     1      44.964  52.574 134.194  1.00  0.00     0.150 C 
ATOM     11  C   UNL     1      45.088  52.571 135.742  1.00  0.00     0.174 C 
ATOM     12  O   UNL     1      43.642  52.826 133.730  1.00  0.00    -0.344 OA
ATOM     13  C   UNL     1      44.019  51.692 136.411  1.00  0.00     0.179 C 
ATOM     14  C   UNL     1      42.640  52.038 135.838  1.00  0.00     0.202 C 
BRANCH  11  15
ATOM     15  O   UNL     1      46.368  52.171 136.156  1.00  0.00    -0.388 OA
ATOM     16  H   UNL     1      46.256  51.738 137.046  1.00  0.00     0.211 HD
ENDBRANCH  11  15
BRANCH  13  17
ATOM     17  O   UNL     1      44.286  50.326 136.218  1.00  0.00    -0.387 OA
ATOM     18  H   UNL     1      45.243  50.243 135.966  1.00  0.00     0.211 HD
ENDBRANCH  13  17
BRANCH  14  19
ATOM     19  O   UNL     1      42.266  53.327 136.269  1.00  0.00    -0.385 OA
ATOM     20  H   UNL     1      41.323  53.276 136.564  1.00  0.00     0.211 HD
ENDBRANCH  14  19
ENDBRANCH   7   8
ENDBRANCH   1   7
BRANCH   2  21
ATOM     21  O   UNL     1      43.134  47.982 135.013  1.00  0.00    -0.387 OA
ATOM     22  H   UNL     1      42.905  48.413 135.885  1.00  0.00     0.211 HD
ENDBRANCH   2  21
BRANCH   6  23
ATOM     23  O   UNL     1      41.095  50.021 131.843  1.00  0.00    -0.462 OA
BRANCH  23  24
ATOM     24  C   UNL     1      40.877  50.943 130.803  1.00  0.00     0.130 A 
ATOM     25  C   UNL     1      40.394  52.245 131.018  1.00  0.00     0.093 A 
ATOM     26  C   UNL     1      41.111  50.511 129.501  1.00  0.00     0.094 A 
ATOM     27  C   UNL     1      40.023  53.060 129.939  1.00  0.00     0.133 A 
ATOM     28  C   UNL     1      40.795  51.323 128.412  1.00  0.00     0.138 A 
ATOM     29  C   UNL     1      40.225  52.599 128.607  1.00  0.00     0.102 A 
ATOM     30  O   UNL     1      41.041  50.839 127.124  1.00  0.00    -0.484 OA
ATOM     31  C   UNL     1      39.856  53.365 127.379  1.00  0.00     0.174 C 
ATOM     32  C   UNL     1      41.028  51.687 125.976  1.00  0.00     0.211 C 
ATOM     33  O   UNL     1      39.594  54.593 127.404  1.00  0.00    -0.294 OA
ATOM     34  C   UNL     1      39.816  52.636 126.063  1.00  0.00     0.131 C 
BRANCH  27  35
ATOM     35  O   UNL     1      39.435  54.288 130.250  1.00  0.00    -0.507 OA
ATOM     36  H   UNL     1      38.712  54.743 129.709  1.00  0.00     0.293 HD
ENDBRANCH  27  35
BRANCH  32  37
ATOM     37  C   UNL     1      41.116  50.833 124.724  1.00  0.00    -0.007 A 
ATOM     38  C   UNL     1      42.170  49.926 124.482  1.00  0.00     0.011 A 
ATOM     39  C   UNL     1      40.084  50.942 123.774  1.00  0.00     0.011 A 
ATOM     40  C   UNL     1      42.174  49.136 123.327  1.00  0.00     0.046 A 
ATOM     41  C   UNL     1      40.100  50.167 122.614  1.00  0.00     0.046 A 
ATOM     42  C   UNL     1      41.138  49.255 122.391  1.00  0.00     0.115 A 
BRANCH  42  43
ATOM     43  O   UNL     1      41.125  48.468 121.244  1.00  0.00    -0.508 OA
ATOM     44  H   UNL     1      41.905  48.462 120.593  1.00  0.00     0.293 HD
ENDBRANCH  42  43
ENDBRANCH  32  37
ENDBRANCH  23  24
ENDBRANCH   6  23
BRANCH   3  45
ATOM     45  O   UNL     1      40.389  47.473 135.501  1.00  0.00    -0.387 OA
ATOM     46  H   UNL     1      39.522  47.951 135.433  1.00  0.00     0.211 HD
ENDBRANCH   3  45
BRANCH   4  47
ATOM     47  C   UNL     1      38.602  46.970 133.214  1.00  0.00     0.191 C 
BRANCH  47  48
ATOM     48  O   UNL     1      37.794  47.353 134.295  1.00  0.00    -0.394 OA
ATOM     49  H   UNL     1      37.029  47.855 133.905  1.00  0.00     0.210 HD
ENDBRANCH  47  48
ENDBRANCH   4  47
TORSDOF 14
ENDMDL
MODEL 7
REMARK VINA RESULT:    -6.418      3.545      8.381
REMARK INTER + INTRA:         -12.762
REMARK INTER:                 -10.614
REMARK INTRA:                  -2.148
REMARK UNBOUND:                -2.593
REMARK SMILES C[C@H]1O[C@@H](O[C@H]2[C@@H](Oc3cc(O)c4c(c3)O[C@@H](c3ccc(O)cc3)CC4=O)O[C@H](CO)[C@H](O)[C@@H]2O)[C@H](O)[C@@H](O)[C@H]1O
REMARK SMILES IDX 6 1 34 2 32 3 29 4 28 5 7 6 5 7 4 8 1 9 2 10 40 11 3 12
REMARK SMILES IDX 38 13 36 14 41 15 39 17 37 19 35 21 8 23 9 24 10 25 15 26
REMARK SMILES IDX 11 27 14 28 13 29 16 30 26 31 17 32 27 33 25 34 12 35 18 37
REMARK SMILES IDX 19 38 24 39 20 40 23 41 21 42 22 43 33 45 30 47 31 48
REMARK H PARENT 41 16 39 18 37 20 35 22 12 36 22 44 33 46 31 49
REMARK Flexibility Score: inf
ROOT
ATOM      1  C   UNL     1      43.302  51.018 133.113  1.00  0.00     0.221 C 
ATOM      2  C   UNL     1      41.883  51.624 133.228  1.00  0.00     0.181 C 
ATOM      3  C   UNL     1      40.855  50.760 132.472  1.00  0.00     0.177 C 
ATOM      4  C   UNL     1      40.973  49.302 132.976  1.00  0.00     0.179 C 
ATOM      5  O   UNL     1      42.289  48.807 132.772  1.00  0.00    -0.332 OA
ATOM      6  C   UNL     1      43.253  49.531 133.538  1.00  0.00     0.339 C 
ENDROOT
BRANCH   1   7
ATOM      7  O   UNL     1      44.179  51.704 133.991  1.00  0.00    -0.337 OA
BRANCH   7   8
ATOM      8  C   UNL     1      45.401  52.078 133.381  1.00  0.00     0.282 C 
ATOM      9  C   UNL     1      45.408  52.608 136.460  1.00  0.00     0.041 C 
ATOM     10  C   UNL     1      46.396  53.005 135.347  1.00  0.00     0.150 C 
ATOM     11  C   UNL     1      46.221  54.455 134.818  1.00  0.00     0.174 C 
ATOM     12  O   UNL     1      46.466  52.028 134.315  1.00  0.00    -0.344 OA
ATOM     13  C   UNL     1      45.089  54.566 133.783  1.00  0.00     0.179 C 
ATOM     14  C   UNL     1      45.255  53.468 132.725  1.00  0.00     0.202 C 
BRANCH  11  15
ATOM     15  O   UNL     1      46.005  55.364 135.865  1.00  0.00    -0.388 OA
ATOM     16  H   UNL     1      45.612  54.843 136.618  1.00  0.00     0.211 HD
ENDBRANCH  11  15
BRANCH  13  17
ATOM     17  O   UNL     1      43.828  54.454 134.390  1.00  0.00    -0.387 OA
ATOM     18  H   UNL     1      43.905  54.829 135.308  1.00  0.00     0.211 HD
ENDBRANCH  13  17
BRANCH  14  19
ATOM     19  O   UNL     1      46.393  53.745 131.941  1.00  0.00    -0.385 OA
ATOM     20  H   UNL     1      47.163  53.818 132.558  1.00  0.00     0.211 HD
ENDBRANCH  14  19
ENDBRANCH   7   8
ENDBRANCH   1   7
BRANCH   2  21
ATOM     21  O   UNL     1      41.824  52.962 132.795  1.00  0.00    -0.387 OA
ATOM     22  H   UNL     1      42.739  53.232 132.497  1.00  0.00     0.211 HD
ENDBRANCH   2  21
BRANCH   6  23
ATOM     23  O   UNL     1      42.998  49.448 134.948  1.00  0.00    -0.462 OA
BRANCH  23  24
ATOM     24  C   UNL     1      43.248  48.348 135.789  1.00  0.00     0.130 A 
ATOM     25  C   UNL     1      42.228  47.586 136.383  1.00  0.00     0.093 A 
ATOM     26  C   UNL     1      44.576  48.045 136.073  1.00  0.00     0.094 A 
ATOM     27  C   UNL     1      42.526  46.618 137.352  1.00  0.00     0.133 A 
ATOM     28  C   UNL     1      44.900  47.051 136.998  1.00  0.00     0.138 A 
ATOM     29  C   UNL     1      43.886  46.338 137.671  1.00  0.00     0.102 A 
ATOM     30  O   UNL     1      46.249  46.791 137.254  1.00  0.00    -0.484 OA
ATOM     31  C   UNL     1      44.329  45.345 138.695  1.00  0.00     0.174 C 
ATOM     32  C   UNL     1      46.680  45.621 137.948  1.00  0.00     0.211 C 
ATOM     33  O   UNL     1      43.560  44.471 139.165  1.00  0.00    -0.294 OA
ATOM     34  C   UNL     1      45.759  45.386 139.162  1.00  0.00     0.131 C 
BRANCH  27  35
ATOM     35  O   UNL     1      41.442  45.999 137.980  1.00  0.00    -0.507 OA
ATOM     36  H   UNL     1      41.482  45.124 138.486  1.00  0.00     0.293 HD
ENDBRANCH  27  35
BRANCH  32  37
ATOM     37  C   UNL     1      48.163  45.739 138.251  1.00  0.00    -0.007 A 
ATOM     38  C   UNL     1      49.045  46.535 137.488  1.00  0.00     0.011 A 
ATOM     39  C   UNL     1      48.672  45.034 139.357  1.00  0.00     0.011 A 
ATOM     40  C   UNL     1      50.395  46.636 137.841  1.00  0.00     0.046 A 
ATOM     41  C   UNL     1      50.022  45.121 139.696  1.00  0.00     0.046 A 
ATOM     42  C   UNL     1      50.886  45.929 138.947  1.00  0.00     0.115 A 
BRANCH  42  43
ATOM     43  O   UNL     1      52.224  46.028 139.315  1.00  0.00    -0.508 OA
ATOM     44  H   UNL     1      52.693  45.284 139.824  1.00  0.00     0.293 HD
ENDBRANCH  42  43
ENDBRANCH  32  37
ENDBRANCH  23  24
ENDBRANCH   6  23
BRANCH   3  45
ATOM     45  O   UNL     1      41.106  50.818 131.086  1.00  0.00    -0.387 OA
ATOM     46  H   UNL     1      42.082  50.968 130.974  1.00  0.00     0.211 HD
ENDBRANCH   3  45
BRANCH   4  47
ATOM     47  C   UNL     1      39.991  48.362 132.269  1.00  0.00     0.191 C 
BRANCH  47  48
ATOM     48  O   UNL     1      40.377  48.174 130.933  1.00  0.00    -0.394 OA
ATOM     49  H   UNL     1      40.962  48.945 130.702  1.00  0.00     0.210 HD
ENDBRANCH  47  48
ENDBRANCH   4  47
TORSDOF 14
ENDMDL
MODEL 8
REMARK VINA RESULT:    -6.382      3.631      8.328
REMARK INTER + INTRA:         -12.705
REMARK INTER:                 -10.433
REMARK INTRA:                  -2.272
REMARK UNBOUND:                -2.593
REMARK SMILES C[C@H]1O[C@@H](O[C@H]2[C@@H](Oc3cc(O)c4c(c3)O[C@@H](c3ccc(O)cc3)CC4=O)O[C@H](CO)[C@H](O)[C@@H]2O)[C@H](O)[C@@H](O)[C@H]1O
REMARK SMILES IDX 6 1 34 2 32 3 29 4 28 5 7 6 5 7 4 8 1 9 2 10 40 11 3 12
REMARK SMILES IDX 38 13 36 14 41 15 39 17 37 19 35 21 8 23 9 24 10 25 15 26
REMARK SMILES IDX 11 27 14 28 13 29 16 30 26 31 17 32 27 33 25 34 12 35 18 37
REMARK SMILES IDX 19 38 24 39 20 40 23 41 21 42 22 43 33 45 30 47 31 48
REMARK H PARENT 41 16 39 18 37 20 35 22 12 36 22 44 33 46 31 49
REMARK Flexibility Score: inf
ROOT
ATOM      1  C   UNL     1      45.540  49.127 126.287  1.00  0.00     0.221 C 
ATOM      2  C   UNL     1      45.340  50.413 125.450  1.00  0.00     0.181 C 
ATOM      3  C   UNL     1      43.964  50.406 124.756  1.00  0.00     0.177 C 
ATOM      4  C   UNL     1      42.875  50.162 125.828  1.00  0.00     0.179 C 
ATOM      5  O   UNL     1      43.102  48.932 126.500  1.00  0.00    -0.332 OA
ATOM      6  C   UNL     1      44.328  48.946 127.232  1.00  0.00     0.339 C 
ENDROOT
BRANCH   1   7
ATOM      7  O   UNL     1      46.708  49.260 127.081  1.00  0.00    -0.337 OA
BRANCH   7   8
ATOM      8  C   UNL     1      47.396  48.037 127.272  1.00  0.00     0.282 C 
ATOM      9  C   UNL     1      48.837  50.432 128.669  1.00  0.00     0.041 C 
ATOM     10  C   UNL     1      49.268  48.973 128.427  1.00  0.00     0.150 C 
ATOM     11  C   UNL     1      50.197  48.772 127.198  1.00  0.00     0.174 C 
ATOM     12  O   UNL     1      48.167  48.073 128.461  1.00  0.00    -0.344 OA
ATOM     13  C   UNL     1      49.411  48.705 125.878  1.00  0.00     0.179 C 
ATOM     14  C   UNL     1      48.248  47.716 126.024  1.00  0.00     0.202 C 
BRANCH  11  15
ATOM     15  O   UNL     1      51.178  49.772 127.123  1.00  0.00    -0.388 OA
ATOM     16  H   UNL     1      51.286  50.134 128.045  1.00  0.00     0.211 HD
ENDBRANCH  11  15
BRANCH  13  17
ATOM     17  O   UNL     1      48.918  49.968 125.512  1.00  0.00    -0.387 OA
ATOM     18  H   UNL     1      48.127  50.155 126.083  1.00  0.00     0.211 HD
ENDBRANCH  13  17
BRANCH  14  19
ATOM     19  O   UNL     1      48.761  46.406 126.124  1.00  0.00    -0.385 OA
ATOM     20  H   UNL     1      48.888  46.071 125.202  1.00  0.00     0.211 HD
ENDBRANCH  14  19
ENDBRANCH   7   8
ENDBRANCH   1   7
BRANCH   2  21
ATOM     21  O   UNL     1      46.370  50.620 124.512  1.00  0.00    -0.387 OA
ATOM     22  H   UNL     1      47.152  51.014 124.993  1.00  0.00     0.211 HD
ENDBRANCH   2  21
BRANCH   6  23
ATOM     23  O   UNL     1      44.350  49.972 128.235  1.00  0.00    -0.462 OA
BRANCH  23  24
ATOM     24  C   UNL     1      44.263  49.793 129.628  1.00  0.00     0.130 A 
ATOM     25  C   UNL     1      45.386  49.780 130.473  1.00  0.00     0.093 A 
ATOM     26  C   UNL     1      43.002  49.569 130.171  1.00  0.00     0.094 A 
ATOM     27  C   UNL     1      45.266  49.418 131.822  1.00  0.00     0.133 A 
ATOM     28  C   UNL     1      42.851  49.256 131.522  1.00  0.00     0.138 A 
ATOM     29  C   UNL     1      43.977  49.150 132.367  1.00  0.00     0.102 A 
ATOM     30  O   UNL     1      41.563  49.033 132.017  1.00  0.00    -0.484 OA
ATOM     31  C   UNL     1      43.721  48.740 133.779  1.00  0.00     0.174 C 
ATOM     32  C   UNL     1      41.280  48.996 133.415  1.00  0.00     0.211 C 
ATOM     33  O   UNL     1      44.583  48.865 134.684  1.00  0.00    -0.294 OA
ATOM     34  C   UNL     1      42.372  48.174 134.129  1.00  0.00     0.131 C 
BRANCH  27  35
ATOM     35  O   UNL     1      46.451  49.309 132.554  1.00  0.00    -0.507 OA
ATOM     36  H   UNL     1      47.164  50.024 132.621  1.00  0.00     0.293 HD
ENDBRANCH  27  35
BRANCH  32  37
ATOM     37  C   UNL     1      39.851  48.526 133.622  1.00  0.00    -0.007 A 
ATOM     38  C   UNL     1      39.318  47.378 132.996  1.00  0.00     0.011 A 
ATOM     39  C   UNL     1      39.031  49.263 134.496  1.00  0.00     0.011 A 
ATOM     40  C   UNL     1      38.005  46.973 133.259  1.00  0.00     0.046 A 
ATOM     41  C   UNL     1      37.717  48.868 134.742  1.00  0.00     0.046 A 
ATOM     42  C   UNL     1      37.202  47.717 134.133  1.00  0.00     0.115 A 
BRANCH  42  43
ATOM     43  O   UNL     1      35.898  47.318 134.411  1.00  0.00    -0.508 OA
ATOM     44  H   UNL     1      35.694  46.619 135.119  1.00  0.00     0.293 HD
ENDBRANCH  42  43
ENDBRANCH  32  37
ENDBRANCH  23  24
ENDBRANCH   6  23
BRANCH   3  45
ATOM     45  O   UNL     1      43.924  49.390 123.780  1.00  0.00    -0.387 OA
ATOM     46  H   UNL     1      43.604  49.809 122.938  1.00  0.00     0.211 HD
ENDBRANCH   3  45
BRANCH   4  47
ATOM     47  C   UNL     1      41.466  50.129 125.226  1.00  0.00     0.191 C 
BRANCH  47  48
ATOM     48  O   UNL     1      41.248  48.907 124.571  1.00  0.00    -0.394 OA
ATOM     49  H   UNL     1      40.390  49.006 124.077  1.00  0.00     0.210 HD
ENDBRANCH  47  48
ENDBRANCH   4  47
TORSDOF 14
ENDMDL
MODEL 9
REMARK VINA RESULT:    -6.367      2.753      6.431
REMARK INTER + INTRA:         -12.681
REMARK INTER:                 -10.372
REMARK INTRA:                  -2.309
REMARK UNBOUND:                -2.593
REMARK SMILES C[C@H]1O[C@@H](O[C@H]2[C@@H](Oc3cc(O)c4c(c3)O[C@@H](c3ccc(O)cc3)CC4=O)O[C@H](CO)[C@H](O)[C@@H]2O)[C@H](O)[C@@H](O)[C@H]1O
REMARK SMILES IDX 6 1 34 2 32 3 29 4 28 5 7 6 5 7 4 8 1 9 2 10 40 11 3 12
REMARK SMILES IDX 38 13 36 14 41 15 39 17 37 19 35 21 8 23 9 24 10 25 15 26
REMARK SMILES IDX 11 27 14 28 13 29 16 30 26 31 17 32 27 33 25 34 12 35 18 37
REMARK SMILES IDX 19 38 24 39 20 40 23 41 21 42 22 43 33 45 30 47 31 48
REMARK H PARENT 41 16 39 18 37 20 35 22 12 36 22 44 33 46 31 49
REMARK Flexibility Score: inf
ROOT
ATOM      1  C   UNL     1      45.121  50.198 128.175  1.00  0.00     0.221 C 
ATOM      2  C   UNL     1      45.226  48.970 127.240  1.00  0.00     0.181 C 
ATOM      3  C   UNL     1      46.685  48.743 126.796  1.00  0.00     0.177 C 
ATOM      4  C   UNL     1      47.575  48.666 128.058  1.00  0.00     0.179 C 
ATOM      5  O   UNL     1      47.466  49.859 128.821  1.00  0.00    -0.332 OA
ATOM      6  C   UNL     1      46.143  50.045 129.327  1.00  0.00     0.339 C 
ENDROOT
BRANCH   1   7
ATOM      7  O   UNL     1      43.820  50.251 128.737  1.00  0.00    -0.337 OA
BRANCH   7   8
ATOM      8  C   UNL     1      43.446  51.549 129.162  1.00  0.00     0.282 C 
ATOM      9  C   UNL     1      41.123  49.487 129.491  1.00  0.00     0.041 C 
ATOM     10  C   UNL     1      41.162  51.020 129.626  1.00  0.00     0.150 C 
ATOM     11  C   UNL     1      40.671  51.790 128.369  1.00  0.00     0.174 C 
ATOM     12  O   UNL     1      42.410  51.485 130.126  1.00  0.00    -0.344 OA
ATOM     13  C   UNL     1      41.763  51.908 127.294  1.00  0.00     0.179 C 
ATOM     14  C   UNL     1      43.062  52.409 127.937  1.00  0.00     0.202 C 
BRANCH  11  15
ATOM     15  O   UNL     1      39.519  51.204 127.822  1.00  0.00    -0.388 OA
ATOM     16  H   UNL     1      39.743  50.960 126.883  1.00  0.00     0.211 HD
ENDBRANCH  11  15
BRANCH  13  17
ATOM     17  O   UNL     1      41.991  50.677 126.659  1.00  0.00    -0.387 OA
ATOM     18  H   UNL     1      42.762  50.798 126.043  1.00  0.00     0.211 HD
ENDBRANCH  13  17
BRANCH  14  19
ATOM     19  O   UNL     1      42.898  53.752 128.333  1.00  0.00    -0.385 OA
ATOM     20  H   UNL     1      42.936  54.306 127.514  1.00  0.00     0.211 HD
ENDBRANCH  14  19
ENDBRANCH   7   8
ENDBRANCH   1   7
BRANCH   2  21
ATOM     21  O   UNL     1      44.374  49.059 126.123  1.00  0.00    -0.387 OA
ATOM     22  H   UNL     1      44.819  49.636 125.439  1.00  0.00     0.211 HD
ENDBRANCH   2  21
BRANCH   6  23
ATOM     23  O   UNL     1      45.734  48.970 130.186  1.00  0.00    -0.462 OA
BRANCH  23  24
ATOM     24  C   UNL     1      45.223  49.080 131.492  1.00  0.00     0.130 A 
ATOM     25  C   UNL     1      46.034  49.300 132.619  1.00  0.00     0.093 A 
ATOM     26  C   UNL     1      43.852  48.912 131.663  1.00  0.00     0.094 A 
ATOM     27  C   UNL     1      45.501  49.220 133.913  1.00  0.00     0.133 A 
ATOM     28  C   UNL     1      43.291  48.879 132.940  1.00  0.00     0.138 A 
ATOM     29  C   UNL     1      44.103  49.007 134.087  1.00  0.00     0.102 A 
ATOM     30  O   UNL     1      41.910  48.699 133.058  1.00  0.00    -0.484 OA
ATOM     31  C   UNL     1      43.421  48.888 135.409  1.00  0.00     0.174 C 
ATOM     32  C   UNL     1      41.212  48.939 134.279  1.00  0.00     0.211 C 
ATOM     33  O   UNL     1      43.967  49.241 136.484  1.00  0.00    -0.294 OA
ATOM     34  C   UNL     1      42.020  48.340 135.448  1.00  0.00     0.131 C 
BRANCH  27  35
ATOM     35  O   UNL     1      46.403  49.326 134.974  1.00  0.00    -0.507 OA
ATOM     36  H   UNL     1      47.348  49.678 134.904  1.00  0.00     0.293 HD
ENDBRANCH  27  35
BRANCH  32  37
ATOM     37  C   UNL     1      39.781  48.451 134.140  1.00  0.00    -0.007 A 
ATOM     38  C   UNL     1      38.675  49.142 134.680  1.00  0.00     0.011 A 
ATOM     39  C   UNL     1      39.553  47.264 133.421  1.00  0.00     0.011 A 
ATOM     40  C   UNL     1      37.375  48.664 134.484  1.00  0.00     0.046 A 
ATOM     41  C   UNL     1      38.258  46.778 133.243  1.00  0.00     0.046 A 
ATOM     42  C   UNL     1      37.164  47.480 133.764  1.00  0.00     0.115 A 
BRANCH  42  43
ATOM     43  O   UNL     1      35.876  46.999 133.552  1.00  0.00    -0.508 OA
ATOM     44  H   UNL     1      35.418  47.081 132.649  1.00  0.00     0.293 HD
ENDBRANCH  42  43
ENDBRANCH  32  37
ENDBRANCH  23  24
ENDBRANCH   6  23
BRANCH   3  45
ATOM     45  O   UNL     1      47.104  49.802 125.967  1.00  0.00    -0.387 OA
ATOM     46  H   UNL     1      46.469  49.843 125.204  1.00  0.00     0.211 HD
ENDBRANCH   3  45
BRANCH   4  47
ATOM     47  C   UNL     1      49.053  48.451 127.713  1.00  0.00     0.191 C 
BRANCH  47  48
ATOM     48  O   UNL     1      49.746  49.670 127.770  1.00  0.00    -0.394 OA
ATOM     49  H   UNL     1      49.423  50.135 128.588  1.00  0.00     0.210 HD
ENDBRANCH  47  48
ENDBRANCH   4  47
TORSDOF 14
ENDMDL
