MODEL 1
REMARK VINA RESULT:    -2.773      0.000      0.000
REMARK INTER + INTRA:          -3.758
REMARK INTER:                  -3.584
REMARK INTRA:                  -0.174
REMARK UNBOUND:                -0.174
REMARK SMILES C=CC(=O)CCCCC
REMARK SMILES IDX 6 1 7 2 8 3 9 4 5 5 3 6 4 7 2 8 1 9
REMARK H PARENT
REMARK Flexibility Score: inf
ROOT
ATOM      1  C   UNL     1       6.624  24.882  21.008  1.00  0.00     0.008 C 
ENDROOT
BRANCH   1   2
ATOM      2  C   UNL     1       6.156  25.488  19.677  1.00  0.00     0.000 C 
BRANCH   2   3
ATOM      3  C   UNL     1       4.702  25.122  19.340  1.00  0.00    -0.003 C 
ATOM      4  C   UNL     1       4.086  24.157  20.352  1.00  0.00     0.004 C 
ENDBRANCH   2   3
ENDBRANCH   1   2
BRANCH   1   5
ATOM      5  C   UNL     1       8.153  24.799  21.066  1.00  0.00     0.080 C 
BRANCH   5   6
ATOM      6  C   UNL     1       8.587  23.694  21.982  1.00  0.00     0.155 C 
ATOM      7  O   UNL     1       8.651  23.908  23.223  1.00  0.00    -0.295 OA
BRANCH   6   8
ATOM      8  C   UNL     1       8.892  22.358  21.434  1.00  0.00     0.039 C 
ATOM      9  C   UNL     1       9.967  22.121  20.685  1.00  0.00     0.012 C 
ENDBRANCH   6   8
ENDBRANCH   5   6
ENDBRANCH   1   5
TORSDOF 5
ENDMDL
MODEL 2
REMARK VINA RESULT:    -2.666     13.039     13.891
REMARK INTER + INTRA:          -3.620
REMARK INTER:                  -3.278
REMARK INTRA:                  -0.342
REMARK UNBOUND:                -0.174
REMARK SMILES C=CC(=O)CCCCC
REMARK SMILES IDX 6 1 7 2 8 3 9 4 5 5 3 6 4 7 2 8 1 9
REMARK H PARENT
REMARK Flexibility Score: inf
ROOT
ATOM      1  C   UNL     1      10.913  20.223   7.910  1.00  0.00     0.008 C 
ENDROOT
BRANCH   1   2
ATOM      2  C   UNL     1      10.730  19.040   6.948  1.00  0.00     0.000 C 
BRANCH   2   3
ATOM      3  C   UNL     1       9.537  18.148   7.328  1.00  0.00    -0.003 C 
ATOM      4  C   UNL     1       8.855  18.593   8.622  1.00  0.00     0.004 C 
ENDBRANCH   2   3
ENDBRANCH   1   2
BRANCH   1   5
ATOM      5  C   UNL     1      10.674  21.555   7.193  1.00  0.00     0.080 C 
BRANCH   5   6
ATOM      6  C   UNL     1      10.068  22.558   8.129  1.00  0.00     0.155 C 
ATOM      7  O   UNL     1       9.767  23.704   7.698  1.00  0.00    -0.295 OA
BRANCH   6   8
ATOM      8  C   UNL     1       9.787  22.185   9.529  1.00  0.00     0.039 C 
ATOM      9  C   UNL     1      10.468  22.693  10.555  1.00  0.00     0.012 C 
ENDBRANCH   6   8
ENDBRANCH   5   6
ENDBRANCH   1   5
TORSDOF 5
ENDMDL
MODEL 3
REMARK VINA RESULT:    -2.638      1.708      4.678
REMARK INTER + INTRA:          -3.583
REMARK INTER:                  -3.411
REMARK INTRA:                  -0.172
REMARK UNBOUND:                -0.174
REMARK SMILES C=CC(=O)CCCCC
REMARK SMILES IDX 6 1 7 2 8 3 9 4 5 5 3 6 4 7 2 8 1 9
REMARK H PARENT
REMARK Flexibility Score: inf
ROOT
ATOM      1  C   UNL     1       8.169  25.000  21.289  1.00  0.00     0.008 C 
ENDROOT
BRANCH   1   2
ATOM      2  C   UNL     1       8.593  23.799  22.147  1.00  0.00     0.000 C 
BRANCH   2   3
ATOM      3  C   UNL     1       8.907  22.553  21.304  1.00  0.00    -0.003 C 
ATOM      4  C   UNL     1      10.251  21.920  21.662  1.00  0.00     0.004 C 
ENDBRANCH   2   3
ENDBRANCH   1   2
BRANCH   1   5
ATOM      5  C   UNL     1       6.647  25.175  21.303  1.00  0.00     0.080 C 
BRANCH   5   6
ATOM      6  C   UNL     1       6.131  25.419  19.917  1.00  0.00     0.155 C 
ATOM      7  O   UNL     1       6.880  25.968  19.065  1.00  0.00    -0.295 OA
BRANCH   6   8
ATOM      8  C   UNL     1       4.772  24.976  19.547  1.00  0.00     0.039 C 
ATOM      9  C   UNL     1       4.071  24.124  20.291  1.00  0.00     0.012 C 
ENDBRANCH   6   8
ENDBRANCH   5   6
ENDBRANCH   1   5
TORSDOF 5
ENDMDL
MODEL 4
REMARK VINA RESULT:    -2.632      3.160      5.204
REMARK INTER + INTRA:          -3.576
REMARK INTER:                  -3.105
REMARK INTRA:                  -0.471
REMARK UNBOUND:                -0.174
REMARK SMILES C=CC(=O)CCCCC
REMARK SMILES IDX 6 1 7 2 8 3 9 4 5 5 3 6 4 7 2 8 1 9
REMARK H PARENT
REMARK Flexibility Score: inf
ROOT
ATOM      1  C   UNL     1       8.617  23.490  24.393  1.00  0.00     0.008 C 
ENDROOT
BRANCH   1   2
ATOM      2  C   UNL     1       8.876  22.091  24.970  1.00  0.00     0.000 C 
BRANCH   2   3
ATOM      3  C   UNL     1      10.362  21.844  25.278  1.00  0.00    -0.003 C 
ATOM      4  C   UNL     1      10.774  22.364  26.655  1.00  0.00     0.004 C 
ENDBRANCH   2   3
ENDBRANCH   1   2
BRANCH   1   5
ATOM      5  C   UNL     1       9.562  23.784  23.223  1.00  0.00     0.080 C 
BRANCH   5   6
ATOM      6  C   UNL     1       8.962  23.320  21.930  1.00  0.00     0.155 C 
ATOM      7  O   UNL     1       7.939  23.902  21.478  1.00  0.00    -0.295 OA
BRANCH   6   8
ATOM      8  C   UNL     1       9.596  22.222  21.174  1.00  0.00     0.039 C 
ATOM      9  C   UNL     1      10.703  21.612  21.592  1.00  0.00     0.012 C 
ENDBRANCH   6   8
ENDBRANCH   5   6
ENDBRANCH   1   5
TORSDOF 5
ENDMDL
MODEL 5
REMARK VINA RESULT:    -2.627      1.389      1.732
REMARK INTER + INTRA:          -3.569
REMARK INTER:                  -3.415
REMARK INTRA:                  -0.154
REMARK UNBOUND:                -0.174
REMARK SMILES C=CC(=O)CCCCC
REMARK SMILES IDX 6 1 7 2 8 3 9 4 5 5 3 6 4 7 2 8 1 9
REMARK H PARENT
REMARK Flexibility Score: inf
ROOT
ATOM      1  C   UNL     1       6.871  24.629  21.142  1.00  0.00     0.008 C 
ENDROOT
BRANCH   1   2
ATOM      2  C   UNL     1       6.357  25.369  19.898  1.00  0.00     0.000 C 
BRANCH   2   3
ATOM      3  C   UNL     1       4.885  25.053  19.590  1.00  0.00    -0.003 C 
ATOM      4  C   UNL     1       4.011  25.025  20.843  1.00  0.00     0.004 C 
ENDBRANCH   2   3
ENDBRANCH   1   2
BRANCH   1   5
ATOM      5  C   UNL     1       8.396  24.489  21.106  1.00  0.00     0.080 C 
BRANCH   5   6
ATOM      6  C   UNL     1       8.830  23.252  21.835  1.00  0.00     0.155 C 
ATOM      7  O   UNL     1       8.829  22.145  21.230  1.00  0.00    -0.295 OA
BRANCH   6   8
ATOM      8  C   UNL     1       9.296  23.343  23.232  1.00  0.00     0.039 C 
ATOM      9  C   UNL     1       8.842  22.538  24.191  1.00  0.00     0.012 C 
ENDBRANCH   6   8
ENDBRANCH   5   6
ENDBRANCH   1   5
TORSDOF 5
ENDMDL
MODEL 6
REMARK VINA RESULT:    -2.538      1.420      4.637
REMARK INTER + INTRA:          -3.454
REMARK INTER:                  -3.310
REMARK INTRA:                  -0.143
REMARK UNBOUND:                -0.174
REMARK SMILES C=CC(=O)CCCCC
REMARK SMILES IDX 6 1 7 2 8 3 9 4 5 5 3 6 4 7 2 8 1 9
REMARK H PARENT
REMARK Flexibility Score: inf
ROOT
ATOM      1  C   UNL     1       8.176  23.761  21.478  1.00  0.00     0.008 C 
ENDROOT
BRANCH   1   2
ATOM      2  C   UNL     1       9.639  23.426  21.155  1.00  0.00     0.000 C 
BRANCH   2   3
ATOM      3  C   UNL     1       9.886  21.914  21.034  1.00  0.00    -0.003 C 
ATOM      4  C   UNL     1      10.535  21.526  19.705  1.00  0.00     0.004 C 
ENDBRANCH   2   3
ENDBRANCH   1   2
BRANCH   1   5
ATOM      5  C   UNL     1       7.737  25.045  20.767  1.00  0.00     0.080 C 
BRANCH   5   6
ATOM      6  C   UNL     1       6.274  25.295  20.983  1.00  0.00     0.155 C 
ATOM      7  O   UNL     1       5.891  25.843  22.052  1.00  0.00    -0.295 OA
BRANCH   6   8
ATOM      8  C   UNL     1       5.302  24.943  19.930  1.00  0.00     0.039 C 
ATOM      9  C   UNL     1       4.182  24.270  20.187  1.00  0.00     0.012 C 
ENDBRANCH   6   8
ENDBRANCH   5   6
ENDBRANCH   1   5
TORSDOF 5
ENDMDL
MODEL 7
REMARK VINA RESULT:    -2.488      1.738      2.301
REMARK INTER + INTRA:          -3.389
REMARK INTER:                  -2.986
REMARK INTRA:                  -0.403
REMARK UNBOUND:                -0.174
REMARK SMILES C=CC(=O)CCCCC
REMARK SMILES IDX 6 1 7 2 8 3 9 4 5 5 3 6 4 7 2 8 1 9
REMARK H PARENT
REMARK Flexibility Score: inf
ROOT
ATOM      1  C   UNL     1       6.270  26.044  20.329  1.00  0.00     0.008 C 
ENDROOT
BRANCH   1   2
ATOM      2  C   UNL     1       5.364  24.905  19.842  1.00  0.00     0.000 C 
BRANCH   2   3
ATOM      3  C   UNL     1       4.075  24.780  20.671  1.00  0.00    -0.003 C 
ATOM      4  C   UNL     1       3.951  25.867  21.738  1.00  0.00     0.004 C 
ENDBRANCH   2   3
ENDBRANCH   1   2
BRANCH   1   5
ATOM      5  C   UNL     1       7.729  25.584  20.419  1.00  0.00     0.080 C 
BRANCH   5   6
ATOM      6  C   UNL     1       7.916  24.644  21.573  1.00  0.00     0.155 C 
ATOM      7  O   UNL     1       8.282  23.458  21.351  1.00  0.00    -0.295 OA
BRANCH   6   8
ATOM      8  C   UNL     1       7.717  25.123  22.955  1.00  0.00     0.039 C 
ATOM      9  C   UNL     1       8.394  24.626  23.988  1.00  0.00     0.012 C 
ENDBRANCH   6   8
ENDBRANCH   5   6
ENDBRANCH   1   5
TORSDOF 5
ENDMDL
MODEL 8
REMARK VINA RESULT:    -2.458      3.039      5.332
REMARK INTER + INTRA:          -3.350
REMARK INTER:                  -2.755
REMARK INTRA:                  -0.596
REMARK UNBOUND:                -0.174
REMARK SMILES C=CC(=O)CCCCC
REMARK SMILES IDX 6 1 7 2 8 3 9 4 5 5 3 6 4 7 2 8 1 9
REMARK H PARENT
REMARK Flexibility Score: inf
ROOT
ATOM      1  C   UNL     1      10.744  21.604  23.555  1.00  0.00     0.008 C 
ENDROOT
BRANCH   1   2
ATOM      2  C   UNL     1      10.969  22.497  24.783  1.00  0.00     0.000 C 
BRANCH   2   3
ATOM      3  C   UNL     1       9.780  22.474  25.757  1.00  0.00    -0.003 C 
ATOM      4  C   UNL     1       8.510  21.904  25.125  1.00  0.00     0.004 C 
ENDBRANCH   2   3
ENDBRANCH   1   2
BRANCH   1   5
ATOM      5  C   UNL     1      10.931  22.397  22.258  1.00  0.00     0.080 C 
BRANCH   5   6
ATOM      6  C   UNL     1       9.613  22.906  21.755  1.00  0.00     0.155 C 
ATOM      7  O   UNL     1       8.802  22.102  21.220  1.00  0.00    -0.295 OA
BRANCH   6   8
ATOM      8  C   UNL     1       9.255  24.327  21.931  1.00  0.00     0.039 C 
ATOM      9  C   UNL     1       8.312  24.727  22.781  1.00  0.00     0.012 C 
ENDBRANCH   6   8
ENDBRANCH   5   6
ENDBRANCH   1   5
TORSDOF 5
ENDMDL
MODEL 9
REMARK VINA RESULT:    -0.215     12.118     12.984
REMARK INTER + INTRA:          -0.452
REMARK INTER:                  -0.157
REMARK INTRA:                  -0.295
REMARK UNBOUND:                -0.174
REMARK SMILES C=CC(=O)CCCCC
REMARK SMILES IDX 6 1 7 2 8 3 9 4 5 5 3 6 4 7 2 8 1 9
REMARK H PARENT
REMARK Flexibility Score: inf
ROOT
ATOM      1  C   UNL     1       9.415  21.182   9.310  1.00  0.00     0.008 C 
ENDROOT
BRANCH   1   2
ATOM      2  C   UNL     1      10.533  20.676   8.387  1.00  0.00     0.000 C 
BRANCH   2   3
ATOM      3  C   UNL     1      10.559  19.143   8.276  1.00  0.00    -0.003 C 
ATOM      4  C   UNL     1       9.162  18.534   8.168  1.00  0.00     0.004 C 
ENDBRANCH   2   3
ENDBRANCH   1   2
BRANCH   1   5
ATOM      5  C   UNL     1       9.244  22.699   9.184  1.00  0.00     0.080 C 
BRANCH   5   6
ATOM      6  C   UNL     1      10.409  23.415   9.801  1.00  0.00     0.155 C 
ATOM      7  O   UNL     1      10.792  23.091  10.958  1.00  0.00    -0.295 OA
BRANCH   6   8
ATOM      8  C   UNL     1      11.125  24.455   9.037  1.00  0.00     0.039 C 
ATOM      9  C   UNL     1      10.741  24.841   7.821  1.00  0.00     0.012 C 
ENDBRANCH   6   8
ENDBRANCH   5   6
ENDBRANCH   1   5
TORSDOF 5
ENDMDL
