MODEL 1
REMARK VINA RESULT:     5.535      0.000      0.000
REMARK INTER + INTRA:           5.639
REMARK INTER:                   6.021
REMARK INTRA:                  -0.381
REMARK UNBOUND:                -0.381
REMARK SMILES CC1=C[C@@H]2[C@H](C(C)C)CC[C@](C)(O)[C@H]2CC1
REMARK SMILES IDX 1 1 2 2 3 3 4 4 5 5 9 6 10 7 11 8 14 9 15 10 16 11 12 12
REMARK SMILES IDX 6 13 7 14 8 15 13 16
REMARK H PARENT 13 17
REMARK Flexibility Score: inf
ROOT
ATOM      1  C   UNL     1     -40.116  26.791   3.878  1.00  0.00     0.039 C 
ATOM      2  C   UNL     1     -39.693  25.545   4.607  1.00  0.00    -0.077 C 
ATOM      3  C   UNL     1     -38.983  25.659   5.749  1.00  0.00    -0.024 C 
ATOM      4  C   UNL     1     -38.551  24.472   6.585  1.00  0.00     0.021 C 
ATOM      5  C   UNL     1     -37.072  24.554   7.115  1.00  0.00    -0.001 C 
ATOM      6  C   UNL     1     -36.579  23.164   7.618  1.00  0.00     0.007 C 
ATOM      7  C   UNL     1     -37.728  22.283   8.124  1.00  0.00     0.035 C 
ATOM      8  C   UNL     1     -38.753  21.933   6.994  1.00  0.00     0.065 C 
ATOM      9  C   UNL     1     -38.827  23.092   5.931  1.00  0.00     0.028 C 
ATOM     10  C   UNL     1     -40.123  23.119   5.100  1.00  0.00     0.011 C 
ATOM     11  C   UNL     1     -40.019  24.192   4.015  1.00  0.00     0.031 C 
ATOM     12  C   UNL     1     -40.125  21.652   7.654  1.00  0.00     0.042 C 
ENDROOT
BRANCH   5  13
ATOM     13  C   UNL     1     -35.983  25.193   6.177  1.00  0.00    -0.014 C 
ATOM     14  C   UNL     1     -35.522  24.261   5.041  1.00  0.00     0.007 C 
ATOM     15  C   UNL     1     -34.768  25.786   6.907  1.00  0.00     0.007 C 
ENDBRANCH   5  13
BRANCH   8  16
ATOM     16  O   UNL     1     -38.323  20.771   6.319  1.00  0.00    -0.390 OA
ATOM     17  H   UNL     1     -38.312  20.018   6.965  1.00  0.00     0.211 HD
ENDBRANCH   8  16
TORSDOF 2
ENDMDL
MODEL 2
REMARK VINA RESULT:     6.151      1.567      4.000
REMARK INTER + INTRA:           6.309
REMARK INTER:                   6.592
REMARK INTRA:                  -0.282
REMARK UNBOUND:                -0.381
REMARK SMILES CC1=C[C@@H]2[C@H](C(C)C)CC[C@](C)(O)[C@H]2CC1
REMARK SMILES IDX 1 1 2 2 3 3 4 4 5 5 9 6 10 7 11 8 14 9 15 10 16 11 12 12
REMARK SMILES IDX 6 13 7 14 8 15 13 16
REMARK H PARENT 13 17
REMARK Flexibility Score: inf
ROOT
ATOM      1  C   UNL     1     -34.110  25.055   5.572  1.00  0.00     0.039 C 
ATOM      2  C   UNL     1     -35.462  24.542   5.988  1.00  0.00    -0.077 C 
ATOM      3  C   UNL     1     -36.235  23.913   5.079  1.00  0.00    -0.024 C 
ATOM      4  C   UNL     1     -37.589  23.317   5.404  1.00  0.00     0.021 C 
ATOM      5  C   UNL     1     -38.698  23.594   4.324  1.00  0.00    -0.001 C 
ATOM      6  C   UNL     1     -40.120  23.302   4.893  1.00  0.00     0.007 C 
ATOM      7  C   UNL     1     -40.103  22.233   5.992  1.00  0.00     0.035 C 
ATOM      8  C   UNL     1     -39.280  22.680   7.246  1.00  0.00     0.065 C 
ATOM      9  C   UNL     1     -38.110  23.647   6.828  1.00  0.00     0.028 C 
ATOM     10  C   UNL     1     -36.952  23.728   7.840  1.00  0.00     0.011 C 
ATOM     11  C   UNL     1     -35.951  24.797   7.396  1.00  0.00     0.031 C 
ATOM     12  C   UNL     1     -38.764  21.410   7.966  1.00  0.00     0.042 C 
ENDROOT
BRANCH   5  13
ATOM     13  C   UNL     1     -38.695  24.991   3.602  1.00  0.00    -0.014 C 
ATOM     14  C   UNL     1     -40.067  25.692   3.604  1.00  0.00     0.007 C 
ATOM     15  C   UNL     1     -38.103  24.984   2.183  1.00  0.00     0.007 C 
ENDBRANCH   5  13
BRANCH   8  16
ATOM     16  O   UNL     1     -40.121  23.394   8.125  1.00  0.00    -0.390 OA
ATOM     17  H   UNL     1     -40.441  22.771   8.830  1.00  0.00     0.211 HD
ENDBRANCH   8  16
TORSDOF 2
ENDMDL
