MODEL 1
REMARK VINA RESULT:    -3.763      0.000      0.000
REMARK INTER + INTRA:          -5.432
REMARK INTER:                  -5.302
REMARK INTRA:                  -0.130
REMARK UNBOUND:                -0.130
REMARK SMILES CC1=CCC(=C(C)C)C(=O)CC(C)=CCC1
REMARK SMILES IDX 12 1 14 2 13 3 15 4 16 5 2 6 1 7 3 8 11 10 9 11 10 12 5 13
REMARK SMILES IDX 6 14 7 15 8 16 4 17
REMARK H PARENT
REMARK Flexibility Score: 60.00
ROOT
ATOM      1  C   UNL     1       1.396  15.903  21.753  1.00  0.00    -0.070 C 
ATOM      2  C   UNL     1       2.252  16.004  22.796  1.00  0.00    -0.027 C 
ATOM      3  C   UNL     1       0.261  16.894  21.663  1.00  0.00     0.039 C 
ENDROOT
BRANCH   2   4
ATOM      4  C   UNL     1       3.507  15.185  22.982  1.00  0.00     0.032 C 
BRANCH   4   5
ATOM      5  C   UNL     1       3.343  13.917  23.832  1.00  0.00     0.034 C 
BRANCH   5   6
ATOM      6  C   UNL     1       3.894  12.662  23.181  1.00  0.00    -0.077 C 
ATOM      7  C   UNL     1       5.381  12.420  23.270  1.00  0.00     0.039 C 
ATOM      8  C   UNL     1       3.159  11.777  22.462  1.00  0.00    -0.023 CG0
ATOM      9  G   UNL     1       1.650  11.696  22.326  1.00  0.00     0.000 G0
ENDBRANCH   5   6
ENDBRANCH   4   5
ENDBRANCH   2   4
BRANCH   1  10
ATOM     10  C   UNL     1       1.464  14.798  20.722  1.00  0.00     0.111 C 
BRANCH  10  11
ATOM     11  C   UNL     1       0.569  13.645  21.101  1.00  0.00     0.163 C 
ATOM     12  O   UNL     1      -0.608  13.886  21.479  1.00  0.00    -0.294 OA
BRANCH  11  13
ATOM     13  C   UNL     1       1.032  12.234  21.052  1.00  0.00    -0.002 C 
ATOM     14  C   UNL     1       0.762  11.458  19.966  1.00  0.00    -0.069 C 
ATOM     15  C   UNL     1       0.130  12.057  18.731  1.00  0.00     0.039 C 
ATOM     16  C   UNL     1       1.103   9.986  19.940  1.00  0.00     0.039 C 
BRANCH  13  17
ATOM     17  C   UNL     1       1.647  11.669  22.319  1.00  0.00     0.066 CG0
ATOM     18  G   UNL     1       3.153  11.784  22.469  1.00  0.00     0.000 G0
ENDBRANCH  13  17
ENDBRANCH  11  13
ENDBRANCH  10  11
ENDBRANCH   1  10
TORSDOF 0
ENDMDL
MODEL 2
REMARK VINA RESULT:    -3.675      2.758      4.504
REMARK INTER + INTRA:          -5.309
REMARK INTER:                  -5.132
REMARK INTRA:                  -0.177
REMARK UNBOUND:                -0.130
REMARK SMILES CC1=CCC(=C(C)C)C(=O)CC(C)=CCC1
REMARK SMILES IDX 12 1 14 2 13 3 15 4 16 5 2 6 1 7 3 8 11 10 9 11 10 12 5 13
REMARK SMILES IDX 6 14 7 15 8 16 4 17
REMARK H PARENT
REMARK Flexibility Score: 60.00
ROOT
ATOM      1  C   UNL     1       2.610  14.807  22.878  1.00  0.00    -0.070 C 
ATOM      2  C   UNL     1       2.070  16.040  22.737  1.00  0.00    -0.027 C 
ATOM      3  C   UNL     1       3.641  14.599  23.960  1.00  0.00     0.039 C 
ENDROOT
BRANCH   2   4
ATOM      4  C   UNL     1       0.943  16.402  21.799  1.00  0.00     0.032 C 
BRANCH   4   5
ATOM      5  C   UNL     1       1.370  17.105  20.503  1.00  0.00     0.034 C 
BRANCH   5   6
ATOM      6  C   UNL     1       0.695  16.564  19.256  1.00  0.00    -0.077 C 
ATOM      7  C   UNL     1      -0.641  17.150  18.871  1.00  0.00     0.039 C 
ATOM      8  C   UNL     1       1.170  15.542  18.501  1.00  0.00    -0.023 CG0
ATOM      9  G   UNL     1       2.530  14.871  18.571  1.00  0.00     0.000 G0
ENDBRANCH   5   6
ENDBRANCH   4   5
ENDBRANCH   2   4
BRANCH   1  10
ATOM     10  C   UNL     1       2.299  13.650  21.953  1.00  0.00     0.111 C 
BRANCH  10  11
ATOM     11  C   UNL     1       3.189  13.674  20.736  1.00  0.00     0.163 C 
ATOM     12  O   UNL     1       4.433  13.797  20.892  1.00  0.00    -0.294 OA
BRANCH  11  13
ATOM     13  C   UNL     1       2.646  13.566  19.357  1.00  0.00    -0.002 C 
ATOM     14  C   UNL     1       2.421  12.344  18.800  1.00  0.00    -0.069 C 
ATOM     15  C   UNL     1       2.567  11.085  19.623  1.00  0.00     0.039 C 
ATOM     16  C   UNL     1       1.995  12.198  17.357  1.00  0.00     0.039 C 
BRANCH  13  17
ATOM     17  C   UNL     1       2.531  14.853  18.562  1.00  0.00     0.066 CG0
ATOM     18  G   UNL     1       1.170  15.522  18.519  1.00  0.00     0.000 G0
ENDBRANCH  13  17
ENDBRANCH  11  13
ENDBRANCH  10  11
ENDBRANCH   1  10
TORSDOF 0
ENDMDL
MODEL 3
REMARK VINA RESULT:    -3.639      2.027      4.129
REMARK INTER + INTRA:          -5.258
REMARK INTER:                  -5.064
REMARK INTRA:                  -0.194
REMARK UNBOUND:                -0.130
REMARK SMILES CC1=CCC(=C(C)C)C(=O)CC(C)=CCC1
REMARK SMILES IDX 12 1 14 2 13 3 15 4 16 5 2 6 1 7 3 8 11 10 9 11 10 12 5 13
REMARK SMILES IDX 6 14 7 15 8 16 4 17
REMARK H PARENT
REMARK Flexibility Score: 60.00
ROOT
ATOM      1  C   UNL     1       3.736  13.062  24.177  1.00  0.00    -0.070 C 
ATOM      2  C   UNL     1       4.005  14.250  23.588  1.00  0.00    -0.027 C 
ATOM      3  C   UNL     1       4.896  12.176  24.558  1.00  0.00     0.039 C 
ENDROOT
BRANCH   2   4
ATOM      4  C   UNL     1       2.987  15.314  23.254  1.00  0.00     0.032 C 
BRANCH   4   5
ATOM      5  C   UNL     1       2.521  15.339  21.791  1.00  0.00     0.034 C 
BRANCH   5   6
ATOM      6  C   UNL     1       1.019  15.473  21.623  1.00  0.00    -0.077 C 
ATOM      7  C   UNL     1       0.433  16.863  21.637  1.00  0.00     0.039 C 
ATOM      8  C   UNL     1       0.155  14.431  21.533  1.00  0.00    -0.023 CG0
ATOM      9  G   UNL     1       0.470  12.957  21.356  1.00  0.00     0.000 G0
ENDBRANCH   5   6
ENDBRANCH   4   5
ENDBRANCH   2   4
BRANCH   1  10
ATOM     10  C   UNL     1       2.333  12.538  24.393  1.00  0.00     0.111 C 
BRANCH  10  11
ATOM     11  C   UNL     1       1.833  11.805  23.175  1.00  0.00     0.163 C 
ATOM     12  O   UNL     1       2.578  10.946  22.632  1.00  0.00    -0.294 OA
BRANCH  11  13
ATOM     13  C   UNL     1       0.494  12.068  22.587  1.00  0.00    -0.002 C 
ATOM     14  C   UNL     1      -0.604  11.414  23.056  1.00  0.00    -0.069 C 
ATOM     15  C   UNL     1      -0.510  10.534  24.281  1.00  0.00     0.039 C 
ATOM     16  C   UNL     1      -1.955  11.561  22.395  1.00  0.00     0.039 C 
BRANCH  13  17
ATOM     17  C   UNL     1       0.448  12.945  21.349  1.00  0.00     0.066 CG0
ATOM     18  G   UNL     1       0.148  14.418  21.555  1.00  0.00     0.000 G0
ENDBRANCH  13  17
ENDBRANCH  11  13
ENDBRANCH  10  11
ENDBRANCH   1  10
TORSDOF 0
ENDMDL
MODEL 4
REMARK VINA RESULT:    -3.593      4.378      6.315
REMARK INTER + INTRA:          -5.193
REMARK INTER:                  -5.061
REMARK INTRA:                  -0.133
REMARK UNBOUND:                -0.130
REMARK SMILES CC1=CCC(=C(C)C)C(=O)CC(C)=CCC1
REMARK SMILES IDX 12 1 14 2 13 3 15 4 16 5 2 6 1 7 3 8 11 10 9 11 10 12 5 13
REMARK SMILES IDX 6 14 7 15 8 16 4 17
REMARK H PARENT
REMARK Flexibility Score: 60.00
ROOT
ATOM      1  C   UNL     1       1.936   9.014  17.462  1.00  0.00    -0.070 C 
ATOM      2  C   UNL     1       1.347   8.510  18.570  1.00  0.00    -0.027 C 
ATOM      3  C   UNL     1       3.314   8.519  17.098  1.00  0.00     0.039 C 
ENDROOT
BRANCH   2   4
ATOM      4  C   UNL     1      -0.068   8.791  19.017  1.00  0.00     0.032 C 
BRANCH   4   5
ATOM      5  C   UNL     1      -0.198   9.699  20.249  1.00  0.00     0.034 C 
BRANCH   5   6
ATOM      6  C   UNL     1      -1.260  10.774  20.115  1.00  0.00    -0.077 C 
ATOM      7  C   UNL     1      -2.640  10.466  20.641  1.00  0.00     0.039 C 
ATOM      8  C   UNL     1      -1.080  11.965  19.491  1.00  0.00    -0.023 CG0
ATOM      9  G   UNL     1       0.214  12.587  19.000  1.00  0.00     0.000 G0
ENDBRANCH   5   6
ENDBRANCH   4   5
ENDBRANCH   2   4
BRANCH   1  10
ATOM     10  C   UNL     1       1.323  10.110  16.618  1.00  0.00     0.111 C 
BRANCH  10  11
ATOM     11  C   UNL     1       1.632  11.471  17.187  1.00  0.00     0.163 C 
ATOM     12  O   UNL     1       2.835  11.789  17.388  1.00  0.00    -0.294 OA
BRANCH  11  13
ATOM     13  C   UNL     1       0.565  12.449  17.526  1.00  0.00    -0.002 C 
ATOM     14  C   UNL     1       0.053  13.268  16.568  1.00  0.00    -0.069 C 
ATOM     15  C   UNL     1       0.442  13.094  15.118  1.00  0.00     0.039 C 
ATOM     16  C   UNL     1      -0.936  14.360  16.906  1.00  0.00     0.039 C 
BRANCH  13  17
ATOM     17  C   UNL     1       0.218  12.602  18.995  1.00  0.00     0.066 CG0
ATOM     18  G   UNL     1      -1.067  11.954  19.475  1.00  0.00     0.000 G0
ENDBRANCH  13  17
ENDBRANCH  11  13
ENDBRANCH  10  11
ENDBRANCH   1  10
TORSDOF 0
ENDMDL
MODEL 5
REMARK VINA RESULT:    -3.565      3.346      6.402
REMARK INTER + INTRA:          -5.153
REMARK INTER:                  -4.976
REMARK INTRA:                  -0.177
REMARK UNBOUND:                -0.130
REMARK SMILES CC1=CCC(=C(C)C)C(=O)CC(C)=CCC1
REMARK SMILES IDX 12 1 14 2 13 3 15 4 16 5 2 6 1 7 3 8 11 10 9 11 10 12 5 13
REMARK SMILES IDX 6 14 7 15 8 16 4 17
REMARK H PARENT
REMARK Flexibility Score: 60.00
ROOT
ATOM      1  C   UNL     1       1.311   9.227  18.163  1.00  0.00    -0.070 C 
ATOM      2  C   UNL     1       1.365   9.233  16.811  1.00  0.00    -0.027 C 
ATOM      3  C   UNL     1       0.372   8.257  18.836  1.00  0.00     0.039 C 
ENDROOT
BRANCH   2   4
ATOM      4  C   UNL     1       2.329  10.041  15.975  1.00  0.00     0.032 C 
BRANCH   4   5
ATOM      5  C   UNL     1       1.764  11.351  15.407  1.00  0.00     0.034 C 
BRANCH   5   6
ATOM      6  C   UNL     1       2.685  12.544  15.575  1.00  0.00    -0.077 C 
ATOM      7  C   UNL     1       3.757  12.756  14.535  1.00  0.00     0.039 C 
ATOM      8  C   UNL     1       2.663  13.396  16.631  1.00  0.00    -0.023 CG0
ATOM      9  G   UNL     1       1.625  13.504  17.733  1.00  0.00     0.000 G0
ENDBRANCH   5   6
ENDBRANCH   4   5
ENDBRANCH   2   4
BRANCH   1  10
ATOM     10  C   UNL     1       2.077  10.201  19.032  1.00  0.00     0.111 C 
BRANCH  10  11
ATOM     11  C   UNL     1       1.294  11.472  19.244  1.00  0.00     0.163 C 
ATOM     12  O   UNL     1       0.083  11.392  19.585  1.00  0.00    -0.294 OA
BRANCH  11  13
ATOM     13  C   UNL     1       1.899  12.816  19.054  1.00  0.00    -0.002 C 
ATOM     14  C   UNL     1       2.535  13.435  20.086  1.00  0.00    -0.069 C 
ATOM     15  C   UNL     1       2.777  12.708  21.388  1.00  0.00     0.039 C 
ATOM     16  C   UNL     1       3.045  14.853  19.965  1.00  0.00     0.039 C 
BRANCH  13  17
ATOM     17  C   UNL     1       1.617  13.516  17.738  1.00  0.00     0.066 CG0
ATOM     18  G   UNL     1       2.659  13.378  16.643  1.00  0.00     0.000 G0
ENDBRANCH  13  17
ENDBRANCH  11  13
ENDBRANCH  10  11
ENDBRANCH   1  10
TORSDOF 0
ENDMDL
MODEL 6
REMARK VINA RESULT:    -3.565      2.600      5.396
REMARK INTER + INTRA:          -5.153
REMARK INTER:                  -5.097
REMARK INTRA:                  -0.056
REMARK UNBOUND:                -0.130
REMARK SMILES CC1=CCC(=C(C)C)C(=O)CC(C)=CCC1
REMARK SMILES IDX 12 1 14 2 13 3 15 4 16 5 2 6 1 7 3 8 11 10 9 11 10 12 5 13
REMARK SMILES IDX 6 14 7 15 8 16 4 17
REMARK H PARENT
REMARK Flexibility Score: 60.00
ROOT
ATOM      1  C   UNL     1       1.498  10.571  16.741  1.00  0.00    -0.070 C 
ATOM      2  C   UNL     1       1.384   9.284  17.144  1.00  0.00    -0.027 C 
ATOM      3  C   UNL     1       2.222  10.852  15.448  1.00  0.00     0.039 C 
ENDROOT
BRANCH   2   4
ATOM      4  C   UNL     1       0.591   8.806  18.338  1.00  0.00     0.032 C 
BRANCH   4   5
ATOM      5  C   UNL     1       1.422   8.192  19.473  1.00  0.00     0.034 C 
BRANCH   5   6
ATOM      6  C   UNL     1       1.057   8.704  20.853  1.00  0.00    -0.077 C 
ATOM      7  C   UNL     1       0.175   7.833  21.714  1.00  0.00     0.039 C 
ATOM      8  C   UNL     1       1.405   9.920  21.345  1.00  0.00    -0.023 CG0
ATOM      9  G   UNL     1       2.383  10.926  20.766  1.00  0.00     0.000 G0
ENDBRANCH   5   6
ENDBRANCH   4   5
ENDBRANCH   2   4
BRANCH   1  10
ATOM     10  C   UNL     1       1.015  11.747  17.561  1.00  0.00     0.111 C 
BRANCH  10  11
ATOM     11  C   UNL     1       2.057  12.176  18.563  1.00  0.00     0.163 C 
ATOM     12  O   UNL     1       3.173  12.585  18.143  1.00  0.00    -0.294 OA
BRANCH  11  13
ATOM     13  C   UNL     1       1.816  12.124  20.028  1.00  0.00    -0.002 C 
ATOM     14  C   UNL     1       1.245  13.181  20.669  1.00  0.00    -0.069 C 
ATOM     15  C   UNL     1       0.705  14.355  19.887  1.00  0.00     0.039 C 
ATOM     16  C   UNL     1       1.107  13.212  22.174  1.00  0.00     0.039 C 
BRANCH  13  17
ATOM     17  C   UNL     1       2.390  10.935  20.776  1.00  0.00     0.066 CG0
ATOM     18  G   UNL     1       1.405   9.922  21.329  1.00  0.00     0.000 G0
ENDBRANCH  13  17
ENDBRANCH  11  13
ENDBRANCH  10  11
ENDBRANCH   1  10
TORSDOF 0
ENDMDL
MODEL 7
REMARK VINA RESULT:    -3.333      2.493      5.381
REMARK INTER + INTRA:          -4.827
REMARK INTER:                  -5.111
REMARK INTRA:                   0.284
REMARK UNBOUND:                -0.130
REMARK SMILES CC1=CCC(=C(C)C)C(=O)CC(C)=CCC1
REMARK SMILES IDX 12 1 14 2 13 3 15 4 16 5 2 6 1 7 3 8 11 10 9 11 10 12 5 13
REMARK SMILES IDX 6 14 7 15 8 16 4 17
REMARK H PARENT
REMARK Flexibility Score: 60.00
ROOT
ATOM      1  C   UNL     1       1.284   9.548  17.873  1.00  0.00    -0.070 C 
ATOM      2  C   UNL     1       0.662   8.566  18.566  1.00  0.00    -0.027 C 
ATOM      3  C   UNL     1       2.230   9.151  16.767  1.00  0.00     0.039 C 
ENDROOT
BRANCH   2   4
ATOM      4  C   UNL     1      -0.404   8.772  19.616  1.00  0.00     0.032 C 
BRANCH   4   5
ATOM      5  C   UNL     1      -0.109   8.140  20.983  1.00  0.00     0.034 C 
BRANCH   5   6
ATOM      6  C   UNL     1       1.254   8.495  21.548  1.00  0.00    -0.077 C 
ATOM      7  C   UNL     1       2.202   7.363  21.857  1.00  0.00     0.039 C 
ATOM      8  C   UNL     1       1.656   9.752  21.863  1.00  0.00    -0.023 CG0
ATOM      9  G   UNL     1       0.977  11.069  21.537  1.00  0.00     0.000 G0
ENDBRANCH   5   6
ENDBRANCH   4   5
ENDBRANCH   2   4
BRANCH   1  10
ATOM     10  C   UNL     1       1.147  11.017  18.206  1.00  0.00     0.111 C 
BRANCH  10  11
ATOM     11  C   UNL     1       2.129  11.426  19.275  1.00  0.00     0.163 C 
ATOM     12  O   UNL     1       3.361  11.267  19.063  1.00  0.00    -0.294 OA
BRANCH  11  13
ATOM     13  C   UNL     1       1.692  12.002  20.573  1.00  0.00    -0.002 C 
ATOM     14  C   UNL     1       2.059  13.264  20.924  1.00  0.00    -0.069 C 
ATOM     15  C   UNL     1       2.780  14.157  19.941  1.00  0.00     0.039 C 
ATOM     16  C   UNL     1       1.743  13.830  22.290  1.00  0.00     0.039 C 
BRANCH  13  17
ATOM     17  C   UNL     1       0.985  11.065  21.536  1.00  0.00     0.066 CG0
ATOM     18  G   UNL     1       1.674   9.752  21.856  1.00  0.00     0.000 G0
ENDBRANCH  13  17
ENDBRANCH  11  13
ENDBRANCH  10  11
ENDBRANCH   1  10
TORSDOF 0
ENDMDL
MODEL 8
REMARK VINA RESULT:    -3.233      2.824      3.296
REMARK INTER + INTRA:          -4.685
REMARK INTER:                  -4.906
REMARK INTRA:                   0.220
REMARK UNBOUND:                -0.130
REMARK SMILES CC1=CCC(=C(C)C)C(=O)CC(C)=CCC1
REMARK SMILES IDX 12 1 14 2 13 3 15 4 16 5 2 6 1 7 3 8 11 10 9 11 10 12 5 13
REMARK SMILES IDX 6 14 7 15 8 16 4 17
REMARK H PARENT
REMARK Flexibility Score: 60.00
ROOT
ATOM      1  C   UNL     1       1.659  16.634  20.504  1.00  0.00    -0.070 C 
ATOM      2  C   UNL     1       2.010  16.381  21.786  1.00  0.00    -0.027 C 
ATOM      3  C   UNL     1       0.252  17.105  20.230  1.00  0.00     0.039 C 
ENDROOT
BRANCH   2   4
ATOM      4  C   UNL     1       3.399  16.025  22.261  1.00  0.00     0.032 C 
BRANCH   4   5
ATOM      5  C   UNL     1       3.518  14.676  22.984  1.00  0.00     0.034 C 
BRANCH   5   6
ATOM      6  C   UNL     1       2.830  13.529  22.270  1.00  0.00    -0.077 C 
ATOM      7  C   UNL     1       1.626  12.909  22.935  1.00  0.00     0.039 C 
ATOM      8  C   UNL     1       3.260  12.970  21.110  1.00  0.00    -0.023 CG0
ATOM      9  G   UNL     1       4.340  13.468  20.168  1.00  0.00     0.000 G0
ENDBRANCH   5   6
ENDBRANCH   4   5
ENDBRANCH   2   4
BRANCH   1  10
ATOM     10  C   UNL     1       2.574  16.387  19.325  1.00  0.00     0.111 C 
BRANCH  10  11
ATOM     11  C   UNL     1       2.607  14.925  18.959  1.00  0.00     0.163 C 
ATOM     12  O   UNL     1       1.521  14.333  18.718  1.00  0.00    -0.294 OA
BRANCH  11  13
ATOM     13  C   UNL     1       3.876  14.156  18.883  1.00  0.00    -0.002 C 
ATOM     14  C   UNL     1       4.491  13.960  17.685  1.00  0.00    -0.069 C 
ATOM     15  C   UNL     1       3.985  14.650  16.439  1.00  0.00     0.039 C 
ATOM     16  C   UNL     1       5.709  13.075  17.555  1.00  0.00     0.039 C 
BRANCH  13  17
ATOM     17  C   UNL     1       4.338  13.468  20.154  1.00  0.00     0.066 CG0
ATOM     18  G   UNL     1       3.264  12.980  21.108  1.00  0.00     0.000 G0
ENDBRANCH  13  17
ENDBRANCH  11  13
ENDBRANCH  10  11
ENDBRANCH   1  10
TORSDOF 0
ENDMDL
MODEL 9
REMARK VINA RESULT:    -3.203      1.547      1.858
REMARK INTER + INTRA:          -4.643
REMARK INTER:                  -4.488
REMARK INTRA:                  -0.155
REMARK UNBOUND:                -0.130
REMARK SMILES CC1=CCC(=C(C)C)C(=O)CC(C)=CCC1
REMARK SMILES IDX 12 1 14 2 13 3 15 4 16 5 2 6 1 7 3 8 11 10 9 11 10 12 5 13
REMARK SMILES IDX 6 14 7 15 8 16 4 17
REMARK H PARENT
REMARK Flexibility Score: 60.00
ROOT
ATOM      1  C   UNL     1       2.867  14.682  22.385  1.00  0.00    -0.070 C 
ATOM      2  C   UNL     1       3.250  14.531  23.674  1.00  0.00    -0.027 C 
ATOM      3  C   UNL     1       2.342  16.028  21.950  1.00  0.00     0.039 C 
ENDROOT
BRANCH   2   4
ATOM      4  C   UNL     1       3.912  13.303  24.254  1.00  0.00     0.032 C 
BRANCH   4   5
ATOM      5  C   UNL     1       2.954  12.257  24.840  1.00  0.00     0.034 C 
BRANCH   5   6
ATOM      6  C   UNL     1       3.287  10.829  24.453  1.00  0.00    -0.077 C 
ATOM      7  C   UNL     1       4.438  10.159  25.163  1.00  0.00     0.039 C 
ATOM      8  C   UNL     1       2.672  10.132  23.464  1.00  0.00    -0.023 CG0
ATOM      9  G   UNL     1       1.417  10.497  22.693  1.00  0.00     0.000 G0
ENDBRANCH   5   6
ENDBRANCH   4   5
ENDBRANCH   2   4
BRANCH   1  10
ATOM     10  C   UNL     1       2.856  13.550  21.381  1.00  0.00     0.111 C 
BRANCH  10  11
ATOM     11  C   UNL     1       1.585  12.747  21.481  1.00  0.00     0.163 C 
ATOM     12  O   UNL     1       0.493  13.352  21.658  1.00  0.00    -0.294 OA
BRANCH  11  13
ATOM     13  C   UNL     1       1.576  11.264  21.388  1.00  0.00    -0.002 C 
ATOM     14  C   UNL     1       1.558  10.651  20.172  1.00  0.00    -0.069 C 
ATOM     15  C   UNL     1       1.706  11.456  18.903  1.00  0.00     0.039 C 
ATOM     16  C   UNL     1       1.416   9.152  20.044  1.00  0.00     0.039 C 
BRANCH  13  17
ATOM     17  C   UNL     1       1.409  10.495  22.686  1.00  0.00     0.066 CG0
ATOM     18  G   UNL     1       2.672  10.148  23.452  1.00  0.00     0.000 G0
ENDBRANCH  13  17
ENDBRANCH  11  13
ENDBRANCH  10  11
ENDBRANCH   1  10
TORSDOF 0
ENDMDL
