MODEL 1
REMARK VINA RESULT:    -8.005      0.000      0.000
REMARK INTER + INTRA:         -14.036
REMARK INTER:                 -12.451
REMARK INTRA:                  -1.585
REMARK UNBOUND:                -1.585
REMARK SMILES C[C@@H]1O[C@H](OC[C@H]2O[C@@H](Oc3c(-c4ccc(O)c(O)c4)oc4cc(O)cc(O)c4c3=O)[C@@H](O)[C@@H](O)[C@H]2O)[C@@H](O)[C@H](O)[C@@H]1O
REMARK SMILES IDX 7 1 36 2 34 3 32 4 9 5 8 6 6 7 5 8 4 9 1 10 2 11 42 12 3 13
REMARK SMILES IDX 40 14 38 15 43 16 41 18 39 20 37 22 35 24 10 26 11 27 12 28
REMARK SMILES IDX 30 29 21 30 29 31 31 32 22 33 27 34 23 35 26 36 24 37 13 38
REMARK SMILES IDX 20 39 14 40 18 41 15 42 16 43 19 44 17 46 28 48 25 50 33 52
REMARK H PARENT 43 17 41 19 39 21 37 23 35 25 19 45 17 47 28 49 25 51 33 53
REMARK Flexibility Score: inf
ROOT
ATOM      1  C   UNL     1     -42.075   2.177  77.410  1.00  0.00     0.180 C 
ATOM      2  C   UNL     1     -42.935   2.382  78.736  1.00  0.00     0.177 C 
ATOM      3  C   UNL     1     -42.078   2.809  79.893  1.00  0.00     0.180 C 
ATOM      4  C   UNL     1     -40.712   3.426  79.666  1.00  0.00     0.214 C 
ATOM      5  C   UNL     1     -40.108   3.282  78.303  1.00  0.00     0.339 C 
ATOM      6  O   UNL     1     -41.164   3.345  77.234  1.00  0.00    -0.332 OA
ENDROOT
BRANCH   1   7
ATOM      7  C   UNL     1     -43.214   1.532  76.238  1.00  0.00     0.198 C 
BRANCH   7   8
ATOM      8  O   UNL     1     -43.206   2.005  74.847  1.00  0.00    -0.347 OA
BRANCH   8   9
ATOM      9  C   UNL     1     -44.341   1.931  73.963  1.00  0.00     0.281 C 
ATOM     10  C   UNL     1     -46.205  -0.899  74.743  1.00  0.00     0.041 C 
ATOM     11  C   UNL     1     -46.147   0.418  74.022  1.00  0.00     0.150 C 
ATOM     12  C   UNL     1     -47.383   1.161  74.273  1.00  0.00     0.174 C 
ATOM     13  O   UNL     1     -45.136   1.035  74.712  1.00  0.00    -0.344 OA
ATOM     14  C   UNL     1     -47.029   2.569  73.653  1.00  0.00     0.179 C 
ATOM     15  C   UNL     1     -45.442   3.027  73.367  1.00  0.00     0.202 C 
BRANCH  12  16
ATOM     16  O   UNL     1     -47.710   1.258  75.712  1.00  0.00    -0.388 OA
ATOM     17  H   UNL     1     -48.538   0.656  75.844  1.00  0.00     0.211 HD
ENDBRANCH  12  16
BRANCH  14  18
ATOM     18  O   UNL     1     -47.777   3.636  74.185  1.00  0.00    -0.387 OA
ATOM     19  H   UNL     1     -48.675   3.255  74.320  1.00  0.00     0.211 HD
ENDBRANCH  14  18
BRANCH  15  20
ATOM     20  O   UNL     1     -45.253   3.153  71.958  1.00  0.00    -0.385 OA
ATOM     21  H   UNL     1     -44.498   3.813  71.763  1.00  0.00     0.211 HD
ENDBRANCH  15  20
ENDBRANCH   8   9
ENDBRANCH   7   8
ENDBRANCH   1   7
BRANCH   2  22
ATOM     22  O   UNL     1     -43.925   3.397  78.470  1.00  0.00    -0.387 OA
ATOM     23  H   UNL     1     -44.388   3.706  79.359  1.00  0.00     0.211 HD
ENDBRANCH   2  22
BRANCH   3  24
ATOM     24  O   UNL     1     -42.835   3.633  80.808  1.00  0.00    -0.387 OA
ATOM     25  H   UNL     1     -43.758   3.919  80.460  1.00  0.00     0.211 HD
ENDBRANCH   3  24
BRANCH   5  26
ATOM     26  O   UNL     1     -38.783   4.003  78.370  1.00  0.00    -0.454 OA
BRANCH  26  27
ATOM     27  C   UNL     1     -38.185   5.308  78.379  1.00  0.00     0.214 A 
ATOM     28  C   UNL     1     -36.993   5.405  79.144  1.00  0.00     0.180 A 
ATOM     29  C   UNL     1     -38.744   6.657  77.993  1.00  0.00     0.239 A 
ATOM     30  O   UNL     1     -36.183   6.445  79.050  1.00  0.00    -0.452 OA
ATOM     31  C   UNL     1     -37.793   7.780  77.868  1.00  0.00     0.111 A 
ATOM     32  O   UNL     1     -39.980   6.854  78.061  1.00  0.00    -0.285 OA
ATOM     33  C   UNL     1     -36.400   7.560  78.369  1.00  0.00     0.146 A 
ATOM     34  C   UNL     1     -38.007   8.951  77.054  1.00  0.00     0.134 A 
ATOM     35  C   UNL     1     -35.480   8.577  78.190  1.00  0.00     0.094 A 
ATOM     36  C   UNL     1     -36.951   9.670  76.578  1.00  0.00     0.093 A 
ATOM     37  C   UNL     1     -35.655   9.425  77.070  1.00  0.00     0.123 A 
BRANCH  28  38
ATOM     38  C   UNL     1     -36.759   4.354  80.254  1.00  0.00     0.025 A 
ATOM     39  C   UNL     1     -35.399   4.377  80.611  1.00  0.00     0.062 A 
ATOM     40  C   UNL     1     -37.647   4.621  81.340  1.00  0.00     0.016 A 
ATOM     41  C   UNL     1     -34.993   5.320  81.571  1.00  0.00     0.158 A 
ATOM     42  C   UNL     1     -37.167   5.267  82.450  1.00  0.00     0.051 A 
ATOM     43  C   UNL     1     -35.841   5.668  82.570  1.00  0.00     0.157 A 
BRANCH  41  44
ATOM     44  O   UNL     1     -33.772   5.919  81.290  1.00  0.00    -0.504 OA
ATOM     45  H   UNL     1     -32.931   5.639  81.724  1.00  0.00     0.293 HD
ENDBRANCH  41  44
BRANCH  43  46
ATOM     46  O   UNL     1     -35.426   6.413  83.697  1.00  0.00    -0.504 OA
ATOM     47  H   UNL     1     -34.694   7.143  83.727  1.00  0.00     0.293 HD
ENDBRANCH  43  46
ENDBRANCH  28  38
BRANCH  34  48
ATOM     48  O   UNL     1     -39.326   9.420  76.722  1.00  0.00    -0.507 OA
ATOM     49  H   UNL     1     -39.335  10.263  76.183  1.00  0.00     0.293 HD
ENDBRANCH  34  48
BRANCH  37  50
ATOM     50  O   UNL     1     -34.578  10.123  76.487  1.00  0.00    -0.508 OA
ATOM     51  H   UNL     1     -34.600  11.115  76.202  1.00  0.00     0.293 HD
ENDBRANCH  37  50
ENDBRANCH  26  27
ENDBRANCH   5  26
BRANCH   4  52
ATOM     52  O   UNL     1     -40.807   4.828  80.041  1.00  0.00    -0.384 OA
ATOM     53  H   UNL     1     -41.739   5.062  79.827  1.00  0.00     0.211 HD
ENDBRANCH   4  52
TORSDOF 16
ENDMDL
MODEL 2
REMARK VINA RESULT:    -7.826      4.427      8.426
REMARK INTER + INTRA:         -13.758
REMARK INTER:                 -12.208
REMARK INTRA:                  -1.549
REMARK UNBOUND:                -1.585
REMARK SMILES C[C@@H]1O[C@H](OC[C@H]2O[C@@H](Oc3c(-c4ccc(O)c(O)c4)oc4cc(O)cc(O)c4c3=O)[C@@H](O)[C@@H](O)[C@H]2O)[C@@H](O)[C@H](O)[C@@H]1O
REMARK SMILES IDX 7 1 36 2 34 3 32 4 9 5 8 6 6 7 5 8 4 9 1 10 2 11 42 12 3 13
REMARK SMILES IDX 40 14 38 15 43 16 41 18 39 20 37 22 35 24 10 26 11 27 12 28
REMARK SMILES IDX 30 29 21 30 29 31 31 32 22 33 27 34 23 35 26 36 24 37 13 38
REMARK SMILES IDX 20 39 14 40 18 41 15 42 16 43 19 44 17 46 28 48 25 50 33 52
REMARK H PARENT 43 17 41 19 39 21 37 23 35 25 19 45 17 47 28 49 25 51 33 53
REMARK Flexibility Score: inf
ROOT
ATOM      1  C   UNL     1     -39.862   4.110  82.647  1.00  0.00     0.180 C 
ATOM      2  C   UNL     1     -41.169   3.299  82.233  1.00  0.00     0.177 C 
ATOM      3  C   UNL     1     -41.475   3.448  80.770  1.00  0.00     0.180 C 
ATOM      4  C   UNL     1     -40.404   3.886  79.790  1.00  0.00     0.214 C 
ATOM      5  C   UNL     1     -39.155   4.487  80.356  1.00  0.00     0.339 C 
ATOM      6  O   UNL     1     -38.781   3.831  81.657  1.00  0.00    -0.332 OA
ENDROOT
BRANCH   1   7
ATOM      7  C   UNL     1     -39.771   3.944  84.394  1.00  0.00     0.198 C 
BRANCH   7   8
ATOM      8  O   UNL     1     -38.529   4.259  85.112  1.00  0.00    -0.347 OA
BRANCH   8   9
ATOM      9  C   UNL     1     -37.717   5.419  84.849  1.00  0.00     0.281 C 
ATOM     10  C   UNL     1     -34.418   4.415  84.396  1.00  0.00     0.041 C 
ATOM     11  C   UNL     1     -35.441   5.506  84.242  1.00  0.00     0.150 C 
ATOM     12  C   UNL     1     -35.325   6.092  82.906  1.00  0.00     0.174 C 
ATOM     13  O   UNL     1     -36.597   4.770  84.283  1.00  0.00    -0.344 OA
ATOM     14  C   UNL     1     -36.606   7.015  82.862  1.00  0.00     0.179 C 
ATOM     15  C   UNL     1     -37.887   6.789  83.920  1.00  0.00     0.202 C 
BRANCH  12  16
ATOM     16  O   UNL     1     -35.341   5.076  81.833  1.00  0.00    -0.388 OA
ATOM     17  H   UNL     1     -36.122   4.443  82.068  1.00  0.00     0.211 HD
ENDBRANCH  12  16
BRANCH  14  18
ATOM     18  O   UNL     1     -37.064   7.300  81.563  1.00  0.00    -0.387 OA
ATOM     19  H   UNL     1     -36.262   7.206  80.999  1.00  0.00     0.211 HD
ENDBRANCH  14  18
BRANCH  15  20
ATOM     20  O   UNL     1     -37.971   7.924  84.780  1.00  0.00    -0.385 OA
ATOM     21  H   UNL     1     -38.603   7.728  85.558  1.00  0.00     0.211 HD
ENDBRANCH  15  20
ENDBRANCH   8   9
ENDBRANCH   7   8
ENDBRANCH   1   7
BRANCH   2  22
ATOM     22  O   UNL     1     -40.944   1.907  82.537  1.00  0.00    -0.387 OA
ATOM     23  H   UNL     1     -40.134   1.533  81.986  1.00  0.00     0.211 HD
ENDBRANCH   2  22
BRANCH   3  24
ATOM     24  O   UNL     1     -42.137   2.267  80.267  1.00  0.00    -0.387 OA
ATOM     25  H   UNL     1     -42.726   2.427  79.440  1.00  0.00     0.211 HD
ENDBRANCH   3  24
BRANCH   5  26
ATOM     26  O   UNL     1     -38.279   4.797  79.166  1.00  0.00    -0.454 OA
BRANCH  26  27
ATOM     27  C   UNL     1     -37.155   5.582  78.740  1.00  0.00     0.214 A 
ATOM     28  C   UNL     1     -37.479   6.653  77.867  1.00  0.00     0.180 A 
ATOM     29  C   UNL     1     -35.672   5.298  78.793  1.00  0.00     0.239 A 
ATOM     30  O   UNL     1     -36.620   7.618  77.592  1.00  0.00    -0.452 OA
ATOM     31  C   UNL     1     -34.752   6.418  78.512  1.00  0.00     0.111 A 
ATOM     32  O   UNL     1     -35.272   4.111  78.793  1.00  0.00    -0.285 OA
ATOM     33  C   UNL     1     -35.348   7.676  77.958  1.00  0.00     0.146 A 
ATOM     34  C   UNL     1     -33.394   6.506  78.989  1.00  0.00     0.134 A 
ATOM     35  C   UNL     1     -34.509   8.757  77.761  1.00  0.00     0.094 A 
ATOM     36  C   UNL     1     -32.788   7.718  79.145  1.00  0.00     0.093 A 
ATOM     37  C   UNL     1     -33.387   8.877  78.616  1.00  0.00     0.123 A 
BRANCH  28  38
ATOM     38  C   UNL     1     -38.803   6.561  77.071  1.00  0.00     0.025 A 
ATOM     39  C   UNL     1     -39.874   6.597  77.981  1.00  0.00     0.062 A 
ATOM     40  C   UNL     1     -38.833   7.607  76.100  1.00  0.00     0.016 A 
ATOM     41  C   UNL     1     -40.336   7.859  78.393  1.00  0.00     0.158 A 
ATOM     42  C   UNL     1     -39.569   8.735  76.357  1.00  0.00     0.051 A 
ATOM     43  C   UNL     1     -40.301   8.902  77.528  1.00  0.00     0.157 A 
BRANCH  41  44
ATOM     44  O   UNL     1     -40.657   7.928  79.743  1.00  0.00    -0.504 OA
ATOM     45  H   UNL     1     -40.103   7.506  80.442  1.00  0.00     0.293 HD
ENDBRANCH  41  44
BRANCH  43  46
ATOM     46  O   UNL     1     -40.963  10.125  77.780  1.00  0.00    -0.504 OA
ATOM     47  H   UNL     1     -41.294  10.478  78.694  1.00  0.00     0.293 HD
ENDBRANCH  43  46
ENDBRANCH  28  38
BRANCH  34  48
ATOM     48  O   UNL     1     -32.619   5.337  79.305  1.00  0.00    -0.507 OA
ATOM     49  H   UNL     1     -33.168   4.530  79.527  1.00  0.00     0.293 HD
ENDBRANCH  34  48
BRANCH  37  50
ATOM     50  O   UNL     1     -32.778  10.120  78.878  1.00  0.00    -0.508 OA
ATOM     51  H   UNL     1     -33.276  10.972  79.181  1.00  0.00     0.293 HD
ENDBRANCH  37  50
ENDBRANCH  26  27
ENDBRANCH   5  26
BRANCH   4  52
ATOM     52  O   UNL     1     -40.090   2.736  78.956  1.00  0.00    -0.384 OA
ATOM     53  H   UNL     1     -40.449   1.975  79.468  1.00  0.00     0.211 HD
ENDBRANCH   4  52
TORSDOF 16
ENDMDL
MODEL 3
REMARK VINA RESULT:    -7.440      0.778      1.699
REMARK INTER + INTRA:         -13.158
REMARK INTER:                 -11.657
REMARK INTRA:                  -1.501
REMARK UNBOUND:                -1.585
REMARK SMILES C[C@@H]1O[C@H](OC[C@H]2O[C@@H](Oc3c(-c4ccc(O)c(O)c4)oc4cc(O)cc(O)c4c3=O)[C@@H](O)[C@@H](O)[C@H]2O)[C@@H](O)[C@H](O)[C@@H]1O
REMARK SMILES IDX 7 1 36 2 34 3 32 4 9 5 8 6 6 7 5 8 4 9 1 10 2 11 42 12 3 13
REMARK SMILES IDX 40 14 38 15 43 16 41 18 39 20 37 22 35 24 10 26 11 27 12 28
REMARK SMILES IDX 30 29 21 30 29 31 31 32 22 33 27 34 23 35 26 36 24 37 13 38
REMARK SMILES IDX 20 39 14 40 18 41 15 42 16 43 19 44 17 46 28 48 25 50 33 52
REMARK H PARENT 43 17 41 19 39 21 37 23 35 25 19 45 17 47 28 49 25 51 33 53
REMARK Flexibility Score: inf
ROOT
ATOM      1  C   UNL     1     -41.972   2.036  77.480  1.00  0.00     0.180 C 
ATOM      2  C   UNL     1     -42.859   2.327  78.771  1.00  0.00     0.177 C 
ATOM      3  C   UNL     1     -42.029   2.844  79.910  1.00  0.00     0.180 C 
ATOM      4  C   UNL     1     -40.665   3.458  79.665  1.00  0.00     0.214 C 
ATOM      5  C   UNL     1     -40.033   3.223  78.327  1.00  0.00     0.339 C 
ATOM      6  O   UNL     1     -41.069   3.199  77.238  1.00  0.00    -0.332 OA
ENDROOT
BRANCH   1   7
ATOM      7  C   UNL     1     -43.082   1.296  76.336  1.00  0.00     0.198 C 
BRANCH   7   8
ATOM      8  O   UNL     1     -43.639   2.075  75.222  1.00  0.00    -0.347 OA
BRANCH   8   9
ATOM      9  C   UNL     1     -45.045   2.170  74.927  1.00  0.00     0.281 C 
ATOM     10  C   UNL     1     -45.486   4.175  72.121  1.00  0.00     0.041 C 
ATOM     11  C   UNL     1     -46.088   3.178  73.069  1.00  0.00     0.150 C 
ATOM     12  C   UNL     1     -46.797   2.151  72.304  1.00  0.00     0.174 C 
ATOM     13  O   UNL     1     -44.953   2.611  73.588  1.00  0.00    -0.344 OA
ATOM     14  C   UNL     1     -47.134   1.101  73.435  1.00  0.00     0.179 C 
ATOM     15  C   UNL     1     -46.317   1.096  74.898  1.00  0.00     0.202 C 
BRANCH  12  16
ATOM     16  O   UNL     1     -45.967   1.560  71.233  1.00  0.00    -0.388 OA
ATOM     17  H   UNL     1     -46.216   2.081  70.377  1.00  0.00     0.211 HD
ENDBRANCH  12  16
BRANCH  14  18
ATOM     18  O   UNL     1     -47.336  -0.209  72.961  1.00  0.00    -0.387 OA
ATOM     19  H   UNL     1     -47.615  -0.713  73.759  1.00  0.00     0.211 HD
ENDBRANCH  14  18
BRANCH  15  20
ATOM     20  O   UNL     1     -47.237   1.441  75.933  1.00  0.00    -0.385 OA
ATOM     21  H   UNL     1     -48.179   1.532  75.549  1.00  0.00     0.211 HD
ENDBRANCH  15  20
ENDBRANCH   8   9
ENDBRANCH   7   8
ENDBRANCH   1   7
BRANCH   2  22
ATOM     22  O   UNL     1     -43.854   3.309  78.415  1.00  0.00    -0.387 OA
ATOM     23  H   UNL     1     -43.403   4.228  78.189  1.00  0.00     0.211 HD
ENDBRANCH   2  22
BRANCH   3  24
ATOM     24  O   UNL     1     -42.811   3.723  80.749  1.00  0.00    -0.387 OA
ATOM     25  H   UNL     1     -42.294   4.133  81.537  1.00  0.00     0.211 HD
ENDBRANCH   3  24
BRANCH   5  26
ATOM     26  O   UNL     1     -38.716   3.961  78.367  1.00  0.00    -0.454 OA
BRANCH  26  27
ATOM     27  C   UNL     1     -38.136   5.274  78.378  1.00  0.00     0.214 A 
ATOM     28  C   UNL     1     -36.959   5.392  79.164  1.00  0.00     0.180 A 
ATOM     29  C   UNL     1     -38.705   6.613  77.973  1.00  0.00     0.239 A 
ATOM     30  O   UNL     1     -36.161   6.442  79.078  1.00  0.00    -0.452 OA
ATOM     31  C   UNL     1     -37.768   7.748  77.858  1.00  0.00     0.111 A 
ATOM     32  O   UNL     1     -39.945   6.794  78.017  1.00  0.00    -0.285 OA
ATOM     33  C   UNL     1     -36.380   7.550  78.385  1.00  0.00     0.146 A 
ATOM     34  C   UNL     1     -37.982   8.911  77.033  1.00  0.00     0.134 A 
ATOM     35  C   UNL     1     -35.471   8.578  78.217  1.00  0.00     0.094 A 
ATOM     36  C   UNL     1     -36.927   9.641  76.571  1.00  0.00     0.093 A 
ATOM     37  C   UNL     1     -35.637   9.417  77.088  1.00  0.00     0.123 A 
BRANCH  28  38
ATOM     38  C   UNL     1     -36.731   4.351  80.285  1.00  0.00     0.025 A 
ATOM     39  C   UNL     1     -35.385   4.414  80.686  1.00  0.00     0.062 A 
ATOM     40  C   UNL     1     -37.662   4.595  81.339  1.00  0.00     0.016 A 
ATOM     41  C   UNL     1     -35.039   5.372  81.656  1.00  0.00     0.158 A 
ATOM     42  C   UNL     1     -37.238   5.257  82.463  1.00  0.00     0.051 A 
ATOM     43  C   UNL     1     -35.929   5.697  82.625  1.00  0.00     0.157 A 
BRANCH  41  44
ATOM     44  O   UNL     1     -33.827   6.005  81.413  1.00  0.00    -0.504 OA
ATOM     45  H   UNL     1     -33.717   6.984  81.477  1.00  0.00     0.293 HD
ENDBRANCH  41  44
BRANCH  43  46
ATOM     46  O   UNL     1     -35.574   6.457  83.762  1.00  0.00    -0.504 OA
ATOM     47  H   UNL     1     -34.913   7.253  83.799  1.00  0.00     0.293 HD
ENDBRANCH  43  46
ENDBRANCH  28  38
BRANCH  34  48
ATOM     48  O   UNL     1     -39.300   9.360  76.674  1.00  0.00    -0.507 OA
ATOM     49  H   UNL     1     -39.411   9.566  75.701  1.00  0.00     0.293 HD
ENDBRANCH  34  48
BRANCH  37  50
ATOM     50  O   UNL     1     -34.559  10.125  76.520  1.00  0.00    -0.508 OA
ATOM     51  H   UNL     1     -33.602  10.154  76.904  1.00  0.00     0.293 HD
ENDBRANCH  37  50
ENDBRANCH  26  27
ENDBRANCH   5  26
BRANCH   4  52
ATOM     52  O   UNL     1     -40.780   4.882  79.937  1.00  0.00    -0.384 OA
ATOM     53  H   UNL     1     -41.751   5.042  79.920  1.00  0.00     0.211 HD
ENDBRANCH   4  52
TORSDOF 16
ENDMDL
MODEL 4
REMARK VINA RESULT:    -7.439      3.503     10.498
REMARK INTER + INTRA:         -13.156
REMARK INTER:                 -11.311
REMARK INTRA:                  -1.845
REMARK UNBOUND:                -1.585
REMARK SMILES C[C@@H]1O[C@H](OC[C@H]2O[C@@H](Oc3c(-c4ccc(O)c(O)c4)oc4cc(O)cc(O)c4c3=O)[C@@H](O)[C@@H](O)[C@H]2O)[C@@H](O)[C@H](O)[C@@H]1O
REMARK SMILES IDX 7 1 36 2 34 3 32 4 9 5 8 6 6 7 5 8 4 9 1 10 2 11 42 12 3 13
REMARK SMILES IDX 40 14 38 15 43 16 41 18 39 20 37 22 35 24 10 26 11 27 12 28
REMARK SMILES IDX 30 29 21 30 29 31 31 32 22 33 27 34 23 35 26 36 24 37 13 38
REMARK SMILES IDX 20 39 14 40 18 41 15 42 16 43 19 44 17 46 28 48 25 50 33 52
REMARK H PARENT 43 17 41 19 39 21 37 23 35 25 19 45 17 47 28 49 25 51 33 53
REMARK Flexibility Score: inf
ROOT
ATOM      1  C   UNL     1     -35.199   6.107  84.105  1.00  0.00     0.180 C 
ATOM      2  C   UNL     1     -35.320   4.784  84.984  1.00  0.00     0.177 C 
ATOM      3  C   UNL     1     -36.454   3.913  84.524  1.00  0.00     0.180 C 
ATOM      4  C   UNL     1     -37.035   4.061  83.132  1.00  0.00     0.214 C 
ATOM      5  C   UNL     1     -36.689   5.302  82.367  1.00  0.00     0.339 C 
ATOM      6  O   UNL     1     -35.281   5.742  82.661  1.00  0.00    -0.332 OA
ENDROOT
BRANCH   1   7
ATOM      7  C   UNL     1     -33.943   7.050  84.892  1.00  0.00     0.198 C 
BRANCH   7   8
ATOM      8  O   UNL     1     -32.723   7.427  84.166  1.00  0.00    -0.347 OA
BRANCH   8   9
ATOM      9  C   UNL     1     -32.712   8.221  82.965  1.00  0.00     0.281 C 
ATOM     10  C   UNL     1     -29.609   9.758  82.648  1.00  0.00     0.041 C 
ATOM     11  C   UNL     1     -30.904   9.376  81.989  1.00  0.00     0.150 C 
ATOM     12  C   UNL     1     -30.624   8.799  80.673  1.00  0.00     0.174 C 
ATOM     13  O   UNL     1     -31.314   8.363  82.816  1.00  0.00    -0.344 OA
ATOM     14  C   UNL     1     -32.049   8.255  80.265  1.00  0.00     0.179 C 
ATOM     15  C   UNL     1     -33.252   8.005  81.405  1.00  0.00     0.202 C 
BRANCH  12  16
ATOM     16  O   UNL     1     -29.615   7.720  80.725  1.00  0.00    -0.388 OA
ATOM     17  H   UNL     1     -30.057   6.911  80.259  1.00  0.00     0.211 HD
ENDBRANCH  12  16
BRANCH  14  18
ATOM     18  O   UNL     1     -32.016   7.209  79.324  1.00  0.00    -0.387 OA
ATOM     19  H   UNL     1     -31.185   7.366  78.820  1.00  0.00     0.211 HD
ENDBRANCH  14  18
BRANCH  15  20
ATOM     20  O   UNL     1     -34.314   8.923  81.152  1.00  0.00    -0.385 OA
ATOM     21  H   UNL     1     -34.422   9.561  81.943  1.00  0.00     0.211 HD
ENDBRANCH  15  20
ENDBRANCH   8   9
ENDBRANCH   7   8
ENDBRANCH   1   7
BRANCH   2  22
ATOM     22  O   UNL     1     -34.079   4.058  84.868  1.00  0.00    -0.387 OA
ATOM     23  H   UNL     1     -34.112   3.394  84.058  1.00  0.00     0.211 HD
ENDBRANCH   2  22
BRANCH   3  24
ATOM     24  O   UNL     1     -36.162   2.522  84.782  1.00  0.00    -0.387 OA
ATOM     25  H   UNL     1     -36.812   2.063  85.433  1.00  0.00     0.211 HD
ENDBRANCH   3  24
BRANCH   5  26
ATOM     26  O   UNL     1     -37.379   5.159  81.031  1.00  0.00    -0.454 OA
BRANCH  26  27
ATOM     27  C   UNL     1     -37.540   5.785  79.750  1.00  0.00     0.214 A 
ATOM     28  C   UNL     1     -38.480   5.150  78.897  1.00  0.00     0.180 A 
ATOM     29  C   UNL     1     -36.682   6.795  79.025  1.00  0.00     0.239 A 
ATOM     30  O   UNL     1     -38.938   5.731  77.803  1.00  0.00    -0.452 OA
ATOM     31  C   UNL     1     -37.253   7.443  77.828  1.00  0.00     0.111 A 
ATOM     32  O   UNL     1     -35.455   6.853  79.275  1.00  0.00    -0.285 OA
ATOM     33  C   UNL     1     -38.527   6.877  77.281  1.00  0.00     0.146 A 
ATOM     34  C   UNL     1     -36.851   8.732  77.320  1.00  0.00     0.134 A 
ATOM     35  C   UNL     1     -39.111   7.520  76.205  1.00  0.00     0.094 A 
ATOM     36  C   UNL     1     -37.709   9.484  76.574  1.00  0.00     0.093 A 
ATOM     37  C   UNL     1     -38.902   8.915  76.087  1.00  0.00     0.123 A 
BRANCH  28  38
ATOM     38  C   UNL     1     -38.808   3.662  79.165  1.00  0.00     0.025 A 
ATOM     39  C   UNL     1     -39.703   3.590  80.247  1.00  0.00     0.062 A 
ATOM     40  C   UNL     1     -39.305   3.074  77.962  1.00  0.00     0.016 A 
ATOM     41  C   UNL     1     -41.074   3.729  79.968  1.00  0.00     0.158 A 
ATOM     42  C   UNL     1     -40.657   2.898  77.815  1.00  0.00     0.051 A 
ATOM     43  C   UNL     1     -41.572   3.262  78.797  1.00  0.00     0.157 A 
BRANCH  41  44
ATOM     44  O   UNL     1     -41.763   4.490  80.904  1.00  0.00    -0.504 OA
ATOM     45  H   UNL     1     -41.936   4.174  81.822  1.00  0.00     0.293 HD
ENDBRANCH  41  44
BRANCH  43  46
ATOM     46  O   UNL     1     -42.958   3.144  78.551  1.00  0.00    -0.504 OA
ATOM     47  H   UNL     1     -43.421   2.501  77.886  1.00  0.00     0.293 HD
ENDBRANCH  43  46
ENDBRANCH  28  38
BRANCH  34  48
ATOM     48  O   UNL     1     -35.540   9.272  77.559  1.00  0.00    -0.507 OA
ATOM     49  H   UNL     1     -34.974   8.715  78.168  1.00  0.00     0.293 HD
ENDBRANCH  34  48
BRANCH  37  50
ATOM     50  O   UNL     1     -39.806   9.750  75.400  1.00  0.00    -0.508 OA
ATOM     51  H   UNL     1     -39.718  10.030  74.410  1.00  0.00     0.293 HD
ENDBRANCH  37  50
ENDBRANCH  26  27
ENDBRANCH   5  26
BRANCH   4  52
ATOM     52  O   UNL     1     -36.658   2.872  82.382  1.00  0.00    -0.384 OA
ATOM     53  H   UNL     1     -37.206   2.161  82.786  1.00  0.00     0.211 HD
ENDBRANCH   4  52
TORSDOF 16
ENDMDL
MODEL 5
REMARK VINA RESULT:    -7.392      9.585     12.606
REMARK INTER + INTRA:         -13.082
REMARK INTER:                 -11.666
REMARK INTRA:                  -1.416
REMARK UNBOUND:                -1.585
REMARK SMILES C[C@@H]1O[C@H](OC[C@H]2O[C@@H](Oc3c(-c4ccc(O)c(O)c4)oc4cc(O)cc(O)c4c3=O)[C@@H](O)[C@@H](O)[C@H]2O)[C@@H](O)[C@H](O)[C@@H]1O
REMARK SMILES IDX 7 1 36 2 34 3 32 4 9 5 8 6 6 7 5 8 4 9 1 10 2 11 42 12 3 13
REMARK SMILES IDX 40 14 38 15 43 16 41 18 39 20 37 22 35 24 10 26 11 27 12 28
REMARK SMILES IDX 30 29 21 30 29 31 31 32 22 33 27 34 23 35 26 36 24 37 13 38
REMARK SMILES IDX 20 39 14 40 18 41 15 42 16 43 19 44 17 46 28 48 25 50 33 52
REMARK H PARENT 43 17 41 19 39 21 37 23 35 25 19 45 17 47 28 49 25 51 33 53
REMARK Flexibility Score: inf
ROOT
ATOM      1  C   UNL     1     -45.633  -6.374  79.894  1.00  0.00     0.180 C 
ATOM      2  C   UNL     1     -46.748  -7.382  80.424  1.00  0.00     0.177 C 
ATOM      3  C   UNL     1     -46.144  -8.530  81.180  1.00  0.00     0.180 C 
ATOM      4  C   UNL     1     -44.745  -8.435  81.757  1.00  0.00     0.214 C 
ATOM      5  C   UNL     1     -43.871  -7.321  81.267  1.00  0.00     0.339 C 
ATOM      6  O   UNL     1     -44.676  -6.080  81.000  1.00  0.00    -0.332 OA
ENDROOT
BRANCH   1   7
ATOM      7  C   UNL     1     -46.515  -5.212  78.915  1.00  0.00     0.198 C 
BRANCH   7   8
ATOM      8  O   UNL     1     -46.766  -5.470  77.491  1.00  0.00    -0.347 OA
BRANCH   8   9
ATOM      9  C   UNL     1     -45.729  -5.630  76.505  1.00  0.00     0.281 C 
ATOM     10  C   UNL     1     -46.509  -3.711  73.712  1.00  0.00     0.041 C 
ATOM     11  C   UNL     1     -45.464  -4.492  74.458  1.00  0.00     0.150 C 
ATOM     12  C   UNL     1     -44.222  -3.720  74.499  1.00  0.00     0.174 C 
ATOM     13  O   UNL     1     -46.004  -4.490  75.718  1.00  0.00    -0.344 OA
ATOM     14  C   UNL     1     -43.358  -4.577  75.505  1.00  0.00     0.179 C 
ATOM     15  C   UNL     1     -44.065  -5.685  76.544  1.00  0.00     0.202 C 
BRANCH  12  16
ATOM     16  O   UNL     1     -44.422  -2.338  74.983  1.00  0.00    -0.388 OA
ATOM     17  H   UNL     1     -45.344  -2.344  75.449  1.00  0.00     0.211 HD
ENDBRANCH  12  16
BRANCH  14  18
ATOM     18  O   UNL     1     -42.341  -3.851  76.152  1.00  0.00    -0.387 OA
ATOM     19  H   UNL     1     -42.058  -3.186  75.483  1.00  0.00     0.211 HD
ENDBRANCH  14  18
BRANCH  15  20
ATOM     20  O   UNL     1     -43.637  -6.994  76.172  1.00  0.00    -0.385 OA
ATOM     21  H   UNL     1     -43.790  -7.646  76.944  1.00  0.00     0.211 HD
ENDBRANCH  15  20
ENDBRANCH   8   9
ENDBRANCH   7   8
ENDBRANCH   1   7
BRANCH   2  22
ATOM     22  O   UNL     1     -47.633  -6.647  81.294  1.00  0.00    -0.387 OA
ATOM     23  H   UNL     1     -47.129  -6.331  82.157  1.00  0.00     0.211 HD
ENDBRANCH   2  22
BRANCH   3  24
ATOM     24  O   UNL     1     -47.055  -9.005  82.195  1.00  0.00    -0.387 OA
ATOM     25  H   UNL     1     -46.666  -9.015  83.147  1.00  0.00     0.211 HD
ENDBRANCH   3  24
BRANCH   5  26
ATOM     26  O   UNL     1     -42.572  -7.464  82.023  1.00  0.00    -0.454 OA
BRANCH  26  27
ATOM     27  C   UNL     1     -41.155  -7.618  81.853  1.00  0.00     0.214 A 
ATOM     28  C   UNL     1     -40.366  -6.891  82.784  1.00  0.00     0.180 A 
ATOM     29  C   UNL     1     -40.348  -8.150  80.693  1.00  0.00     0.239 A 
ATOM     30  O   UNL     1     -39.074  -7.120  82.937  1.00  0.00    -0.452 OA
ATOM     31  C   UNL     1     -38.916  -8.422  80.924  1.00  0.00     0.111 A 
ATOM     32  O   UNL     1     -40.819  -8.084  79.533  1.00  0.00    -0.285 OA
ATOM     33  C   UNL     1     -38.319  -7.924  82.204  1.00  0.00     0.146 A 
ATOM     34  C   UNL     1     -38.126  -9.364  80.170  1.00  0.00     0.134 A 
ATOM     35  C   UNL     1     -36.998  -8.237  82.467  1.00  0.00     0.094 A 
ATOM     36  C   UNL     1     -37.017  -9.940  80.718  1.00  0.00     0.093 A 
ATOM     37  C   UNL     1     -36.494  -9.445  81.928  1.00  0.00     0.123 A 
BRANCH  28  38
ATOM     38  C   UNL     1     -41.013  -5.670  83.479  1.00  0.00     0.025 A 
ATOM     39  C   UNL     1     -40.234  -5.330  84.599  1.00  0.00     0.062 A 
ATOM     40  C   UNL     1     -41.149  -4.614  82.528  1.00  0.00     0.016 A 
ATOM     41  C   UNL     1     -39.127  -4.489  84.392  1.00  0.00     0.158 A 
ATOM     42  C   UNL     1     -40.238  -3.590  82.533  1.00  0.00     0.051 A 
ATOM     43  C   UNL     1     -39.183  -3.529  83.437  1.00  0.00     0.157 A 
BRANCH  41  44
ATOM     44  O   UNL     1     -38.002  -4.848  85.125  1.00  0.00    -0.504 OA
ATOM     45  H   UNL     1     -37.085  -4.730  84.782  1.00  0.00     0.293 HD
ENDBRANCH  41  44
BRANCH  43  46
ATOM     46  O   UNL     1     -38.220  -2.499  83.334  1.00  0.00    -0.504 OA
ATOM     47  H   UNL     1     -38.378  -1.528  83.014  1.00  0.00     0.293 HD
ENDBRANCH  43  46
ENDBRANCH  28  38
BRANCH  34  48
ATOM     48  O   UNL     1     -38.454  -9.726  78.817  1.00  0.00    -0.507 OA
ATOM     49  H   UNL     1     -39.355  -9.410  78.518  1.00  0.00     0.293 HD
ENDBRANCH  34  48
BRANCH  37  50
ATOM     50  O   UNL     1     -35.405 -10.125  82.510  1.00  0.00    -0.508 OA
ATOM     51  H   UNL     1     -35.001  -9.913  83.435  1.00  0.00     0.293 HD
ENDBRANCH  37  50
ENDBRANCH  26  27
ENDBRANCH   5  26
BRANCH   4  52
ATOM     52  O   UNL     1     -44.881  -8.383  83.204  1.00  0.00    -0.384 OA
ATOM     53  H   UNL     1     -44.024  -8.002  83.503  1.00  0.00     0.211 HD
ENDBRANCH   4  52
TORSDOF 16
ENDMDL
MODEL 6
REMARK VINA RESULT:    -7.312      9.378     12.392
REMARK INTER + INTRA:         -12.958
REMARK INTER:                 -11.762
REMARK INTRA:                  -1.196
REMARK UNBOUND:                -1.585
REMARK SMILES C[C@@H]1O[C@H](OC[C@H]2O[C@@H](Oc3c(-c4ccc(O)c(O)c4)oc4cc(O)cc(O)c4c3=O)[C@@H](O)[C@@H](O)[C@H]2O)[C@@H](O)[C@H](O)[C@@H]1O
REMARK SMILES IDX 7 1 36 2 34 3 32 4 9 5 8 6 6 7 5 8 4 9 1 10 2 11 42 12 3 13
REMARK SMILES IDX 40 14 38 15 43 16 41 18 39 20 37 22 35 24 10 26 11 27 12 28
REMARK SMILES IDX 30 29 21 30 29 31 31 32 22 33 27 34 23 35 26 36 24 37 13 38
REMARK SMILES IDX 20 39 14 40 18 41 15 42 16 43 19 44 17 46 28 48 25 50 33 52
REMARK H PARENT 43 17 41 19 39 21 37 23 35 25 19 45 17 47 28 49 25 51 33 53
REMARK Flexibility Score: inf
ROOT
ATOM      1  C   UNL     1     -45.971  -6.764  79.562  1.00  0.00     0.180 C 
ATOM      2  C   UNL     1     -46.746  -7.987  80.226  1.00  0.00     0.177 C 
ATOM      3  C   UNL     1     -45.798  -9.033  80.738  1.00  0.00     0.180 C 
ATOM      4  C   UNL     1     -44.346  -8.700  81.015  1.00  0.00     0.214 C 
ATOM      5  C   UNL     1     -43.810  -7.421  80.449  1.00  0.00     0.339 C 
ATOM      6  O   UNL     1     -44.860  -6.343  80.463  1.00  0.00    -0.332 OA
ENDROOT
BRANCH   1   7
ATOM      7  C   UNL     1     -47.238  -5.747  78.891  1.00  0.00     0.198 C 
BRANCH   7   8
ATOM      8  O   UNL     1     -47.132  -5.223  77.523  1.00  0.00    -0.347 OA
BRANCH   8   9
ATOM      9  C   UNL     1     -46.065  -5.552  76.613  1.00  0.00     0.281 C 
ATOM     10  C   UNL     1     -46.660  -4.007  73.556  1.00  0.00     0.041 C 
ATOM     11  C   UNL     1     -45.677  -4.714  74.445  1.00  0.00     0.150 C 
ATOM     12  C   UNL     1     -44.407  -3.987  74.434  1.00  0.00     0.174 C 
ATOM     13  O   UNL     1     -46.264  -4.521  75.668  1.00  0.00    -0.344 OA
ATOM     14  C   UNL     1     -43.617  -4.728  75.583  1.00  0.00     0.179 C 
ATOM     15  C   UNL     1     -44.408  -5.659  76.731  1.00  0.00     0.202 C 
BRANCH  12  16
ATOM     16  O   UNL     1     -44.570  -2.546  74.719  1.00  0.00    -0.388 OA
ATOM     17  H   UNL     1     -45.555  -2.333  74.492  1.00  0.00     0.211 HD
ENDBRANCH  12  16
BRANCH  14  18
ATOM     18  O   UNL     1     -42.597  -3.956  76.170  1.00  0.00    -0.387 OA
ATOM     19  H   UNL     1     -42.252  -3.410  75.427  1.00  0.00     0.211 HD
ENDBRANCH  14  18
BRANCH  15  20
ATOM     20  O   UNL     1     -44.019  -7.021  76.558  1.00  0.00    -0.385 OA
ATOM     21  H   UNL     1     -44.471  -7.607  77.261  1.00  0.00     0.211 HD
ENDBRANCH  15  20
ENDBRANCH   8   9
ENDBRANCH   7   8
ENDBRANCH   1   7
BRANCH   2  22
ATOM     22  O   UNL     1     -47.532  -7.472  81.321  1.00  0.00    -0.387 OA
ATOM     23  H   UNL     1     -48.143  -6.683  81.001  1.00  0.00     0.211 HD
ENDBRANCH   2  22
BRANCH   3  24
ATOM     24  O   UNL     1     -46.364  -9.716  81.878  1.00  0.00    -0.387 OA
ATOM     25  H   UNL     1     -45.802  -9.653  82.736  1.00  0.00     0.211 HD
ENDBRANCH   3  24
BRANCH   5  26
ATOM     26  O   UNL     1     -42.372  -7.348  80.901  1.00  0.00    -0.454 OA
BRANCH  26  27
ATOM     27  C   UNL     1     -41.479  -6.652  81.784  1.00  0.00     0.214 A 
ATOM     28  C   UNL     1     -40.297  -7.367  82.112  1.00  0.00     0.180 A 
ATOM     29  C   UNL     1     -41.700  -5.449  82.670  1.00  0.00     0.239 A 
ATOM     30  O   UNL     1     -39.263  -6.783  82.690  1.00  0.00    -0.452 OA
ATOM     31  C   UNL     1     -40.509  -4.811  83.265  1.00  0.00     0.111 A 
ATOM     32  O   UNL     1     -42.853  -5.199  83.093  1.00  0.00    -0.285 OA
ATOM     33  C   UNL     1     -39.207  -5.542  83.150  1.00  0.00     0.146 A 
ATOM     34  C   UNL     1     -40.438  -3.433  83.684  1.00  0.00     0.134 A 
ATOM     35  C   UNL     1     -38.072  -4.922  83.637  1.00  0.00     0.094 A 
ATOM     36  C   UNL     1     -39.241  -2.781  83.734  1.00  0.00     0.093 A 
ATOM     37  C   UNL     1     -38.040  -3.506  83.613  1.00  0.00     0.123 A 
BRANCH  28  38
ATOM     38  C   UNL     1     -40.320  -8.907  81.965  1.00  0.00     0.025 A 
ATOM     39  C   UNL     1     -40.073  -9.230  80.619  1.00  0.00     0.062 A 
ATOM     40  C   UNL     1     -39.380  -9.473  82.878  1.00  0.00     0.016 A 
ATOM     41  C   UNL     1     -38.732  -9.320  80.207  1.00  0.00     0.158 A 
ATOM     42  C   UNL     1     -38.157  -9.879  82.410  1.00  0.00     0.051 A 
ATOM     43  C   UNL     1     -37.792  -9.770  81.073  1.00  0.00     0.157 A 
BRANCH  41  44
ATOM     44  O   UNL     1     -38.493  -8.777  78.950  1.00  0.00    -0.504 OA
ATOM     45  H   UNL     1     -38.368  -9.335  78.146  1.00  0.00     0.293 HD
ENDBRANCH  41  44
BRANCH  43  46
ATOM     46  O   UNL     1     -36.483 -10.117  80.666  1.00  0.00    -0.504 OA
ATOM     47  H   UNL     1     -35.626 -10.100  81.244  1.00  0.00     0.293 HD
ENDBRANCH  43  46
ENDBRANCH  28  38
BRANCH  34  48
ATOM     48  O   UNL     1     -41.606  -2.693  84.079  1.00  0.00    -0.507 OA
ATOM     49  H   UNL     1     -41.442  -2.031  84.812  1.00  0.00     0.293 HD
ENDBRANCH  34  48
BRANCH  37  50
ATOM     50  O   UNL     1     -36.829  -2.787  83.576  1.00  0.00    -0.508 OA
ATOM     51  H   UNL     1     -36.746  -1.762  83.651  1.00  0.00     0.293 HD
ENDBRANCH  37  50
ENDBRANCH  26  27
ENDBRANCH   5  26
BRANCH   4  52
ATOM     52  O   UNL     1     -44.164  -8.739  82.458  1.00  0.00    -0.384 OA
ATOM     53  H   UNL     1     -44.104  -9.702  82.657  1.00  0.00     0.211 HD
ENDBRANCH   4  52
TORSDOF 16
ENDMDL
MODEL 7
REMARK VINA RESULT:    -7.195      1.267      4.126
REMARK INTER + INTRA:         -12.776
REMARK INTER:                 -11.408
REMARK INTRA:                  -1.368
REMARK UNBOUND:                -1.585
REMARK SMILES C[C@@H]1O[C@H](OC[C@H]2O[C@@H](Oc3c(-c4ccc(O)c(O)c4)oc4cc(O)cc(O)c4c3=O)[C@@H](O)[C@@H](O)[C@H]2O)[C@@H](O)[C@H](O)[C@@H]1O
REMARK SMILES IDX 7 1 36 2 34 3 32 4 9 5 8 6 6 7 5 8 4 9 1 10 2 11 42 12 3 13
REMARK SMILES IDX 40 14 38 15 43 16 41 18 39 20 37 22 35 24 10 26 11 27 12 28
REMARK SMILES IDX 30 29 21 30 29 31 31 32 22 33 27 34 23 35 26 36 24 37 13 38
REMARK SMILES IDX 20 39 14 40 18 41 15 42 16 43 19 44 17 46 28 48 25 50 33 52
REMARK H PARENT 43 17 41 19 39 21 37 23 35 25 19 45 17 47 28 49 25 51 33 53
REMARK Flexibility Score: inf
ROOT
ATOM      1  C   UNL     1     -41.919   2.263  77.723  1.00  0.00     0.180 C 
ATOM      2  C   UNL     1     -42.948   2.461  78.923  1.00  0.00     0.177 C 
ATOM      3  C   UNL     1     -42.258   2.916  80.177  1.00  0.00     0.180 C 
ATOM      4  C   UNL     1     -40.886   3.558  80.123  1.00  0.00     0.214 C 
ATOM      5  C   UNL     1     -40.106   3.415  78.852  1.00  0.00     0.339 C 
ATOM      6  O   UNL     1     -41.015   3.448  77.654  1.00  0.00    -0.332 OA
ENDROOT
BRANCH   1   7
ATOM      7  C   UNL     1     -42.882   1.584  76.420  1.00  0.00     0.198 C 
BRANCH   7   8
ATOM      8  O   UNL     1     -43.030   2.301  75.146  1.00  0.00    -0.347 OA
BRANCH   8   9
ATOM      9  C   UNL     1     -44.100   2.070  74.210  1.00  0.00     0.281 C 
ATOM     10  C   UNL     1     -45.560  -1.012  74.891  1.00  0.00     0.041 C 
ATOM     11  C   UNL     1     -45.664   0.307  74.178  1.00  0.00     0.150 C 
ATOM     12  C   UNL     1     -47.006   0.857  74.374  1.00  0.00     0.174 C 
ATOM     13  O   UNL     1     -44.788   1.059  74.917  1.00  0.00    -0.344 OA
ATOM     14  C   UNL     1     -46.836   2.308  73.775  1.00  0.00     0.179 C 
ATOM     15  C   UNL     1     -45.322   2.998  73.566  1.00  0.00     0.202 C 
BRANCH  12  16
ATOM     16  O   UNL     1     -47.410   0.890  75.795  1.00  0.00    -0.388 OA
ATOM     17  H   UNL     1     -48.333   0.429  75.827  1.00  0.00     0.211 HD
ENDBRANCH  12  16
BRANCH  14  18
ATOM     18  O   UNL     1     -47.757   3.247  74.275  1.00  0.00    -0.387 OA
ATOM     19  H   UNL     1     -47.398   4.116  73.981  1.00  0.00     0.211 HD
ENDBRANCH  14  18
BRANCH  15  20
ATOM     20  O   UNL     1     -45.089   3.164  72.168  1.00  0.00    -0.385 OA
ATOM     21  H   UNL     1     -44.412   2.473  71.841  1.00  0.00     0.211 HD
ENDBRANCH  15  20
ENDBRANCH   8   9
ENDBRANCH   7   8
ENDBRANCH   1   7
BRANCH   2  22
ATOM     22  O   UNL     1     -43.914   3.453  78.520  1.00  0.00    -0.387 OA
ATOM     23  H   UNL     1     -44.866   3.216  78.890  1.00  0.00     0.211 HD
ENDBRANCH   2  22
BRANCH   3  24
ATOM     24  O   UNL     1     -43.143   3.731  80.976  1.00  0.00    -0.387 OA
ATOM     25  H   UNL     1     -43.101   4.736  80.769  1.00  0.00     0.211 HD
ENDBRANCH   3  24
BRANCH   5  26
ATOM     26  O   UNL     1     -38.815   4.164  79.083  1.00  0.00    -0.454 OA
BRANCH  26  27
ATOM     27  C   UNL     1     -37.905   4.595  80.105  1.00  0.00     0.214 A 
ATOM     28  C   UNL     1     -36.983   5.593  79.692  1.00  0.00     0.180 A 
ATOM     29  C   UNL     1     -37.538   3.974  81.432  1.00  0.00     0.239 A 
ATOM     30  O   UNL     1     -36.261   6.281  80.558  1.00  0.00    -0.452 OA
ATOM     31  C   UNL     1     -36.759   4.795  82.379  1.00  0.00     0.111 A 
ATOM     32  O   UNL     1     -37.650   2.735  81.583  1.00  0.00    -0.285 OA
ATOM     33  C   UNL     1     -36.183   6.078  81.864  1.00  0.00     0.146 A 
ATOM     34  C   UNL     1     -36.750   4.615  83.810  1.00  0.00     0.134 A 
ATOM     35  C   UNL     1     -35.514   6.893  82.760  1.00  0.00     0.094 A 
ATOM     36  C   UNL     1     -36.457   5.655  84.642  1.00  0.00     0.093 A 
ATOM     37  C   UNL     1     -35.925   6.848  84.114  1.00  0.00     0.123 A 
BRANCH  28  38
ATOM     38  C   UNL     1     -36.687   5.721  78.179  1.00  0.00     0.025 A 
ATOM     39  C   UNL     1     -37.429   6.802  77.669  1.00  0.00     0.062 A 
ATOM     40  C   UNL     1     -35.277   5.848  77.993  1.00  0.00     0.016 A 
ATOM     41  C   UNL     1     -36.867   8.086  77.776  1.00  0.00     0.158 A 
ATOM     42  C   UNL     1     -34.744   7.090  77.762  1.00  0.00     0.051 A 
ATOM     43  C   UNL     1     -35.523   8.239  77.692  1.00  0.00     0.157 A 
BRANCH  41  44
ATOM     44  O   UNL     1     -37.783   9.074  78.114  1.00  0.00    -0.504 OA
ATOM     45  H   UNL     1     -38.295   9.578  77.437  1.00  0.00     0.293 HD
ENDBRANCH  41  44
BRANCH  43  46
ATOM     46  O   UNL     1     -34.907   9.503  77.547  1.00  0.00    -0.504 OA
ATOM     47  H   UNL     1     -33.925   9.692  77.283  1.00  0.00     0.293 HD
ENDBRANCH  43  46
ENDBRANCH  28  38
BRANCH  34  48
ATOM     48  O   UNL     1     -37.031   3.343  84.421  1.00  0.00    -0.507 OA
ATOM     49  H   UNL     1     -36.531   2.577  84.016  1.00  0.00     0.293 HD
ENDBRANCH  34  48
BRANCH  37  50
ATOM     50  O   UNL     1     -35.722   7.931  84.992  1.00  0.00    -0.508 OA
ATOM     51  H   UNL     1     -35.254   8.816  84.742  1.00  0.00     0.293 HD
ENDBRANCH  37  50
ENDBRANCH  26  27
ENDBRANCH   5  26
BRANCH   4  52
ATOM     52  O   UNL     1     -41.056   4.961  80.467  1.00  0.00    -0.384 OA
ATOM     53  H   UNL     1     -40.846   5.432  79.628  1.00  0.00     0.211 HD
ENDBRANCH   4  52
TORSDOF 16
ENDMDL
MODEL 8
REMARK VINA RESULT:    -6.739      8.396     12.102
REMARK INTER + INTRA:         -12.066
REMARK INTER:                 -11.079
REMARK INTRA:                  -0.987
REMARK UNBOUND:                -1.585
REMARK SMILES C[C@@H]1O[C@H](OC[C@H]2O[C@@H](Oc3c(-c4ccc(O)c(O)c4)oc4cc(O)cc(O)c4c3=O)[C@@H](O)[C@@H](O)[C@H]2O)[C@@H](O)[C@H](O)[C@@H]1O
REMARK SMILES IDX 7 1 36 2 34 3 32 4 9 5 8 6 6 7 5 8 4 9 1 10 2 11 42 12 3 13
REMARK SMILES IDX 40 14 38 15 43 16 41 18 39 20 37 22 35 24 10 26 11 27 12 28
REMARK SMILES IDX 30 29 21 30 29 31 31 32 22 33 27 34 23 35 26 36 24 37 13 38
REMARK SMILES IDX 20 39 14 40 18 41 15 42 16 43 19 44 17 46 28 48 25 50 33 52
REMARK H PARENT 43 17 41 19 39 21 37 23 35 25 19 45 17 47 28 49 25 51 33 53
REMARK Flexibility Score: inf
ROOT
ATOM      1  C   UNL     1     -46.065  -3.745  75.595  1.00  0.00     0.180 C 
ATOM      2  C   UNL     1     -44.706  -3.613  74.774  1.00  0.00     0.177 C 
ATOM      3  C   UNL     1     -43.505  -3.846  75.646  1.00  0.00     0.180 C 
ATOM      4  C   UNL     1     -43.631  -4.585  76.964  1.00  0.00     0.214 C 
ATOM      5  C   UNL     1     -45.008  -4.767  77.525  1.00  0.00     0.339 C 
ATOM      6  O   UNL     1     -46.014  -4.981  76.427  1.00  0.00    -0.332 OA
ENDROOT
BRANCH   1   7
ATOM      7  C   UNL     1     -47.319  -3.282  74.454  1.00  0.00     0.198 C 
BRANCH   7   8
ATOM      8  O   UNL     1     -47.643  -1.867  74.230  1.00  0.00    -0.347 OA
BRANCH   8   9
ATOM      9  C   UNL     1     -46.660  -0.841  73.997  1.00  0.00     0.281 C 
ATOM     10  C   UNL     1     -47.457   0.853  71.067  1.00  0.00     0.041 C 
ATOM     11  C   UNL     1     -46.651   0.830  72.335  1.00  0.00     0.150 C 
ATOM     12  C   UNL     1     -46.724   2.142  72.977  1.00  0.00     0.174 C 
ATOM     13  O   UNL     1     -47.390  -0.049  73.083  1.00  0.00    -0.344 OA
ATOM     14  C   UNL     1     -46.040   1.844  74.369  1.00  0.00     0.179 C 
ATOM     15  C   UNL     1     -45.879   0.279  74.949  1.00  0.00     0.202 C 
BRANCH  12  16
ATOM     16  O   UNL     1     -48.113   2.625  73.137  1.00  0.00    -0.388 OA
ATOM     17  H   UNL     1     -48.234   2.773  74.152  1.00  0.00     0.211 HD
ENDBRANCH  12  16
BRANCH  14  18
ATOM     18  O   UNL     1     -46.417   2.730  75.396  1.00  0.00    -0.387 OA
ATOM     19  H   UNL     1     -45.839   3.515  75.259  1.00  0.00     0.211 HD
ENDBRANCH  14  18
BRANCH  15  20
ATOM     20  O   UNL     1     -44.490  -0.045  75.000  1.00  0.00    -0.385 OA
ATOM     21  H   UNL     1     -44.138  -0.227  74.058  1.00  0.00     0.211 HD
ENDBRANCH  15  20
ENDBRANCH   8   9
ENDBRANCH   7   8
ENDBRANCH   1   7
BRANCH   2  22
ATOM     22  O   UNL     1     -44.729  -4.593  73.716  1.00  0.00    -0.387 OA
ATOM     23  H   UNL     1     -45.609  -4.510  73.152  1.00  0.00     0.211 HD
ENDBRANCH   2  22
BRANCH   3  24
ATOM     24  O   UNL     1     -42.421  -4.410  74.876  1.00  0.00    -0.387 OA
ATOM     25  H   UNL     1     -42.648  -4.595  73.891  1.00  0.00     0.211 HD
ENDBRANCH   3  24
BRANCH   5  26
ATOM     26  O   UNL     1     -44.824  -5.545  78.806  1.00  0.00    -0.454 OA
BRANCH  26  27
ATOM     27  C   UNL     1     -44.025  -5.625  79.996  1.00  0.00     0.214 A 
ATOM     28  C   UNL     1     -43.820  -6.943  80.481  1.00  0.00     0.180 A 
ATOM     29  C   UNL     1     -43.627  -4.565  80.995  1.00  0.00     0.239 A 
ATOM     30  O   UNL     1     -42.908  -7.219  81.397  1.00  0.00    -0.452 OA
ATOM     31  C   UNL     1     -42.580  -4.911  81.977  1.00  0.00     0.111 A 
ATOM     32  O   UNL     1     -44.358  -3.559  81.149  1.00  0.00    -0.285 OA
ATOM     33  C   UNL     1     -42.170  -6.348  82.069  1.00  0.00     0.146 A 
ATOM     34  C   UNL     1     -41.726  -3.955  82.638  1.00  0.00     0.134 A 
ATOM     35  C   UNL     1     -41.139  -6.674  82.931  1.00  0.00     0.094 A 
ATOM     36  C   UNL     1     -40.499  -4.324  83.106  1.00  0.00     0.093 A 
ATOM     37  C   UNL     1     -40.151  -5.688  83.167  1.00  0.00     0.123 A 
BRANCH  28  38
ATOM     38  C   UNL     1     -44.834  -8.034  80.061  1.00  0.00     0.025 A 
ATOM     39  C   UNL     1     -44.441  -9.254  80.638  1.00  0.00     0.062 A 
ATOM     40  C   UNL     1     -46.146  -7.613  80.435  1.00  0.00     0.016 A 
ATOM     41  C   UNL     1     -44.864  -9.521  81.952  1.00  0.00     0.158 A 
ATOM     42  C   UNL     1     -46.715  -8.132  81.570  1.00  0.00     0.051 A 
ATOM     43  C   UNL     1     -46.068  -9.064  82.374  1.00  0.00     0.157 A 
BRANCH  41  44
ATOM     44  O   UNL     1     -43.895 -10.125  82.743  1.00  0.00    -0.504 OA
ATOM     45  H   UNL     1     -43.993 -11.041  83.095  1.00  0.00     0.293 HD
ENDBRANCH  41  44
BRANCH  43  46
ATOM     46  O   UNL     1     -46.664  -9.491  83.582  1.00  0.00    -0.504 OA
ATOM     47  H   UNL     1     -47.008  -8.893  84.353  1.00  0.00     0.293 HD
ENDBRANCH  43  46
ENDBRANCH  28  38
BRANCH  34  48
ATOM     48  O   UNL     1     -42.126  -2.590  82.849  1.00  0.00    -0.507 OA
ATOM     49  H   UNL     1     -41.918  -2.240  83.763  1.00  0.00     0.293 HD
ENDBRANCH  34  48
BRANCH  37  50
ATOM     50  O   UNL     1     -38.842  -6.023  83.568  1.00  0.00    -0.508 OA
ATOM     51  H   UNL     1     -38.503  -6.983  83.739  1.00  0.00     0.293 HD
ENDBRANCH  37  50
ENDBRANCH  26  27
ENDBRANCH   5  26
BRANCH   4  52
ATOM     52  O   UNL     1     -42.968  -5.870  76.800  1.00  0.00    -0.384 OA
ATOM     53  H   UNL     1     -42.943  -5.993  75.823  1.00  0.00     0.211 HD
ENDBRANCH   4  52
TORSDOF 16
ENDMDL
MODEL 9
REMARK VINA RESULT:    -6.251      4.337      9.928
REMARK INTER + INTRA:         -11.307
REMARK INTER:                  -8.206
REMARK INTRA:                  -3.101
REMARK UNBOUND:                -1.585
REMARK SMILES C[C@@H]1O[C@H](OC[C@H]2O[C@@H](Oc3c(-c4ccc(O)c(O)c4)oc4cc(O)cc(O)c4c3=O)[C@@H](O)[C@@H](O)[C@H]2O)[C@@H](O)[C@H](O)[C@@H]1O
REMARK SMILES IDX 7 1 36 2 34 3 32 4 9 5 8 6 6 7 5 8 4 9 1 10 2 11 42 12 3 13
REMARK SMILES IDX 40 14 38 15 43 16 41 18 39 20 37 22 35 24 10 26 11 27 12 28
REMARK SMILES IDX 30 29 21 30 29 31 31 32 22 33 27 34 23 35 26 36 24 37 13 38
REMARK SMILES IDX 20 39 14 40 18 41 15 42 16 43 19 44 17 46 28 48 25 50 33 52
REMARK H PARENT 43 17 41 19 39 21 37 23 35 25 19 45 17 47 28 49 25 51 33 53
REMARK Flexibility Score: inf
ROOT
ATOM      1  C   UNL     1     -34.155   9.629  81.542  1.00  0.00     0.180 C 
ATOM      2  C   UNL     1     -34.022   9.899  83.107  1.00  0.00     0.177 C 
ATOM      3  C   UNL     1     -35.361  10.125  83.748  1.00  0.00     0.180 C 
ATOM      4  C   UNL     1     -36.636   9.657  83.075  1.00  0.00     0.214 C 
ATOM      5  C   UNL     1     -36.556   9.282  81.627  1.00  0.00     0.339 C 
ATOM      6  O   UNL     1     -35.238   8.629  81.310  1.00  0.00    -0.332 OA
ENDROOT
BRANCH   1   7
ATOM      7  C   UNL     1     -32.499   9.555  80.961  1.00  0.00     0.198 C 
BRANCH   7   8
ATOM      8  O   UNL     1     -32.027   8.399  80.189  1.00  0.00    -0.347 OA
BRANCH   8   9
ATOM      9  C   UNL     1     -32.753   7.808  79.095  1.00  0.00     0.281 C 
ATOM     10  C   UNL     1     -33.488   4.499  79.872  1.00  0.00     0.041 C 
ATOM     11  C   UNL     1     -33.760   5.680  78.983  1.00  0.00     0.150 C 
ATOM     12  C   UNL     1     -35.206   5.843  78.827  1.00  0.00     0.174 C 
ATOM     13  O   UNL     1     -33.303   6.700  79.777  1.00  0.00    -0.344 OA
ATOM     14  C   UNL     1     -35.281   7.236  78.087  1.00  0.00     0.179 C 
ATOM     15  C   UNL     1     -33.990   8.306  78.098  1.00  0.00     0.202 C 
BRANCH  12  16
ATOM     16  O   UNL     1     -35.922   5.866  80.120  1.00  0.00    -0.388 OA
ATOM     17  H   UNL     1     -35.193   5.731  80.838  1.00  0.00     0.211 HD
ENDBRANCH  12  16
BRANCH  14  18
ATOM     18  O   UNL     1     -36.503   7.913  78.259  1.00  0.00    -0.387 OA
ATOM     19  H   UNL     1     -37.175   7.194  78.275  1.00  0.00     0.211 HD
ENDBRANCH  14  18
BRANCH  15  20
ATOM     20  O   UNL     1     -33.491   8.428  76.767  1.00  0.00    -0.385 OA
ATOM     21  H   UNL     1     -32.635   7.880  76.662  1.00  0.00     0.211 HD
ENDBRANCH  15  20
ENDBRANCH   8   9
ENDBRANCH   7   8
ENDBRANCH   1   7
BRANCH   2  22
ATOM     22  O   UNL     1     -33.391   8.748  83.704  1.00  0.00    -0.387 OA
ATOM     23  H   UNL     1     -34.102   8.137  84.174  1.00  0.00     0.211 HD
ENDBRANCH   2  22
BRANCH   3  24
ATOM     24  O   UNL     1     -35.347   9.680  85.122  1.00  0.00    -0.387 OA
ATOM     25  H   UNL     1     -35.494  10.426  85.813  1.00  0.00     0.211 HD
ENDBRANCH   3  24
BRANCH   5  26
ATOM     26  O   UNL     1     -37.948   8.840  81.245  1.00  0.00    -0.454 OA
BRANCH  26  27
ATOM     27  C   UNL     1     -38.728   7.693  80.878  1.00  0.00     0.214 A 
ATOM     28  C   UNL     1     -39.661   7.923  79.833  1.00  0.00     0.180 A 
ATOM     29  C   UNL     1     -38.965   6.385  81.595  1.00  0.00     0.239 A 
ATOM     30  O   UNL     1     -40.265   6.932  79.202  1.00  0.00    -0.452 OA
ATOM     31  C   UNL     1     -39.612   5.297  80.836  1.00  0.00     0.111 A 
ATOM     32  O   UNL     1     -38.871   6.342  82.844  1.00  0.00    -0.285 OA
ATOM     33  C   UNL     1     -40.205   5.644  79.506  1.00  0.00     0.146 A 
ATOM     34  C   UNL     1     -39.468   3.892  81.129  1.00  0.00     0.134 A 
ATOM     35  C   UNL     1     -40.748   4.620  78.752  1.00  0.00     0.094 A 
ATOM     36  C   UNL     1     -39.639   2.955  80.152  1.00  0.00     0.093 A 
ATOM     37  C   UNL     1     -40.193   3.327  78.912  1.00  0.00     0.123 A 
BRANCH  28  38
ATOM     38  C   UNL     1     -40.118   9.379  79.580  1.00  0.00     0.025 A 
ATOM     39  C   UNL     1     -39.209   9.985  78.696  1.00  0.00     0.062 A 
ATOM     40  C   UNL     1     -41.465   9.366  79.106  1.00  0.00     0.016 A 
ATOM     41  C   UNL     1     -39.416   9.797  77.318  1.00  0.00     0.158 A 
ATOM     42  C   UNL     1     -41.701   9.516  77.764  1.00  0.00     0.051 A 
ATOM     43  C   UNL     1     -40.678   9.691  76.838  1.00  0.00     0.157 A 
BRANCH  41  44
ATOM     44  O   UNL     1     -38.246   9.588  76.597  1.00  0.00    -0.504 OA
ATOM     45  H   UNL     1     -38.084  10.002  75.717  1.00  0.00     0.293 HD
ENDBRANCH  41  44
BRANCH  43  46
ATOM     46  O   UNL     1     -40.976   9.745  75.457  1.00  0.00    -0.504 OA
ATOM     47  H   UNL     1     -41.844  10.102  75.020  1.00  0.00     0.293 HD
ENDBRANCH  43  46
ENDBRANCH  28  38
BRANCH  34  48
ATOM     48  O   UNL     1     -39.157   3.415  82.450  1.00  0.00    -0.507 OA
ATOM     49  H   UNL     1     -39.226   4.114  83.163  1.00  0.00     0.293 HD
ENDBRANCH  34  48
BRANCH  37  50
ATOM     50  O   UNL     1     -40.267   2.352  77.897  1.00  0.00    -0.508 OA
ATOM     51  H   UNL     1     -40.805   2.449  77.022  1.00  0.00     0.293 HD
ENDBRANCH  37  50
ENDBRANCH  26  27
ENDBRANCH   5  26
BRANCH   4  52
ATOM     52  O   UNL     1     -37.156   8.550  83.864  1.00  0.00    -0.384 OA
ATOM     53  H   UNL     1     -36.659   7.771  83.524  1.00  0.00     0.211 HD
ENDBRANCH   4  52
TORSDOF 16
ENDMDL
