MODEL 1
REMARK VINA RESULT:    -4.036      0.000      0.000
REMARK INTER + INTRA:          -5.236
REMARK INTER:                  -4.744
REMARK INTRA:                  -0.493
REMARK UNBOUND:                -0.493
REMARK SMILES C=CC(C)=CCC=C(C)C
REMARK SMILES IDX 5 1 3 2 4 3 6 4 7 5 9 6 8 7 10 8 2 9 1 10
REMARK H PARENT
REMARK Flexibility Score: inf
ROOT
ATOM      1  C   UNL     1     138.723 141.635 135.247  1.00  0.00    -0.020 C 
ATOM      2  C   UNL     1     138.030 140.840 134.406  1.00  0.00    -0.055 C 
ATOM      3  C   UNL     1     137.068 141.405 133.385  1.00  0.00     0.044 C 
ENDROOT
BRANCH   1   4
ATOM      4  C   UNL     1     138.616 143.137 135.287  1.00  0.00     0.055 C 
BRANCH   4   5
ATOM      5  C   UNL     1     139.933 143.787 134.937  1.00  0.00    -0.024 C 
ATOM      6  C   UNL     1     141.534 144.966 133.491  1.00  0.00     0.039 C 
ATOM      7  C   UNL     1     140.185 144.340 133.732  1.00  0.00    -0.080 C 
ATOM      8  C   UNL     1     139.149 144.344 132.633  1.00  0.00     0.039 C 
ENDBRANCH   4   5
ENDBRANCH   1   4
BRANCH   2   9
ATOM      9  C   UNL     1     138.295 139.379 134.459  1.00  0.00    -0.005 C 
ATOM     10  C   UNL     1     139.010 138.793 135.420  1.00  0.00     0.009 C 
ENDBRANCH   2   9
TORSDOF 3
ENDMDL
MODEL 2
REMARK VINA RESULT:    -4.034      2.917      4.727
REMARK INTER + INTRA:          -5.234
REMARK INTER:                  -4.751
REMARK INTRA:                  -0.484
REMARK UNBOUND:                -0.493
REMARK SMILES C=CC(C)=CCC=C(C)C
REMARK SMILES IDX 5 1 3 2 4 3 6 4 7 5 9 6 8 7 10 8 2 9 1 10
REMARK H PARENT
REMARK Flexibility Score: inf
ROOT
ATOM      1  C   UNL     1     141.616 143.483 135.234  1.00  0.00    -0.020 C 
ATOM      2  C   UNL     1     140.834 144.179 134.384  1.00  0.00    -0.055 C 
ATOM      3  C   UNL     1     141.415 145.154 133.383  1.00  0.00     0.044 C 
ENDROOT
BRANCH   1   4
ATOM      4  C   UNL     1     143.116 143.597 135.305  1.00  0.00     0.055 C 
BRANCH   4   5
ATOM      5  C   UNL     1     143.780 142.287 134.955  1.00  0.00    -0.024 C 
ATOM      6  C   UNL     1     144.966 140.695 133.504  1.00  0.00     0.039 C 
ATOM      7  C   UNL     1     144.324 142.036 133.745  1.00  0.00    -0.080 C 
ATOM      8  C   UNL     1     144.302 143.067 132.641  1.00  0.00     0.039 C 
ENDBRANCH   4   5
ENDBRANCH   1   4
BRANCH   2   9
ATOM      9  C   UNL     1     139.374 143.907 134.405  1.00  0.00    -0.005 C 
ATOM     10  C   UNL     1     138.761 143.244 135.387  1.00  0.00     0.009 C 
ENDBRANCH   2   9
TORSDOF 3
ENDMDL
MODEL 3
REMARK VINA RESULT:    -4.027      4.151      6.691
REMARK INTER + INTRA:          -5.226
REMARK INTER:                  -4.743
REMARK INTRA:                  -0.483
REMARK UNBOUND:                -0.493
REMARK SMILES C=CC(C)=CCC=C(C)C
REMARK SMILES IDX 5 1 3 2 4 3 6 4 7 5 9 6 8 7 10 8 2 9 1 10
REMARK H PARENT
REMARK Flexibility Score: inf
ROOT
ATOM      1  C   UNL     1     143.493 140.604 135.216  1.00  0.00    -0.020 C 
ATOM      2  C   UNL     1     144.187 141.378 134.356  1.00  0.00    -0.055 C 
ATOM      3  C   UNL     1     145.163 140.789 133.362  1.00  0.00     0.044 C 
ENDROOT
BRANCH   1   4
ATOM      4  C   UNL     1     143.612 139.105 135.304  1.00  0.00     0.055 C 
BRANCH   4   5
ATOM      5  C   UNL     1     142.304 138.433 134.962  1.00  0.00    -0.024 C 
ATOM      6  C   UNL     1     140.713 137.234 133.521  1.00  0.00     0.039 C 
ATOM      7  C   UNL     1     142.052 137.885 133.755  1.00  0.00    -0.080 C 
ATOM      8  C   UNL     1     143.077 137.909 132.647  1.00  0.00     0.039 C 
ENDBRANCH   4   5
ENDBRANCH   1   4
BRANCH   2   9
ATOM      9  C   UNL     1     143.909 142.838 134.359  1.00  0.00    -0.005 C 
ATOM     10  C   UNL     1     143.112 143.435 135.246  1.00  0.00     0.009 C 
ENDBRANCH   2   9
TORSDOF 3
ENDMDL
MODEL 4
REMARK VINA RESULT:    -3.993      2.937      4.777
REMARK INTER + INTRA:          -5.186
REMARK INTER:                  -4.704
REMARK INTRA:                  -0.481
REMARK UNBOUND:                -0.493
REMARK SMILES C=CC(C)=CCC=C(C)C
REMARK SMILES IDX 5 1 3 2 4 3 6 4 7 5 9 6 8 7 10 8 2 9 1 10
REMARK H PARENT
REMARK Flexibility Score: inf
ROOT
ATOM      1  C   UNL     1     140.671 138.692 135.271  1.00  0.00    -0.020 C 
ATOM      2  C   UNL     1     141.425 138.008 134.386  1.00  0.00    -0.055 C 
ATOM      3  C   UNL     1     140.813 137.044 133.394  1.00  0.00     0.044 C 
ENDROOT
BRANCH   1   4
ATOM      4  C   UNL     1     139.174 138.574 135.391  1.00  0.00     0.055 C 
BRANCH   4   5
ATOM      5  C   UNL     1     138.496 139.882 135.062  1.00  0.00    -0.024 C 
ATOM      6  C   UNL     1     137.266 141.472 133.646  1.00  0.00     0.039 C 
ATOM      7  C   UNL     1     137.920 140.133 133.868  1.00  0.00    -0.080 C 
ATOM      8  C   UNL     1     137.918 139.106 132.760  1.00  0.00     0.039 C 
ENDBRANCH   4   5
ENDBRANCH   1   4
BRANCH   2   9
ATOM      9  C   UNL     1     142.885 138.283 134.361  1.00  0.00    -0.005 C 
ATOM     10  C   UNL     1     143.456 139.296 135.015  1.00  0.00     0.009 C 
ENDBRANCH   2   9
TORSDOF 3
ENDMDL
MODEL 5
REMARK VINA RESULT:    -3.992      1.234      4.915
REMARK INTER + INTRA:          -5.184
REMARK INTER:                  -4.709
REMARK INTRA:                  -0.475
REMARK UNBOUND:                -0.493
REMARK SMILES C=CC(C)=CCC=C(C)C
REMARK SMILES IDX 5 1 3 2 4 3 6 4 7 5 9 6 8 7 10 8 2 9 1 10
REMARK H PARENT
REMARK Flexibility Score: inf
ROOT
ATOM      1  C   UNL     1     137.961 142.443 132.925  1.00  0.00    -0.020 C 
ATOM      2  C   UNL     1     138.740 143.421 133.430  1.00  0.00    -0.055 C 
ATOM      3  C   UNL     1     139.043 143.516 134.909  1.00  0.00     0.044 C 
ENDROOT
BRANCH   1   4
ATOM      4  C   UNL     1     137.301 141.366 133.745  1.00  0.00     0.055 C 
BRANCH   4   5
ATOM      5  C   UNL     1     138.139 140.111 133.774  1.00  0.00    -0.024 C 
ATOM      6  C   UNL     1     139.443 138.314 134.830  1.00  0.00     0.039 C 
ATOM      7  C   UNL     1     138.620 139.573 134.915  1.00  0.00    -0.080 C 
ATOM      8  C   UNL     1     138.347 140.201 136.261  1.00  0.00     0.039 C 
ENDBRANCH   4   5
ENDBRANCH   1   4
BRANCH   2   9
ATOM      9  C   UNL     1     139.363 144.374 132.475  1.00  0.00    -0.005 C 
ATOM     10  C   UNL     1     138.744 144.840 131.389  1.00  0.00     0.009 C 
ENDBRANCH   2   9
TORSDOF 3
ENDMDL
MODEL 6
REMARK VINA RESULT:    -3.990      3.947      5.210
REMARK INTER + INTRA:          -5.182
REMARK INTER:                  -4.694
REMARK INTRA:                  -0.488
REMARK UNBOUND:                -0.493
REMARK SMILES C=CC(C)=CCC=C(C)C
REMARK SMILES IDX 5 1 3 2 4 3 6 4 7 5 9 6 8 7 10 8 2 9 1 10
REMARK H PARENT
REMARK Flexibility Score: inf
ROOT
ATOM      1  C   UNL     1     139.820 137.874 132.987  1.00  0.00    -0.020 C 
ATOM      2  C   UNL     1     138.830 138.644 133.484  1.00  0.00    -0.055 C 
ATOM      3  C   UNL     1     138.775 139.025 134.947  1.00  0.00     0.044 C 
ENDROOT
BRANCH   1   4
ATOM      4  C   UNL     1     140.949 137.300 133.802  1.00  0.00     0.055 C 
BRANCH   4   5
ATOM      5  C   UNL     1     142.182 138.167 133.712  1.00  0.00    -0.024 C 
ATOM      6  C   UNL     1     143.995 139.578 134.587  1.00  0.00     0.039 C 
ATOM      7  C   UNL     1     142.763 138.734 134.789  1.00  0.00    -0.080 C 
ATOM      8  C   UNL     1     142.209 138.538 136.181  1.00  0.00     0.039 C 
ENDBRANCH   4   5
ENDBRANCH   1   4
BRANCH   2   9
ATOM      9  C   UNL     1     137.822 139.178 132.532  1.00  0.00    -0.005 C 
ATOM     10  C   UNL     1     137.552 138.616 131.353  1.00  0.00     0.009 C 
ENDBRANCH   2   9
TORSDOF 3
ENDMDL
MODEL 7
REMARK VINA RESULT:    -3.987      4.611      5.574
REMARK INTER + INTRA:          -5.179
REMARK INTER:                  -4.697
REMARK INTRA:                  -0.481
REMARK UNBOUND:                -0.493
REMARK SMILES C=CC(C)=CCC=C(C)C
REMARK SMILES IDX 5 1 3 2 4 3 6 4 7 5 9 6 8 7 10 8 2 9 1 10
REMARK H PARENT
REMARK Flexibility Score: inf
ROOT
ATOM      1  C   UNL     1     144.260 139.871 132.905  1.00  0.00    -0.020 C 
ATOM      2  C   UNL     1     143.532 138.860 133.424  1.00  0.00    -0.055 C 
ATOM      3  C   UNL     1     143.244 138.763 134.905  1.00  0.00     0.044 C 
ENDROOT
BRANCH   1   4
ATOM      4  C   UNL     1     144.871 140.986 133.712  1.00  0.00     0.055 C 
BRANCH   4   5
ATOM      5  C   UNL     1     144.010 142.226 133.670  1.00  0.00    -0.024 C 
ATOM      6  C   UNL     1     142.621 144.020 134.617  1.00  0.00     0.039 C 
ATOM      7  C   UNL     1     143.461 142.779 134.772  1.00  0.00    -0.080 C 
ATOM      8  C   UNL     1     143.673 142.184 136.144  1.00  0.00     0.039 C 
ENDBRANCH   4   5
ENDBRANCH   1   4
BRANCH   2   9
ATOM      9  C   UNL     1     142.952 137.870 132.480  1.00  0.00    -0.005 C 
ATOM     10  C   UNL     1     143.602 137.395 131.417  1.00  0.00     0.009 C 
ENDBRANCH   2   9
TORSDOF 3
ENDMDL
MODEL 8
REMARK VINA RESULT:    -3.983      2.162      5.262
REMARK INTER + INTRA:          -5.174
REMARK INTER:                  -4.679
REMARK INTRA:                  -0.495
REMARK UNBOUND:                -0.493
REMARK SMILES C=CC(C)=CCC=C(C)C
REMARK SMILES IDX 5 1 3 2 4 3 6 4 7 5 9 6 8 7 10 8 2 9 1 10
REMARK H PARENT
REMARK Flexibility Score: inf
ROOT
ATOM      1  C   UNL     1     142.274 144.334 132.883  1.00  0.00    -0.020 C 
ATOM      2  C   UNL     1     143.261 143.614 133.453  1.00  0.00    -0.055 C 
ATOM      3  C   UNL     1     143.235 143.247 134.921  1.00  0.00     0.044 C 
ENDROOT
BRANCH   1   4
ATOM      4  C   UNL     1     141.067 144.861 133.614  1.00  0.00     0.055 C 
BRANCH   4   5
ATOM      5  C   UNL     1     139.868 143.968 133.403  1.00  0.00    -0.024 C 
ATOM      6  C   UNL     1     138.028 142.490 134.092  1.00  0.00     0.039 C 
ATOM      7  C   UNL     1     139.217 143.358 134.415  1.00  0.00    -0.080 C 
ATOM      8  C   UNL     1     139.653 143.529 135.851  1.00  0.00     0.039 C 
ENDBRANCH   4   5
ENDBRANCH   1   4
BRANCH   2   9
ATOM      9  C   UNL     1     144.355 143.121 132.577  1.00  0.00    -0.005 C 
ATOM     10  C   UNL     1     144.592 143.599 131.354  1.00  0.00     0.009 C 
ENDBRANCH   2   9
TORSDOF 3
ENDMDL
MODEL 9
REMARK VINA RESULT:    -3.908      1.867      3.575
REMARK INTER + INTRA:          -5.086
REMARK INTER:                  -4.602
REMARK INTRA:                  -0.484
REMARK UNBOUND:                -0.493
REMARK SMILES C=CC(C)=CCC=C(C)C
REMARK SMILES IDX 5 1 3 2 4 3 6 4 7 5 9 6 8 7 10 8 2 9 1 10
REMARK H PARENT
REMARK Flexibility Score: inf
ROOT
ATOM      1  C   UNL     1     139.830 143.925 133.597  1.00  0.00    -0.020 C 
ATOM      2  C   UNL     1     139.208 143.313 134.626  1.00  0.00    -0.055 C 
ATOM      3  C   UNL     1     139.663 143.498 136.056  1.00  0.00     0.044 C 
ENDROOT
BRANCH   1   4
ATOM      4  C   UNL     1     141.027 144.827 133.736  1.00  0.00     0.055 C 
BRANCH   4   5
ATOM      5  C   UNL     1     142.177 144.343 132.886  1.00  0.00    -0.024 C 
ATOM      6  C   UNL     1     144.299 143.183 132.441  1.00  0.00     0.039 C 
ATOM      7  C   UNL     1     143.204 143.620 133.379  1.00  0.00    -0.080 C 
ATOM      8  C   UNL     1     143.274 143.241 134.840  1.00  0.00     0.039 C 
ENDBRANCH   4   5
ENDBRANCH   1   4
BRANCH   2   9
ATOM      9  C   UNL     1     138.003 142.498 134.322  1.00  0.00    -0.005 C 
ATOM     10  C   UNL     1     137.711 142.039 133.104  1.00  0.00     0.009 C 
ENDBRANCH   2   9
TORSDOF 3
ENDMDL
