MODEL 1
REMARK VINA RESULT:    42.504      0.000      0.000
REMARK INTER + INTRA:          49.671
REMARK INTER:                  49.958
REMARK INTRA:                  -0.288
REMARK UNBOUND:                -0.288
REMARK SMILES O=c1cc(-c2ccc(O)c(O)c2)oc2cc(O)cc(O)c12
REMARK SMILES IDX 4 1 3 2 2 3 1 4 21 5 19 6 18 7 16 8 15 9 14 10 13 11 5 12
REMARK SMILES IDX 6 13 7 14 8 15 12 16 10 17 9 18 11 20 20 22 17 24
REMARK H PARENT 9 19 11 21 20 23 17 25
REMARK Flexibility Score: inf
ROOT
ATOM      1  C   UNL     1       1.454  -1.317   0.409  1.00  0.00     0.138 A 
ATOM      2  C   UNL     1       1.148  -0.521   1.521  1.00  0.00     0.100 A 
ATOM      3  C   UNL     1       2.173  -0.097   2.369  1.00  0.00     0.197 A 
ATOM      4  O   UNL     1       1.876   0.668   3.324  1.00  0.00    -0.289 OA
ATOM      5  C   UNL     1       3.506  -0.501   2.119  1.00  0.00     0.107 A 
ATOM      6  C   UNL     1       4.625  -0.164   2.938  1.00  0.00     0.134 A 
ATOM      7  C   UNL     1       5.914  -0.523   2.525  1.00  0.00     0.093 A 
ATOM      8  C   UNL     1       6.118  -1.257   1.355  1.00  0.00     0.123 A 
ATOM      9  C   UNL     1       5.028  -1.638   0.576  1.00  0.00     0.094 A 
ATOM     10  C   UNL     1       3.733  -1.265   0.943  1.00  0.00     0.146 A 
ATOM     11  O   UNL     1       2.721  -1.636   0.165  1.00  0.00    -0.456 OA
ENDROOT
BRANCH   1  12
ATOM     12  C   UNL     1       0.403  -1.795  -0.525  1.00  0.00     0.021 A 
ATOM     13  C   UNL     1       0.683  -2.067  -1.877  1.00  0.00     0.016 A 
ATOM     14  C   UNL     1      -0.328  -2.505  -2.736  1.00  0.00     0.051 A 
ATOM     15  C   UNL     1      -1.636  -2.672  -2.263  1.00  0.00     0.157 A 
ATOM     16  C   UNL     1      -0.915  -1.951  -0.061  1.00  0.00     0.062 A 
ATOM     17  C   UNL     1      -1.930  -2.391  -0.919  1.00  0.00     0.158 A 
BRANCH  15  18
ATOM     18  O   UNL     1      -2.641  -3.111  -3.122  1.00  0.00    -0.504 OA
ATOM     19  H   UNL     1      -2.454  -3.320  -4.096  1.00  0.00     0.293 HD
ENDBRANCH  15  18
BRANCH  17  20
ATOM     20  O   UNL     1      -3.222  -2.543  -0.418  1.00  0.00    -0.504 OA
ATOM     21  H   UNL     1      -3.812  -3.325  -0.676  1.00  0.00     0.293 HD
ENDBRANCH  17  20
ENDBRANCH   1  12
BRANCH   6  22
ATOM     22  O   UNL     1       4.523   0.495   4.167  1.00  0.00    -0.507 OA
ATOM     23  H   UNL     1       3.667   0.855   4.558  1.00  0.00     0.293 HD
ENDBRANCH   6  22
BRANCH   8  24
ATOM     24  O   UNL     1       7.404  -1.623   0.961  1.00  0.00    -0.508 OA
ATOM     25  H   UNL     1       7.862  -2.444   1.339  1.00  0.00     0.293 HD
ENDBRANCH   8  24
TORSDOF 5
ENDMDL
MODEL 2
REMARK VINA RESULT:    42.979      0.882      1.548
REMARK INTER + INTRA:          50.229
REMARK INTER:                  50.546
REMARK INTRA:                  -0.317
REMARK UNBOUND:                -0.288
REMARK SMILES O=c1cc(-c2ccc(O)c(O)c2)oc2cc(O)cc(O)c12
REMARK SMILES IDX 4 1 3 2 2 3 1 4 21 5 19 6 18 7 16 8 15 9 14 10 13 11 5 12
REMARK SMILES IDX 6 13 7 14 8 15 12 16 10 17 9 18 11 20 20 22 17 24
REMARK H PARENT 9 19 11 21 20 23 17 25
REMARK Flexibility Score: inf
ROOT
ATOM      1  C   UNL     1       1.560  -1.233   0.815  1.00  0.00     0.138 A 
ATOM      2  C   UNL     1       1.568  -0.463   1.986  1.00  0.00     0.100 A 
ATOM      3  C   UNL     1       2.779  -0.189   2.622  1.00  0.00     0.197 A 
ATOM      4  O   UNL     1       2.763   0.557   3.637  1.00  0.00    -0.289 OA
ATOM      5  C   UNL     1       3.984  -0.716   2.100  1.00  0.00     0.107 A 
ATOM      6  C   UNL     1       5.273  -0.536   2.687  1.00  0.00     0.134 A 
ATOM      7  C   UNL     1       6.408  -1.007   2.016  1.00  0.00     0.093 A 
ATOM      8  C   UNL     1       6.296  -1.703   0.810  1.00  0.00     0.123 A 
ATOM      9  C   UNL     1       5.038  -1.931   0.256  1.00  0.00     0.094 A 
ATOM     10  C   UNL     1       3.890  -1.444   0.884  1.00  0.00     0.146 A 
ATOM     11  O   UNL     1       2.710  -1.670   0.315  1.00  0.00    -0.456 OA
ENDROOT
BRANCH   1  12
ATOM     12  C   UNL     1       0.299  -1.555   0.098  1.00  0.00     0.021 A 
ATOM     13  C   UNL     1      -0.962  -1.290   0.665  1.00  0.00     0.016 A 
ATOM     14  C   UNL     1      -2.131  -1.614  -0.028  1.00  0.00     0.051 A 
ATOM     15  C   UNL     1      -2.064  -2.214  -1.292  1.00  0.00     0.157 A 
ATOM     16  C   UNL     1       0.359  -2.169  -1.164  1.00  0.00     0.062 A 
ATOM     17  C   UNL     1      -0.811  -2.494  -1.861  1.00  0.00     0.158 A 
BRANCH  15  18
ATOM     18  O   UNL     1      -3.233  -2.532  -1.980  1.00  0.00    -0.504 OA
ATOM     19  H   UNL     1      -3.488  -3.493  -2.178  1.00  0.00     0.293 HD
ENDBRANCH  15  18
BRANCH  17  20
ATOM     20  O   UNL     1      -0.709  -3.093  -3.116  1.00  0.00    -0.504 OA
ATOM     21  H   UNL     1      -0.457  -4.069  -3.228  1.00  0.00     0.293 HD
ENDBRANCH  17  20
ENDBRANCH   1  12
BRANCH   6  22
ATOM     22  O   UNL     1       5.488   0.071   3.928  1.00  0.00    -0.507 OA
ATOM     23  H   UNL     1       6.343   0.010   4.458  1.00  0.00     0.293 HD
ENDBRANCH   6  22
BRANCH   8  24
ATOM     24  O   UNL     1       7.431  -2.181   0.158  1.00  0.00    -0.508 OA
ATOM     25  H   UNL     1       8.097  -2.784   0.626  1.00  0.00     0.293 HD
ENDBRANCH   8  24
TORSDOF 5
ENDMDL
MODEL 3
REMARK VINA RESULT:    43.229      1.845      7.054
REMARK INTER + INTRA:          50.523
REMARK INTER:                  50.797
REMARK INTRA:                  -0.274
REMARK UNBOUND:                -0.288
REMARK SMILES O=c1cc(-c2ccc(O)c(O)c2)oc2cc(O)cc(O)c12
REMARK SMILES IDX 4 1 3 2 2 3 1 4 21 5 19 6 18 7 16 8 15 9 14 10 13 11 5 12
REMARK SMILES IDX 6 13 7 14 8 15 12 16 10 17 9 18 11 20 20 22 17 24
REMARK H PARENT 9 19 11 21 20 23 17 25
REMARK Flexibility Score: inf
ROOT
ATOM      1  C   UNL     1       2.284  -1.441   0.473  1.00  0.00     0.138 A 
ATOM      2  C   UNL     1       1.794  -2.192  -0.605  1.00  0.00     0.100 A 
ATOM      3  C   UNL     1       0.417  -2.272  -0.819  1.00  0.00     0.197 A 
ATOM      4  O   UNL     1       0.009  -2.901  -1.830  1.00  0.00    -0.289 OA
ATOM      5  C   UNL     1      -0.473  -1.624   0.070  1.00  0.00     0.107 A 
ATOM      6  C   UNL     1      -1.896  -1.672  -0.026  1.00  0.00     0.134 A 
ATOM      7  C   UNL     1      -2.672  -0.894   0.844  1.00  0.00     0.093 A 
ATOM      8  C   UNL     1      -2.078  -0.120   1.843  1.00  0.00     0.123 A 
ATOM      9  C   UNL     1      -0.692  -0.109   1.979  1.00  0.00     0.094 A 
ATOM     10  C   UNL     1       0.110  -0.847   1.106  1.00  0.00     0.146 A 
ATOM     11  O   UNL     1       1.429  -0.797   1.261  1.00  0.00    -0.456 OA
ENDROOT
BRANCH   1  12
ATOM     12  C   UNL     1       3.739  -1.322   0.747  1.00  0.00     0.021 A 
ATOM     13  C   UNL     1       4.617  -0.713  -0.170  1.00  0.00     0.016 A 
ATOM     14  C   UNL     1       5.983  -0.626   0.110  1.00  0.00     0.051 A 
ATOM     15  C   UNL     1       6.498  -1.150   1.302  1.00  0.00     0.157 A 
ATOM     16  C   UNL     1       4.265  -1.859   1.935  1.00  0.00     0.062 A 
ATOM     17  C   UNL     1       5.633  -1.771   2.218  1.00  0.00     0.158 A 
BRANCH  15  18
ATOM     18  O   UNL     1       7.861  -1.058   1.577  1.00  0.00    -0.504 OA
ATOM     19  H   UNL     1       8.281  -0.193   1.898  1.00  0.00     0.293 HD
ENDBRANCH  15  18
BRANCH  17  20
ATOM     20  O   UNL     1       6.114  -2.307   3.412  1.00  0.00    -0.504 OA
ATOM     21  H   UNL     1       5.709  -2.070   4.310  1.00  0.00     0.293 HD
ENDBRANCH  17  20
ENDBRANCH   1  12
BRANCH   6  22
ATOM     22  O   UNL     1      -2.592  -2.477  -0.933  1.00  0.00    -0.507 OA
ATOM     23  H   UNL     1      -2.721  -3.472  -0.838  1.00  0.00     0.293 HD
ENDBRANCH   6  22
BRANCH   8  24
ATOM     24  O   UNL     1      -2.860   0.638   2.712  1.00  0.00    -0.508 OA
ATOM     25  H   UNL     1      -2.566   1.556   3.027  1.00  0.00     0.293 HD
ENDBRANCH   8  24
TORSDOF 5
ENDMDL
MODEL 4
REMARK VINA RESULT:    44.088      1.496      7.353
REMARK INTER + INTRA:          51.533
REMARK INTER:                  51.823
REMARK INTRA:                  -0.290
REMARK UNBOUND:                -0.288
REMARK SMILES O=c1cc(-c2ccc(O)c(O)c2)oc2cc(O)cc(O)c12
REMARK SMILES IDX 4 1 3 2 2 3 1 4 21 5 19 6 18 7 16 8 15 9 14 10 13 11 5 12
REMARK SMILES IDX 6 13 7 14 8 15 12 16 10 17 9 18 11 20 20 22 17 24
REMARK H PARENT 9 19 11 21 20 23 17 25
REMARK Flexibility Score: inf
ROOT
ATOM      1  C   UNL     1       2.049  -1.475   0.050  1.00  0.00     0.138 A 
ATOM      2  C   UNL     1       1.967  -1.835  -1.303  1.00  0.00     0.100 A 
ATOM      3  C   UNL     1       0.715  -2.012  -1.894  1.00  0.00     0.197 A 
ATOM      4  O   UNL     1       0.671  -2.273  -3.125  1.00  0.00    -0.289 OA
ATOM      5  C   UNL     1      -0.458  -1.860  -1.118  1.00  0.00     0.107 A 
ATOM      6  C   UNL     1      -1.786  -2.056  -1.603  1.00  0.00     0.134 A 
ATOM      7  C   UNL     1      -2.875  -1.762  -0.773  1.00  0.00     0.093 A 
ATOM      8  C   UNL     1      -2.683  -1.338   0.544  1.00  0.00     0.123 A 
ATOM      9  C   UNL     1      -1.391  -1.195   1.045  1.00  0.00     0.094 A 
ATOM     10  C   UNL     1      -0.284  -1.447   0.230  1.00  0.00     0.146 A 
ATOM     11  O   UNL     1       0.931  -1.285   0.742  1.00  0.00    -0.456 OA
ENDROOT
BRANCH   1  12
ATOM     12  C   UNL     1       3.355  -1.274   0.728  1.00  0.00     0.021 A 
ATOM     13  C   UNL     1       3.470  -0.491   1.892  1.00  0.00     0.016 A 
ATOM     14  C   UNL     1       4.714  -0.310   2.503  1.00  0.00     0.051 A 
ATOM     15  C   UNL     1       5.863  -0.899   1.960  1.00  0.00     0.157 A 
ATOM     16  C   UNL     1       4.514  -1.850   0.181  1.00  0.00     0.062 A 
ATOM     17  C   UNL     1       5.761  -1.672   0.792  1.00  0.00     0.158 A 
BRANCH  15  18
ATOM     18  O   UNL     1       7.100  -0.718   2.574  1.00  0.00    -0.504 OA
ATOM     19  H   UNL     1       7.858  -1.380   2.449  1.00  0.00     0.293 HD
ENDBRANCH  15  18
BRANCH  17  20
ATOM     20  O   UNL     1       6.886  -2.268   0.224  1.00  0.00    -0.504 OA
ATOM     21  H   UNL     1       6.814  -3.031  -0.439  1.00  0.00     0.293 HD
ENDBRANCH  17  20
ENDBRANCH   1  12
BRANCH   6  22
ATOM     22  O   UNL     1      -2.087  -2.556  -2.874  1.00  0.00    -0.507 OA
ATOM     23  H   UNL     1      -2.607  -2.060  -3.580  1.00  0.00     0.293 HD
ENDBRANCH   6  22
BRANCH   8  24
ATOM     24  O   UNL     1      -3.773  -1.063   1.368  1.00  0.00    -0.508 OA
ATOM     25  H   UNL     1      -4.617  -1.623   1.335  1.00  0.00     0.293 HD
ENDBRANCH   8  24
TORSDOF 5
ENDMDL
