MODEL 1
REMARK VINA RESULT:    -3.596      0.000      0.000
REMARK INTER + INTRA:          -8.277
REMARK INTER:                  -6.538
REMARK INTRA:                  -1.738
REMARK UNBOUND:                -1.738
REMARK SMILES CCCCCCCCCCCCCC[C@H](C)C(=O)[O-]
REMARK SMILES IDX 9 1 10 2 11 3 12 4 13 5 14 6 15 7 16 8 17 9 18 10 19 11 8 12
REMARK SMILES IDX 7 13 6 14 5 15 4 16 3 17 2 18 1 19
REMARK H PARENT
REMARK Flexibility Score: inf
ROOT
ATOM      1  C   UNL     1      24.842  61.668  77.415  1.00  0.00     0.000 C 
ENDROOT
BRANCH   1   2
ATOM      2  C   UNL     1      26.149  61.124  76.818  1.00  0.00     0.000 C 
BRANCH   2   3
ATOM      3  C   UNL     1      27.341  61.433  77.737  1.00  0.00     0.000 C 
BRANCH   3   4
ATOM      4  C   UNL     1      27.725  60.245  78.635  1.00  0.00     0.000 C 
BRANCH   4   5
ATOM      5  C   UNL     1      27.951  60.595  80.120  1.00  0.00     0.001 C 
BRANCH   5   6
ATOM      6  C   UNL     1      27.148  61.804  80.639  1.00  0.00     0.009 C 
BRANCH   6   7
ATOM      7  C   UNL     1      25.940  61.432  81.530  1.00  0.00     0.032 C 
ATOM      8  C   UNL     1      24.717  62.275  81.154  1.00  0.00     0.014 C 
BRANCH   7   9
ATOM      9  C   UNL     1      26.254  61.607  82.992  1.00  0.00     0.044 C 
ATOM     10  O   UNL     1      27.448  61.613  83.394  1.00  0.00    -0.550 OA
ATOM     11  O   UNL     1      25.222  61.763  83.908  1.00  0.00    -0.550 OA
ENDBRANCH   7   9
ENDBRANCH   6   7
ENDBRANCH   5   6
ENDBRANCH   4   5
ENDBRANCH   3   4
ENDBRANCH   2   3
ENDBRANCH   1   2
BRANCH   1  12
ATOM     12  C   UNL     1      24.882  63.187  77.655  1.00  0.00     0.000 C 
BRANCH  12  13
ATOM     13  C   UNL     1      24.026  64.022  76.682  1.00  0.00    -0.000 C 
BRANCH  13  14
ATOM     14  C   UNL     1      24.715  64.391  75.353  1.00  0.00    -0.000 C 
BRANCH  14  15
ATOM     15  C   UNL     1      26.247  64.499  75.424  1.00  0.00    -0.000 C 
BRANCH  15  16
ATOM     16  C   UNL     1      26.756  65.929  75.188  1.00  0.00    -0.000 C 
BRANCH  16  17
ATOM     17  C   UNL     1      25.590  66.922  75.113  1.00  0.00    -0.000 C 
BRANCH  17  18
ATOM     18  C   UNL     1      25.667  67.949  76.249  1.00  0.00    -0.003 C 
ATOM     19  C   UNL     1      24.281  68.474  76.611  1.00  0.00     0.004 C 
ENDBRANCH  17  18
ENDBRANCH  16  17
ENDBRANCH  15  16
ENDBRANCH  14  15
ENDBRANCH  13  14
ENDBRANCH  12  13
ENDBRANCH   1  12
TORSDOF 14
ENDMDL
MODEL 2
REMARK VINA RESULT:    -3.514      4.567      7.575
REMARK INTER + INTRA:          -8.129
REMARK INTER:                  -5.813
REMARK INTRA:                  -2.316
REMARK UNBOUND:                -1.738
REMARK SMILES CCCCCCCCCCCCCC[C@H](C)C(=O)[O-]
REMARK SMILES IDX 9 1 10 2 11 3 12 4 13 5 14 6 15 7 16 8 17 9 18 10 19 11 8 12
REMARK SMILES IDX 7 13 6 14 5 15 4 16 3 17 2 18 1 19
REMARK H PARENT
REMARK Flexibility Score: inf
ROOT
ATOM      1  C   UNL     1      29.684  58.818  82.435  1.00  0.00     0.000 C 
ENDROOT
BRANCH   1   2
ATOM      2  C   UNL     1      30.892  57.881  82.586  1.00  0.00     0.000 C 
BRANCH   2   3
ATOM      3  C   UNL     1      31.097  57.485  84.056  1.00  0.00     0.000 C 
BRANCH   3   4
ATOM      4  C   UNL     1      29.830  57.675  84.908  1.00  0.00     0.000 C 
BRANCH   4   5
ATOM      5  C   UNL     1      29.976  58.662  86.084  1.00  0.00     0.001 C 
BRANCH   5   6
ATOM      6  C   UNL     1      28.789  58.693  87.067  1.00  0.00     0.009 C 
BRANCH   6   7
ATOM      7  C   UNL     1      27.723  59.764  86.744  1.00  0.00     0.032 C 
ATOM      8  C   UNL     1      28.086  61.098  87.406  1.00  0.00     0.014 C 
BRANCH   7   9
ATOM      9  C   UNL     1      26.350  59.330  87.184  1.00  0.00     0.044 C 
ATOM     10  O   UNL     1      25.372  59.397  86.392  1.00  0.00    -0.550 OA
ATOM     11  O   UNL     1      26.155  58.853  88.474  1.00  0.00    -0.550 OA
ENDBRANCH   7   9
ENDBRANCH   6   7
ENDBRANCH   5   6
ENDBRANCH   4   5
ENDBRANCH   3   4
ENDBRANCH   2   3
ENDBRANCH   1   2
BRANCH   1  12
ATOM     12  C   UNL     1      28.762  58.421  81.269  1.00  0.00     0.000 C 
BRANCH  12  13
ATOM     13  C   UNL     1      27.274  58.264  81.640  1.00  0.00    -0.000 C 
BRANCH  13  14
ATOM     14  C   UNL     1      26.893  58.760  83.049  1.00  0.00    -0.000 C 
BRANCH  14  15
ATOM     15  C   UNL     1      26.136  60.098  83.083  1.00  0.00    -0.000 C 
BRANCH  15  16
ATOM     16  C   UNL     1      27.016  61.271  83.540  1.00  0.00    -0.000 C 
BRANCH  16  17
ATOM     17  C   UNL     1      27.705  61.940  82.344  1.00  0.00    -0.000 C 
BRANCH  17  18
ATOM     18  C   UNL     1      26.756  62.036  81.144  1.00  0.00    -0.003 C 
ATOM     19  C   UNL     1      27.450  61.601  79.857  1.00  0.00     0.004 C 
ENDBRANCH  17  18
ENDBRANCH  16  17
ENDBRANCH  15  16
ENDBRANCH  14  15
ENDBRANCH  13  14
ENDBRANCH  12  13
ENDBRANCH   1  12
TORSDOF 14
ENDMDL
MODEL 3
REMARK VINA RESULT:    -3.501      4.676      8.101
REMARK INTER + INTRA:          -8.104
REMARK INTER:                  -6.750
REMARK INTRA:                  -1.355
REMARK UNBOUND:                -1.738
REMARK SMILES CCCCCCCCCCCCCC[C@H](C)C(=O)[O-]
REMARK SMILES IDX 9 1 10 2 11 3 12 4 13 5 14 6 15 7 16 8 17 9 18 10 19 11 8 12
REMARK SMILES IDX 7 13 6 14 5 15 4 16 3 17 2 18 1 19
REMARK H PARENT
REMARK Flexibility Score: inf
ROOT
ATOM      1  C   UNL     1      31.232  56.911  83.161  1.00  0.00     0.000 C 
ENDROOT
BRANCH   1   2
ATOM      2  C   UNL     1      31.990  56.970  84.495  1.00  0.00     0.000 C 
BRANCH   2   3
ATOM      3  C   UNL     1      31.201  57.774  85.539  1.00  0.00     0.000 C 
BRANCH   3   4
ATOM      4  C   UNL     1      30.427  56.879  86.522  1.00  0.00     0.000 C 
BRANCH   4   5
ATOM      5  C   UNL     1      29.148  57.508  87.110  1.00  0.00     0.001 C 
BRANCH   5   6
ATOM      6  C   UNL     1      28.861  58.954  86.660  1.00  0.00     0.009 C 
BRANCH   6   7
ATOM      7  C   UNL     1      28.009  59.774  87.656  1.00  0.00     0.032 C 
ATOM      8  C   UNL     1      26.646  59.109  87.868  1.00  0.00     0.014 C 
BRANCH   7   9
ATOM      9  C   UNL     1      27.821  61.193  87.188  1.00  0.00     0.044 C 
ATOM     10  O   UNL     1      28.137  62.160  87.931  1.00  0.00    -0.550 OA
ATOM     11  O   UNL     1      27.293  61.441  85.927  1.00  0.00    -0.550 OA
ENDBRANCH   7   9
ENDBRANCH   6   7
ENDBRANCH   5   6
ENDBRANCH   4   5
ENDBRANCH   3   4
ENDBRANCH   2   3
ENDBRANCH   1   2
BRANCH   1  12
ATOM     12  C   UNL     1      30.038  57.881  83.110  1.00  0.00     0.000 C 
BRANCH  12  13
ATOM     13  C   UNL     1      30.228  59.097  82.182  1.00  0.00    -0.000 C 
BRANCH  13  14
ATOM     14  C   UNL     1      30.549  58.758  80.713  1.00  0.00    -0.000 C 
BRANCH  14  15
ATOM     15  C   UNL     1      29.430  59.091  79.711  1.00  0.00    -0.000 C 
BRANCH  15  16
ATOM     16  C   UNL     1      28.183  59.683  80.384  1.00  0.00    -0.000 C 
BRANCH  16  17
ATOM     17  C   UNL     1      27.819  61.041  79.771  1.00  0.00    -0.000 C 
BRANCH  17  18
ATOM     18  C   UNL     1      27.257  61.992  80.834  1.00  0.00    -0.003 C 
ATOM     19  C   UNL     1      27.404  61.403  82.233  1.00  0.00     0.004 C 
ENDBRANCH  17  18
ENDBRANCH  16  17
ENDBRANCH  15  16
ENDBRANCH  14  15
ENDBRANCH  13  14
ENDBRANCH  12  13
ENDBRANCH   1  12
TORSDOF 14
ENDMDL
MODEL 4
REMARK VINA RESULT:    -3.493      3.966      6.911
REMARK INTER + INTRA:          -8.090
REMARK INTER:                  -6.096
REMARK INTRA:                  -1.994
REMARK UNBOUND:                -1.738
REMARK SMILES CCCCCCCCCCCCCC[C@H](C)C(=O)[O-]
REMARK SMILES IDX 9 1 10 2 11 3 12 4 13 5 14 6 15 7 16 8 17 9 18 10 19 11 8 12
REMARK SMILES IDX 7 13 6 14 5 15 4 16 3 17 2 18 1 19
REMARK H PARENT
REMARK Flexibility Score: inf
ROOT
ATOM      1  C   UNL     1      27.051  58.935  82.704  1.00  0.00     0.000 C 
ENDROOT
BRANCH   1   2
ATOM      2  C   UNL     1      25.858  59.292  83.603  1.00  0.00     0.000 C 
BRANCH   2   3
ATOM      3  C   UNL     1      25.756  58.321  84.789  1.00  0.00     0.000 C 
BRANCH   3   4
ATOM      4  C   UNL     1      26.977  57.393  84.907  1.00  0.00     0.000 C 
BRANCH   4   5
ATOM      5  C   UNL     1      27.822  57.583  86.183  1.00  0.00     0.001 C 
BRANCH   5   6
ATOM      6  C   UNL     1      28.560  58.933  86.286  1.00  0.00     0.009 C 
BRANCH   6   7
ATOM      7  C   UNL     1      28.171  59.779  87.520  1.00  0.00     0.032 C 
ATOM      8  C   UNL     1      26.995  59.134  88.262  1.00  0.00     0.014 C 
BRANCH   7   9
ATOM      9  C   UNL     1      27.822  61.192  87.135  1.00  0.00     0.044 C 
ATOM     10  O   UNL     1      27.284  61.439  86.022  1.00  0.00    -0.550 OA
ATOM     11  O   UNL     1      28.094  62.235  88.011  1.00  0.00    -0.550 OA
ENDBRANCH   7   9
ENDBRANCH   6   7
ENDBRANCH   5   6
ENDBRANCH   4   5
ENDBRANCH   3   4
ENDBRANCH   2   3
ENDBRANCH   1   2
BRANCH   1  12
ATOM     12  C   UNL     1      28.038  60.103  82.531  1.00  0.00     0.000 C 
BRANCH  12  13
ATOM     13  C   UNL     1      27.394  61.504  82.529  1.00  0.00    -0.000 C 
BRANCH  13  14
ATOM     14  C   UNL     1      27.259  62.162  81.142  1.00  0.00    -0.000 C 
BRANCH  14  15
ATOM     15  C   UNL     1      26.285  61.458  80.182  1.00  0.00    -0.000 C 
BRANCH  15  16
ATOM     16  C   UNL     1      26.795  61.423  78.734  1.00  0.00    -0.000 C 
BRANCH  16  17
ATOM     17  C   UNL     1      28.319  61.258  78.692  1.00  0.00    -0.000 C 
BRANCH  17  18
ATOM     18  C   UNL     1      28.709  59.835  78.277  1.00  0.00    -0.003 C 
ATOM     19  C   UNL     1      29.485  59.131  79.386  1.00  0.00     0.004 C 
ENDBRANCH  17  18
ENDBRANCH  16  17
ENDBRANCH  15  16
ENDBRANCH  14  15
ENDBRANCH  13  14
ENDBRANCH  12  13
ENDBRANCH   1  12
TORSDOF 14
ENDMDL
MODEL 5
REMARK VINA RESULT:    -3.477      4.439      8.235
REMARK INTER + INTRA:          -8.062
REMARK INTER:                  -6.103
REMARK INTRA:                  -1.959
REMARK UNBOUND:                -1.738
REMARK SMILES CCCCCCCCCCCCCC[C@H](C)C(=O)[O-]
REMARK SMILES IDX 9 1 10 2 11 3 12 4 13 5 14 6 15 7 16 8 17 9 18 10 19 11 8 12
REMARK SMILES IDX 7 13 6 14 5 15 4 16 3 17 2 18 1 19
REMARK H PARENT
REMARK Flexibility Score: inf
ROOT
ATOM      1  C   UNL     1      27.610  61.857  82.022  1.00  0.00     0.000 C 
ENDROOT
BRANCH   1   2
ATOM      2  C   UNL     1      26.304  62.126  81.259  1.00  0.00     0.000 C 
BRANCH   2   3
ATOM      3  C   UNL     1      26.368  61.540  79.841  1.00  0.00     0.000 C 
BRANCH   3   4
ATOM      4  C   UNL     1      27.806  61.246  79.381  1.00  0.00     0.000 C 
BRANCH   4   5
ATOM      5  C   UNL     1      28.114  59.759  79.113  1.00  0.00     0.001 C 
BRANCH   5   6
ATOM      6  C   UNL     1      29.536  59.303  79.498  1.00  0.00     0.009 C 
BRANCH   6   7
ATOM      7  C   UNL     1      29.588  58.300  80.673  1.00  0.00     0.032 C 
ATOM      8  C   UNL     1      28.209  58.172  81.328  1.00  0.00     0.014 C 
BRANCH   7   9
ATOM      9  C   UNL     1      30.609  58.705  81.703  1.00  0.00     0.044 C 
ATOM     10  O   UNL     1      31.840  58.649  81.440  1.00  0.00    -0.550 OA
ATOM     11  O   UNL     1      30.195  59.142  82.954  1.00  0.00    -0.550 OA
ENDBRANCH   7   9
ENDBRANCH   6   7
ENDBRANCH   5   6
ENDBRANCH   4   5
ENDBRANCH   3   4
ENDBRANCH   2   3
ENDBRANCH   1   2
BRANCH   1  12
ATOM     12  C   UNL     1      27.377  61.180  83.385  1.00  0.00     0.000 C 
BRANCH  12  13
ATOM     13  C   UNL     1      25.951  61.332  83.951  1.00  0.00    -0.000 C 
BRANCH  13  14
ATOM     14  C   UNL     1      25.481  60.183  84.865  1.00  0.00    -0.000 C 
BRANCH  14  15
ATOM     15  C   UNL     1      26.223  58.850  84.665  1.00  0.00    -0.000 C 
BRANCH  15  16
ATOM     16  C   UNL     1      27.033  58.427  85.899  1.00  0.00    -0.000 C 
BRANCH  16  17
ATOM     17  C   UNL     1      26.928  59.477  87.012  1.00  0.00    -0.000 C 
BRANCH  17  18
ATOM     18  C   UNL     1      28.266  60.196  87.219  1.00  0.00    -0.003 C 
ATOM     19  C   UNL     1      28.053  61.666  87.568  1.00  0.00     0.004 C 
ENDBRANCH  17  18
ENDBRANCH  16  17
ENDBRANCH  15  16
ENDBRANCH  14  15
ENDBRANCH  13  14
ENDBRANCH  12  13
ENDBRANCH   1  12
TORSDOF 14
ENDMDL
MODEL 6
REMARK VINA RESULT:    -3.476      4.647      7.135
REMARK INTER + INTRA:          -8.059
REMARK INTER:                  -6.205
REMARK INTRA:                  -1.854
REMARK UNBOUND:                -1.738
REMARK SMILES CCCCCCCCCCCCCC[C@H](C)C(=O)[O-]
REMARK SMILES IDX 9 1 10 2 11 3 12 4 13 5 14 6 15 7 16 8 17 9 18 10 19 11 8 12
REMARK SMILES IDX 7 13 6 14 5 15 4 16 3 17 2 18 1 19
REMARK H PARENT
REMARK Flexibility Score: inf
ROOT
ATOM      1  C   UNL     1      30.763  58.287  81.551  1.00  0.00     0.000 C 
ENDROOT
BRANCH   1   2
ATOM      2  C   UNL     1      30.069  59.128  82.633  1.00  0.00     0.000 C 
BRANCH   2   3
ATOM      3  C   UNL     1      30.256  58.499  84.021  1.00  0.00     0.000 C 
BRANCH   3   4
ATOM      4  C   UNL     1      29.182  57.448  84.350  1.00  0.00     0.000 C 
BRANCH   4   5
ATOM      5  C   UNL     1      28.209  57.841  85.481  1.00  0.00     0.001 C 
BRANCH   5   6
ATOM      6  C   UNL     1      28.659  59.034  86.349  1.00  0.00     0.009 C 
BRANCH   6   7
ATOM      7  C   UNL     1      27.512  59.980  86.774  1.00  0.00     0.032 C 
ATOM      8  C   UNL     1      28.076  61.234  87.450  1.00  0.00     0.014 C 
BRANCH   7   9
ATOM      9  C   UNL     1      26.540  59.293  87.695  1.00  0.00     0.044 C 
ATOM     10  O   UNL     1      25.362  59.049  87.317  1.00  0.00    -0.550 OA
ATOM     11  O   UNL     1      26.939  58.926  88.974  1.00  0.00    -0.550 OA
ENDBRANCH   7   9
ENDBRANCH   6   7
ENDBRANCH   5   6
ENDBRANCH   4   5
ENDBRANCH   3   4
ENDBRANCH   2   3
ENDBRANCH   1   2
BRANCH   1  12
ATOM     12  C   UNL     1      29.802  57.834  80.439  1.00  0.00     0.000 C 
BRANCH  12  13
ATOM     13  C   UNL     1      28.623  58.790  80.169  1.00  0.00    -0.000 C 
BRANCH  13  14
ATOM     14  C   UNL     1      28.854  59.814  79.039  1.00  0.00    -0.000 C 
BRANCH  14  15
ATOM     15  C   UNL     1      28.159  61.171  79.242  1.00  0.00    -0.000 C 
BRANCH  15  16
ATOM     16  C   UNL     1      26.842  61.056  80.024  1.00  0.00    -0.000 C 
BRANCH  16  17
ATOM     17  C   UNL     1      26.751  62.137  81.108  1.00  0.00    -0.000 C 
BRANCH  17  18
ATOM     18  C   UNL     1      27.574  61.752  82.342  1.00  0.00    -0.003 C 
ATOM     19  C   UNL     1      26.780  60.836  83.269  1.00  0.00     0.004 C 
ENDBRANCH  17  18
ENDBRANCH  16  17
ENDBRANCH  15  16
ENDBRANCH  14  15
ENDBRANCH  13  14
ENDBRANCH  12  13
ENDBRANCH   1  12
TORSDOF 14
ENDMDL
MODEL 7
REMARK VINA RESULT:    -3.464      2.411      3.709
REMARK INTER + INTRA:          -8.037
REMARK INTER:                  -7.233
REMARK INTRA:                  -0.804
REMARK UNBOUND:                -1.738
REMARK SMILES CCCCCCCCCCCCCC[C@H](C)C(=O)[O-]
REMARK SMILES IDX 9 1 10 2 11 3 12 4 13 5 14 6 15 7 16 8 17 9 18 10 19 11 8 12
REMARK SMILES IDX 7 13 6 14 5 15 4 16 3 17 2 18 1 19
REMARK H PARENT
REMARK Flexibility Score: inf
ROOT
ATOM      1  C   UNL     1      25.063  62.922  79.896  1.00  0.00     0.000 C 
ENDROOT
BRANCH   1   2
ATOM      2  C   UNL     1      25.549  62.112  81.108  1.00  0.00     0.000 C 
BRANCH   2   3
ATOM      3  C   UNL     1      27.082  62.115  81.189  1.00  0.00     0.000 C 
BRANCH   3   4
ATOM      4  C   UNL     1      27.606  61.750  82.589  1.00  0.00     0.000 C 
BRANCH   4   5
ATOM      5  C   UNL     1      26.539  61.223  83.569  1.00  0.00     0.001 C 
BRANCH   5   6
ATOM      6  C   UNL     1      26.878  61.392  85.063  1.00  0.00     0.009 C 
BRANCH   6   7
ATOM      7  C   UNL     1      27.057  60.062  85.831  1.00  0.00     0.032 C 
ATOM      8  C   UNL     1      25.695  59.428  86.127  1.00  0.00     0.014 C 
BRANCH   7   9
ATOM      9  C   UNL     1      27.821  60.261  87.113  1.00  0.00     0.044 C 
ATOM     10  O   UNL     1      28.105  59.277  87.848  1.00  0.00    -0.550 OA
ATOM     11  O   UNL     1      28.215  61.537  87.494  1.00  0.00    -0.550 OA
ENDBRANCH   7   9
ENDBRANCH   6   7
ENDBRANCH   5   6
ENDBRANCH   4   5
ENDBRANCH   3   4
ENDBRANCH   2   3
ENDBRANCH   1   2
BRANCH   1  12
ATOM     12  C   UNL     1      24.456  62.038  78.792  1.00  0.00     0.000 C 
BRANCH  12  13
ATOM     13  C   UNL     1      25.482  61.249  77.953  1.00  0.00    -0.000 C 
BRANCH  13  14
ATOM     14  C   UNL     1      26.401  62.110  77.063  1.00  0.00    -0.000 C 
BRANCH  14  15
ATOM     15  C   UNL     1      25.677  62.921  75.975  1.00  0.00    -0.000 C 
BRANCH  15  16
ATOM     16  C   UNL     1      25.709  64.434  76.239  1.00  0.00    -0.000 C 
BRANCH  16  17
ATOM     17  C   UNL     1      26.522  65.162  75.161  1.00  0.00    -0.000 C 
BRANCH  17  18
ATOM     18  C   UNL     1      25.870  66.499  74.789  1.00  0.00    -0.003 C 
ATOM     19  C   UNL     1      25.955  67.494  75.942  1.00  0.00     0.004 C 
ENDBRANCH  17  18
ENDBRANCH  16  17
ENDBRANCH  15  16
ENDBRANCH  14  15
ENDBRANCH  13  14
ENDBRANCH  12  13
ENDBRANCH   1  12
TORSDOF 14
ENDMDL
MODEL 8
REMARK VINA RESULT:    -3.445      4.614      7.660
REMARK INTER + INTRA:          -8.003
REMARK INTER:                  -5.984
REMARK INTRA:                  -2.018
REMARK UNBOUND:                -1.738
REMARK SMILES CCCCCCCCCCCCCC[C@H](C)C(=O)[O-]
REMARK SMILES IDX 9 1 10 2 11 3 12 4 13 5 14 6 15 7 16 8 17 9 18 10 19 11 8 12
REMARK SMILES IDX 7 13 6 14 5 15 4 16 3 17 2 18 1 19
REMARK H PARENT
REMARK Flexibility Score: inf
ROOT
ATOM      1  C   UNL     1      25.972  60.308  84.606  1.00  0.00     0.000 C 
ENDROOT
BRANCH   1   2
ATOM      2  C   UNL     1      26.049  59.547  85.938  1.00  0.00     0.000 C 
BRANCH   2   3
ATOM      3  C   UNL     1      27.184  60.093  86.817  1.00  0.00     0.000 C 
BRANCH   3   4
ATOM      4  C   UNL     1      27.960  58.984  87.547  1.00  0.00     0.000 C 
BRANCH   4   5
ATOM      5  C   UNL     1      28.780  58.051  86.634  1.00  0.00     0.001 C 
BRANCH   5   6
ATOM      6  C   UNL     1      29.941  58.727  85.877  1.00  0.00     0.009 C 
BRANCH   6   7
ATOM      7  C   UNL     1      29.939  58.474  84.352  1.00  0.00     0.032 C 
ATOM      8  C   UNL     1      28.648  57.767  83.927  1.00  0.00     0.014 C 
BRANCH   7   9
ATOM      9  C   UNL     1      31.133  57.662  83.923  1.00  0.00     0.044 C 
ATOM     10  O   UNL     1      31.989  57.287  84.768  1.00  0.00    -0.550 OA
ATOM     11  O   UNL     1      31.296  57.323  82.586  1.00  0.00    -0.550 OA
ENDBRANCH   7   9
ENDBRANCH   6   7
ENDBRANCH   5   6
ENDBRANCH   4   5
ENDBRANCH   3   4
ENDBRANCH   2   3
ENDBRANCH   1   2
BRANCH   1  12
ATOM     12  C   UNL     1      27.071  61.377  84.465  1.00  0.00     0.000 C 
BRANCH  12  13
ATOM     13  C   UNL     1      27.706  61.476  83.064  1.00  0.00    -0.000 C 
BRANCH  13  14
ATOM     14  C   UNL     1      26.774  61.105  81.893  1.00  0.00    -0.000 C 
BRANCH  14  15
ATOM     15  C   UNL     1      26.710  62.144  80.761  1.00  0.00    -0.000 C 
BRANCH  15  16
ATOM     16  C   UNL     1      26.817  61.512  79.365  1.00  0.00    -0.000 C 
BRANCH  16  17
ATOM     17  C   UNL     1      28.283  61.322  78.958  1.00  0.00    -0.000 C 
BRANCH  17  18
ATOM     18  C   UNL     1      28.563  59.865  78.570  1.00  0.00    -0.003 C 
ATOM     19  C   UNL     1      29.443  59.178  79.609  1.00  0.00     0.004 C 
ENDBRANCH  17  18
ENDBRANCH  16  17
ENDBRANCH  15  16
ENDBRANCH  14  15
ENDBRANCH  13  14
ENDBRANCH  12  13
ENDBRANCH   1  12
TORSDOF 14
ENDMDL
MODEL 9
REMARK VINA RESULT:    -3.418      5.358      9.099
REMARK INTER + INTRA:          -7.953
REMARK INTER:                  -5.670
REMARK INTRA:                  -2.283
REMARK UNBOUND:                -1.738
REMARK SMILES CCCCCCCCCCCCCC[C@H](C)C(=O)[O-]
REMARK SMILES IDX 9 1 10 2 11 3 12 4 13 5 14 6 15 7 16 8 17 9 18 10 19 11 8 12
REMARK SMILES IDX 7 13 6 14 5 15 4 16 3 17 2 18 1 19
REMARK H PARENT
REMARK Flexibility Score: inf
ROOT
ATOM      1  C   UNL     1      30.810  58.527  81.552  1.00  0.00     0.000 C 
ENDROOT
BRANCH   1   2
ATOM      2  C   UNL     1      29.831  57.761  80.650  1.00  0.00     0.000 C 
BRANCH   2   3
ATOM      3  C   UNL     1      28.386  58.220  80.896  1.00  0.00     0.000 C 
BRANCH   3   4
ATOM      4  C   UNL     1      27.826  57.733  82.243  1.00  0.00     0.000 C 
BRANCH   4   5
ATOM      5  C   UNL     1      27.171  58.825  83.112  1.00  0.00     0.001 C 
BRANCH   5   6
ATOM      6  C   UNL     1      27.985  60.127  83.255  1.00  0.00     0.009 C 
BRANCH   6   7
ATOM      7  C   UNL     1      27.136  61.418  83.202  1.00  0.00     0.032 C 
ATOM      8  C   UNL     1      25.892  61.278  84.084  1.00  0.00     0.014 C 
BRANCH   7   9
ATOM      9  C   UNL     1      26.730  61.756  81.792  1.00  0.00     0.044 C 
ATOM     10  O   UNL     1      27.450  62.506  81.080  1.00  0.00    -0.550 OA
ATOM     11  O   UNL     1      25.551  61.241  81.269  1.00  0.00    -0.550 OA
ENDBRANCH   7   9
ENDBRANCH   6   7
ENDBRANCH   5   6
ENDBRANCH   4   5
ENDBRANCH   3   4
ENDBRANCH   2   3
ENDBRANCH   1   2
BRANCH   1  12
ATOM     12  C   UNL     1      31.753  57.595  82.335  1.00  0.00     0.000 C 
BRANCH  12  13
ATOM     13  C   UNL     1      31.241  57.170  83.725  1.00  0.00    -0.000 C 
BRANCH  13  14
ATOM     14  C   UNL     1      30.662  58.309  84.588  1.00  0.00    -0.000 C 
BRANCH  14  15
ATOM     15  C   UNL     1      30.265  57.902  86.017  1.00  0.00    -0.000 C 
BRANCH  15  16
ATOM     16  C   UNL     1      28.744  57.886  86.232  1.00  0.00    -0.000 C 
BRANCH  16  17
ATOM     17  C   UNL     1      28.367  58.574  87.549  1.00  0.00    -0.000 C 
BRANCH  17  18
ATOM     18  C   UNL     1      27.387  59.728  87.308  1.00  0.00    -0.003 C 
ATOM     19  C   UNL     1      28.117  61.066  87.239  1.00  0.00     0.004 C 
ENDBRANCH  17  18
ENDBRANCH  16  17
ENDBRANCH  15  16
ENDBRANCH  14  15
ENDBRANCH  13  14
ENDBRANCH  12  13
ENDBRANCH   1  12
TORSDOF 14
ENDMDL
