MODEL 1
REMARK VINA RESULT:    -3.278      0.000      0.000
REMARK INTER + INTRA:          -3.935
REMARK INTER:                  -3.853
REMARK INTRA:                  -0.082
REMARK UNBOUND:                -0.082
REMARK SMILES CCCCC(=O)[O-]
REMARK SMILES IDX 4 1 5 2 6 3 7 4 3 5 2 6 1 7
REMARK H PARENT
REMARK Flexibility Score: inf
ROOT
ATOM      1  C   UNL     1     191.043 193.664 191.443  1.00  0.00     0.053 C 
ENDROOT
BRANCH   1   2
ATOM      2  C   UNL     1     191.372 192.213 191.267  1.00  0.00     0.041 C 
ATOM      3  O   UNL     1     191.147 191.641 190.169  1.00  0.00    -0.550 OA
ATOM      4  O   UNL     1     191.957 191.501 192.307  1.00  0.00    -0.550 OA
ENDBRANCH   1   2
BRANCH   1   5
ATOM      5  C   UNL     1     192.305 194.523 191.627  1.00  0.00     0.006 C 
BRANCH   5   6
ATOM      6  C   UNL     1     193.487 194.103 190.735  1.00  0.00    -0.003 C 
ATOM      7  C   UNL     1     194.775 193.874 191.526  1.00  0.00     0.004 C 
ENDBRANCH   5   6
ENDBRANCH   1   5
TORSDOF 3
ENDMDL
MODEL 2
REMARK VINA RESULT:    -3.165      2.778      3.249
REMARK INTER + INTRA:          -3.802
REMARK INTER:                  -3.729
REMARK INTRA:                  -0.073
REMARK UNBOUND:                -0.082
REMARK SMILES CCCCC(=O)[O-]
REMARK SMILES IDX 4 1 5 2 6 3 7 4 3 5 2 6 1 7
REMARK H PARENT
REMARK Flexibility Score: inf
ROOT
ATOM      1  C   UNL     1     191.506 195.226 191.261  1.00  0.00     0.053 C 
ENDROOT
BRANCH   1   2
ATOM      2  C   UNL     1     191.480 195.906 192.595  1.00  0.00     0.041 C 
ATOM      3  O   UNL     1     192.282 196.845 192.844  1.00  0.00    -0.550 OA
ATOM      4  O   UNL     1     190.550 195.524 193.553  1.00  0.00    -0.550 OA
ENDBRANCH   1   2
BRANCH   1   5
ATOM      5  C   UNL     1     192.362 193.949 191.282  1.00  0.00     0.006 C 
BRANCH   5   6
ATOM      6  C   UNL     1     193.745 194.107 190.625  1.00  0.00    -0.003 C 
ATOM      7  C   UNL     1     194.897 193.864 191.600  1.00  0.00     0.004 C 
ENDBRANCH   5   6
ENDBRANCH   1   5
TORSDOF 3
ENDMDL
MODEL 3
REMARK VINA RESULT:    -3.144      2.368      3.672
REMARK INTER + INTRA:          -3.778
REMARK INTER:                  -3.671
REMARK INTRA:                  -0.107
REMARK UNBOUND:                -0.082
REMARK SMILES CCCCC(=O)[O-]
REMARK SMILES IDX 4 1 5 2 6 3 7 4 3 5 2 6 1 7
REMARK H PARENT
REMARK Flexibility Score: inf
ROOT
ATOM      1  C   UNL     1     192.377 193.645 191.222  1.00  0.00     0.053 C 
ENDROOT
BRANCH   1   2
ATOM      2  C   UNL     1     191.544 194.819 191.636  1.00  0.00     0.041 C 
ATOM      3  O   UNL     1     190.869 194.775 192.698  1.00  0.00    -0.550 OA
ATOM      4  O   UNL     1     191.537 195.975 190.864  1.00  0.00    -0.550 OA
ENDBRANCH   1   2
BRANCH   1   5
ATOM      5  C   UNL     1     191.517 192.406 190.924  1.00  0.00     0.006 C 
BRANCH   5   6
ATOM      6  C   UNL     1     191.627 191.293 191.982  1.00  0.00    -0.003 C 
ATOM      7  C   UNL     1     190.367 191.157 192.834  1.00  0.00     0.004 C 
ENDBRANCH   5   6
ENDBRANCH   1   5
TORSDOF 3
ENDMDL
MODEL 4
REMARK VINA RESULT:    -3.140      1.907      2.564
REMARK INTER + INTRA:          -3.773
REMARK INTER:                  -3.666
REMARK INTRA:                  -0.106
REMARK UNBOUND:                -0.082
REMARK SMILES CCCCC(=O)[O-]
REMARK SMILES IDX 4 1 5 2 6 3 7 4 3 5 2 6 1 7
REMARK H PARENT
REMARK Flexibility Score: inf
ROOT
ATOM      1  C   UNL     1     191.589 191.355 191.861  1.00  0.00     0.053 C 
ENDROOT
BRANCH   1   2
ATOM      2  C   UNL     1     190.389 191.436 192.754  1.00  0.00     0.041 C 
ATOM      3  O   UNL     1     190.233 192.425 193.518  1.00  0.00    -0.550 OA
ATOM      4  O   UNL     1     189.426 190.435 192.719  1.00  0.00    -0.550 OA
ENDBRANCH   1   2
BRANCH   1   5
ATOM      5  C   UNL     1     191.575 192.446 190.778  1.00  0.00     0.006 C 
BRANCH   5   6
ATOM      6  C   UNL     1     192.582 193.585 191.017  1.00  0.00    -0.003 C 
ATOM      7  C   UNL     1     191.907 194.908 191.377  1.00  0.00     0.004 C 
ENDBRANCH   5   6
ENDBRANCH   1   5
TORSDOF 3
ENDMDL
MODEL 5
REMARK VINA RESULT:    -3.067      2.711      3.622
REMARK INTER + INTRA:          -3.688
REMARK INTER:                  -3.618
REMARK INTRA:                  -0.069
REMARK UNBOUND:                -0.082
REMARK SMILES CCCCC(=O)[O-]
REMARK SMILES IDX 4 1 5 2 6 3 7 4 3 5 2 6 1 7
REMARK H PARENT
REMARK Flexibility Score: inf
ROOT
ATOM      1  C   UNL     1     191.871 195.116 191.148  1.00  0.00     0.053 C 
ENDROOT
BRANCH   1   2
ATOM      2  C   UNL     1     191.520 195.738 192.465  1.00  0.00     0.041 C 
ATOM      3  O   UNL     1     190.682 195.186 193.224  1.00  0.00    -0.550 OA
ATOM      4  O   UNL     1     192.144 196.913 192.868  1.00  0.00    -0.550 OA
ENDBRANCH   1   2
BRANCH   1   5
ATOM      5  C   UNL     1     192.492 193.720 191.319  1.00  0.00     0.006 C 
BRANCH   5   6
ATOM      6  C   UNL     1     191.538 192.561 190.982  1.00  0.00    -0.003 C 
ATOM      7  C   UNL     1     191.598 191.427 192.005  1.00  0.00     0.004 C 
ENDBRANCH   5   6
ENDBRANCH   1   5
TORSDOF 3
ENDMDL
MODEL 6
REMARK VINA RESULT:    -3.023     13.655     14.462
REMARK INTER + INTRA:          -3.636
REMARK INTER:                  -3.522
REMARK INTRA:                  -0.114
REMARK UNBOUND:                -0.082
REMARK SMILES CCCCC(=O)[O-]
REMARK SMILES IDX 4 1 5 2 6 3 7 4 3 5 2 6 1 7
REMARK H PARENT
REMARK Flexibility Score: inf
ROOT
ATOM      1  C   UNL     1     202.112 184.518 183.678  1.00  0.00     0.053 C 
ENDROOT
BRANCH   1   2
ATOM      2  C   UNL     1     202.309 185.975 183.966  1.00  0.00     0.041 C 
ATOM      3  O   UNL     1     201.715 186.844 183.275  1.00  0.00    -0.550 OA
ATOM      4  O   UNL     1     203.125 186.373 185.018  1.00  0.00    -0.550 OA
ENDBRANCH   1   2
BRANCH   1   5
ATOM      5  C   UNL     1     201.018 183.899 184.563  1.00  0.00     0.006 C 
BRANCH   5   6
ATOM      6  C   UNL     1     201.540 183.295 185.879  1.00  0.00    -0.003 C 
ATOM      7  C   UNL     1     201.157 184.123 187.105  1.00  0.00     0.004 C 
ENDBRANCH   5   6
ENDBRANCH   1   5
TORSDOF 3
ENDMDL
MODEL 7
REMARK VINA RESULT:    -2.980     13.190     13.980
REMARK INTER + INTRA:          -3.584
REMARK INTER:                  -3.497
REMARK INTRA:                  -0.087
REMARK UNBOUND:                -0.082
REMARK SMILES CCCCC(=O)[O-]
REMARK SMILES IDX 4 1 5 2 6 3 7 4 3 5 2 6 1 7
REMARK H PARENT
REMARK Flexibility Score: inf
ROOT
ATOM      1  C   UNL     1     201.740 184.680 185.745  1.00  0.00     0.053 C 
ENDROOT
BRANCH   1   2
ATOM      2  C   UNL     1     201.217 184.035 186.992  1.00  0.00     0.041 C 
ATOM      3  O   UNL     1     201.678 182.927 187.374  1.00  0.00    -0.550 OA
ATOM      4  O   UNL     1     200.243 184.673 187.750  1.00  0.00    -0.550 OA
ENDBRANCH   1   2
BRANCH   1   5
ATOM      5  C   UNL     1     201.580 183.770 184.516  1.00  0.00     0.006 C 
BRANCH   5   6
ATOM      6  C   UNL     1     200.125 183.598 184.046  1.00  0.00    -0.003 C 
ATOM      7  C   UNL     1     199.640 184.760 183.179  1.00  0.00     0.004 C 
ENDBRANCH   5   6
ENDBRANCH   1   5
TORSDOF 3
ENDMDL
MODEL 8
REMARK VINA RESULT:    -2.978     13.192     13.989
REMARK INTER + INTRA:          -3.583
REMARK INTER:                  -3.539
REMARK INTRA:                  -0.044
REMARK UNBOUND:                -0.082
REMARK SMILES CCCCC(=O)[O-]
REMARK SMILES IDX 4 1 5 2 6 3 7 4 3 5 2 6 1 7
REMARK H PARENT
REMARK Flexibility Score: inf
ROOT
ATOM      1  C   UNL     1     200.118 183.484 184.308  1.00  0.00     0.053 C 
ENDROOT
BRANCH   1   2
ATOM      2  C   UNL     1     199.686 184.633 183.449  1.00  0.00     0.041 C 
ATOM      3  O   UNL     1     198.461 184.863 183.268  1.00  0.00    -0.550 OA
ATOM      4  O   UNL     1     200.636 185.469 182.875  1.00  0.00    -0.550 OA
ENDBRANCH   1   2
BRANCH   1   5
ATOM      5  C   UNL     1     201.521 183.701 184.896  1.00  0.00     0.006 C 
BRANCH   5   6
ATOM      6  C   UNL     1     201.651 183.304 186.378  1.00  0.00    -0.003 C 
ATOM      7  C   UNL     1     200.850 184.215 187.309  1.00  0.00     0.004 C 
ENDBRANCH   5   6
ENDBRANCH   1   5
TORSDOF 3
ENDMDL
MODEL 9
REMARK VINA RESULT:    -2.930      2.354      3.582
REMARK INTER + INTRA:          -3.526
REMARK INTER:                  -3.498
REMARK INTRA:                  -0.028
REMARK UNBOUND:                -0.082
REMARK SMILES CCCCC(=O)[O-]
REMARK SMILES IDX 4 1 5 2 6 3 7 4 3 5 2 6 1 7
REMARK H PARENT
REMARK Flexibility Score: inf
ROOT
ATOM      1  C   UNL     1     192.142 192.808 191.470  1.00  0.00     0.053 C 
ENDROOT
BRANCH   1   2
ATOM      2  C   UNL     1     192.679 194.103 190.944  1.00  0.00     0.041 C 
ATOM      3  O   UNL     1     193.794 194.136 190.359  1.00  0.00    -0.550 OA
ATOM      4  O   UNL     1     191.934 195.269 191.070  1.00  0.00    -0.550 OA
ENDBRANCH   1   2
BRANCH   1   5
ATOM      5  C   UNL     1     190.606 192.760 191.422  1.00  0.00     0.006 C 
BRANCH   5   6
ATOM      6  C   UNL     1     189.998 191.470 192.000  1.00  0.00    -0.003 C 
ATOM      7  C   UNL     1     190.902 190.797 193.032  1.00  0.00     0.004 C 
ENDBRANCH   5   6
ENDBRANCH   1   5
TORSDOF 3
ENDMDL
