MODEL 1
REMARK VINA RESULT:    -3.321      0.000      0.000
REMARK INTER + INTRA:          -8.001
REMARK INTER:                  -5.845
REMARK INTRA:                  -2.156
REMARK UNBOUND:                -2.156
REMARK SMILES CCCCCCC=CCCCCCCCC(=O)[O-]
REMARK SMILES IDX 10 1 11 2 12 3 13 4 14 5 15 6 16 7 17 8 18 9 9 10 8 11 7 12
REMARK SMILES IDX 6 13 5 14 4 15 3 16 2 17 1 18
REMARK H PARENT
REMARK Flexibility Score: inf
ROOT
ATOM      1  C   UNL     1      58.013  29.345  49.844  1.00  0.00     0.004 C 
ENDROOT
BRANCH   1   2
ATOM      2  C   UNL     1      59.508  29.136  49.535  1.00  0.00     0.000 C 
BRANCH   2   3
ATOM      3  C   UNL     1      59.935  27.666  49.375  1.00  0.00     0.000 C 
BRANCH   3   4
ATOM      4  C   UNL     1      60.785  27.159  50.553  1.00  0.00     0.000 C 
BRANCH   4   5
ATOM      5  C   UNL     1      60.091  26.048  51.363  1.00  0.00     0.006 C 
BRANCH   5   6
ATOM      6  C   UNL     1      59.458  24.947  50.494  1.00  0.00     0.053 C 
BRANCH   6   7
ATOM      7  C   UNL     1      60.220  23.658  50.546  1.00  0.00     0.041 C 
ATOM      8  O   UNL     1      60.926  23.299  49.568  1.00  0.00    -0.550 OA
ATOM      9  O   UNL     1      60.169  22.866  51.685  1.00  0.00    -0.550 OA
ENDBRANCH   6   7
ENDBRANCH   5   6
ENDBRANCH   4   5
ENDBRANCH   3   4
ENDBRANCH   2   3
ENDBRANCH   1   2
BRANCH   1  10
ATOM     10  C   UNL     1      57.675  29.147  51.329  1.00  0.00     0.027 C 
BRANCH  10  11
ATOM     11  C   UNL     1      56.834  27.919  51.536  1.00  0.00    -0.031 C 
ATOM     12  C   UNL     1      56.427  27.164  50.505  1.00  0.00    -0.031 C 
BRANCH  12  13
ATOM     13  C   UNL     1      55.593  25.927  50.711  1.00  0.00     0.027 C 
BRANCH  13  14
ATOM     14  C   UNL     1      54.090  26.237  50.770  1.00  0.00     0.004 C 
BRANCH  14  15
ATOM     15  C   UNL     1      53.556  26.764  49.427  1.00  0.00     0.000 C 
BRANCH  15  16
ATOM     16  C   UNL     1      52.924  28.159  49.549  1.00  0.00    -0.000 C 
BRANCH  16  17
ATOM     17  C   UNL     1      53.149  28.792  50.930  1.00  0.00    -0.003 C 
ATOM     18  C   UNL     1      53.886  30.123  50.810  1.00  0.00     0.004 C 
ENDBRANCH  16  17
ENDBRANCH  15  16
ENDBRANCH  14  15
ENDBRANCH  13  14
ENDBRANCH  12  13
ENDBRANCH  10  11
ENDBRANCH   1  10
TORSDOF 13
ENDMDL
MODEL 2
REMARK VINA RESULT:    -3.267      2.954      6.374
REMARK INTER + INTRA:          -7.907
REMARK INTER:                  -5.955
REMARK INTRA:                  -1.952
REMARK UNBOUND:                -2.156
REMARK SMILES CCCCCCC=CCCCCCCCC(=O)[O-]
REMARK SMILES IDX 10 1 11 2 12 3 13 4 14 5 15 6 16 7 17 8 18 9 9 10 8 11 7 12
REMARK SMILES IDX 6 13 5 14 4 15 3 16 2 17 1 18
REMARK H PARENT
REMARK Flexibility Score: inf
ROOT
ATOM      1  C   UNL     1      58.546  29.614  49.710  1.00  0.00     0.004 C 
ENDROOT
BRANCH   1   2
ATOM      2  C   UNL     1      58.356  29.525  51.236  1.00  0.00     0.000 C 
BRANCH   2   3
ATOM      3  C   UNL     1      56.900  29.321  51.694  1.00  0.00     0.000 C 
BRANCH   3   4
ATOM      4  C   UNL     1      56.034  28.615  50.637  1.00  0.00     0.000 C 
BRANCH   4   5
ATOM      5  C   UNL     1      55.738  27.144  50.985  1.00  0.00     0.006 C 
BRANCH   5   6
ATOM      6  C   UNL     1      55.512  26.248  49.755  1.00  0.00     0.053 C 
BRANCH   6   7
ATOM      7  C   UNL     1      54.062  25.975  49.496  1.00  0.00     0.041 C 
ATOM      8  O   UNL     1      53.610  24.803  49.588  1.00  0.00    -0.550 OA
ATOM      9  O   UNL     1      53.204  27.019  49.178  1.00  0.00    -0.550 OA
ENDBRANCH   6   7
ENDBRANCH   5   6
ENDBRANCH   4   5
ENDBRANCH   3   4
ENDBRANCH   2   3
ENDBRANCH   1   2
BRANCH   1  10
ATOM     10  C   UNL     1      59.463  28.512  49.155  1.00  0.00     0.027 C 
BRANCH  10  11
ATOM     11  C   UNL     1      59.514  27.331  50.083  1.00  0.00    -0.031 C 
ATOM     12  C   UNL     1      59.253  26.088  49.653  1.00  0.00    -0.031 C 
BRANCH  12  13
ATOM     13  C   UNL     1      59.316  24.901  50.578  1.00  0.00     0.027 C 
BRANCH  13  14
ATOM     14  C   UNL     1      60.668  24.176  50.510  1.00  0.00     0.004 C 
BRANCH  14  15
ATOM     15  C   UNL     1      61.386  24.164  51.871  1.00  0.00     0.000 C 
BRANCH  15  16
ATOM     16  C   UNL     1      62.676  24.999  51.867  1.00  0.00    -0.000 C 
BRANCH  16  17
ATOM     17  C   UNL     1      62.978  25.614  50.492  1.00  0.00    -0.003 C 
ATOM     18  C   UNL     1      63.024  27.137  50.570  1.00  0.00     0.004 C 
ENDBRANCH  16  17
ENDBRANCH  15  16
ENDBRANCH  14  15
ENDBRANCH  13  14
ENDBRANCH  12  13
ENDBRANCH  10  11
ENDBRANCH   1  10
TORSDOF 13
ENDMDL
MODEL 3
REMARK VINA RESULT:    -3.177      3.700      6.535
REMARK INTER + INTRA:          -7.749
REMARK INTER:                  -6.052
REMARK INTRA:                  -1.696
REMARK UNBOUND:                -2.156
REMARK SMILES CCCCCCC=CCCCCCCCC(=O)[O-]
REMARK SMILES IDX 10 1 11 2 12 3 13 4 14 5 15 6 16 7 17 8 18 9 9 10 8 11 7 12
REMARK SMILES IDX 6 13 5 14 4 15 3 16 2 17 1 18
REMARK H PARENT
REMARK Flexibility Score: inf
ROOT
ATOM      1  C   UNL     1      53.867  27.202  49.623  1.00  0.00     0.004 C 
ENDROOT
BRANCH   1   2
ATOM      2  C   UNL     1      54.408  28.464  50.321  1.00  0.00     0.000 C 
BRANCH   2   3
ATOM      3  C   UNL     1      53.421  29.644  50.377  1.00  0.00     0.000 C 
BRANCH   3   4
ATOM      4  C   UNL     1      53.814  30.703  51.421  1.00  0.00     0.000 C 
BRANCH   4   5
ATOM      5  C   UNL     1      54.977  30.255  52.325  1.00  0.00     0.006 C 
BRANCH   5   6
ATOM      6  C   UNL     1      54.883  30.784  53.768  1.00  0.00     0.053 C 
BRANCH   6   7
ATOM      7  C   UNL     1      56.122  31.505  54.203  1.00  0.00     0.041 C 
ATOM      8  O   UNL     1      56.582  31.334  55.362  1.00  0.00    -0.550 OA
ATOM      9  O   UNL     1      56.783  32.347  53.318  1.00  0.00    -0.550 OA
ENDBRANCH   6   7
ENDBRANCH   5   6
ENDBRANCH   4   5
ENDBRANCH   3   4
ENDBRANCH   2   3
ENDBRANCH   1   2
BRANCH   1  10
ATOM     10  C   UNL     1      54.677  25.940  49.954  1.00  0.00     0.027 C 
BRANCH  10  11
ATOM     11  C   UNL     1      56.151  26.232  49.976  1.00  0.00    -0.031 C 
ATOM     12  C   UNL     1      56.936  25.813  50.979  1.00  0.00    -0.031 C 
BRANCH  12  13
ATOM     13  C   UNL     1      58.415  26.094  50.997  1.00  0.00     0.027 C 
BRANCH  13  14
ATOM     14  C   UNL     1      58.949  26.507  49.617  1.00  0.00     0.004 C 
BRANCH  14  15
ATOM     15  C   UNL     1      59.815  27.777  49.689  1.00  0.00     0.000 C 
BRANCH  15  16
ATOM     16  C   UNL     1      59.072  29.027  49.193  1.00  0.00    -0.000 C 
BRANCH  16  17
ATOM     17  C   UNL     1      57.947  29.464  50.142  1.00  0.00    -0.003 C 
ATOM     18  C   UNL     1      58.501  29.836  51.515  1.00  0.00     0.004 C 
ENDBRANCH  16  17
ENDBRANCH  15  16
ENDBRANCH  14  15
ENDBRANCH  13  14
ENDBRANCH  12  13
ENDBRANCH  10  11
ENDBRANCH   1  10
TORSDOF 13
ENDMDL
MODEL 4
REMARK VINA RESULT:    -3.165     11.473     13.593
REMARK INTER + INTRA:          -7.727
REMARK INTER:                  -6.000
REMARK INTRA:                  -1.727
REMARK UNBOUND:                -2.156
REMARK SMILES CCCCCCC=CCCCCCCCC(=O)[O-]
REMARK SMILES IDX 10 1 11 2 12 3 13 4 14 5 15 6 16 7 17 8 18 9 9 10 8 11 7 12
REMARK SMILES IDX 6 13 5 14 4 15 3 16 2 17 1 18
REMARK H PARENT
REMARK Flexibility Score: inf
ROOT
ATOM      1  C   UNL     1      60.763  34.355  59.190  1.00  0.00     0.004 C 
ENDROOT
BRANCH   1   2
ATOM      2  C   UNL     1      61.425  35.550  58.479  1.00  0.00     0.000 C 
BRANCH   2   3
ATOM      3  C   UNL     1      61.824  36.712  59.405  1.00  0.00     0.000 C 
BRANCH   3   4
ATOM      4  C   UNL     1      62.002  36.276  60.869  1.00  0.00     0.000 C 
BRANCH   4   5
ATOM      5  C   UNL     1      63.479  36.116  61.275  1.00  0.00     0.006 C 
BRANCH   5   6
ATOM      6  C   UNL     1      64.010  34.678  61.141  1.00  0.00     0.053 C 
BRANCH   6   7
ATOM      7  C   UNL     1      64.548  34.384  59.775  1.00  0.00     0.041 C 
ATOM      8  O   UNL     1      64.360  33.257  59.247  1.00  0.00    -0.550 OA
ATOM      9  O   UNL     1      65.238  35.365  59.073  1.00  0.00    -0.550 OA
ENDBRANCH   6   7
ENDBRANCH   5   6
ENDBRANCH   4   5
ENDBRANCH   3   4
ENDBRANCH   2   3
ENDBRANCH   1   2
BRANCH   1  10
ATOM     10  C   UNL     1      60.987  33.023  58.458  1.00  0.00     0.027 C 
BRANCH  10  11
ATOM     11  C   UNL     1      60.847  31.857  59.396  1.00  0.00    -0.031 C 
ATOM     12  C   UNL     1      61.121  31.971  60.704  1.00  0.00    -0.031 C 
BRANCH  12  13
ATOM     13  C   UNL     1      60.971  30.807  61.648  1.00  0.00     0.027 C 
BRANCH  13  14
ATOM     14  C   UNL     1      62.150  29.827  61.561  1.00  0.00     0.004 C 
BRANCH  14  15
ATOM     15  C   UNL     1      63.485  30.551  61.313  1.00  0.00     0.000 C 
BRANCH  15  16
ATOM     16  C   UNL     1      64.397  29.791  60.337  1.00  0.00    -0.000 C 
BRANCH  16  17
ATOM     17  C   UNL     1      63.827  28.422  59.938  1.00  0.00    -0.003 C 
ATOM     18  C   UNL     1      64.751  27.292  60.382  1.00  0.00     0.004 C 
ENDBRANCH  16  17
ENDBRANCH  15  16
ENDBRANCH  14  15
ENDBRANCH  13  14
ENDBRANCH  12  13
ENDBRANCH  10  11
ENDBRANCH   1  10
TORSDOF 13
ENDMDL
MODEL 5
REMARK VINA RESULT:    -3.155      1.296      2.598
REMARK INTER + INTRA:          -7.708
REMARK INTER:                  -5.630
REMARK INTRA:                  -2.079
REMARK UNBOUND:                -2.156
REMARK SMILES CCCCCCC=CCCCCCCCC(=O)[O-]
REMARK SMILES IDX 10 1 11 2 12 3 13 4 14 5 15 6 16 7 17 8 18 9 9 10 8 11 7 12
REMARK SMILES IDX 6 13 5 14 4 15 3 16 2 17 1 18
REMARK H PARENT
REMARK Flexibility Score: inf
ROOT
ATOM      1  C   UNL     1      60.087  29.654  50.099  1.00  0.00     0.004 C 
ENDROOT
BRANCH   1   2
ATOM      2  C   UNL     1      61.287  28.710  50.306  1.00  0.00     0.000 C 
BRANCH   2   3
ATOM      3  C   UNL     1      61.103  27.669  51.425  1.00  0.00     0.000 C 
BRANCH   3   4
ATOM      4  C   UNL     1      61.413  26.235  50.964  1.00  0.00     0.000 C 
BRANCH   4   5
ATOM      5  C   UNL     1      60.372  25.681  49.973  1.00  0.00     0.006 C 
BRANCH   5   6
ATOM      6  C   UNL     1      58.966  25.515  50.576  1.00  0.00     0.053 C 
BRANCH   6   7
ATOM      7  C   UNL     1      58.930  24.524  51.698  1.00  0.00     0.041 C 
ATOM      8  O   UNL     1      58.243  24.755  52.727  1.00  0.00    -0.550 OA
ATOM      9  O   UNL     1      59.638  23.333  51.597  1.00  0.00    -0.550 OA
ENDBRANCH   6   7
ENDBRANCH   5   6
ENDBRANCH   4   5
ENDBRANCH   3   4
ENDBRANCH   2   3
ENDBRANCH   1   2
BRANCH   1  10
ATOM     10  C   UNL     1      58.969  29.026  49.253  1.00  0.00     0.027 C 
BRANCH  10  11
ATOM     11  C   UNL     1      57.680  28.959  50.023  1.00  0.00    -0.031 C 
ATOM     12  C   UNL     1      57.601  29.361  51.300  1.00  0.00    -0.031 C 
BRANCH  12  13
ATOM     13  C   UNL     1      56.308  29.304  52.068  1.00  0.00     0.027 C 
BRANCH  13  14
ATOM     14  C   UNL     1      55.082  29.522  51.169  1.00  0.00     0.004 C 
BRANCH  14  15
ATOM     15  C   UNL     1      54.149  28.298  51.157  1.00  0.00     0.000 C 
BRANCH  15  16
ATOM     16  C   UNL     1      53.992  27.689  49.755  1.00  0.00    -0.000 C 
BRANCH  16  17
ATOM     17  C   UNL     1      54.728  26.349  49.606  1.00  0.00    -0.003 C 
ATOM     18  C   UNL     1      55.332  25.903  50.935  1.00  0.00     0.004 C 
ENDBRANCH  16  17
ENDBRANCH  15  16
ENDBRANCH  14  15
ENDBRANCH  13  14
ENDBRANCH  12  13
ENDBRANCH  10  11
ENDBRANCH   1  10
TORSDOF 13
ENDMDL
MODEL 6
REMARK VINA RESULT:    -3.146      2.733      4.097
REMARK INTER + INTRA:          -7.694
REMARK INTER:                  -5.611
REMARK INTRA:                  -2.083
REMARK UNBOUND:                -2.156
REMARK SMILES CCCCCCC=CCCCCCCCC(=O)[O-]
REMARK SMILES IDX 10 1 11 2 12 3 13 4 14 5 15 6 16 7 17 8 18 9 9 10 8 11 7 12
REMARK SMILES IDX 6 13 5 14 4 15 3 16 2 17 1 18
REMARK H PARENT
REMARK Flexibility Score: inf
ROOT
ATOM      1  C   UNL     1      60.127  27.645  50.274  1.00  0.00     0.004 C 
ENDROOT
BRANCH   1   2
ATOM      2  C   UNL     1      59.728  26.311  49.616  1.00  0.00     0.000 C 
BRANCH   2   3
ATOM      3  C   UNL     1      59.085  25.288  50.570  1.00  0.00     0.000 C 
BRANCH   3   4
ATOM      4  C   UNL     1      57.624  25.623  50.910  1.00  0.00     0.000 C 
BRANCH   4   5
ATOM      5  C   UNL     1      57.370  25.744  52.425  1.00  0.00     0.006 C 
BRANCH   5   6
ATOM      6  C   UNL     1      56.057  25.089  52.890  1.00  0.00     0.053 C 
BRANCH   6   7
ATOM      7  C   UNL     1      55.045  26.090  53.357  1.00  0.00     0.041 C 
ATOM      8  O   UNL     1      55.391  27.042  54.104  1.00  0.00    -0.550 OA
ATOM      9  O   UNL     1      53.722  25.984  52.948  1.00  0.00    -0.550 OA
ENDBRANCH   6   7
ENDBRANCH   5   6
ENDBRANCH   4   5
ENDBRANCH   3   4
ENDBRANCH   2   3
ENDBRANCH   1   2
BRANCH   1  10
ATOM     10  C   UNL     1      59.455  28.861  49.619  1.00  0.00     0.027 C 
BRANCH  10  11
ATOM     11  C   UNL     1      58.006  28.955  50.007  1.00  0.00    -0.031 C 
ATOM     12  C   UNL     1      57.632  29.200  51.271  1.00  0.00    -0.031 C 
BRANCH  12  13
ATOM     13  C   UNL     1      56.180  29.306  51.660  1.00  0.00     0.027 C 
BRANCH  13  14
ATOM     14  C   UNL     1      55.247  29.328  50.440  1.00  0.00     0.004 C 
BRANCH  14  15
ATOM     15  C   UNL     1      53.859  28.750  50.765  1.00  0.00     0.000 C 
BRANCH  15  16
ATOM     16  C   UNL     1      53.408  27.689  49.749  1.00  0.00    -0.000 C 
BRANCH  16  17
ATOM     17  C   UNL     1      54.445  26.571  49.562  1.00  0.00    -0.003 C 
ATOM     18  C   UNL     1      53.766  25.212  49.414  1.00  0.00     0.004 C 
ENDBRANCH  16  17
ENDBRANCH  15  16
ENDBRANCH  14  15
ENDBRANCH  13  14
ENDBRANCH  12  13
ENDBRANCH  10  11
ENDBRANCH   1  10
TORSDOF 13
ENDMDL
MODEL 7
REMARK VINA RESULT:    -3.137      2.417      3.665
REMARK INTER + INTRA:          -7.677
REMARK INTER:                  -5.578
REMARK INTRA:                  -2.099
REMARK UNBOUND:                -2.156
REMARK SMILES CCCCCCC=CCCCCCCCC(=O)[O-]
REMARK SMILES IDX 10 1 11 2 12 3 13 4 14 5 15 6 16 7 17 8 18 9 9 10 8 11 7 12
REMARK SMILES IDX 6 13 5 14 4 15 3 16 2 17 1 18
REMARK H PARENT
REMARK Flexibility Score: inf
ROOT
ATOM      1  C   UNL     1      60.269  26.407  51.022  1.00  0.00     0.004 C 
ENDROOT
BRANCH   1   2
ATOM      2  C   UNL     1      60.100  27.074  49.644  1.00  0.00     0.000 C 
BRANCH   2   3
ATOM      3  C   UNL     1      60.209  28.609  49.652  1.00  0.00     0.000 C 
BRANCH   3   4
ATOM      4  C   UNL     1      58.899  29.304  49.243  1.00  0.00     0.000 C 
BRANCH   4   5
ATOM      5  C   UNL     1      57.916  29.475  50.416  1.00  0.00     0.006 C 
BRANCH   5   6
ATOM      6  C   UNL     1      58.593  29.842  51.748  1.00  0.00     0.053 C 
BRANCH   6   7
ATOM      7  C   UNL     1      58.174  28.952  52.876  1.00  0.00     0.041 C 
ATOM      8  O   UNL     1      59.039  28.421  53.622  1.00  0.00    -0.550 OA
ATOM      9  O   UNL     1      56.826  28.727  53.121  1.00  0.00    -0.550 OA
ENDBRANCH   6   7
ENDBRANCH   5   6
ENDBRANCH   4   5
ENDBRANCH   3   4
ENDBRANCH   2   3
ENDBRANCH   1   2
BRANCH   1  10
ATOM     10  C   UNL     1      59.056  25.557  51.430  1.00  0.00     0.027 C 
BRANCH  10  11
ATOM     11  C   UNL     1      57.917  25.740  50.467  1.00  0.00    -0.031 C 
ATOM     12  C   UNL     1      56.687  26.072  50.888  1.00  0.00    -0.031 C 
BRANCH  12  13
ATOM     13  C   UNL     1      55.547  26.266  49.924  1.00  0.00     0.027 C 
BRANCH  13  14
ATOM     14  C   UNL     1      54.935  27.672  50.017  1.00  0.00     0.004 C 
BRANCH  14  15
ATOM     15  C   UNL     1      53.496  27.640  50.560  1.00  0.00     0.000 C 
BRANCH  15  16
ATOM     16  C   UNL     1      52.876  29.041  50.675  1.00  0.00    -0.000 C 
BRANCH  16  17
ATOM     17  C   UNL     1      53.932  30.156  50.687  1.00  0.00    -0.003 C 
ATOM     18  C   UNL     1      54.109  30.730  52.091  1.00  0.00     0.004 C 
ENDBRANCH  16  17
ENDBRANCH  15  16
ENDBRANCH  14  15
ENDBRANCH  13  14
ENDBRANCH  12  13
ENDBRANCH  10  11
ENDBRANCH   1  10
TORSDOF 13
ENDMDL
MODEL 8
REMARK VINA RESULT:    -3.122      3.005      5.127
REMARK INTER + INTRA:          -7.651
REMARK INTER:                  -7.050
REMARK INTRA:                  -0.601
REMARK UNBOUND:                -2.156
REMARK SMILES CCCCCCC=CCCCCCCCC(=O)[O-]
REMARK SMILES IDX 10 1 11 2 12 3 13 4 14 5 15 6 16 7 17 8 18 9 9 10 8 11 7 12
REMARK SMILES IDX 6 13 5 14 4 15 3 16 2 17 1 18
REMARK H PARENT
REMARK Flexibility Score: inf
ROOT
ATOM      1  C   UNL     1      60.765  24.892  50.606  1.00  0.00     0.004 C 
ENDROOT
BRANCH   1   2
ATOM      2  C   UNL     1      61.142  23.528  49.998  1.00  0.00     0.000 C 
BRANCH   2   3
ATOM      3  C   UNL     1      60.375  22.327  50.581  1.00  0.00     0.000 C 
BRANCH   3   4
ATOM      4  C   UNL     1      60.375  21.107  49.645  1.00  0.00     0.000 C 
BRANCH   4   5
ATOM      5  C   UNL     1      59.962  19.803  50.354  1.00  0.00     0.006 C 
BRANCH   5   6
ATOM      6  C   UNL     1      58.992  18.931  49.538  1.00  0.00     0.053 C 
BRANCH   6   7
ATOM      7  C   UNL     1      57.967  18.250  50.392  1.00  0.00     0.041 C 
ATOM      8  O   UNL     1      58.124  17.048  50.735  1.00  0.00    -0.550 OA
ATOM      9  O   UNL     1      56.851  18.949  50.830  1.00  0.00    -0.550 OA
ENDBRANCH   6   7
ENDBRANCH   5   6
ENDBRANCH   4   5
ENDBRANCH   3   4
ENDBRANCH   2   3
ENDBRANCH   1   2
BRANCH   1  10
ATOM     10  C   UNL     1      61.832  25.970  50.367  1.00  0.00     0.027 C 
BRANCH  10  11
ATOM     11  C   UNL     1      61.216  27.238  49.847  1.00  0.00    -0.031 C 
ATOM     12  C   UNL     1      59.886  27.401  49.788  1.00  0.00    -0.031 C 
BRANCH  12  13
ATOM     13  C   UNL     1      59.267  28.676  49.277  1.00  0.00     0.027 C 
BRANCH  13  14
ATOM     14  C   UNL     1      57.957  29.022  50.001  1.00  0.00     0.004 C 
BRANCH  14  15
ATOM     15  C   UNL     1      57.154  27.763  50.375  1.00  0.00     0.000 C 
BRANCH  15  16
ATOM     16  C   UNL     1      55.769  28.096  50.951  1.00  0.00    -0.000 C 
BRANCH  16  17
ATOM     17  C   UNL     1      54.626  27.725  49.995  1.00  0.00    -0.003 C 
ATOM     18  C   UNL     1      54.674  26.244  49.629  1.00  0.00     0.004 C 
ENDBRANCH  16  17
ENDBRANCH  15  16
ENDBRANCH  14  15
ENDBRANCH  13  14
ENDBRANCH  12  13
ENDBRANCH  10  11
ENDBRANCH   1  10
TORSDOF 13
ENDMDL
MODEL 9
REMARK VINA RESULT:    -3.121     10.735     12.879
REMARK INTER + INTRA:          -7.650
REMARK INTER:                  -5.626
REMARK INTRA:                  -2.024
REMARK UNBOUND:                -2.156
REMARK SMILES CCCCCCC=CCCCCCCCC(=O)[O-]
REMARK SMILES IDX 10 1 11 2 12 3 13 4 14 5 15 6 16 7 17 8 18 9 9 10 8 11 7 12
REMARK SMILES IDX 6 13 5 14 4 15 3 16 2 17 1 18
REMARK H PARENT
REMARK Flexibility Score: inf
ROOT
ATOM      1  C   UNL     1      60.497  33.535  57.780  1.00  0.00     0.004 C 
ENDROOT
BRANCH   1   2
ATOM      2  C   UNL     1      59.642  32.257  57.855  1.00  0.00     0.000 C 
BRANCH   2   3
ATOM      3  C   UNL     1      60.036  31.281  58.978  1.00  0.00     0.000 C 
BRANCH   3   4
ATOM      4  C   UNL     1      60.951  31.923  60.034  1.00  0.00     0.000 C 
BRANCH   4   5
ATOM      5  C   UNL     1      61.085  31.074  61.312  1.00  0.00     0.006 C 
BRANCH   5   6
ATOM      6  C   UNL     1      62.502  30.519  61.545  1.00  0.00     0.053 C 
BRANCH   6   7
ATOM      7  C   UNL     1      62.672  29.127  61.020  1.00  0.00     0.041 C 
ATOM      8  O   UNL     1      63.509  28.889  60.110  1.00  0.00    -0.550 OA
ATOM      9  O   UNL     1      61.923  28.086  61.554  1.00  0.00    -0.550 OA
ENDBRANCH   6   7
ENDBRANCH   5   6
ENDBRANCH   4   5
ENDBRANCH   3   4
ENDBRANCH   2   3
ENDBRANCH   1   2
BRANCH   1  10
ATOM     10  C   UNL     1      59.669  34.820  57.932  1.00  0.00     0.027 C 
BRANCH  10  11
ATOM     11  C   UNL     1      60.428  35.869  58.695  1.00  0.00    -0.031 C 
ATOM     12  C   UNL     1      60.631  35.768  60.017  1.00  0.00    -0.031 C 
BRANCH  12  13
ATOM     13  C   UNL     1      61.401  36.812  60.781  1.00  0.00     0.027 C 
BRANCH  13  14
ATOM     14  C   UNL     1      62.843  36.375  61.078  1.00  0.00     0.004 C 
BRANCH  14  15
ATOM     15  C   UNL     1      63.018  34.850  60.970  1.00  0.00     0.000 C 
BRANCH  15  16
ATOM     16  C   UNL     1      64.297  34.455  60.215  1.00  0.00    -0.000 C 
BRANCH  16  17
ATOM     17  C   UNL     1      64.006  33.641  58.945  1.00  0.00    -0.003 C 
ATOM     18  C   UNL     1      64.588  32.234  59.049  1.00  0.00     0.004 C 
ENDBRANCH  16  17
ENDBRANCH  15  16
ENDBRANCH  14  15
ENDBRANCH  13  14
ENDBRANCH  12  13
ENDBRANCH  10  11
ENDBRANCH   1  10
TORSDOF 13
ENDMDL
