MODEL 1
REMARK VINA RESULT:    -3.719      0.000      0.000
REMARK INTER + INTRA:          -9.808
REMARK INTER:                  -6.981
REMARK INTRA:                  -2.828
REMARK UNBOUND:                -2.828
REMARK SMILES CCCCCCCCC=CCCCCCCCC(=O)[O-]
REMARK SMILES IDX 10 1 9 2 11 3 12 4 13 5 14 6 15 7 16 8 17 9 18 10 19 11
REMARK SMILES IDX 20 12 8 13 7 14 6 15 5 16 4 17 3 18 2 19 1 20
REMARK H PARENT
REMARK Flexibility Score: inf
ROOT
ATOM      1  C   UNL     1      -0.182   8.623  40.611  1.00  0.00    -0.031 C 
ATOM      2  C   UNL     1      -0.920   8.871  39.518  1.00  0.00    -0.031 C 
ENDROOT
BRANCH   1   3
ATOM      3  C   UNL     1       1.268   9.013  40.681  1.00  0.00     0.027 C 
BRANCH   3   4
ATOM      4  C   UNL     1       1.622   9.947  39.516  1.00  0.00     0.004 C 
BRANCH   4   5
ATOM      5  C   UNL     1       2.566   9.267  38.516  1.00  0.00     0.000 C 
BRANCH   5   6
ATOM      6  C   UNL     1       2.318   9.717  37.065  1.00  0.00     0.000 C 
BRANCH   6   7
ATOM      7  C   UNL     1       0.983   9.245  36.453  1.00  0.00     0.000 C 
BRANCH   7   8
ATOM      8  C   UNL     1       0.753   7.721  36.479  1.00  0.00     0.006 C 
BRANCH   8   9
ATOM      9  C   UNL     1       1.842   6.906  35.766  1.00  0.00     0.053 C 
BRANCH   9  10
ATOM     10  C   UNL     1       1.476   6.605  34.346  1.00  0.00     0.041 C 
ATOM     11  O   UNL     1       1.108   5.446  34.019  1.00  0.00    -0.550 OA
ATOM     12  O   UNL     1       1.508   7.613  33.390  1.00  0.00    -0.550 OA
ENDBRANCH   9  10
ENDBRANCH   8   9
ENDBRANCH   7   8
ENDBRANCH   6   7
ENDBRANCH   5   6
ENDBRANCH   4   5
ENDBRANCH   3   4
ENDBRANCH   1   3
BRANCH   2  13
ATOM     13  C   UNL     1      -2.291   8.275  39.341  1.00  0.00     0.027 C 
BRANCH  13  14
ATOM     14  C   UNL     1      -2.552   7.190  40.396  1.00  0.00     0.004 C 
BRANCH  14  15
ATOM     15  C   UNL     1      -2.720   5.797  39.768  1.00  0.00     0.000 C 
BRANCH  15  16
ATOM     16  C   UNL     1      -1.955   5.687  38.446  1.00  0.00     0.000 C 
BRANCH  16  17
ATOM     17  C   UNL     1      -0.778   4.708  38.573  1.00  0.00    -0.000 C 
BRANCH  17  18
ATOM     18  C   UNL     1      -0.423   4.411  40.045  1.00  0.00    -0.000 C 
BRANCH  18  19
ATOM     19  C   UNL     1       0.917   5.025  40.486  1.00  0.00    -0.003 C 
ATOM     20  C   UNL     1       1.718   5.611  39.325  1.00  0.00     0.004 C 
ENDBRANCH  18  19
ENDBRANCH  17  18
ENDBRANCH  16  17
ENDBRANCH  15  16
ENDBRANCH  14  15
ENDBRANCH  13  14
ENDBRANCH   2  13
TORSDOF 15
ENDMDL
MODEL 2
REMARK VINA RESULT:    -3.646      3.207      4.960
REMARK INTER + INTRA:          -9.671
REMARK INTER:                  -6.570
REMARK INTRA:                  -3.101
REMARK UNBOUND:                -2.828
REMARK SMILES CCCCCCCCC=CCCCCCCCC(=O)[O-]
REMARK SMILES IDX 10 1 9 2 11 3 12 4 13 5 14 6 15 7 16 8 17 9 18 10 19 11
REMARK SMILES IDX 20 12 8 13 7 14 6 15 5 16 4 17 3 18 2 19 1 20
REMARK H PARENT
REMARK Flexibility Score: inf
ROOT
ATOM      1  C   UNL     1       0.987   8.676  36.259  1.00  0.00    -0.031 C 
ATOM      2  C   UNL     1      -0.342   8.687  36.444  1.00  0.00    -0.031 C 
ENDROOT
BRANCH   1   3
ATOM      3  C   UNL     1       1.741   7.388  36.077  1.00  0.00     0.027 C 
BRANCH   3   4
ATOM      4  C   UNL     1       0.815   6.191  36.330  1.00  0.00     0.004 C 
BRANCH   4   5
ATOM      5  C   UNL     1       1.131   5.507  37.666  1.00  0.00     0.000 C 
BRANCH   5   6
ATOM      6  C   UNL     1       2.029   6.367  38.574  1.00  0.00     0.000 C 
BRANCH   6   7
ATOM      7  C   UNL     1       1.300   7.079  39.732  1.00  0.00     0.000 C 
BRANCH   7   8
ATOM      8  C   UNL     1       1.718   8.543  39.968  1.00  0.00     0.006 C 
BRANCH   8   9
ATOM      9  C   UNL     1       0.809   9.311  40.939  1.00  0.00     0.053 C 
BRANCH   9  10
ATOM     10  C   UNL     1       0.681   8.614  42.257  1.00  0.00     0.041 C 
ATOM     11  O   UNL     1      -0.449   8.246  42.672  1.00  0.00    -0.550 OA
ATOM     12  O   UNL     1       1.814   8.338  43.012  1.00  0.00    -0.550 OA
ENDBRANCH   9  10
ENDBRANCH   8   9
ENDBRANCH   7   8
ENDBRANCH   6   7
ENDBRANCH   5   6
ENDBRANCH   4   5
ENDBRANCH   3   4
ENDBRANCH   1   3
BRANCH   2  13
ATOM     13  C   UNL     1      -1.069   9.935  36.867  1.00  0.00     0.027 C 
BRANCH  13  14
ATOM     14  C   UNL     1      -1.733   9.738  38.238  1.00  0.00     0.004 C 
BRANCH  14  15
ATOM     15  C   UNL     1      -1.836   8.255  38.626  1.00  0.00     0.000 C 
BRANCH  15  16
ATOM     16  C   UNL     1      -2.566   8.079  39.961  1.00  0.00     0.000 C 
BRANCH  16  17
ATOM     17  C   UNL     1      -2.897   6.600  40.215  1.00  0.00    -0.000 C 
BRANCH  17  18
ATOM     18  C   UNL     1      -2.184   5.664  39.218  1.00  0.00    -0.000 C 
BRANCH  18  19
ATOM     19  C   UNL     1      -1.538   4.438  39.887  1.00  0.00    -0.003 C 
ATOM     20  C   UNL     1      -1.051   4.718  41.307  1.00  0.00     0.004 C 
ENDBRANCH  18  19
ENDBRANCH  17  18
ENDBRANCH  16  17
ENDBRANCH  15  16
ENDBRANCH  14  15
ENDBRANCH  13  14
ENDBRANCH   2  13
TORSDOF 15
ENDMDL
MODEL 3
REMARK VINA RESULT:    -3.568      1.350      2.458
REMARK INTER + INTRA:          -9.524
REMARK INTER:                  -6.441
REMARK INTRA:                  -3.083
REMARK UNBOUND:                -2.828
REMARK SMILES CCCCCCCCC=CCCCCCCCC(=O)[O-]
REMARK SMILES IDX 10 1 9 2 11 3 12 4 13 5 14 6 15 7 16 8 17 9 18 10 19 11
REMARK SMILES IDX 20 12 8 13 7 14 6 15 5 16 4 17 3 18 2 19 1 20
REMARK H PARENT
REMARK Flexibility Score: inf
ROOT
ATOM      1  C   UNL     1      -1.873   8.321  38.800  1.00  0.00    -0.031 C 
ATOM      2  C   UNL     1      -1.843   7.181  39.507  1.00  0.00    -0.031 C 
ENDROOT
BRANCH   1   3
ATOM      3  C   UNL     1      -0.929   9.452  39.099  1.00  0.00     0.027 C 
BRANCH   3   4
ATOM      4  C   UNL     1       0.127   9.006  40.119  1.00  0.00     0.004 C 
BRANCH   4   5
ATOM      5  C   UNL     1       1.432   9.796  39.961  1.00  0.00     0.000 C 
BRANCH   5   6
ATOM      6  C   UNL     1       2.253   9.346  38.739  1.00  0.00     0.000 C 
BRANCH   6   7
ATOM      7  C   UNL     1       2.315   7.820  38.519  1.00  0.00     0.000 C 
BRANCH   7   8
ATOM      8  C   UNL     1       2.238   7.367  37.047  1.00  0.00     0.006 C 
BRANCH   8   9
ATOM      9  C   UNL     1       0.838   7.477  36.426  1.00  0.00     0.053 C 
BRANCH   9  10
ATOM     10  C   UNL     1       0.752   8.594  35.433  1.00  0.00     0.041 C 
ATOM     11  O   UNL     1       0.259   9.703  35.768  1.00  0.00    -0.550 OA
ATOM     12  O   UNL     1       1.249   8.422  34.146  1.00  0.00    -0.550 OA
ENDBRANCH   9  10
ENDBRANCH   8   9
ENDBRANCH   7   8
ENDBRANCH   6   7
ENDBRANCH   5   6
ENDBRANCH   4   5
ENDBRANCH   3   4
ENDBRANCH   1   3
BRANCH   2  13
ATOM     13  C   UNL     1      -2.930   6.147  39.383  1.00  0.00     0.027 C 
BRANCH  13  14
ATOM     14  C   UNL     1      -2.818   5.104  40.506  1.00  0.00     0.004 C 
BRANCH  14  15
ATOM     15  C   UNL     1      -1.999   5.621  41.699  1.00  0.00     0.000 C 
BRANCH  15  16
ATOM     16  C   UNL     1      -0.821   4.692  42.008  1.00  0.00     0.000 C 
BRANCH  16  17
ATOM     17  C   UNL     1       0.516   5.436  41.867  1.00  0.00    -0.000 C 
BRANCH  17  18
ATOM     18  C   UNL     1       1.141   5.252  40.468  1.00  0.00    -0.000 C 
BRANCH  18  19
ATOM     19  C   UNL     1       0.660   3.980  39.747  1.00  0.00    -0.003 C 
ATOM     20  C   UNL     1       0.157   4.249  38.330  1.00  0.00     0.004 C 
ENDBRANCH  18  19
ENDBRANCH  17  18
ENDBRANCH  16  17
ENDBRANCH  15  16
ENDBRANCH  14  15
ENDBRANCH  13  14
ENDBRANCH   2  13
TORSDOF 15
ENDMDL
MODEL 4
REMARK VINA RESULT:    -3.557      2.126      3.628
REMARK INTER + INTRA:          -9.504
REMARK INTER:                  -6.731
REMARK INTRA:                  -2.773
REMARK UNBOUND:                -2.828
REMARK SMILES CCCCCCCCC=CCCCCCCCC(=O)[O-]
REMARK SMILES IDX 10 1 9 2 11 3 12 4 13 5 14 6 15 7 16 8 17 9 18 10 19 11
REMARK SMILES IDX 20 12 8 13 7 14 6 15 5 16 4 17 3 18 2 19 1 20
REMARK H PARENT
REMARK Flexibility Score: inf
ROOT
ATOM      1  C   UNL     1      -0.530  10.110  38.713  1.00  0.00    -0.031 C 
ATOM      2  C   UNL     1      -0.247   9.328  39.767  1.00  0.00    -0.031 C 
ENDROOT
BRANCH   1   3
ATOM      3  C   UNL     1      -1.748   9.870  37.865  1.00  0.00     0.027 C 
BRANCH   3   4
ATOM      4  C   UNL     1      -1.333   9.449  36.449  1.00  0.00     0.004 C 
BRANCH   4   5
ATOM      5  C   UNL     1       0.193   9.442  36.289  1.00  0.00     0.000 C 
BRANCH   5   6
ATOM      6  C   UNL     1       0.755   8.031  36.035  1.00  0.00     0.000 C 
BRANCH   6   7
ATOM      7  C   UNL     1       0.031   6.893  36.784  1.00  0.00     0.000 C 
BRANCH   7   8
ATOM      8  C   UNL     1       0.810   6.290  37.970  1.00  0.00     0.006 C 
BRANCH   8   9
ATOM      9  C   UNL     1       2.271   6.753  38.066  1.00  0.00     0.053 C 
BRANCH   9  10
ATOM     10  C   UNL     1       3.229   5.652  37.733  1.00  0.00     0.041 C 
ATOM     11  O   UNL     1       3.698   4.923  38.646  1.00  0.00    -0.550 OA
ATOM     12  O   UNL     1       3.579   5.410  36.411  1.00  0.00    -0.550 OA
ENDBRANCH   9  10
ENDBRANCH   8   9
ENDBRANCH   7   8
ENDBRANCH   6   7
ENDBRANCH   5   6
ENDBRANCH   4   5
ENDBRANCH   3   4
ENDBRANCH   1   3
BRANCH   2  13
ATOM     13  C   UNL     1       1.081   9.403  40.471  1.00  0.00     0.027 C 
BRANCH  13  14
ATOM     14  C   UNL     1       1.043   8.613  41.787  1.00  0.00     0.004 C 
BRANCH  14  15
ATOM     15  C   UNL     1       0.726   7.126  41.564  1.00  0.00     0.000 C 
BRANCH  15  16
ATOM     16  C   UNL     1      -0.203   6.586  42.654  1.00  0.00     0.000 C 
BRANCH  16  17
ATOM     17  C   UNL     1      -1.676   6.716  42.235  1.00  0.00    -0.000 C 
BRANCH  17  18
ATOM     18  C   UNL     1      -2.255   5.382  41.720  1.00  0.00    -0.000 C 
BRANCH  18  19
ATOM     19  C   UNL     1      -2.238   5.261  40.186  1.00  0.00    -0.003 C 
ATOM     20  C   UNL     1      -2.697   6.535  39.480  1.00  0.00     0.004 C 
ENDBRANCH  18  19
ENDBRANCH  17  18
ENDBRANCH  16  17
ENDBRANCH  15  16
ENDBRANCH  14  15
ENDBRANCH  13  14
ENDBRANCH   2  13
TORSDOF 15
ENDMDL
MODEL 5
REMARK VINA RESULT:    -3.555      1.379      2.572
REMARK INTER + INTRA:          -9.500
REMARK INTER:                  -6.315
REMARK INTRA:                  -3.185
REMARK UNBOUND:                -2.828
REMARK SMILES CCCCCCCCC=CCCCCCCCC(=O)[O-]
REMARK SMILES IDX 10 1 9 2 11 3 12 4 13 5 14 6 15 7 16 8 17 9 18 10 19 11
REMARK SMILES IDX 20 12 8 13 7 14 6 15 5 16 4 17 3 18 2 19 1 20
REMARK H PARENT
REMARK Flexibility Score: inf
ROOT
ATOM      1  C   UNL     1      -1.476   8.696  38.369  1.00  0.00    -0.031 C 
ATOM      2  C   UNL     1      -2.253   8.488  39.443  1.00  0.00    -0.031 C 
ENDROOT
BRANCH   1   3
ATOM      3  C   UNL     1      -1.408  10.041  37.702  1.00  0.00     0.027 C 
BRANCH   3   4
ATOM      4  C   UNL     1      -0.322  10.041  36.617  1.00  0.00     0.004 C 
BRANCH   4   5
ATOM      5  C   UNL     1       1.084  10.019  37.228  1.00  0.00     0.000 C 
BRANCH   5   6
ATOM      6  C   UNL     1       1.873   8.751  36.855  1.00  0.00     0.000 C 
BRANCH   6   7
ATOM      7  C   UNL     1       1.179   7.825  35.835  1.00  0.00     0.000 C 
BRANCH   7   8
ATOM      8  C   UNL     1       0.720   6.464  36.393  1.00  0.00     0.006 C 
BRANCH   8   9
ATOM      9  C   UNL     1       1.850   5.437  36.563  1.00  0.00     0.053 C 
BRANCH   9  10
ATOM     10  C   UNL     1       2.281   4.857  35.252  1.00  0.00     0.041 C 
ATOM     11  O   UNL     1       3.384   5.190  34.744  1.00  0.00    -0.550 OA
ATOM     12  O   UNL     1       1.481   3.922  34.607  1.00  0.00    -0.550 OA
ENDBRANCH   9  10
ENDBRANCH   8   9
ENDBRANCH   7   8
ENDBRANCH   6   7
ENDBRANCH   5   6
ENDBRANCH   4   5
ENDBRANCH   3   4
ENDBRANCH   1   3
BRANCH   2  13
ATOM     13  C   UNL     1      -2.517   7.102  39.969  1.00  0.00     0.027 C 
BRANCH  13  14
ATOM     14  C   UNL     1      -2.174   6.045  38.908  1.00  0.00     0.004 C 
BRANCH  14  15
ATOM     15  C   UNL     1      -1.391   4.862  39.499  1.00  0.00     0.000 C 
BRANCH  15  16
ATOM     16  C   UNL     1      -0.516   5.306  40.675  1.00  0.00     0.000 C 
BRANCH  16  17
ATOM     17  C   UNL     1       0.948   5.473  40.239  1.00  0.00    -0.000 C 
BRANCH  17  18
ATOM     18  C   UNL     1       1.322   6.951  40.006  1.00  0.00    -0.000 C 
BRANCH  18  19
ATOM     19  C   UNL     1       0.964   7.865  41.191  1.00  0.00    -0.003 C 
ATOM     20  C   UNL     1       1.120   9.350  40.871  1.00  0.00     0.004 C 
ENDBRANCH  18  19
ENDBRANCH  17  18
ENDBRANCH  16  17
ENDBRANCH  15  16
ENDBRANCH  14  15
ENDBRANCH  13  14
ENDBRANCH   2  13
TORSDOF 15
ENDMDL
MODEL 6
REMARK VINA RESULT:    -3.539      1.552      2.197
REMARK INTER + INTRA:          -9.470
REMARK INTER:                  -6.641
REMARK INTRA:                  -2.829
REMARK UNBOUND:                -2.828
REMARK SMILES CCCCCCCCC=CCCCCCCCC(=O)[O-]
REMARK SMILES IDX 10 1 9 2 11 3 12 4 13 5 14 6 15 7 16 8 17 9 18 10 19 11
REMARK SMILES IDX 20 12 8 13 7 14 6 15 5 16 4 17 3 18 2 19 1 20
REMARK H PARENT
REMARK Flexibility Score: inf
ROOT
ATOM      1  C   UNL     1      -0.655   8.568  40.084  1.00  0.00    -0.031 C 
ATOM      2  C   UNL     1      -1.850   7.972  40.216  1.00  0.00    -0.031 C 
ENDROOT
BRANCH   1   3
ATOM      3  C   UNL     1      -0.451   9.712  39.129  1.00  0.00     0.027 C 
BRANCH   3   4
ATOM      4  C   UNL     1      -1.559   9.718  38.067  1.00  0.00     0.004 C 
BRANCH   4   5
ATOM      5  C   UNL     1      -0.977   9.679  36.648  1.00  0.00     0.000 C 
BRANCH   5   6
ATOM      6  C   UNL     1       0.495  10.125  36.598  1.00  0.00     0.000 C 
BRANCH   6   7
ATOM      7  C   UNL     1       1.243   9.773  35.295  1.00  0.00     0.000 C 
BRANCH   7   8
ATOM      8  C   UNL     1       0.985   8.351  34.756  1.00  0.00     0.006 C 
BRANCH   8   9
ATOM      9  C   UNL     1       1.638   8.064  33.397  1.00  0.00     0.053 C 
BRANCH   9  10
ATOM     10  C   UNL     1       1.842   6.597  33.173  1.00  0.00     0.041 C 
ATOM     11  O   UNL     1       1.213   6.003  32.258  1.00  0.00    -0.550 OA
ATOM     12  O   UNL     1       2.753   5.894  33.951  1.00  0.00    -0.550 OA
ENDBRANCH   9  10
ENDBRANCH   8   9
ENDBRANCH   7   8
ENDBRANCH   6   7
ENDBRANCH   5   6
ENDBRANCH   4   5
ENDBRANCH   3   4
ENDBRANCH   1   3
BRANCH   2  13
ATOM     13  C   UNL     1      -2.009   6.684  40.978  1.00  0.00     0.027 C 
BRANCH  13  14
ATOM     14  C   UNL     1      -1.784   5.477  40.055  1.00  0.00     0.004 C 
BRANCH  14  15
ATOM     15  C   UNL     1      -2.554   5.606  38.730  1.00  0.00     0.000 C 
BRANCH  15  16
ATOM     16  C   UNL     1      -1.697   5.154  37.544  1.00  0.00     0.000 C 
BRANCH  16  17
ATOM     17  C   UNL     1      -0.523   6.119  37.315  1.00  0.00    -0.000 C 
BRANCH  17  18
ATOM     18  C   UNL     1       0.844   5.430  37.511  1.00  0.00    -0.000 C 
BRANCH  18  19
ATOM     19  C   UNL     1       1.699   6.074  38.616  1.00  0.00    -0.003 C 
ATOM     20  C   UNL     1       2.314   7.408  38.197  1.00  0.00     0.004 C 
ENDBRANCH  18  19
ENDBRANCH  17  18
ENDBRANCH  16  17
ENDBRANCH  15  16
ENDBRANCH  14  15
ENDBRANCH  13  14
ENDBRANCH   2  13
TORSDOF 15
ENDMDL
MODEL 7
REMARK VINA RESULT:    -3.534      1.592      4.083
REMARK INTER + INTRA:          -9.461
REMARK INTER:                  -6.559
REMARK INTRA:                  -2.902
REMARK UNBOUND:                -2.828
REMARK SMILES CCCCCCCCC=CCCCCCCCC(=O)[O-]
REMARK SMILES IDX 10 1 9 2 11 3 12 4 13 5 14 6 15 7 16 8 17 9 18 10 19 11
REMARK SMILES IDX 20 12 8 13 7 14 6 15 5 16 4 17 3 18 2 19 1 20
REMARK H PARENT
REMARK Flexibility Score: inf
ROOT
ATOM      1  C   UNL     1      -2.044   8.298  39.005  1.00  0.00    -0.031 C 
ATOM      2  C   UNL     1      -1.782   9.560  38.632  1.00  0.00    -0.031 C 
ENDROOT
BRANCH   1   3
ATOM      3  C   UNL     1      -2.084   7.903  40.455  1.00  0.00     0.027 C 
BRANCH   3   4
ATOM      4  C   UNL     1      -2.260   6.384  40.587  1.00  0.00     0.004 C 
BRANCH   4   5
ATOM      5  C   UNL     1      -2.817   5.769  39.296  1.00  0.00     0.000 C 
BRANCH   5   6
ATOM      6  C   UNL     1      -1.803   4.849  38.593  1.00  0.00     0.000 C 
BRANCH   6   7
ATOM      7  C   UNL     1      -1.579   5.145  37.095  1.00  0.00     0.000 C 
BRANCH   7   8
ATOM      8  C   UNL     1      -1.198   3.923  36.236  1.00  0.00     0.006 C 
BRANCH   8   9
ATOM      9  C   UNL     1       0.242   3.431  36.442  1.00  0.00     0.053 C 
BRANCH   9  10
ATOM     10  C   UNL     1       1.234   4.282  35.712  1.00  0.00     0.041 C 
ATOM     11  O   UNL     1       2.397   4.433  36.169  1.00  0.00    -0.550 OA
ATOM     12  O   UNL     1       0.885   4.882  34.508  1.00  0.00    -0.550 OA
ENDBRANCH   9  10
ENDBRANCH   8   9
ENDBRANCH   7   8
ENDBRANCH   6   7
ENDBRANCH   5   6
ENDBRANCH   4   5
ENDBRANCH   3   4
ENDBRANCH   1   3
BRANCH   2  13
ATOM     13  C   UNL     1      -1.500   9.916  37.197  1.00  0.00     0.027 C 
BRANCH  13  14
ATOM     14  C   UNL     1      -0.465   8.955  36.594  1.00  0.00     0.004 C 
BRANCH  14  15
ATOM     15  C   UNL     1       0.961   9.525  36.651  1.00  0.00     0.000 C 
BRANCH  15  16
ATOM     16  C   UNL     1       1.806   8.803  37.705  1.00  0.00     0.000 C 
BRANCH  16  17
ATOM     17  C   UNL     1       1.349   7.345  37.870  1.00  0.00    -0.000 C 
BRANCH  17  18
ATOM     18  C   UNL     1       1.379   6.889  39.344  1.00  0.00    -0.000 C 
BRANCH  18  19
ATOM     19  C   UNL     1       1.609   5.377  39.510  1.00  0.00    -0.003 C 
ATOM     20  C   UNL     1       1.095   4.835  40.843  1.00  0.00     0.004 C 
ENDBRANCH  18  19
ENDBRANCH  17  18
ENDBRANCH  16  17
ENDBRANCH  15  16
ENDBRANCH  14  15
ENDBRANCH  13  14
ENDBRANCH   2  13
TORSDOF 15
ENDMDL
MODEL 8
REMARK VINA RESULT:    -3.494      2.667      5.183
REMARK INTER + INTRA:          -9.386
REMARK INTER:                  -6.451
REMARK INTRA:                  -2.935
REMARK UNBOUND:                -2.828
REMARK SMILES CCCCCCCCC=CCCCCCCCC(=O)[O-]
REMARK SMILES IDX 10 1 9 2 11 3 12 4 13 5 14 6 15 7 16 8 17 9 18 10 19 11
REMARK SMILES IDX 20 12 8 13 7 14 6 15 5 16 4 17 3 18 2 19 1 20
REMARK H PARENT
REMARK Flexibility Score: inf
ROOT
ATOM      1  C   UNL     1       1.098   7.986  41.377  1.00  0.00    -0.031 C 
ATOM      2  C   UNL     1       0.705   9.087  40.717  1.00  0.00    -0.031 C 
ENDROOT
BRANCH   1   3
ATOM      3  C   UNL     1       0.294   7.429  42.518  1.00  0.00     0.027 C 
BRANCH   3   4
ATOM      4  C   UNL     1      -1.031   8.191  42.655  1.00  0.00     0.004 C 
BRANCH   4   5
ATOM      5  C   UNL     1      -2.230   7.305  42.292  1.00  0.00     0.000 C 
BRANCH   5   6
ATOM      6  C   UNL     1      -2.449   7.198  40.772  1.00  0.00     0.000 C 
BRANCH   6   7
ATOM      7  C   UNL     1      -2.530   5.759  40.222  1.00  0.00     0.000 C 
BRANCH   7   8
ATOM      8  C   UNL     1      -2.585   4.651  41.292  1.00  0.00     0.006 C 
BRANCH   8   9
ATOM      9  C   UNL     1      -1.899   3.341  40.880  1.00  0.00     0.053 C 
BRANCH   9  10
ATOM     10  C   UNL     1      -0.467   3.554  40.497  1.00  0.00     0.041 C 
ATOM     11  O   UNL     1      -0.043   3.155  39.381  1.00  0.00    -0.550 OA
ATOM     12  O   UNL     1       0.391   4.225  41.360  1.00  0.00    -0.550 OA
ENDBRANCH   9  10
ENDBRANCH   8   9
ENDBRANCH   7   8
ENDBRANCH   6   7
ENDBRANCH   5   6
ENDBRANCH   4   5
ENDBRANCH   3   4
ENDBRANCH   1   3
BRANCH   2  13
ATOM     13  C   UNL     1       1.613   9.790  39.744  1.00  0.00     0.027 C 
BRANCH  13  14
ATOM     14  C   UNL     1       0.862  10.125  38.446  1.00  0.00     0.004 C 
BRANCH  14  15
ATOM     15  C   UNL     1      -0.663  10.034  38.617  1.00  0.00     0.000 C 
BRANCH  15  16
ATOM     16  C   UNL     1      -1.322   9.401  37.388  1.00  0.00     0.000 C 
BRANCH  16  17
ATOM     17  C   UNL     1      -0.428   8.305  36.789  1.00  0.00    -0.000 C 
BRANCH  17  18
ATOM     18  C   UNL     1      -0.687   6.926  37.431  1.00  0.00    -0.000 C 
BRANCH  18  19
ATOM     19  C   UNL     1       0.542   6.351  38.157  1.00  0.00    -0.003 C 
ATOM     20  C   UNL     1       1.866   6.778  37.525  1.00  0.00     0.004 C 
ENDBRANCH  18  19
ENDBRANCH  17  18
ENDBRANCH  16  17
ENDBRANCH  15  16
ENDBRANCH  14  15
ENDBRANCH  13  14
ENDBRANCH   2  13
TORSDOF 15
ENDMDL
MODEL 9
REMARK VINA RESULT:    -3.482      1.340      3.993
REMARK INTER + INTRA:          -9.363
REMARK INTER:                  -6.408
REMARK INTRA:                  -2.955
REMARK UNBOUND:                -2.828
REMARK SMILES CCCCCCCCC=CCCCCCCCC(=O)[O-]
REMARK SMILES IDX 10 1 9 2 11 3 12 4 13 5 14 6 15 7 16 8 17 9 18 10 19 11
REMARK SMILES IDX 20 12 8 13 7 14 6 15 5 16 4 17 3 18 2 19 1 20
REMARK H PARENT
REMARK Flexibility Score: inf
ROOT
ATOM      1  C   UNL     1      -1.932   6.966  39.066  1.00  0.00    -0.031 C 
ATOM      2  C   UNL     1      -2.243   8.235  39.374  1.00  0.00    -0.031 C 
ENDROOT
BRANCH   1   3
ATOM      3  C   UNL     1      -2.146   5.849  40.049  1.00  0.00     0.027 C 
BRANCH   3   4
ATOM      4  C   UNL     1      -1.225   4.667  39.717  1.00  0.00     0.004 C 
BRANCH   4   5
ATOM      5  C   UNL     1      -0.184   5.046  38.656  1.00  0.00     0.000 C 
BRANCH   5   6
ATOM      6  C   UNL     1      -0.230   4.125  37.424  1.00  0.00     0.000 C 
BRANCH   6   7
ATOM      7  C   UNL     1      -0.120   4.845  36.064  1.00  0.00     0.000 C 
BRANCH   7   8
ATOM      8  C   UNL     1       1.063   4.400  35.181  1.00  0.00     0.006 C 
BRANCH   8   9
ATOM      9  C   UNL     1       2.057   5.521  34.846  1.00  0.00     0.053 C 
BRANCH   9  10
ATOM     10  C   UNL     1       1.549   6.412  33.756  1.00  0.00     0.041 C 
ATOM     11  O   UNL     1       1.450   7.653  33.946  1.00  0.00    -0.550 OA
ATOM     12  O   UNL     1       1.216   5.878  32.517  1.00  0.00    -0.550 OA
ENDBRANCH   9  10
ENDBRANCH   8   9
ENDBRANCH   7   8
ENDBRANCH   6   7
ENDBRANCH   5   6
ENDBRANCH   4   5
ENDBRANCH   3   4
ENDBRANCH   1   3
BRANCH   2  13
ATOM     13  C   UNL     1      -1.812   9.385  38.503  1.00  0.00     0.027 C 
BRANCH  13  14
ATOM     14  C   UNL     1      -1.111   8.873  37.236  1.00  0.00     0.004 C 
BRANCH  14  15
ATOM     15  C   UNL     1       0.375   9.266  37.195  1.00  0.00     0.000 C 
BRANCH  15  16
ATOM     16  C   UNL     1       1.277   8.048  37.415  1.00  0.00     0.000 C 
BRANCH  16  17
ATOM     17  C   UNL     1       2.077   8.186  38.720  1.00  0.00    -0.000 C 
BRANCH  17  18
ATOM     18  C   UNL     1       1.778   9.513  39.449  1.00  0.00    -0.000 C 
BRANCH  18  19
ATOM     19  C   UNL     1       1.117   9.317  40.825  1.00  0.00    -0.003 C 
ATOM     20  C   UNL     1       0.946   7.847  41.204  1.00  0.00     0.004 C 
ENDBRANCH  18  19
ENDBRANCH  17  18
ENDBRANCH  16  17
ENDBRANCH  15  16
ENDBRANCH  14  15
ENDBRANCH  13  14
ENDBRANCH   2  13
TORSDOF 15
ENDMDL
