MODEL 1
REMARK VINA RESULT:    -3.159      0.000      0.000
REMARK INTER + INTRA:          -3.142
REMARK INTER:                  -3.898
REMARK INTRA:                   0.756
REMARK UNBOUND:                 0.756
REMARK SMILES CC1=CC=CC(C)(C)CC1=O
REMARK SMILES IDX 1 1 2 2 3 3 10 4 11 5 9 6 4 8 5 9 6 10 7 11 8 12
REMARK H PARENT
REMARK Flexibility Score: 80.00
ROOT
ATOM      1  C   UNL     1       0.263  16.930  21.961  1.00  0.00     0.048 C 
ATOM      2  C   UNL     1       1.263  15.808  22.113  1.00  0.00    -0.008 C 
ATOM      3  C   UNL     1       2.438  16.094  22.713  1.00  0.00     0.007 C 
ENDROOT
BRANCH   2   4
ATOM      4  C   UNL     1       0.902  14.496  21.520  1.00  0.00     0.159 C 
ATOM      5  O   UNL     1      -0.117  14.423  20.780  1.00  0.00    -0.295 OA
BRANCH   4   6
ATOM      6  C   UNL     1       1.677  13.237  21.763  1.00  0.00     0.091 CG0
ATOM      7  G   UNL     1       3.159  13.343  21.338  1.00  0.00     0.000 G0
ENDBRANCH   4   6
ENDBRANCH   2   4
BRANCH   3   8
ATOM      8  C   UNL     1       3.609  15.224  22.977  1.00  0.00    -0.003 C 
ATOM      9  C   UNL     1       3.940  14.059  22.406  1.00  0.00    -0.020 C 
BRANCH   9  10
ATOM     10  C   UNL     1       3.157  13.324  21.344  1.00  0.00    -0.010 CG0
ATOM     11  C   UNL     1       3.707  11.883  21.244  1.00  0.00     0.016 C 
ATOM     12  C   UNL     1       3.358  14.008  19.972  1.00  0.00     0.016 C 
ATOM     13  G   UNL     1       1.670  13.243  21.757  1.00  0.00     0.000 G0
ENDBRANCH   9  10
ENDBRANCH   3   8
TORSDOF 0
ENDMDL
MODEL 2
REMARK VINA RESULT:    -3.002      4.637      6.076
REMARK INTER + INTRA:          -2.948
REMARK INTER:                  -3.708
REMARK INTRA:                   0.760
REMARK UNBOUND:                 0.756
REMARK SMILES CC1=CC=CC(C)(C)CC1=O
REMARK SMILES IDX 1 1 2 2 3 3 10 4 11 5 9 6 4 8 5 9 6 10 7 11 8 12
REMARK H PARENT
REMARK Flexibility Score: 80.00
ROOT
ATOM      1  C   UNL     1       0.144   8.259  19.438  1.00  0.00     0.048 C 
ATOM      2  C   UNL     1       0.702   9.304  18.500  1.00  0.00    -0.008 C 
ATOM      3  C   UNL     1       1.261   8.876  17.348  1.00  0.00     0.007 C 
ENDROOT
BRANCH   2   4
ATOM      4  C   UNL     1       0.659  10.715  18.959  1.00  0.00     0.159 C 
ATOM      5  O   UNL     1       0.350  10.956  20.158  1.00  0.00    -0.295 OA
BRANCH   4   6
ATOM      6  C   UNL     1       0.951  11.883  18.068  1.00  0.00     0.091 CG0
ATOM      7  G   UNL     1       2.375  11.849  17.467  1.00  0.00     0.000 G0
ENDBRANCH   4   6
ENDBRANCH   2   4
BRANCH   3   8
ATOM      8  C   UNL     1       1.906   9.648  16.259  1.00  0.00    -0.003 C 
ATOM      9  C   UNL     1       2.397  10.893  16.284  1.00  0.00    -0.020 C 
BRANCH   9  10
ATOM     10  C   UNL     1       2.380  11.842  17.460  1.00  0.00    -0.010 CG0
ATOM     11  C   UNL     1       2.722  13.259  16.946  1.00  0.00     0.016 C 
ATOM     12  C   UNL     1       3.464  11.432  18.484  1.00  0.00     0.016 C 
ATOM     13  G   UNL     1       0.963  11.882  18.076  1.00  0.00     0.000 G0
ENDBRANCH   9  10
ENDBRANCH   3   8
TORSDOF 0
ENDMDL
MODEL 3
REMARK VINA RESULT:    -2.940      4.229      6.144
REMARK INTER + INTRA:          -2.872
REMARK INTER:                  -3.627
REMARK INTRA:                   0.755
REMARK UNBOUND:                 0.756
REMARK SMILES CC1=CC=CC(C)(C)CC1=O
REMARK SMILES IDX 1 1 2 2 3 3 10 4 11 5 9 6 4 8 5 9 6 10 7 11 8 12
REMARK H PARENT
REMARK Flexibility Score: 80.00
ROOT
ATOM      1  C   UNL     1       2.779   8.973  17.093  1.00  0.00     0.048 C 
ATOM      2  C   UNL     1       1.822   9.261  18.226  1.00  0.00    -0.008 C 
ATOM      3  C   UNL     1       0.675   8.551  18.272  1.00  0.00     0.007 C 
ENDROOT
BRANCH   2   4
ATOM      4  C   UNL     1       2.188  10.359  19.156  1.00  0.00     0.159 C 
ATOM      5  O   UNL     1       3.141  11.126  18.847  1.00  0.00    -0.295 OA
BRANCH   4   6
ATOM      6  C   UNL     1       1.492  10.603  20.460  1.00  0.00     0.091 CG0
ATOM      7  G   UNL     1      -0.016  10.897  20.300  1.00  0.00     0.000 G0
ENDBRANCH   4   6
ENDBRANCH   2   4
BRANCH   3   8
ATOM      8  C   UNL     1      -0.453   8.626  19.231  1.00  0.00    -0.003 C 
ATOM      9  C   UNL     1      -0.772   9.608  20.083  1.00  0.00    -0.020 C 
BRANCH   9  10
ATOM     10  C   UNL     1      -0.016  10.900  20.289  1.00  0.00    -0.010 CG0
ATOM     11  C   UNL     1      -0.520  11.554  21.596  1.00  0.00     0.016 C 
ATOM     12  C   UNL     1      -0.307  11.874  19.124  1.00  0.00     0.016 C 
ATOM     13  G   UNL     1       1.491  10.599  20.452  1.00  0.00     0.000 G0
ENDBRANCH   9  10
ENDBRANCH   3   8
TORSDOF 0
ENDMDL
MODEL 4
REMARK VINA RESULT:    -2.897      2.742      3.896
REMARK INTER + INTRA:          -2.819
REMARK INTER:                  -3.570
REMARK INTRA:                   0.751
REMARK UNBOUND:                 0.756
REMARK SMILES CC1=CC=CC(C)(C)CC1=O
REMARK SMILES IDX 1 1 2 2 3 3 10 4 11 5 9 6 4 8 5 9 6 10 7 11 8 12
REMARK H PARENT
REMARK Flexibility Score: 80.00
ROOT
ATOM      1  C   UNL     1       2.339  16.144  22.846  1.00  0.00     0.048 C 
ATOM      2  C   UNL     1       1.911  16.211  21.399  1.00  0.00    -0.008 C 
ATOM      3  C   UNL     1       0.722  16.788  21.124  1.00  0.00     0.007 C 
ENDROOT
BRANCH   2   4
ATOM      4  C   UNL     1       2.802  15.566  20.401  1.00  0.00     0.159 C 
ATOM      5  O   UNL     1       3.747  14.838  20.810  1.00  0.00    -0.295 OA
BRANCH   4   6
ATOM      6  C   UNL     1       2.650  15.745  18.921  1.00  0.00     0.091 CG0
ATOM      7  G   UNL     1       1.280  15.270  18.388  1.00  0.00     0.000 G0
ENDBRANCH   4   6
ENDBRANCH   2   4
BRANCH   3   8
ATOM      8  C   UNL     1       0.033  16.974  19.824  1.00  0.00    -0.003 C 
ATOM      9  C   UNL     1       0.236  16.340  18.663  1.00  0.00    -0.020 C 
BRANCH   9  10
ATOM     10  C   UNL     1       1.268  15.271  18.392  1.00  0.00    -0.010 CG0
ATOM     11  C   UNL     1       1.391  15.091  16.861  1.00  0.00     0.016 C 
ATOM     12  C   UNL     1       0.805  13.925  18.995  1.00  0.00     0.016 C 
ATOM     13  G   UNL     1       2.642  15.726  18.934  1.00  0.00     0.000 G0
ENDBRANCH   9  10
ENDBRANCH   3   8
TORSDOF 0
ENDMDL
MODEL 5
REMARK VINA RESULT:    -2.891      1.015      1.128
REMARK INTER + INTRA:          -2.811
REMARK INTER:                  -3.569
REMARK INTRA:                   0.757
REMARK UNBOUND:                 0.756
REMARK SMILES CC1=CC=CC(C)(C)CC1=O
REMARK SMILES IDX 1 1 2 2 3 3 10 4 11 5 9 6 4 8 5 9 6 10 7 11 8 12
REMARK H PARENT
REMARK Flexibility Score: 80.00
ROOT
ATOM      1  C   UNL     1       1.300  17.174  20.751  1.00  0.00     0.048 C 
ATOM      2  C   UNL     1       1.660  15.928  21.524  1.00  0.00    -0.008 C 
ATOM      3  C   UNL     1       2.708  15.999  22.372  1.00  0.00     0.007 C 
ENDROOT
BRANCH   2   4
ATOM      4  C   UNL     1       0.877  14.701  21.232  1.00  0.00     0.159 C 
ATOM      5  O   UNL     1       0.113  14.692  20.228  1.00  0.00    -0.295 OA
BRANCH   4   6
ATOM      6  C   UNL     1       0.931  13.465  22.076  1.00  0.00     0.091 CG0
ATOM      7  G   UNL     1       2.344  12.843  22.156  1.00  0.00     0.000 G0
ENDBRANCH   4   6
ENDBRANCH   2   4
BRANCH   3   8
ATOM      8  C   UNL     1       3.308  14.952  23.234  1.00  0.00    -0.003 C 
ATOM      9  C   UNL     1       3.182  13.621  23.157  1.00  0.00    -0.020 C 
BRANCH   9  10
ATOM     10  C   UNL     1       2.350  12.854  22.156  1.00  0.00    -0.010 CG0
ATOM     11  C   UNL     1       2.212  11.397  22.654  1.00  0.00     0.016 C 
ATOM     12  C   UNL     1       3.067  12.824  20.787  1.00  0.00     0.016 C 
ATOM     13  G   UNL     1       0.935  13.471  22.075  1.00  0.00     0.000 G0
ENDBRANCH   9  10
ENDBRANCH   3   8
TORSDOF 0
ENDMDL
MODEL 6
REMARK VINA RESULT:    -2.866      4.741      6.322
REMARK INTER + INTRA:          -2.781
REMARK INTER:                  -3.537
REMARK INTRA:                   0.756
REMARK UNBOUND:                 0.756
REMARK SMILES CC1=CC=CC(C)(C)CC1=O
REMARK SMILES IDX 1 1 2 2 3 3 10 4 11 5 9 6 4 8 5 9 6 10 7 11 8 12
REMARK H PARENT
REMARK Flexibility Score: 80.00
ROOT
ATOM      1  C   UNL     1       1.539   8.572  18.404  1.00  0.00     0.048 C 
ATOM      2  C   UNL     1       1.432   9.842  17.594  1.00  0.00    -0.008 C 
ATOM      3  C   UNL     1       1.939   9.832  16.343  1.00  0.00     0.007 C 
ENDROOT
BRANCH   2   4
ATOM      4  C   UNL     1       0.845  11.027  18.270  1.00  0.00     0.159 C 
ATOM      5  O   UNL     1       0.650  10.982  19.515  1.00  0.00    -0.295 OA
BRANCH   4   6
ATOM      6  C   UNL     1       0.454  12.280  17.548  1.00  0.00     0.091 CG0
ATOM      7  G   UNL     1       1.637  12.958  16.819  1.00  0.00     0.000 G0
ENDBRANCH   4   6
ENDBRANCH   2   4
BRANCH   3   8
ATOM      8  C   UNL     1       2.006  10.916  15.333  1.00  0.00    -0.003 C 
ATOM      9  C   UNL     1       1.889  12.238  15.506  1.00  0.00    -0.020 C 
BRANCH   9  10
ATOM     10  C   UNL     1       1.626  12.953  16.810  1.00  0.00    -0.010 CG0
ATOM     11  C   UNL     1       1.207  14.407  16.491  1.00  0.00     0.016 C 
ATOM     12  C   UNL     1       2.919  13.004  17.655  1.00  0.00     0.016 C 
ATOM     13  G   UNL     1       0.456  12.268  17.552  1.00  0.00     0.000 G0
ENDBRANCH   9  10
ENDBRANCH   3   8
TORSDOF 0
ENDMDL
MODEL 7
REMARK VINA RESULT:    -2.861      4.963      6.154
REMARK INTER + INTRA:          -2.775
REMARK INTER:                  -3.521
REMARK INTRA:                   0.746
REMARK UNBOUND:                 0.756
REMARK SMILES CC1=CC=CC(C)(C)CC1=O
REMARK SMILES IDX 1 1 2 2 3 3 10 4 11 5 9 6 4 8 5 9 6 10 7 11 8 12
REMARK H PARENT
REMARK Flexibility Score: 80.00
ROOT
ATOM      1  C   UNL     1       0.391   8.634  18.639  1.00  0.00     0.048 C 
ATOM      2  C   UNL     1       1.211   9.862  18.322  1.00  0.00    -0.008 C 
ATOM      3  C   UNL     1       0.686  11.064  18.640  1.00  0.00     0.007 C 
ENDROOT
BRANCH   2   4
ATOM      4  C   UNL     1       2.500   9.650  17.616  1.00  0.00     0.159 C 
ATOM      5  O   UNL     1       2.749   8.512  17.134  1.00  0.00    -0.295 OA
BRANCH   4   6
ATOM      6  C   UNL     1       3.539  10.718  17.455  1.00  0.00     0.091 CG0
ATOM      7  G   UNL     1       3.029  11.950  16.673  1.00  0.00     0.000 G0
ENDBRANCH   4   6
ENDBRANCH   2   4
BRANCH   3   8
ATOM      8  C   UNL     1       1.232  12.427  18.431  1.00  0.00    -0.003 C 
ATOM      9  C   UNL     1       2.206  12.829  17.606  1.00  0.00    -0.020 C 
BRANCH   9  10
ATOM     10  C   UNL     1       3.021  11.951  16.684  1.00  0.00    -0.010 CG0
ATOM     11  C   UNL     1       4.254  12.755  16.212  1.00  0.00     0.016 C 
ATOM     12  C   UNL     1       2.187  11.579  15.437  1.00  0.00     0.016 C 
ATOM     13  G   UNL     1       3.523  10.711  17.457  1.00  0.00     0.000 G0
ENDBRANCH   9  10
ENDBRANCH   3   8
TORSDOF 0
ENDMDL
MODEL 8
REMARK VINA RESULT:    -2.845      1.610      2.534
REMARK INTER + INTRA:          -2.754
REMARK INTER:                  -3.524
REMARK INTRA:                   0.770
REMARK UNBOUND:                 0.756
REMARK SMILES CC1=CC=CC(C)(C)CC1=O
REMARK SMILES IDX 1 1 2 2 3 3 10 4 11 5 9 6 4 8 5 9 6 10 7 11 8 12
REMARK H PARENT
REMARK Flexibility Score: 80.00
ROOT
ATOM      1  C   UNL     1       0.396  16.774  21.955  1.00  0.00     0.048 C 
ATOM      2  C   UNL     1       1.150  15.470  21.830  1.00  0.00    -0.008 C 
ATOM      3  C   UNL     1       0.431  14.352  21.597  1.00  0.00     0.007 C 
ENDROOT
BRANCH   2   4
ATOM      4  C   UNL     1       2.617  15.514  22.051  1.00  0.00     0.159 C 
ATOM      5  O   UNL     1       3.127  16.559  22.540  1.00  0.00    -0.295 OA
BRANCH   4   6
ATOM      6  C   UNL     1       3.538  14.383  21.709  1.00  0.00     0.091 CG0
ATOM      7  G   UNL     1       3.205  13.077  22.464  1.00  0.00     0.000 G0
ENDBRANCH   4   6
ENDBRANCH   2   4
BRANCH   3   8
ATOM      8  C   UNL     1       0.877  12.945  21.456  1.00  0.00    -0.003 C 
ATOM      9  C   UNL     1       2.035  12.386  21.828  1.00  0.00    -0.020 C 
BRANCH   9  10
ATOM     10  C   UNL     1       3.205  13.090  22.475  1.00  0.00    -0.010 CG0
ATOM     11  C   UNL     1       4.437  12.159  22.395  1.00  0.00     0.016 C 
ATOM     12  C   UNL     1       2.902  13.353  23.968  1.00  0.00     0.016 C 
ATOM     13  G   UNL     1       3.530  14.384  21.695  1.00  0.00     0.000 G0
ENDBRANCH   9  10
ENDBRANCH   3   8
TORSDOF 0
ENDMDL
MODEL 9
REMARK VINA RESULT:    -2.827      2.017      3.105
REMARK INTER + INTRA:          -2.732
REMARK INTER:                  -3.487
REMARK INTRA:                   0.755
REMARK UNBOUND:                 0.756
REMARK SMILES CC1=CC=CC(C)(C)CC1=O
REMARK SMILES IDX 1 1 2 2 3 3 10 4 11 5 9 6 4 8 5 9 6 10 7 11 8 12
REMARK H PARENT
REMARK Flexibility Score: 80.00
ROOT
ATOM      1  C   UNL     1       3.074  13.651  24.244  1.00  0.00     0.048 C 
ATOM      2  C   UNL     1       3.095  14.334  22.897  1.00  0.00    -0.008 C 
ATOM      3  C   UNL     1       2.510  15.547  22.801  1.00  0.00     0.007 C 
ENDROOT
BRANCH   2   4
ATOM      4  C   UNL     1       3.691  13.579  21.766  1.00  0.00     0.159 C 
ATOM      5  O   UNL     1       3.976  12.361  21.931  1.00  0.00    -0.295 OA
BRANCH   4   6
ATOM      6  C   UNL     1       3.991  14.190  20.432  1.00  0.00     0.091 CG0
ATOM      7  G   UNL     1       2.744  14.790  19.743  1.00  0.00     0.000 G0
ENDBRANCH   4   6
ENDBRANCH   2   4
BRANCH   3   8
ATOM      8  C   UNL     1       2.351  16.436  21.626  1.00  0.00    -0.003 C 
ATOM      9  C   UNL     1       2.435  16.138  20.324  1.00  0.00    -0.020 C 
BRANCH   9  10
ATOM     10  C   UNL     1       2.752  14.784  19.732  1.00  0.00    -0.010 CG0
ATOM     11  C   UNL     1       3.097  14.976  18.237  1.00  0.00     0.016 C 
ATOM     12  C   UNL     1       1.511  13.866  19.821  1.00  0.00     0.016 C 
ATOM     13  G   UNL     1       3.989  14.184  20.437  1.00  0.00     0.000 G0
ENDBRANCH   9  10
ENDBRANCH   3   8
TORSDOF 0
ENDMDL
