MODEL 1
REMARK VINA RESULT:    -4.155      0.000      0.000
REMARK INTER + INTRA:          -5.948
REMARK INTER:                  -5.612
REMARK INTRA:                  -0.336
REMARK UNBOUND:                -0.336
REMARK SMILES CCCCCCC=CC(=O)[O-]
REMARK SMILES IDX 5 1 6 2 7 3 8 4 9 5 10 6 11 7 4 8 3 9 2 10 1 11
REMARK H PARENT
REMARK Flexibility Score: inf
ROOT
ATOM      1  C   UNL     1      35.946  34.481  36.133  1.00  0.00     0.004 C 
ENDROOT
BRANCH   1   2
ATOM      2  C   UNL     1      37.206  33.609  36.253  1.00  0.00     0.027 C 
BRANCH   2   3
ATOM      3  C   UNL     1      38.018  33.598  34.989  1.00  0.00    -0.025 C 
ATOM      4  C   UNL     1      37.875  32.635  34.072  1.00  0.00     0.020 C 
BRANCH   4   5
ATOM      5  C   UNL     1      38.653  32.610  32.825  1.00  0.00     0.064 C 
ATOM      6  O   UNL     1      39.355  31.611  32.515  1.00  0.00    -0.545 OA
ATOM      7  O   UNL     1      38.612  33.706  31.972  1.00  0.00    -0.545 OA
ENDBRANCH   4   5
ENDBRANCH   2   3
ENDBRANCH   1   2
BRANCH   1   8
ATOM      8  C   UNL     1      36.153  35.665  35.174  1.00  0.00     0.000 C 
BRANCH   8   9
ATOM      9  C   UNL     1      35.048  35.763  34.109  1.00  0.00    -0.000 C 
BRANCH   9  10
ATOM     10  C   UNL     1      35.091  37.087  33.332  1.00  0.00    -0.003 C 
ATOM     11  C   UNL     1      35.585  38.227  34.217  1.00  0.00     0.004 C 
ENDBRANCH   9  10
ENDBRANCH   8   9
ENDBRANCH   1   8
TORSDOF 6
ENDMDL
MODEL 2
REMARK VINA RESULT:    -4.124      2.616      4.540
REMARK INTER + INTRA:          -5.907
REMARK INTER:                  -5.210
REMARK INTRA:                  -0.697
REMARK UNBOUND:                -0.336
REMARK SMILES CCCCCCC=CC(=O)[O-]
REMARK SMILES IDX 5 1 6 2 7 3 8 4 9 5 10 6 11 7 4 8 3 9 2 10 1 11
REMARK H PARENT
REMARK Flexibility Score: inf
ROOT
ATOM      1  C   UNL     1      37.457  33.531  36.146  1.00  0.00     0.004 C 
ENDROOT
BRANCH   1   2
ATOM      2  C   UNL     1      36.120  34.279  36.020  1.00  0.00     0.027 C 
BRANCH   2   3
ATOM      3  C   UNL     1      36.261  35.585  35.290  1.00  0.00    -0.025 C 
ATOM      4  C   UNL     1      35.360  35.984  34.385  1.00  0.00     0.020 C 
BRANCH   4   5
ATOM      5  C   UNL     1      35.474  37.261  33.666  1.00  0.00     0.064 C 
ATOM      6  O   UNL     1      35.400  37.310  32.410  1.00  0.00    -0.545 OA
ATOM      7  O   UNL     1      35.666  38.434  34.385  1.00  0.00    -0.545 OA
ENDBRANCH   4   5
ENDBRANCH   2   3
ENDBRANCH   1   2
BRANCH   1   8
ATOM      8  C   UNL     1      38.303  33.641  34.866  1.00  0.00     0.000 C 
BRANCH   8   9
ATOM      9  C   UNL     1      37.918  32.591  33.811  1.00  0.00    -0.000 C 
BRANCH   9  10
ATOM     10  C   UNL     1      37.599  33.214  32.444  1.00  0.00    -0.003 C 
ATOM     11  C   UNL     1      36.105  33.146  32.145  1.00  0.00     0.004 C 
ENDBRANCH   9  10
ENDBRANCH   8   9
ENDBRANCH   1   8
TORSDOF 6
ENDMDL
MODEL 3
REMARK VINA RESULT:    -3.852      2.721      4.580
REMARK INTER + INTRA:          -5.540
REMARK INTER:                  -4.859
REMARK INTRA:                  -0.681
REMARK UNBOUND:                -0.336
REMARK SMILES CCCCCCC=CC(=O)[O-]
REMARK SMILES IDX 5 1 6 2 7 3 8 4 9 5 10 6 11 7 4 8 3 9 2 10 1 11
REMARK H PARENT
REMARK Flexibility Score: inf
ROOT
ATOM      1  C   UNL     1      36.266  34.723  36.096  1.00  0.00     0.004 C 
ENDROOT
BRANCH   1   2
ATOM      2  C   UNL     1      35.010  34.975  35.247  1.00  0.00     0.027 C 
BRANCH   2   3
ATOM      3  C   UNL     1      35.298  35.811  34.032  1.00  0.00    -0.025 C 
ATOM      4  C   UNL     1      36.169  36.826  34.069  1.00  0.00     0.020 C 
BRANCH   4   5
ATOM      5  C   UNL     1      36.471  37.651  32.890  1.00  0.00     0.064 C 
ATOM      6  O   UNL     1      35.751  37.599  31.857  1.00  0.00    -0.545 OA
ATOM      7  O   UNL     1      37.567  38.503  32.916  1.00  0.00    -0.545 OA
ENDBRANCH   4   5
ENDBRANCH   2   3
ENDBRANCH   1   2
BRANCH   1   8
ATOM      8  C   UNL     1      36.929  33.376  35.760  1.00  0.00     0.000 C 
BRANCH   8   9
ATOM      9  C   UNL     1      38.406  33.529  35.361  1.00  0.00    -0.000 C 
BRANCH   9  10
ATOM     10  C   UNL     1      38.600  33.650  33.842  1.00  0.00    -0.003 C 
ATOM     11  C   UNL     1      37.678  32.693  33.093  1.00  0.00     0.004 C 
ENDBRANCH   9  10
ENDBRANCH   8   9
ENDBRANCH   1   8
TORSDOF 6
ENDMDL
MODEL 4
REMARK VINA RESULT:    -3.745      9.992     11.094
REMARK INTER + INTRA:          -5.395
REMARK INTER:                  -4.691
REMARK INTRA:                  -0.704
REMARK UNBOUND:                -0.336
REMARK SMILES CCCCCCC=CC(=O)[O-]
REMARK SMILES IDX 5 1 6 2 7 3 8 4 9 5 10 6 11 7 4 8 3 9 2 10 1 11
REMARK H PARENT
REMARK Flexibility Score: inf
ROOT
ATOM      1  C   UNL     1      30.735  27.152  36.224  1.00  0.00     0.004 C 
ENDROOT
BRANCH   1   2
ATOM      2  C   UNL     1      30.222  27.070  34.778  1.00  0.00     0.027 C 
BRANCH   2   3
ATOM      3  C   UNL     1      29.455  28.296  34.371  1.00  0.00    -0.025 C 
ATOM      4  C   UNL     1      29.410  29.385  35.147  1.00  0.00     0.020 C 
BRANCH   4   5
ATOM      5  C   UNL     1      28.673  30.598  34.763  1.00  0.00     0.064 C 
ATOM      6  O   UNL     1      27.571  30.888  35.301  1.00  0.00    -0.545 OA
ATOM      7  O   UNL     1      29.201  31.440  33.793  1.00  0.00    -0.545 OA
ENDBRANCH   4   5
ENDBRANCH   2   3
ENDBRANCH   1   2
BRANCH   1   8
ATOM      8  C   UNL     1      30.077  26.098  37.131  1.00  0.00     0.000 C 
BRANCH   8   9
ATOM      9  C   UNL     1      29.372  26.721  38.347  1.00  0.00    -0.000 C 
BRANCH   9  10
ATOM     10  C   UNL     1      28.056  27.419  37.974  1.00  0.00    -0.003 C 
ATOM     11  C   UNL     1      27.229  26.560  37.021  1.00  0.00     0.004 C 
ENDBRANCH   9  10
ENDBRANCH   8   9
ENDBRANCH   1   8
TORSDOF 6
ENDMDL
MODEL 5
REMARK VINA RESULT:    -3.729     10.430     11.192
REMARK INTER + INTRA:          -5.373
REMARK INTER:                  -4.685
REMARK INTRA:                  -0.689
REMARK UNBOUND:                -0.336
REMARK SMILES CCCCCCC=CC(=O)[O-]
REMARK SMILES IDX 5 1 6 2 7 3 8 4 9 5 10 6 11 7 4 8 3 9 2 10 1 11
REMARK H PARENT
REMARK Flexibility Score: inf
ROOT
ATOM      1  C   UNL     1      28.946  27.936  37.552  1.00  0.00     0.004 C 
ENDROOT
BRANCH   1   2
ATOM      2  C   UNL     1      29.671  26.680  38.060  1.00  0.00     0.027 C 
BRANCH   2   3
ATOM      3  C   UNL     1      29.504  25.508  37.134  1.00  0.00    -0.025 C 
ATOM      4  C   UNL     1      30.497  25.098  36.337  1.00  0.00     0.020 C 
BRANCH   4   5
ATOM      5  C   UNL     1      30.358  23.949  35.430  1.00  0.00     0.064 C 
ATOM      6  O   UNL     1      29.344  23.820  34.693  1.00  0.00    -0.545 OA
ATOM      7  O   UNL     1      31.362  22.991  35.383  1.00  0.00    -0.545 OA
ENDBRANCH   4   5
ENDBRANCH   2   3
ENDBRANCH   1   2
BRANCH   1   8
ATOM      8  C   UNL     1      29.911  28.923  36.871  1.00  0.00     0.000 C 
BRANCH   8   9
ATOM      9  C   UNL     1      29.384  29.425  35.517  1.00  0.00    -0.000 C 
BRANCH   9  10
ATOM     10  C   UNL     1      28.882  28.285  34.618  1.00  0.00    -0.003 C 
ATOM     11  C   UNL     1      30.028  27.670  33.820  1.00  0.00     0.004 C 
ENDBRANCH   9  10
ENDBRANCH   8   9
ENDBRANCH   1   8
TORSDOF 6
ENDMDL
MODEL 6
REMARK VINA RESULT:    -3.705     11.335     12.198
REMARK INTER + INTRA:          -5.340
REMARK INTER:                  -4.783
REMARK INTRA:                  -0.557
REMARK UNBOUND:                -0.336
REMARK SMILES CCCCCCC=CC(=O)[O-]
REMARK SMILES IDX 5 1 6 2 7 3 8 4 9 5 10 6 11 7 4 8 3 9 2 10 1 11
REMARK H PARENT
REMARK Flexibility Score: inf
ROOT
ATOM      1  C   UNL     1      30.140  26.171  37.148  1.00  0.00     0.004 C 
ENDROOT
BRANCH   1   2
ATOM      2  C   UNL     1      29.316  26.883  38.233  1.00  0.00     0.027 C 
BRANCH   2   3
ATOM      3  C   UNL     1      27.851  26.928  37.903  1.00  0.00    -0.025 C 
ATOM      4  C   UNL     1      27.366  26.371  36.788  1.00  0.00     0.020 C 
BRANCH   4   5
ATOM      5  C   UNL     1      25.935  26.397  36.451  1.00  0.00     0.064 C 
ATOM      6  O   UNL     1      25.443  27.337  35.770  1.00  0.00    -0.545 OA
ATOM      7  O   UNL     1      25.111  25.368  36.888  1.00  0.00    -0.545 OA
ENDBRANCH   4   5
ENDBRANCH   2   3
ENDBRANCH   1   2
BRANCH   1   8
ATOM      8  C   UNL     1      30.871  27.168  36.232  1.00  0.00     0.000 C 
BRANCH   8   9
ATOM      9  C   UNL     1      30.440  28.623  36.479  1.00  0.00    -0.000 C 
BRANCH   9  10
ATOM     10  C   UNL     1      29.524  29.165  35.371  1.00  0.00    -0.003 C 
ATOM     11  C   UNL     1      28.480  30.121  35.941  1.00  0.00     0.004 C 
ENDBRANCH   9  10
ENDBRANCH   8   9
ENDBRANCH   1   8
TORSDOF 6
ENDMDL
MODEL 7
REMARK VINA RESULT:    -3.648      9.945     11.123
REMARK INTER + INTRA:          -5.264
REMARK INTER:                  -4.685
REMARK INTRA:                  -0.578
REMARK UNBOUND:                -0.336
REMARK SMILES CCCCCCC=CC(=O)[O-]
REMARK SMILES IDX 5 1 6 2 7 3 8 4 9 5 10 6 11 7 4 8 3 9 2 10 1 11
REMARK H PARENT
REMARK Flexibility Score: inf
ROOT
ATOM      1  C   UNL     1      28.961  27.424  37.695  1.00  0.00     0.004 C 
ENDROOT
BRANCH   1   2
ATOM      2  C   UNL     1      29.794  28.647  37.281  1.00  0.00     0.027 C 
BRANCH   2   3
ATOM      3  C   UNL     1      28.943  29.767  36.752  1.00  0.00    -0.025 C 
ATOM      4  C   UNL     1      28.919  30.074  35.450  1.00  0.00     0.020 C 
BRANCH   4   5
ATOM      5  C   UNL     1      28.088  31.161  34.911  1.00  0.00     0.064 C 
ATOM      6  O   UNL     1      28.608  32.211  34.449  1.00  0.00    -0.545 OA
ATOM      7  O   UNL     1      26.706  31.026  34.908  1.00  0.00    -0.545 OA
ENDBRANCH   4   5
ENDBRANCH   2   3
ENDBRANCH   1   2
BRANCH   1   8
ATOM      8  C   UNL     1      29.767  26.117  37.599  1.00  0.00     0.000 C 
BRANCH   8   9
ATOM      9  C   UNL     1      30.546  26.000  36.279  1.00  0.00    -0.000 C 
BRANCH   9  10
ATOM     10  C   UNL     1      29.664  25.539  35.109  1.00  0.00    -0.003 C 
ATOM     11  C   UNL     1      29.460  26.664  34.099  1.00  0.00     0.004 C 
ENDBRANCH   9  10
ENDBRANCH   8   9
ENDBRANCH   1   8
TORSDOF 6
ENDMDL
MODEL 8
REMARK VINA RESULT:    -3.648      2.750      4.965
REMARK INTER + INTRA:          -5.263
REMARK INTER:                  -4.801
REMARK INTRA:                  -0.462
REMARK UNBOUND:                -0.336
REMARK SMILES CCCCCCC=CC(=O)[O-]
REMARK SMILES IDX 5 1 6 2 7 3 8 4 9 5 10 6 11 7 4 8 3 9 2 10 1 11
REMARK H PARENT
REMARK Flexibility Score: inf
ROOT
ATOM      1  C   UNL     1      35.039  35.295  34.568  1.00  0.00     0.004 C 
ENDROOT
BRANCH   1   2
ATOM      2  C   UNL     1      35.361  36.229  33.391  1.00  0.00     0.027 C 
BRANCH   2   3
ATOM      3  C   UNL     1      36.459  37.202  33.716  1.00  0.00    -0.025 C 
ATOM      4  C   UNL     1      37.164  37.810  32.755  1.00  0.00     0.020 C 
BRANCH   4   5
ATOM      5  C   UNL     1      38.236  38.772  33.052  1.00  0.00     0.064 C 
ATOM      6  O   UNL     1      38.010  39.813  33.725  1.00  0.00    -0.545 OA
ATOM      7  O   UNL     1      39.521  38.529  32.583  1.00  0.00    -0.545 OA
ENDBRANCH   4   5
ENDBRANCH   2   3
ENDBRANCH   1   2
BRANCH   1   8
ATOM      8  C   UNL     1      36.172  35.265  35.608  1.00  0.00     0.000 C 
BRANCH   8   9
ATOM      9  C   UNL     1      36.569  33.835  36.009  1.00  0.00    -0.000 C 
BRANCH   9  10
ATOM     10  C   UNL     1      37.961  33.441  35.494  1.00  0.00    -0.003 C 
ATOM     11  C   UNL     1      37.891  32.941  34.053  1.00  0.00     0.004 C 
ENDBRANCH   9  10
ENDBRANCH   8   9
ENDBRANCH   1   8
TORSDOF 6
ENDMDL
MODEL 9
REMARK VINA RESULT:    -3.599     11.434     12.557
REMARK INTER + INTRA:          -5.197
REMARK INTER:                  -4.486
REMARK INTRA:                  -0.711
REMARK UNBOUND:                -0.336
REMARK SMILES CCCCCCC=CC(=O)[O-]
REMARK SMILES IDX 5 1 6 2 7 3 8 4 9 5 10 6 11 7 4 8 3 9 2 10 1 11
REMARK H PARENT
REMARK Flexibility Score: inf
ROOT
ATOM      1  C   UNL     1      29.244  29.216  35.288  1.00  0.00     0.004 C 
ENDROOT
BRANCH   1   2
ATOM      2  C   UNL     1      27.719  29.056  35.388  1.00  0.00     0.027 C 
BRANCH   2   3
ATOM      3  C   UNL     1      27.293  27.615  35.397  1.00  0.00    -0.025 C 
ATOM      4  C   UNL     1      26.539  27.113  36.381  1.00  0.00     0.020 C 
BRANCH   4   5
ATOM      5  C   UNL     1      26.105  25.709  36.405  1.00  0.00     0.064 C 
ATOM      6  O   UNL     1      25.001  25.377  36.914  1.00  0.00    -0.545 OA
ATOM      7  O   UNL     1      26.923  24.731  35.854  1.00  0.00    -0.545 OA
ENDBRANCH   4   5
ENDBRANCH   2   3
ENDBRANCH   1   2
BRANCH   1   8
ATOM      8  C   UNL     1      29.958  28.764  36.574  1.00  0.00     0.000 C 
BRANCH   8   9
ATOM      9  C   UNL     1      30.841  27.525  36.354  1.00  0.00    -0.000 C 
BRANCH   9  10
ATOM     10  C   UNL     1      30.298  26.277  37.068  1.00  0.00    -0.003 C 
ATOM     11  C   UNL     1      29.522  26.659  38.325  1.00  0.00     0.004 C 
ENDBRANCH   9  10
ENDBRANCH   8   9
ENDBRANCH   1   8
TORSDOF 6
ENDMDL
