MODEL 1
REMARK VINA RESULT:    -2.975      0.000      0.000
REMARK INTER + INTRA:          -3.236
REMARK INTER:                  -3.236
REMARK INTRA:                   0.000
REMARK UNBOUND:                 0.000
REMARK SMILES [NH3+]CC(=O)[O-]
REMARK SMILES IDX 2 1 1 2 3 6 4 7 5 8
REMARK H PARENT 1 3 1 4 1 5
REMARK Flexibility Score: inf
ROOT
ATOM      1  C   UNL     1      -8.170  -6.487 -13.381  1.00  0.00     0.312 C 
ENDROOT
BRANCH   1   2
ATOM      2  N   UNL     1      -8.728  -6.508 -12.030  1.00  0.00    -0.353 N 
ATOM      3  H   UNL     1      -9.113  -7.459 -11.835  1.00  0.00     0.344 HD
ATOM      4  H   UNL     1      -7.980  -6.294 -11.331  1.00  0.00     0.344 HD
ATOM      5  H   UNL     1      -9.499  -5.806 -11.950  1.00  0.00     0.344 HD
ENDBRANCH   1   2
BRANCH   1   6
ATOM      6  C   UNL     1      -9.097  -5.785 -14.325  1.00  0.00     0.096 C 
ATOM      7  O   UNL     1     -10.254  -6.238 -14.530  1.00  0.00    -0.544 OA
ATOM      8  O   UNL     1      -8.665  -4.661 -15.016  1.00  0.00    -0.544 OA
ENDBRANCH   1   6
TORSDOF 2
ENDMDL
MODEL 2
REMARK VINA RESULT:    -2.955      0.198      1.458
REMARK INTER + INTRA:          -3.214
REMARK INTER:                  -3.214
REMARK INTRA:                   0.000
REMARK UNBOUND:                 0.000
REMARK SMILES [NH3+]CC(=O)[O-]
REMARK SMILES IDX 2 1 1 2 3 6 4 7 5 8
REMARK H PARENT 1 3 1 4 1 5
REMARK Flexibility Score: inf
ROOT
ATOM      1  C   UNL     1      -8.275  -6.520 -13.478  1.00  0.00     0.312 C 
ENDROOT
BRANCH   1   2
ATOM      2  N   UNL     1      -8.725  -6.474 -12.087  1.00  0.00    -0.353 N 
ATOM      3  H   UNL     1      -9.003  -7.436 -11.787  1.00  0.00     0.344 HD
ATOM      4  H   UNL     1      -7.950  -6.137 -11.471  1.00  0.00     0.344 HD
ATOM      5  H   UNL     1      -9.550  -5.838 -11.999  1.00  0.00     0.344 HD
ENDBRANCH   1   2
BRANCH   1   6
ATOM      6  C   UNL     1      -9.228  -5.782 -14.366  1.00  0.00     0.096 C 
ATOM      7  O   UNL     1      -8.903  -4.668 -14.855  1.00  0.00    -0.544 OA
ATOM      8  O   UNL     1     -10.493  -6.299 -14.612  1.00  0.00    -0.544 OA
ENDBRANCH   1   6
TORSDOF 2
ENDMDL
MODEL 3
REMARK VINA RESULT:    -2.941      1.893      1.982
REMARK INTER + INTRA:          -3.199
REMARK INTER:                  -3.199
REMARK INTRA:                   0.000
REMARK UNBOUND:                 0.000
REMARK SMILES [NH3+]CC(=O)[O-]
REMARK SMILES IDX 2 1 1 2 3 6 4 7 5 8
REMARK H PARENT 1 3 1 4 1 5
REMARK Flexibility Score: inf
ROOT
ATOM      1  C   UNL     1      -8.825  -6.118 -13.569  1.00  0.00     0.312 C 
ENDROOT
BRANCH   1   2
ATOM      2  N   UNL     1      -8.768  -6.490 -12.157  1.00  0.00    -0.353 N 
ATOM      3  H   UNL     1      -9.646  -6.997 -11.902  1.00  0.00     0.344 HD
ATOM      4  H   UNL     1      -7.951  -7.120 -11.985  1.00  0.00     0.344 HD
ATOM      5  H   UNL     1      -8.687  -5.634 -11.563  1.00  0.00     0.344 HD
ENDBRANCH   1   2
BRANCH   1   6
ATOM      6  C   UNL     1      -7.581  -6.552 -14.280  1.00  0.00     0.096 C 
ATOM      7  O   UNL     1      -7.169  -7.737 -14.169  1.00  0.00    -0.544 OA
ATOM      8  O   UNL     1      -6.849  -5.637 -15.024  1.00  0.00    -0.544 OA
ENDBRANCH   1   6
TORSDOF 2
ENDMDL
MODEL 4
REMARK VINA RESULT:    -2.914      4.262      4.482
REMARK INTER + INTRA:          -3.169
REMARK INTER:                  -3.169
REMARK INTRA:                   0.000
REMARK UNBOUND:                 0.000
REMARK SMILES [NH3+]CC(=O)[O-]
REMARK SMILES IDX 2 1 1 2 3 6 4 7 5 8
REMARK H PARENT 1 3 1 4 1 5
REMARK Flexibility Score: inf
ROOT
ATOM      1  C   UNL     1      -7.161  -4.883  -9.567  1.00  0.00     0.312 C 
ENDROOT
BRANCH   1   2
ATOM      2  N   UNL     1      -7.800  -4.918  -8.252  1.00  0.00    -0.353 N 
ATOM      3  H   UNL     1      -7.067  -4.817  -7.514  1.00  0.00     0.344 HD
ATOM      4  H   UNL     1      -8.481  -4.129  -8.164  1.00  0.00     0.344 HD
ATOM      5  H   UNL     1      -8.294  -5.829  -8.118  1.00  0.00     0.344 HD
ENDBRANCH   1   2
BRANCH   1   6
ATOM      6  C   UNL     1      -7.491  -6.118 -10.347  1.00  0.00     0.096 C 
ATOM      7  O   UNL     1      -7.099  -7.245  -9.944  1.00  0.00    -0.544 OA
ATOM      8  O   UNL     1      -8.187  -6.019 -11.544  1.00  0.00    -0.544 OA
ENDBRANCH   1   6
TORSDOF 2
ENDMDL
MODEL 5
REMARK VINA RESULT:    -2.888      2.244      2.632
REMARK INTER + INTRA:          -3.141
REMARK INTER:                  -3.141
REMARK INTRA:                   0.000
REMARK UNBOUND:                 0.000
REMARK SMILES [NH3+]CC(=O)[O-]
REMARK SMILES IDX 2 1 1 2 3 6 4 7 5 8
REMARK H PARENT 1 3 1 4 1 5
REMARK Flexibility Score: inf
ROOT
ATOM      1  C   UNL     1     -10.176  -6.458 -14.497  1.00  0.00     0.312 C 
ENDROOT
BRANCH   1   2
ATOM      2  N   UNL     1     -10.886  -5.306 -15.049  1.00  0.00    -0.353 N 
ATOM      3  H   UNL     1     -10.193  -4.657 -15.488  1.00  0.00     0.344 HD
ATOM      4  H   UNL     1     -11.566  -5.619 -15.779  1.00  0.00     0.344 HD
ATOM      5  H   UNL     1     -11.391  -4.797 -14.288  1.00  0.00     0.344 HD
ENDBRANCH   1   2
BRANCH   1   6
ATOM      6  C   UNL     1      -8.837  -6.050 -13.967  1.00  0.00     0.096 C 
ATOM      7  O   UNL     1      -7.953  -5.612 -14.750  1.00  0.00    -0.544 OA
ATOM      8  O   UNL     1      -8.548  -6.200 -12.617  1.00  0.00    -0.544 OA
ENDBRANCH   1   6
TORSDOF 2
ENDMDL
MODEL 6
REMARK VINA RESULT:    -2.875      2.592      2.670
REMARK INTER + INTRA:          -3.127
REMARK INTER:                  -3.127
REMARK INTRA:                   0.000
REMARK UNBOUND:                 0.000
REMARK SMILES [NH3+]CC(=O)[O-]
REMARK SMILES IDX 2 1 1 2 3 6 4 7 5 8
REMARK H PARENT 1 3 1 4 1 5
REMARK Flexibility Score: inf
ROOT
ATOM      1  C   UNL     1      -9.717  -5.588 -14.743  1.00  0.00     0.312 C 
ENDROOT
BRANCH   1   2
ATOM      2  N   UNL     1     -11.124  -5.390 -15.089  1.00  0.00    -0.353 N 
ATOM      3  H   UNL     1     -11.273  -5.674 -16.084  1.00  0.00     0.344 HD
ATOM      4  H   UNL     1     -11.731  -5.978 -14.473  1.00  0.00     0.344 HD
ATOM      5  H   UNL     1     -11.381  -4.382 -14.982  1.00  0.00     0.344 HD
ENDBRANCH   1   2
BRANCH   1   6
ATOM      6  C   UNL     1      -8.894  -4.420 -15.188  1.00  0.00     0.096 C 
ATOM      7  O   UNL     1      -9.385  -3.260 -15.183  1.00  0.00    -0.544 OA
ATOM      8  O   UNL     1      -7.602  -4.618 -15.658  1.00  0.00    -0.544 OA
ENDBRANCH   1   6
TORSDOF 2
ENDMDL
MODEL 7
REMARK VINA RESULT:    -2.868      2.150      2.372
REMARK INTER + INTRA:          -3.120
REMARK INTER:                  -3.120
REMARK INTRA:                   0.000
REMARK UNBOUND:                 0.000
REMARK SMILES [NH3+]CC(=O)[O-]
REMARK SMILES IDX 2 1 1 2 3 6 4 7 5 8
REMARK H PARENT 1 3 1 4 1 5
REMARK Flexibility Score: inf
ROOT
ATOM      1  C   UNL     1      -7.364  -6.697 -14.322  1.00  0.00     0.312 C 
ENDROOT
BRANCH   1   2
ATOM      2  N   UNL     1      -6.639  -5.504 -14.756  1.00  0.00    -0.353 N 
ATOM      3  H   UNL     1      -5.617  -5.722 -14.799  1.00  0.00     0.344 HD
ATOM      4  H   UNL     1      -6.963  -5.214 -15.707  1.00  0.00     0.344 HD
ATOM      5  H   UNL     1      -6.791  -4.725 -14.076  1.00  0.00     0.344 HD
ENDBRANCH   1   2
BRANCH   1   6
ATOM      6  C   UNL     1      -8.575  -6.319 -13.527  1.00  0.00     0.096 C 
ATOM      7  O   UNL     1      -8.490  -6.161 -12.281  1.00  0.00    -0.544 OA
ATOM      8  O   UNL     1      -9.807  -6.191 -14.154  1.00  0.00    -0.544 OA
ENDBRANCH   1   6
TORSDOF 2
ENDMDL
MODEL 8
REMARK VINA RESULT:    -2.854      2.437      3.051
REMARK INTER + INTRA:          -3.104
REMARK INTER:                  -3.104
REMARK INTRA:                   0.000
REMARK UNBOUND:                 0.000
REMARK SMILES [NH3+]CC(=O)[O-]
REMARK SMILES IDX 2 1 1 2 3 6 4 7 5 8
REMARK H PARENT 1 3 1 4 1 5
REMARK Flexibility Score: inf
ROOT
ATOM      1  C   UNL     1      -9.544  -4.216 -15.455  1.00  0.00     0.312 C 
ENDROOT
BRANCH   1   2
ATOM      2  N   UNL     1      -8.631  -3.076 -15.406  1.00  0.00    -0.353 N 
ATOM      3  H   UNL     1      -8.380  -2.797 -16.382  1.00  0.00     0.344 HD
ATOM      4  H   UNL     1      -9.093  -2.267 -14.931  1.00  0.00     0.344 HD
ATOM      5  H   UNL     1      -7.758  -3.337 -14.893  1.00  0.00     0.344 HD
ENDBRANCH   1   2
BRANCH   1   6
ATOM      6  C   UNL     1      -8.968  -5.386 -14.720  1.00  0.00     0.096 C 
ATOM      7  O   UNL     1      -7.725  -5.589 -14.727  1.00  0.00    -0.544 OA
ATOM      8  O   UNL     1      -9.807  -6.282 -14.070  1.00  0.00    -0.544 OA
ENDBRANCH   1   6
TORSDOF 2
ENDMDL
MODEL 9
REMARK VINA RESULT:    -2.846      2.441      2.726
REMARK INTER + INTRA:          -3.096
REMARK INTER:                  -3.096
REMARK INTRA:                   0.000
REMARK UNBOUND:                 0.000
REMARK SMILES [NH3+]CC(=O)[O-]
REMARK SMILES IDX 2 1 1 2 3 6 4 7 5 8
REMARK H PARENT 1 3 1 4 1 5
REMARK Flexibility Score: inf
ROOT
ATOM      1  C   UNL     1      -9.539  -4.260 -15.469  1.00  0.00     0.312 C 
ENDROOT
BRANCH   1   2
ATOM      2  N   UNL     1      -8.626  -3.120 -15.416  1.00  0.00    -0.353 N 
ATOM      3  H   UNL     1      -7.858  -3.265 -16.110  1.00  0.00     0.344 HD
ATOM      4  H   UNL     1      -9.137  -2.240 -15.655  1.00  0.00     0.344 HD
ATOM      5  H   UNL     1      -8.208  -3.039 -14.461  1.00  0.00     0.344 HD
ENDBRANCH   1   2
BRANCH   1   6
ATOM      6  C   UNL     1      -8.967  -5.430 -14.730  1.00  0.00     0.096 C 
ATOM      7  O   UNL     1      -9.720  -6.186 -14.061  1.00  0.00    -0.544 OA
ATOM      8  O   UNL     1      -7.597  -5.656 -14.738  1.00  0.00    -0.544 OA
ENDBRANCH   1   6
TORSDOF 2
ENDMDL
