MODEL 1
REMARK VINA RESULT:    -4.715      0.000      0.000
REMARK INTER + INTRA:          -9.668
REMARK INTER:                  -8.849
REMARK INTRA:                  -0.819
REMARK UNBOUND:                -0.819
REMARK SMILES O=C([O-])CCCCCCCCCCCCCCC(=O)[O-]
REMARK SMILES IDX 10 1 9 2 8 3 7 4 6 5 5 6 4 7 2 8 1 9 3 10 11 11 12 12 13 13
REMARK SMILES IDX 14 14 15 15 16 16 17 17 18 18 19 19 20 20
REMARK H PARENT
REMARK Flexibility Score: inf
ROOT
ATOM      1  C   UNL     1      28.124   5.770  41.400  1.00  0.00     0.000 C 
ENDROOT
BRANCH   1   2
ATOM      2  C   UNL     1      26.653   5.460  41.725  1.00  0.00     0.000 C 
BRANCH   2   3
ATOM      3  C   UNL     1      26.204   4.089  41.199  1.00  0.00     0.000 C 
BRANCH   3   4
ATOM      4  C   UNL     1      25.112   4.242  40.134  1.00  0.00     0.000 C 
BRANCH   4   5
ATOM      5  C   UNL     1      24.858   2.912  39.409  1.00  0.00     0.000 C 
BRANCH   5   6
ATOM      6  C   UNL     1      23.363   2.612  39.201  1.00  0.00     0.006 C 
BRANCH   6   7
ATOM      7  C   UNL     1      23.075   1.189  38.690  1.00  0.00     0.053 C 
BRANCH   7   8
ATOM      8  C   UNL     1      23.495   0.129  39.664  1.00  0.00     0.041 C 
ATOM      9  O   UNL     1      23.297   0.285  40.898  1.00  0.00    -0.550 OA
ATOM     10  O   UNL     1      24.135  -1.018  39.211  1.00  0.00    -0.550 OA
ENDBRANCH   7   8
ENDBRANCH   6   7
ENDBRANCH   5   6
ENDBRANCH   4   5
ENDBRANCH   3   4
ENDBRANCH   2   3
ENDBRANCH   1   2
BRANCH   1  11
ATOM     11  C   UNL     1      28.896   4.530  40.919  1.00  0.00     0.000 C 
BRANCH  11  12
ATOM     12  C   UNL     1      29.330   4.639  39.447  1.00  0.00     0.000 C 
BRANCH  12  13
ATOM     13  C   UNL     1      30.855   4.584  39.274  1.00  0.00     0.000 C 
BRANCH  13  14
ATOM     14  C   UNL     1      31.532   5.755  39.999  1.00  0.00     0.000 C 
BRANCH  14  15
ATOM     15  C   UNL     1      32.436   5.250  41.133  1.00  0.00     0.000 C 
BRANCH  15  16
ATOM     16  C   UNL     1      33.909   5.660  40.949  1.00  0.00     0.006 C 
BRANCH  16  17
ATOM     17  C   UNL     1      34.502   5.294  39.579  1.00  0.00     0.053 C 
BRANCH  17  18
ATOM     18  C   UNL     1      35.500   4.182  39.678  1.00  0.00     0.041 C 
ATOM     19  O   UNL     1      36.083   3.760  38.644  1.00  0.00    -0.550 OA
ATOM     20  O   UNL     1      35.811   3.633  40.915  1.00  0.00    -0.550 OA
ENDBRANCH  17  18
ENDBRANCH  16  17
ENDBRANCH  15  16
ENDBRANCH  14  15
ENDBRANCH  13  14
ENDBRANCH  12  13
ENDBRANCH  11  12
ENDBRANCH   1  11
TORSDOF 15
ENDMDL
MODEL 2
REMARK VINA RESULT:    -4.496      2.867      3.736
REMARK INTER + INTRA:          -9.257
REMARK INTER:                  -7.696
REMARK INTRA:                  -1.561
REMARK UNBOUND:                -0.819
REMARK SMILES O=C([O-])CCCCCCCCCCCCCCC(=O)[O-]
REMARK SMILES IDX 10 1 9 2 8 3 7 4 6 5 5 6 4 7 2 8 1 9 3 10 11 11 12 12 13 13
REMARK SMILES IDX 14 14 15 15 16 16 17 17 18 18 19 19 20 20
REMARK H PARENT
REMARK Flexibility Score: inf
ROOT
ATOM      1  C   UNL     1      28.625   4.205  39.557  1.00  0.00     0.000 C 
ENDROOT
BRANCH   1   2
ATOM      2  C   UNL     1      28.578   4.291  41.092  1.00  0.00     0.000 C 
BRANCH   2   3
ATOM      3  C   UNL     1      27.350   5.057  41.607  1.00  0.00     0.000 C 
BRANCH   3   4
ATOM      4  C   UNL     1      26.126   4.138  41.689  1.00  0.00     0.000 C 
BRANCH   4   5
ATOM      5  C   UNL     1      25.057   4.550  40.667  1.00  0.00     0.000 C 
BRANCH   5   6
ATOM      6  C   UNL     1      24.738   3.443  39.646  1.00  0.00     0.006 C 
BRANCH   6   7
ATOM      7  C   UNL     1      24.005   2.230  40.248  1.00  0.00     0.053 C 
BRANCH   7   8
ATOM      8  C   UNL     1      23.473   1.297  39.203  1.00  0.00     0.041 C 
ATOM      9  O   UNL     1      23.803   0.081  39.209  1.00  0.00    -0.550 OA
ATOM     10  O   UNL     1      22.638   1.776  38.201  1.00  0.00    -0.550 OA
ENDBRANCH   7   8
ENDBRANCH   6   7
ENDBRANCH   5   6
ENDBRANCH   4   5
ENDBRANCH   3   4
ENDBRANCH   2   3
ENDBRANCH   1   2
BRANCH   1  11
ATOM     11  C   UNL     1      30.046   4.393  38.998  1.00  0.00     0.000 C 
BRANCH  11  12
ATOM     12  C   UNL     1      30.357   5.861  38.661  1.00  0.00     0.000 C 
BRANCH  12  13
ATOM     13  C   UNL     1      31.435   6.463  39.575  1.00  0.00     0.000 C 
BRANCH  13  14
ATOM     14  C   UNL     1      32.510   5.423  39.914  1.00  0.00     0.000 C 
BRANCH  14  15
ATOM     15  C   UNL     1      32.863   5.464  41.408  1.00  0.00     0.000 C 
BRANCH  15  16
ATOM     16  C   UNL     1      31.731   6.048  42.273  1.00  0.00     0.006 C 
BRANCH  16  17
ATOM     17  C   UNL     1      31.294   5.144  43.437  1.00  0.00     0.053 C 
BRANCH  17  18
ATOM     18  C   UNL     1      30.122   5.709  44.179  1.00  0.00     0.041 C 
ATOM     19  O   UNL     1      29.612   6.802  43.818  1.00  0.00    -0.550 OA
ATOM     20  O   UNL     1      29.573   5.012  45.247  1.00  0.00    -0.550 OA
ENDBRANCH  17  18
ENDBRANCH  16  17
ENDBRANCH  15  16
ENDBRANCH  14  15
ENDBRANCH  13  14
ENDBRANCH  12  13
ENDBRANCH  11  12
ENDBRANCH   1  11
TORSDOF 15
ENDMDL
MODEL 3
REMARK VINA RESULT:    -4.432      4.998     10.168
REMARK INTER + INTRA:          -9.137
REMARK INTER:                  -8.477
REMARK INTRA:                  -0.660
REMARK UNBOUND:                -0.819
REMARK SMILES O=C([O-])CCCCCCCCCCCCCCC(=O)[O-]
REMARK SMILES IDX 10 1 9 2 8 3 7 4 6 5 5 6 4 7 2 8 1 9 3 10 11 11 12 12 13 13
REMARK SMILES IDX 14 14 15 15 16 16 17 17 18 18 19 19 20 20
REMARK H PARENT
REMARK Flexibility Score: inf
ROOT
ATOM      1  C   UNL     1      30.293   4.695  43.360  1.00  0.00     0.000 C 
ENDROOT
BRANCH   1   2
ATOM      2  C   UNL     1      31.274   5.873  43.470  1.00  0.00     0.000 C 
BRANCH   2   3
ATOM      3  C   UNL     1      32.078   5.857  44.779  1.00  0.00     0.000 C 
BRANCH   3   4
ATOM      4  C   UNL     1      31.376   5.003  45.842  1.00  0.00     0.000 C 
BRANCH   4   5
ATOM      5  C   UNL     1      30.626   5.885  46.851  1.00  0.00     0.000 C 
BRANCH   5   6
ATOM      6  C   UNL     1      31.272   5.886  48.249  1.00  0.00     0.006 C 
BRANCH   6   7
ATOM      7  C   UNL     1      30.687   4.834  49.208  1.00  0.00     0.053 C 
BRANCH   7   8
ATOM      8  C   UNL     1      31.712   3.848  49.682  1.00  0.00     0.041 C 
ATOM      9  O   UNL     1      32.044   3.810  50.897  1.00  0.00    -0.550 OA
ATOM     10  O   UNL     1      32.327   2.993  48.776  1.00  0.00    -0.550 OA
ENDBRANCH   7   8
ENDBRANCH   6   7
ENDBRANCH   5   6
ENDBRANCH   4   5
ENDBRANCH   3   4
ENDBRANCH   2   3
ENDBRANCH   1   2
BRANCH   1  11
ATOM     11  C   UNL     1      29.582   4.644  41.997  1.00  0.00     0.000 C 
BRANCH  11  12
ATOM     12  C   UNL     1      28.113   4.203  42.115  1.00  0.00     0.000 C 
BRANCH  12  13
ATOM     13  C   UNL     1      27.316   4.448  40.824  1.00  0.00     0.000 C 
BRANCH  13  14
ATOM     14  C   UNL     1      25.871   3.954  40.971  1.00  0.00     0.000 C 
BRANCH  14  15
ATOM     15  C   UNL     1      25.203   3.790  39.598  1.00  0.00     0.000 C 
BRANCH  15  16
ATOM     16  C   UNL     1      24.603   2.387  39.390  1.00  0.00     0.006 C 
BRANCH  16  17
ATOM     17  C   UNL     1      23.071   2.367  39.263  1.00  0.00     0.053 C 
BRANCH  17  18
ATOM     18  C   UNL     1      22.394   2.563  40.584  1.00  0.00     0.041 C 
ATOM     19  O   UNL     1      22.811   1.955  41.605  1.00  0.00    -0.550 OA
ATOM     20  O   UNL     1      21.324   3.441  40.695  1.00  0.00    -0.550 OA
ENDBRANCH  17  18
ENDBRANCH  16  17
ENDBRANCH  15  16
ENDBRANCH  14  15
ENDBRANCH  13  14
ENDBRANCH  12  13
ENDBRANCH  11  12
ENDBRANCH   1  11
TORSDOF 15
ENDMDL
MODEL 4
REMARK VINA RESULT:    -4.420      6.277      8.746
REMARK INTER + INTRA:          -9.115
REMARK INTER:                  -7.008
REMARK INTRA:                  -2.107
REMARK UNBOUND:                -0.819
REMARK SMILES O=C([O-])CCCCCCCCCCCCCCC(=O)[O-]
REMARK SMILES IDX 10 1 9 2 8 3 7 4 6 5 5 6 4 7 2 8 1 9 3 10 11 11 12 12 13 13
REMARK SMILES IDX 14 14 15 15 16 16 17 17 18 18 19 19 20 20
REMARK H PARENT
REMARK Flexibility Score: inf
ROOT
ATOM      1  C   UNL     1      29.795   9.089  46.055  1.00  0.00     0.000 C 
ENDROOT
BRANCH   1   2
ATOM      2  C   UNL     1      28.815   8.130  45.358  1.00  0.00     0.000 C 
BRANCH   2   3
ATOM      3  C   UNL     1      27.950   7.340  46.352  1.00  0.00     0.000 C 
BRANCH   3   4
ATOM      4  C   UNL     1      28.730   7.037  47.636  1.00  0.00     0.000 C 
BRANCH   4   5
ATOM      5  C   UNL     1      28.991   5.530  47.781  1.00  0.00     0.000 C 
BRANCH   5   6
ATOM      6  C   UNL     1      29.727   5.166  49.084  1.00  0.00     0.006 C 
BRANCH   6   7
ATOM      7  C   UNL     1      31.256   5.070  48.932  1.00  0.00     0.053 C 
BRANCH   7   8
ATOM      8  C   UNL     1      31.833   3.875  49.628  1.00  0.00     0.041 C 
ATOM      9  O   UNL     1      31.854   3.822  50.887  1.00  0.00    -0.550 OA
ATOM     10  O   UNL     1      32.377   2.833  48.888  1.00  0.00    -0.550 OA
ENDBRANCH   7   8
ENDBRANCH   6   7
ENDBRANCH   5   6
ENDBRANCH   4   5
ENDBRANCH   3   4
ENDBRANCH   2   3
ENDBRANCH   1   2
BRANCH   1  11
ATOM     11  C   UNL     1      31.053   9.363  45.214  1.00  0.00     0.000 C 
BRANCH  11  12
ATOM     12  C   UNL     1      32.345   8.934  45.929  1.00  0.00     0.000 C 
BRANCH  12  13
ATOM     13  C   UNL     1      32.352   7.442  46.296  1.00  0.00     0.000 C 
BRANCH  13  14
ATOM     14  C   UNL     1      32.342   6.567  45.036  1.00  0.00     0.000 C 
BRANCH  14  15
ATOM     15  C   UNL     1      31.398   5.369  45.206  1.00  0.00     0.000 C 
BRANCH  15  16
ATOM     16  C   UNL     1      30.463   5.169  43.998  1.00  0.00     0.006 C 
BRANCH  16  17
ATOM     17  C   UNL     1      31.190   5.054  42.648  1.00  0.00     0.053 C 
BRANCH  17  18
ATOM     18  C   UNL     1      30.244   4.765  41.524  1.00  0.00     0.041 C 
ATOM     19  O   UNL     1      29.084   4.338  41.765  1.00  0.00    -0.550 OA
ATOM     20  O   UNL     1      30.632   4.999  40.211  1.00  0.00    -0.550 OA
ENDBRANCH  17  18
ENDBRANCH  16  17
ENDBRANCH  15  16
ENDBRANCH  14  15
ENDBRANCH  13  14
ENDBRANCH  12  13
ENDBRANCH  11  12
ENDBRANCH   1  11
TORSDOF 15
ENDMDL
MODEL 5
REMARK VINA RESULT:    -4.416      6.889     11.145
REMARK INTER + INTRA:          -9.106
REMARK INTER:                  -7.587
REMARK INTRA:                  -1.519
REMARK UNBOUND:                -0.819
REMARK SMILES O=C([O-])CCCCCCCCCCCCCCC(=O)[O-]
REMARK SMILES IDX 10 1 9 2 8 3 7 4 6 5 5 6 4 7 2 8 1 9 3 10 11 11 12 12 13 13
REMARK SMILES IDX 14 14 15 15 16 16 17 17 18 18 19 19 20 20
REMARK H PARENT
REMARK Flexibility Score: inf
ROOT
ATOM      1  C   UNL     1      20.469   4.687  42.118  1.00  0.00     0.000 C 
ENDROOT
BRANCH   1   2
ATOM      2  C   UNL     1      21.353   3.910  43.108  1.00  0.00     0.000 C 
BRANCH   2   3
ATOM      3  C   UNL     1      22.326   2.950  42.408  1.00  0.00     0.000 C 
BRANCH   3   4
ATOM      4  C   UNL     1      23.695   3.609  42.205  1.00  0.00     0.000 C 
BRANCH   4   5
ATOM      5  C   UNL     1      24.252   3.304  40.806  1.00  0.00     0.000 C 
BRANCH   5   6
ATOM      6  C   UNL     1      23.265   2.525  39.919  1.00  0.00     0.006 C 
BRANCH   6   7
ATOM      7  C   UNL     1      23.915   1.388  39.109  1.00  0.00     0.053 C 
BRANCH   7   8
ATOM      8  C   UNL     1      23.666   0.036  39.706  1.00  0.00     0.041 C 
ATOM      9  O   UNL     1      23.211  -0.068  40.877  1.00  0.00    -0.550 OA
ATOM     10  O   UNL     1      23.965  -1.111  38.982  1.00  0.00    -0.550 OA
ENDBRANCH   7   8
ENDBRANCH   6   7
ENDBRANCH   5   6
ENDBRANCH   4   5
ENDBRANCH   3   4
ENDBRANCH   2   3
ENDBRANCH   1   2
BRANCH   1  11
ATOM     11  C   UNL     1      20.186   3.895  40.830  1.00  0.00     0.000 C 
BRANCH  11  12
ATOM     12  C   UNL     1      18.827   3.177  40.866  1.00  0.00     0.000 C 
BRANCH  12  13
ATOM     13  C   UNL     1      17.827   3.848  41.820  1.00  0.00     0.000 C 
BRANCH  13  14
ATOM     14  C   UNL     1      17.070   2.801  42.646  1.00  0.00     0.000 C 
BRANCH  14  15
ATOM     15  C   UNL     1      17.898   1.516  42.796  1.00  0.00     0.000 C 
BRANCH  15  16
ATOM     16  C   UNL     1      17.348   0.574  43.883  1.00  0.00     0.006 C 
BRANCH  16  17
ATOM     17  C   UNL     1      17.943  -0.842  43.854  1.00  0.00     0.053 C 
BRANCH  17  18
ATOM     18  C   UNL     1      19.371  -0.861  44.304  1.00  0.00     0.041 C 
ATOM     19  O   UNL     1      20.303  -0.841  43.456  1.00  0.00    -0.550 OA
ATOM     20  O   UNL     1      19.675  -0.868  45.659  1.00  0.00    -0.550 OA
ENDBRANCH  17  18
ENDBRANCH  16  17
ENDBRANCH  15  16
ENDBRANCH  14  15
ENDBRANCH  13  14
ENDBRANCH  12  13
ENDBRANCH  11  12
ENDBRANCH   1  11
TORSDOF 15
ENDMDL
MODEL 6
REMARK VINA RESULT:    -4.341     13.520     16.330
REMARK INTER + INTRA:          -8.966
REMARK INTER:                  -7.276
REMARK INTRA:                  -1.690
REMARK UNBOUND:                -0.819
REMARK SMILES O=C([O-])CCCCCCCCCCCCCCC(=O)[O-]
REMARK SMILES IDX 10 1 9 2 8 3 7 4 6 5 5 6 4 7 2 8 1 9 3 10 11 11 12 12 13 13
REMARK SMILES IDX 14 14 15 15 16 16 17 17 18 18 19 19 20 20
REMARK H PARENT
REMARK Flexibility Score: inf
ROOT
ATOM      1  C   UNL     1      24.053  -5.473  51.781  1.00  0.00     0.000 C 
ENDROOT
BRANCH   1   2
ATOM      2  C   UNL     1      24.276  -5.239  53.284  1.00  0.00     0.000 C 
BRANCH   2   3
ATOM      3  C   UNL     1      23.101  -4.509  53.952  1.00  0.00     0.000 C 
BRANCH   3   4
ATOM      4  C   UNL     1      23.203  -2.994  53.736  1.00  0.00     0.000 C 
BRANCH   4   5
ATOM      5  C   UNL     1      23.411  -2.260  55.069  1.00  0.00     0.000 C 
BRANCH   5   6
ATOM      6  C   UNL     1      24.280  -3.049  56.064  1.00  0.00     0.006 C 
BRANCH   6   7
ATOM      7  C   UNL     1      23.719  -3.079  57.497  1.00  0.00     0.053 C 
BRANCH   7   8
ATOM      8  C   UNL     1      22.249  -3.372  57.537  1.00  0.00     0.041 C 
ATOM      9  O   UNL     1      21.827  -4.538  57.316  1.00  0.00    -0.550 OA
ATOM     10  O   UNL     1      21.342  -2.349  57.787  1.00  0.00    -0.550 OA
ENDBRANCH   7   8
ENDBRANCH   6   7
ENDBRANCH   5   6
ENDBRANCH   4   5
ENDBRANCH   3   4
ENDBRANCH   2   3
ENDBRANCH   1   2
BRANCH   1  11
ATOM     11  C   UNL     1      22.573  -5.702  51.432  1.00  0.00     0.000 C 
BRANCH  11  12
ATOM     12  C   UNL     1      22.156  -4.990  50.134  1.00  0.00     0.000 C 
BRANCH  12  13
ATOM     13  C   UNL     1      21.212  -3.805  50.385  1.00  0.00     0.000 C 
BRANCH  13  14
ATOM     14  C   UNL     1      21.821  -2.498  49.860  1.00  0.00     0.000 C 
BRANCH  14  15
ATOM     15  C   UNL     1      23.343  -2.625  49.702  1.00  0.00     0.000 C 
BRANCH  15  16
ATOM     16  C   UNL     1      24.115  -1.532  50.463  1.00  0.00     0.006 C 
BRANCH  16  17
ATOM     17  C   UNL     1      25.176  -0.805  49.621  1.00  0.00     0.053 C 
BRANCH  17  18
ATOM     18  C   UNL     1      24.560   0.061  48.567  1.00  0.00     0.041 C 
ATOM     19  O   UNL     1      23.850   1.048  48.893  1.00  0.00    -0.550 OA
ATOM     20  O   UNL     1      24.798  -0.201  47.224  1.00  0.00    -0.550 OA
ENDBRANCH  17  18
ENDBRANCH  16  17
ENDBRANCH  15  16
ENDBRANCH  14  15
ENDBRANCH  13  14
ENDBRANCH  12  13
ENDBRANCH  11  12
ENDBRANCH   1  11
TORSDOF 15
ENDMDL
MODEL 7
REMARK VINA RESULT:    -4.253      7.374     11.851
REMARK INTER + INTRA:          -8.801
REMARK INTER:                  -7.212
REMARK INTRA:                  -1.589
REMARK UNBOUND:                -0.819
REMARK SMILES O=C([O-])CCCCCCCCCCCCCCC(=O)[O-]
REMARK SMILES IDX 10 1 9 2 8 3 7 4 6 5 5 6 4 7 2 8 1 9 3 10 11 11 12 12 13 13
REMARK SMILES IDX 14 14 15 15 16 16 17 17 18 18 19 19 20 20
REMARK H PARENT
REMARK Flexibility Score: inf
ROOT
ATOM      1  C   UNL     1      18.134   3.434  43.560  1.00  0.00     0.000 C 
ENDROOT
BRANCH   1   2
ATOM      2  C   UNL     1      19.096   4.176  42.616  1.00  0.00     0.000 C 
BRANCH   2   3
ATOM      3  C   UNL     1      19.242   3.483  41.253  1.00  0.00     0.000 C 
BRANCH   3   4
ATOM      4  C   UNL     1      20.707   3.471  40.799  1.00  0.00     0.000 C 
BRANCH   4   5
ATOM      5  C   UNL     1      21.641   3.102  41.961  1.00  0.00     0.000 C 
BRANCH   5   6
ATOM      6  C   UNL     1      22.616   1.963  41.613  1.00  0.00     0.006 C 
BRANCH   6   7
ATOM      7  C   UNL     1      23.581   2.296  40.461  1.00  0.00     0.053 C 
BRANCH   7   8
ATOM      8  C   UNL     1      23.376   1.419  39.263  1.00  0.00     0.041 C 
ATOM      9  O   UNL     1      23.936   0.292  39.197  1.00  0.00    -0.550 OA
ATOM     10  O   UNL     1      22.593   1.859  38.203  1.00  0.00    -0.550 OA
ENDBRANCH   7   8
ENDBRANCH   6   7
ENDBRANCH   5   6
ENDBRANCH   4   5
ENDBRANCH   3   4
ENDBRANCH   2   3
ENDBRANCH   1   2
BRANCH   1  11
ATOM     11  C   UNL     1      17.596   2.130  42.948  1.00  0.00     0.000 C 
BRANCH  11  12
ATOM     12  C   UNL     1      17.288   1.062  44.011  1.00  0.00     0.000 C 
BRANCH  12  13
ATOM     13  C   UNL     1      18.542   0.298  44.464  1.00  0.00     0.000 C 
BRANCH  13  14
ATOM     14  C   UNL     1      19.449  -0.023  43.269  1.00  0.00     0.000 C 
BRANCH  14  15
ATOM     15  C   UNL     1      20.667  -0.849  43.710  1.00  0.00     0.000 C 
BRANCH  15  16
ATOM     16  C   UNL     1      20.593  -1.280  45.186  1.00  0.00     0.006 C 
BRANCH  16  17
ATOM     17  C   UNL     1      20.895  -2.768  45.426  1.00  0.00     0.053 C 
BRANCH  17  18
ATOM     18  C   UNL     1      19.664  -3.541  45.785  1.00  0.00     0.041 C 
ATOM     19  O   UNL     1      19.752  -4.748  46.135  1.00  0.00    -0.550 OA
ATOM     20  O   UNL     1      18.421  -2.920  45.767  1.00  0.00    -0.550 OA
ENDBRANCH  17  18
ENDBRANCH  16  17
ENDBRANCH  15  16
ENDBRANCH  14  15
ENDBRANCH  13  14
ENDBRANCH  12  13
ENDBRANCH  11  12
ENDBRANCH   1  11
TORSDOF 15
ENDMDL
MODEL 8
REMARK VINA RESULT:    -4.243      6.054     10.856
REMARK INTER + INTRA:          -8.782
REMARK INTER:                  -7.010
REMARK INTRA:                  -1.772
REMARK UNBOUND:                -0.819
REMARK SMILES O=C([O-])CCCCCCCCCCCCCCC(=O)[O-]
REMARK SMILES IDX 10 1 9 2 8 3 7 4 6 5 5 6 4 7 2 8 1 9 3 10 11 11 12 12 13 13
REMARK SMILES IDX 14 14 15 15 16 16 17 17 18 18 19 19 20 20
REMARK H PARENT
REMARK Flexibility Score: inf
ROOT
ATOM      1  C   UNL     1      21.488   3.648  41.239  1.00  0.00     0.000 C 
ENDROOT
BRANCH   1   2
ATOM      2  C   UNL     1      22.043   2.479  42.068  1.00  0.00     0.000 C 
BRANCH   2   3
ATOM      3  C   UNL     1      22.983   1.571  41.260  1.00  0.00     0.000 C 
BRANCH   3   4
ATOM      4  C   UNL     1      23.036   2.008  39.791  1.00  0.00     0.000 C 
BRANCH   4   5
ATOM      5  C   UNL     1      24.488   2.164  39.314  1.00  0.00     0.000 C 
BRANCH   5   6
ATOM      6  C   UNL     1      24.979   3.623  39.340  1.00  0.00     0.006 C 
BRANCH   6   7
ATOM      7  C   UNL     1      25.772   3.992  40.607  1.00  0.00     0.053 C 
BRANCH   7   8
ATOM      8  C   UNL     1      25.030   4.942  41.498  1.00  0.00     0.041 C 
ATOM      9  O   UNL     1      24.609   6.040  41.046  1.00  0.00    -0.550 OA
ATOM     10  O   UNL     1      24.831   4.629  42.837  1.00  0.00    -0.550 OA
ENDBRANCH   7   8
ENDBRANCH   6   7
ENDBRANCH   5   6
ENDBRANCH   4   5
ENDBRANCH   3   4
ENDBRANCH   2   3
ENDBRANCH   1   2
BRANCH   1  11
ATOM     11  C   UNL     1      19.971   3.541  41.008  1.00  0.00     0.000 C 
BRANCH  11  12
ATOM     12  C   UNL     1      19.158   4.300  42.070  1.00  0.00     0.000 C 
BRANCH  12  13
ATOM     13  C   UNL     1      18.497   3.364  43.093  1.00  0.00     0.000 C 
BRANCH  13  14
ATOM     14  C   UNL     1      17.609   2.327  42.393  1.00  0.00     0.000 C 
BRANCH  14  15
ATOM     15  C   UNL     1      17.830   0.926  42.982  1.00  0.00     0.000 C 
BRANCH  15  16
ATOM     16  C   UNL     1      19.199   0.778  43.671  1.00  0.00     0.006 C 
BRANCH  16  17
ATOM     17  C   UNL     1      19.731  -0.664  43.717  1.00  0.00     0.053 C 
BRANCH  17  18
ATOM     18  C   UNL     1      20.845  -0.821  44.706  1.00  0.00     0.041 C 
ATOM     19  O   UNL     1      21.200  -1.969  45.082  1.00  0.00    -0.550 OA
ATOM     20  O   UNL     1      21.512   0.298  45.187  1.00  0.00    -0.550 OA
ENDBRANCH  17  18
ENDBRANCH  16  17
ENDBRANCH  15  16
ENDBRANCH  14  15
ENDBRANCH  13  14
ENDBRANCH  12  13
ENDBRANCH  11  12
ENDBRANCH   1  11
TORSDOF 15
ENDMDL
MODEL 9
REMARK VINA RESULT:    -4.185      5.678      7.713
REMARK INTER + INTRA:          -8.673
REMARK INTER:                  -6.774
REMARK INTRA:                  -1.899
REMARK UNBOUND:                -0.819
REMARK SMILES O=C([O-])CCCCCCCCCCCCCCC(=O)[O-]
REMARK SMILES IDX 10 1 9 2 8 3 7 4 6 5 5 6 4 7 2 8 1 9 3 10 11 11 12 12 13 13
REMARK SMILES IDX 14 14 15 15 16 16 17 17 18 18 19 19 20 20
REMARK H PARENT
REMARK Flexibility Score: inf
ROOT
ATOM      1  C   UNL     1      27.447   4.703  47.804  1.00  0.00     0.000 C 
ENDROOT
BRANCH   1   2
ATOM      2  C   UNL     1      27.584   5.031  46.308  1.00  0.00     0.000 C 
BRANCH   2   3
ATOM      3  C   UNL     1      27.517   6.539  46.023  1.00  0.00     0.000 C 
BRANCH   3   4
ATOM      4  C   UNL     1      28.367   6.904  44.800  1.00  0.00     0.000 C 
BRANCH   4   5
ATOM      5  C   UNL     1      28.308   5.797  43.737  1.00  0.00     0.000 C 
BRANCH   5   6
ATOM      6  C   UNL     1      29.449   5.887  42.707  1.00  0.00     0.006 C 
BRANCH   6   7
ATOM      7  C   UNL     1      28.970   5.916  41.245  1.00  0.00     0.053 C 
BRANCH   7   8
ATOM      8  C   UNL     1      30.101   5.854  40.263  1.00  0.00     0.041 C 
ATOM      9  O   UNL     1      30.683   6.910  39.897  1.00  0.00    -0.550 OA
ATOM     10  O   UNL     1      30.493   4.633  39.728  1.00  0.00    -0.550 OA
ENDBRANCH   7   8
ENDBRANCH   6   7
ENDBRANCH   5   6
ENDBRANCH   4   5
ENDBRANCH   3   4
ENDBRANCH   2   3
ENDBRANCH   1   2
BRANCH   1  11
ATOM     11  C   UNL     1      28.407   5.524  48.680  1.00  0.00     0.000 C 
BRANCH  11  12
ATOM     12  C   UNL     1      29.404   4.642  49.450  1.00  0.00     0.000 C 
BRANCH  12  13
ATOM     13  C   UNL     1      30.867   4.956  49.100  1.00  0.00     0.000 C 
BRANCH  13  14
ATOM     14  C   UNL     1      30.950   5.986  47.967  1.00  0.00     0.000 C 
BRANCH  14  15
ATOM     15  C   UNL     1      31.482   5.344  46.677  1.00  0.00     0.000 C 
BRANCH  15  16
ATOM     16  C   UNL     1      31.820   6.379  45.589  1.00  0.00     0.006 C 
BRANCH  16  17
ATOM     17  C   UNL     1      31.820   7.836  46.080  1.00  0.00     0.053 C 
BRANCH  17  18
ATOM     18  C   UNL     1      33.194   8.430  46.080  1.00  0.00     0.041 C 
ATOM     19  O   UNL     1      34.145   7.826  45.517  1.00  0.00    -0.550 OA
ATOM     20  O   UNL     1      33.418   9.667  46.671  1.00  0.00    -0.550 OA
ENDBRANCH  17  18
ENDBRANCH  16  17
ENDBRANCH  15  16
ENDBRANCH  14  15
ENDBRANCH  13  14
ENDBRANCH  12  13
ENDBRANCH  11  12
ENDBRANCH   1  11
TORSDOF 15
ENDMDL
