MODEL 1
REMARK VINA RESULT:    -4.639      0.000      0.000
REMARK INTER + INTRA:          -5.625
REMARK INTER:                  -5.723
REMARK INTRA:                   0.098
REMARK UNBOUND:                 0.098
REMARK SMILES C=C1CC[C@H]2[C@H]1[C@@H]1[C@H](CC[C@H]2C)C1(C)C
REMARK SMILES IDX 6 1 5 2 4 3 3 4 2 5 1 6 11 7 12 8 10 9 7 11 8 12 13 13 14 14
REMARK SMILES IDX 15 15 9 16
REMARK H PARENT
REMARK Flexibility Score: 80.00
ROOT
ATOM      1  C   UNL     1     107.392 109.052 126.427  1.00  0.00     0.022 C 
ATOM      2  C   UNL     1     108.628 108.135 126.327  1.00  0.00    -0.000 C 
ATOM      3  C   UNL     1     108.949 108.019 124.829  1.00  0.00     0.009 C 
ATOM      4  C   UNL     1     108.480 109.329 124.206  1.00  0.00     0.031 C 
ATOM      5  C   UNL     1     107.448 109.835 125.155  1.00  0.00    -0.074 C 
ATOM      6  C   UNL     1     106.619 110.844 124.860  1.00  0.00     0.008 C 
ENDROOT
BRANCH   2   7
ATOM      7  C   UNL     1     108.512 106.776 127.081  1.00  0.00    -0.011 C 
ATOM      8  C   UNL     1     107.430 105.814 126.543  1.00  0.00     0.008 C 
BRANCH   7   9
ATOM      9  C   UNL     1     108.391 106.970 128.614  1.00  0.00     0.004 CG0
ATOM     10  G   UNL     1     107.158 107.775 129.066  1.00  0.00     0.000 G0
ENDBRANCH   7   9
ENDBRANCH   2   7
BRANCH   1  11
ATOM     11  C   UNL     1     107.512 109.982 127.656  1.00  0.00     0.006 C 
ATOM     12  C   UNL     1     107.427 109.293 129.031  1.00  0.00    -0.001 C 
ATOM     13  C   UNL     1     106.323 110.272 128.592  1.00  0.00    -0.029 C 
ATOM     14  C   UNL     1     106.380 111.639 129.282  1.00  0.00     0.012 C 
ATOM     15  C   UNL     1     104.904 109.764 128.266  1.00  0.00     0.012 C 
BRANCH  12  16
ATOM     16  C   UNL     1     107.153 107.774 129.073  1.00  0.00     0.005 CG0
ATOM     17  G   UNL     1     108.383 106.967 128.614  1.00  0.00     0.000 G0
ENDBRANCH  12  16
ENDBRANCH   1  11
TORSDOF 0
ENDMDL
MODEL 2
REMARK VINA RESULT:    -4.607      3.542      4.650
REMARK INTER + INTRA:          -5.586
REMARK INTER:                  -5.694
REMARK INTRA:                   0.107
REMARK UNBOUND:                 0.098
REMARK SMILES C=C1CC[C@H]2[C@H]1[C@@H]1[C@H](CC[C@H]2C)C1(C)C
REMARK SMILES IDX 6 1 5 2 4 3 3 4 2 5 1 6 11 7 12 8 10 9 7 11 8 12 13 13 14 14
REMARK SMILES IDX 15 15 9 16
REMARK H PARENT
REMARK Flexibility Score: 80.00
ROOT
ATOM      1  C   UNL     1     103.449 107.348 126.429  1.00  0.00     0.022 C 
ATOM      2  C   UNL     1     104.470 108.499 126.333  1.00  0.00    -0.000 C 
ATOM      3  C   UNL     1     104.610 108.817 124.835  1.00  0.00     0.009 C 
ATOM      4  C   UNL     1     103.262 108.468 124.214  1.00  0.00     0.031 C 
ATOM      5  C   UNL     1     102.671 107.479 125.159  1.00  0.00    -0.074 C 
ATOM      6  C   UNL     1     101.592 106.743 124.863  1.00  0.00     0.008 C 
ENDROOT
BRANCH   2   7
ATOM      7  C   UNL     1     105.816 108.261 127.081  1.00  0.00    -0.011 C 
ATOM      8  C   UNL     1     106.677 107.100 126.537  1.00  0.00     0.008 C 
BRANCH   7   9
ATOM      9  C   UNL     1     105.616 108.152 128.615  1.00  0.00     0.004 CG0
ATOM     10  G   UNL     1     104.709 106.992 129.065  1.00  0.00     0.000 G0
ENDBRANCH   7   9
ENDBRANCH   2   7
BRANCH   1  11
ATOM     11  C   UNL     1     102.536 107.543 127.661  1.00  0.00     0.006 C 
ATOM     12  C   UNL     1     103.219 107.396 129.034  1.00  0.00    -0.001 C 
ATOM     13  C   UNL     1     102.150 106.380 128.595  1.00  0.00    -0.029 C 
ATOM     14  C   UNL     1     100.794 106.550 129.290  1.00  0.00     0.012 C 
ATOM     15  C   UNL     1     102.535 104.924 128.264  1.00  0.00     0.012 C 
BRANCH  12  16
ATOM     16  C   UNL     1     104.710 106.995 129.070  1.00  0.00     0.005 CG0
ATOM     17  G   UNL     1     105.616 108.153 128.611  1.00  0.00     0.000 G0
ENDBRANCH  12  16
ENDBRANCH   1  11
TORSDOF 0
ENDMDL
MODEL 3
REMARK VINA RESULT:    -4.605      4.034      6.625
REMARK INTER + INTRA:          -5.584
REMARK INTER:                  -5.687
REMARK INTRA:                   0.103
REMARK UNBOUND:                 0.098
REMARK SMILES C=C1CC[C@H]2[C@H]1[C@@H]1[C@H](CC[C@H]2C)C1(C)C
REMARK SMILES IDX 6 1 5 2 4 3 3 4 2 5 1 6 11 7 12 8 10 9 7 11 8 12 13 13 14 14
REMARK SMILES IDX 15 15 9 16
REMARK H PARENT
REMARK Flexibility Score: 80.00
ROOT
ATOM      1  C   UNL     1     105.198 103.389 126.470  1.00  0.00     0.022 C 
ATOM      2  C   UNL     1     104.144 104.507 126.360  1.00  0.00    -0.000 C 
ATOM      3  C   UNL     1     103.867 104.682 124.858  1.00  0.00     0.009 C 
ATOM      4  C   UNL     1     104.107 103.312 124.234  1.00  0.00     0.031 C 
ATOM      5  C   UNL     1     105.023 102.631 125.193  1.00  0.00    -0.074 C 
ATOM      6  C   UNL     1     105.666 101.493 124.903  1.00  0.00     0.008 C 
ENDROOT
BRANCH   2   7
ATOM      7  C   UNL     1     104.486 105.824 127.121  1.00  0.00    -0.011 C 
ATOM      8  C   UNL     1     105.728 106.582 126.603  1.00  0.00     0.008 C 
BRANCH   7   9
ATOM      9  C   UNL     1     104.550 105.607 128.656  1.00  0.00     0.004 CG0
ATOM     10  G   UNL     1     105.617 104.598 129.119  1.00  0.00     0.000 G0
ENDBRANCH   7   9
ENDBRANCH   2   7
BRANCH   1  11
ATOM     11  C   UNL     1     104.902 102.491 127.692  1.00  0.00     0.006 C 
ATOM     12  C   UNL     1     105.087 103.150 129.072  1.00  0.00    -0.001 C 
ATOM     13  C   UNL     1     106.010 101.996 128.642  1.00  0.00    -0.029 C 
ATOM     14  C   UNL     1     105.707 100.657 129.325  1.00  0.00     0.012 C 
ATOM     15  C   UNL     1     107.499 102.251 128.337  1.00  0.00     0.012 C 
BRANCH  12  16
ATOM     16  C   UNL     1     105.619 104.599 129.125  1.00  0.00     0.005 CG0
ATOM     17  G   UNL     1     104.554 105.608 128.655  1.00  0.00     0.000 G0
ENDBRANCH  12  16
ENDBRANCH   1  11
TORSDOF 0
ENDMDL
MODEL 4
REMARK VINA RESULT:    -4.540      1.980      3.469
REMARK INTER + INTRA:          -5.504
REMARK INTER:                  -5.607
REMARK INTRA:                   0.103
REMARK UNBOUND:                 0.098
REMARK SMILES C=C1CC[C@H]2[C@H]1[C@@H]1[C@H](CC[C@H]2C)C1(C)C
REMARK SMILES IDX 6 1 5 2 4 3 3 4 2 5 1 6 11 7 12 8 10 9 7 11 8 12 13 13 14 14
REMARK SMILES IDX 15 15 9 16
REMARK H PARENT
REMARK Flexibility Score: 80.00
ROOT
ATOM      1  C   UNL     1     106.073 109.423 128.175  1.00  0.00     0.022 C 
ATOM      2  C   UNL     1     107.183 109.195 129.220  1.00  0.00    -0.000 C 
ATOM      3  C   UNL     1     107.839 110.566 129.447  1.00  0.00     0.009 C 
ATOM      4  C   UNL     1     106.742 111.593 129.195  1.00  0.00     0.031 C 
ATOM      5  C   UNL     1     105.773 110.881 128.313  1.00  0.00    -0.074 C 
ATOM      6  C   UNL     1     104.781 111.506 127.667  1.00  0.00     0.008 C 
ENDROOT
BRANCH   2   7
ATOM      7  C   UNL     1     108.177 108.038 128.895  1.00  0.00    -0.011 C 
ATOM      8  C   UNL     1     109.048 108.250 127.637  1.00  0.00     0.008 C 
BRANCH   7   9
ATOM      9  C   UNL     1     107.472 106.657 128.875  1.00  0.00     0.004 CG0
ATOM     10  G   UNL     1     106.347 106.523 127.832  1.00  0.00     0.000 G0
ENDBRANCH   7   9
ENDBRANCH   2   7
BRANCH   1  11
ATOM     11  C   UNL     1     104.832 108.567 128.515  1.00  0.00     0.006 C 
ATOM     12  C   UNL     1     105.006 107.044 128.369  1.00  0.00    -0.001 C 
ATOM     13  C   UNL     1     104.039 107.799 127.440  1.00  0.00    -0.029 C 
ATOM     14  C   UNL     1     102.556 107.596 127.772  1.00  0.00     0.012 C 
ATOM     15  C   UNL     1     104.355 107.964 125.940  1.00  0.00     0.012 C 
BRANCH  12  16
ATOM     16  C   UNL     1     106.351 106.509 127.830  1.00  0.00     0.005 CG0
ATOM     17  G   UNL     1     107.472 106.646 128.877  1.00  0.00     0.000 G0
ENDBRANCH  12  16
ENDBRANCH   1  11
TORSDOF 0
ENDMDL
MODEL 5
REMARK VINA RESULT:    -4.529      3.611      4.734
REMARK INTER + INTRA:          -5.490
REMARK INTER:                  -5.588
REMARK INTRA:                   0.098
REMARK UNBOUND:                 0.098
REMARK SMILES C=C1CC[C@H]2[C@H]1[C@@H]1[C@H](CC[C@H]2C)C1(C)C
REMARK SMILES IDX 6 1 5 2 4 3 3 4 2 5 1 6 11 7 12 8 10 9 7 11 8 12 13 13 14 14
REMARK SMILES IDX 15 15 9 16
REMARK H PARENT
REMARK Flexibility Score: 80.00
ROOT
ATOM      1  C   UNL     1     108.999 105.120 126.363  1.00  0.00     0.022 C 
ATOM      2  C   UNL     1     107.921 104.023 126.252  1.00  0.00    -0.000 C 
ATOM      3  C   UNL     1     107.781 103.717 124.752  1.00  0.00     0.009 C 
ATOM      4  C   UNL     1     109.151 103.997 124.146  1.00  0.00     0.031 C 
ATOM      5  C   UNL     1     109.783 104.952 125.101  1.00  0.00    -0.074 C 
ATOM      6  C   UNL     1     110.901 105.632 124.819  1.00  0.00     0.008 C 
ENDROOT
BRANCH   2   7
ATOM      7  C   UNL     1     106.581 104.329 126.987  1.00  0.00    -0.011 C 
ATOM      8  C   UNL     1     105.786 105.533 126.436  1.00  0.00     0.008 C 
BRANCH   7   9
ATOM      9  C   UNL     1     106.770 104.425 128.523  1.00  0.00     0.004 CG0
ATOM     10  G   UNL     1     107.720 105.546 128.986  1.00  0.00     0.000 G0
ENDBRANCH   7   9
ENDBRANCH   2   7
BRANCH   1  11
ATOM     11  C   UNL     1     109.887 104.875 127.604  1.00  0.00     0.006 C 
ATOM     12  C   UNL     1     109.199 105.059 128.970  1.00  0.00    -0.001 C 
ATOM     13  C   UNL     1     110.327 106.015 128.542  1.00  0.00    -0.029 C 
ATOM     14  C   UNL     1     111.664 105.771 129.251  1.00  0.00     0.012 C 
ATOM     15  C   UNL     1     110.025 107.490 128.208  1.00  0.00     0.012 C 
BRANCH  12  16
ATOM     16  C   UNL     1     107.732 105.541 128.991  1.00  0.00     0.005 CG0
ATOM     17  G   UNL     1     106.768 104.433 128.526  1.00  0.00     0.000 G0
ENDBRANCH  12  16
ENDBRANCH   1  11
TORSDOF 0
ENDMDL
MODEL 6
REMARK VINA RESULT:    -4.511      3.624      6.270
REMARK INTER + INTRA:          -5.468
REMARK INTER:                  -5.557
REMARK INTRA:                   0.089
REMARK UNBOUND:                 0.098
REMARK SMILES C=C1CC[C@H]2[C@H]1[C@@H]1[C@H](CC[C@H]2C)C1(C)C
REMARK SMILES IDX 6 1 5 2 4 3 3 4 2 5 1 6 11 7 12 8 10 9 7 11 8 12 13 13 14 14
REMARK SMILES IDX 15 15 9 16
REMARK H PARENT
REMARK Flexibility Score: 80.00
ROOT
ATOM      1  C   UNL     1     102.968 106.108 128.160  1.00  0.00     0.022 C 
ATOM      2  C   UNL     1     103.186 107.219 129.206  1.00  0.00    -0.000 C 
ATOM      3  C   UNL     1     101.812 107.874 129.420  1.00  0.00     0.009 C 
ATOM      4  C   UNL     1     100.788 106.775 129.158  1.00  0.00     0.031 C 
ATOM      5  C   UNL     1     101.509 105.807 128.284  1.00  0.00    -0.074 C 
ATOM      6  C   UNL     1     100.892 104.814 127.632  1.00  0.00     0.008 C 
ENDROOT
BRANCH   2   7
ATOM      7  C   UNL     1     104.344 108.214 128.892  1.00  0.00    -0.011 C 
ATOM      8  C   UNL     1     104.140 109.090 127.637  1.00  0.00     0.008 C 
BRANCH   7   9
ATOM      9  C   UNL     1     105.725 107.509 128.877  1.00  0.00     0.004 CG0
ATOM     10  G   UNL     1     105.863 106.384 127.833  1.00  0.00     0.000 G0
ENDBRANCH   7   9
ENDBRANCH   2   7
BRANCH   1  11
ATOM     11  C   UNL     1     103.822 104.869 128.509  1.00  0.00     0.006 C 
ATOM     12  C   UNL     1     105.347 105.042 128.372  1.00  0.00    -0.001 C 
ATOM     13  C   UNL     1     104.597 104.072 127.441  1.00  0.00    -0.029 C 
ATOM     14  C   UNL     1     104.798 102.591 127.778  1.00  0.00     0.012 C 
ATOM     15  C   UNL     1     104.442 104.384 125.939  1.00  0.00     0.012 C 
BRANCH  12  16
ATOM     16  C   UNL     1     105.884 106.385 127.832  1.00  0.00     0.005 CG0
ATOM     17  G   UNL     1     105.713 107.516 128.864  1.00  0.00     0.000 G0
ENDBRANCH  12  16
ENDBRANCH   1  11
TORSDOF 0
ENDMDL
MODEL 7
REMARK VINA RESULT:    -4.473      5.091      6.794
REMARK INTER + INTRA:          -5.420
REMARK INTER:                  -5.532
REMARK INTRA:                   0.112
REMARK UNBOUND:                 0.098
REMARK SMILES C=C1CC[C@H]2[C@H]1[C@@H]1[C@H](CC[C@H]2C)C1(C)C
REMARK SMILES IDX 6 1 5 2 4 3 3 4 2 5 1 6 11 7 12 8 10 9 7 11 8 12 13 13 14 14
REMARK SMILES IDX 15 15 9 16
REMARK H PARENT
REMARK Flexibility Score: 80.00
ROOT
ATOM      1  C   UNL     1     103.584 104.772 126.815  1.00  0.00     0.022 C 
ATOM      2  C   UNL     1     103.687 104.487 125.304  1.00  0.00    -0.000 C 
ATOM      3  C   UNL     1     104.993 103.699 125.110  1.00  0.00     0.009 C 
ATOM      4  C   UNL     1     105.201 102.924 126.406  1.00  0.00     0.031 C 
ATOM      5  C   UNL     1     104.432 103.699 127.421  1.00  0.00    -0.074 C 
ATOM      6  C   UNL     1     104.546 103.489 128.738  1.00  0.00     0.008 C 
ENDROOT
BRANCH   2   7
ATOM      7  C   UNL     1     103.529 105.732 124.379  1.00  0.00    -0.011 C 
ATOM      8  C   UNL     1     104.626 106.808 124.527  1.00  0.00     0.008 C 
BRANCH   7   9
ATOM      9  C   UNL     1     102.109 106.347 124.473  1.00  0.00     0.004 CG0
ATOM     10  G   UNL     1     101.720 106.857 125.873  1.00  0.00     0.000 G0
ENDBRANCH   7   9
ENDBRANCH   2   7
BRANCH   1  11
ATOM     11  C   UNL     1     102.117 104.650 127.285  1.00  0.00     0.006 C 
ATOM     12  C   UNL     1     101.149 105.723 126.750  1.00  0.00    -0.001 C 
ATOM     13  C   UNL     1     101.473 105.661 128.254  1.00  0.00    -0.029 C 
ATOM     14  C   UNL     1     100.349 105.080 129.119  1.00  0.00     0.012 C 
ATOM     15  C   UNL     1     102.307 106.770 128.925  1.00  0.00     0.012 C 
BRANCH  12  16
ATOM     16  C   UNL     1     101.724 106.855 125.872  1.00  0.00     0.005 CG0
ATOM     17  G   UNL     1     102.108 106.342 124.471  1.00  0.00     0.000 G0
ENDBRANCH  12  16
ENDBRANCH   1  11
TORSDOF 0
ENDMDL
MODEL 8
REMARK VINA RESULT:    -4.435      2.074      3.718
REMARK INTER + INTRA:          -5.374
REMARK INTER:                  -5.467
REMARK INTRA:                   0.093
REMARK UNBOUND:                 0.098
REMARK SMILES C=C1CC[C@H]2[C@H]1[C@@H]1[C@H](CC[C@H]2C)C1(C)C
REMARK SMILES IDX 6 1 5 2 4 3 3 4 2 5 1 6 11 7 12 8 10 9 7 11 8 12 13 13 14 14
REMARK SMILES IDX 15 15 9 16
REMARK H PARENT
REMARK Flexibility Score: 80.00
ROOT
ATOM      1  C   UNL     1     109.245 106.639 128.126  1.00  0.00     0.022 C 
ATOM      2  C   UNL     1     109.090 105.525 129.180  1.00  0.00    -0.000 C 
ATOM      3  C   UNL     1     110.451 104.815 129.250  1.00  0.00     0.009 C 
ATOM      4  C   UNL     1     111.487 105.875 128.895  1.00  0.00     0.031 C 
ATOM      5  C   UNL     1     110.721 106.882 128.105  1.00  0.00    -0.074 C 
ATOM      6  C   UNL     1     111.309 107.858 127.403  1.00  0.00     0.008 C 
ENDROOT
BRANCH   2   7
ATOM      7  C   UNL     1     107.867 104.580 128.976  1.00  0.00    -0.011 C 
ATOM      8  C   UNL     1     107.905 103.717 127.696  1.00  0.00     0.008 C 
BRANCH   7   9
ATOM      9  C   UNL     1     106.520 105.337 129.113  1.00  0.00     0.004 CG0
ATOM     10  G   UNL     1     106.314 106.474 128.095  1.00  0.00     0.000 G0
ENDBRANCH   7   9
ENDBRANCH   2   7
BRANCH   1  11
ATOM     11  C   UNL     1     108.481 107.907 128.569  1.00  0.00     0.006 C 
ATOM     12  C   UNL     1     106.945 107.794 128.588  1.00  0.00    -0.001 C 
ATOM     13  C   UNL     1     107.633 108.744 127.592  1.00  0.00    -0.029 C 
ATOM     14  C   UNL     1     107.526 110.228 127.958  1.00  0.00     0.012 C 
ATOM     15  C   UNL     1     107.622 108.442 126.080  1.00  0.00     0.012 C 
BRANCH  12  16
ATOM     16  C   UNL     1     106.303 106.478 128.097  1.00  0.00     0.005 CG0
ATOM     17  G   UNL     1     106.507 105.338 129.112  1.00  0.00     0.000 G0
ENDBRANCH  12  16
ENDBRANCH   1  11
TORSDOF 0
ENDMDL
MODEL 9
REMARK VINA RESULT:    -4.409      5.099      6.951
REMARK INTER + INTRA:          -5.342
REMARK INTER:                  -5.446
REMARK INTRA:                   0.104
REMARK UNBOUND:                 0.098
REMARK SMILES C=C1CC[C@H]2[C@H]1[C@@H]1[C@H](CC[C@H]2C)C1(C)C
REMARK SMILES IDX 6 1 5 2 4 3 3 4 2 5 1 6 11 7 12 8 10 9 7 11 8 12 13 13 14 14
REMARK SMILES IDX 15 15 9 16
REMARK H PARENT
REMARK Flexibility Score: 80.00
ROOT
ATOM      1  C   UNL     1     107.527 103.484 126.540  1.00  0.00     0.022 C 
ATOM      2  C   UNL     1     107.717 103.500 125.010  1.00  0.00    -0.000 C 
ATOM      3  C   UNL     1     108.437 104.819 124.687  1.00  0.00     0.009 C 
ATOM      4  C   UNL     1     109.278 105.140 125.917  1.00  0.00     0.031 C 
ATOM      5  C   UNL     1     108.598 104.408 127.024  1.00  0.00    -0.074 C 
ATOM      6  C   UNL     1     108.881 104.615 128.316  1.00  0.00     0.008 C 
ENDROOT
BRANCH   2   7
ATOM      7  C   UNL     1     106.427 103.235 124.176  1.00  0.00    -0.011 C 
ATOM      8  C   UNL     1     105.323 104.307 124.308  1.00  0.00     0.008 C 
BRANCH   7   9
ATOM      9  C   UNL     1     105.867 101.808 124.410  1.00  0.00     0.004 CG0
ATOM     10  G   UNL     1     105.472 101.503 125.867  1.00  0.00     0.000 G0
ENDBRANCH   7   9
ENDBRANCH   2   7
BRANCH   1  11
ATOM     11  C   UNL     1     107.738 102.055 127.091  1.00  0.00     0.006 C 
ATOM     12  C   UNL     1     106.673 101.017 126.692  1.00  0.00    -0.001 C 
ATOM     13  C   UNL     1     106.819 101.440 128.164  1.00  0.00    -0.029 C 
ATOM     14  C   UNL     1     107.500 100.396 129.057  1.00  0.00     0.012 C 
ATOM     15  C   UNL     1     105.724 102.276 128.856  1.00  0.00     0.012 C 
BRANCH  12  16
ATOM     16  C   UNL     1     105.463 101.493 125.858  1.00  0.00     0.005 CG0
ATOM     17  G   UNL     1     105.868 101.806 124.405  1.00  0.00     0.000 G0
ENDBRANCH  12  16
ENDBRANCH   1  11
TORSDOF 0
ENDMDL
