MODEL 1
REMARK VINA RESULT:    -3.051      0.000      0.000
REMARK INTER + INTRA:         -15.022
REMARK INTER:                  -8.046
REMARK INTRA:                  -6.976
REMARK UNBOUND:                -6.976
REMARK SMILES CCCCCCCCCCCCCCCCCCCCCCCCCCCCCC(=O)[O-]
REMARK SMILES IDX 16 1 17 2 18 3 19 4 20 5 21 6 22 7 23 8 24 9 25 10 26 11
REMARK SMILES IDX 27 12 28 13 29 14 30 15 31 16 32 17 15 18 14 19 13 20 12 21
REMARK SMILES IDX 11 22 10 23 9 24 8 25 7 26 6 27 5 28 4 29 3 30 2 31 1 32
REMARK H PARENT
REMARK Flexibility Score: inf
ROOT
ATOM      1  C   UNL     1      30.788  -1.043 -36.579  1.00  0.00     0.000 C 
ENDROOT
BRANCH   1   2
ATOM      2  C   UNL     1      31.990  -0.206 -37.052  1.00  0.00     0.000 C 
BRANCH   2   3
ATOM      3  C   UNL     1      31.727   0.721 -38.256  1.00  0.00     0.000 C 
BRANCH   3   4
ATOM      4  C   UNL     1      30.398   0.452 -38.992  1.00  0.00     0.000 C 
BRANCH   4   5
ATOM      5  C   UNL     1      29.394   1.613 -38.886  1.00  0.00     0.000 C 
BRANCH   5   6
ATOM      6  C   UNL     1      27.928   1.151 -38.976  1.00  0.00     0.000 C 
BRANCH   6   7
ATOM      7  C   UNL     1      27.453   0.261 -37.814  1.00  0.00     0.000 C 
BRANCH   7   8
ATOM      8  C   UNL     1      27.198   1.045 -36.519  1.00  0.00     0.000 C 
BRANCH   8   9
ATOM      9  C   UNL     1      27.677   0.247 -35.300  1.00  0.00     0.000 C 
BRANCH   9  10
ATOM     10  C   UNL     1      28.704   1.044 -34.482  1.00  0.00     0.000 C 
BRANCH  10  11
ATOM     11  C   UNL     1      29.375   2.168 -35.293  1.00  0.00     0.000 C 
BRANCH  11  12
ATOM     12  C   UNL     1      30.765   2.598 -34.788  1.00  0.00     0.000 C 
BRANCH  12  13
ATOM     13  C   UNL     1      31.400   1.572 -33.834  1.00  0.00     0.006 C 
BRANCH  13  14
ATOM     14  C   UNL     1      32.921   1.737 -33.734  1.00  0.00     0.053 C 
BRANCH  14  15
ATOM     15  C   UNL     1      33.304   2.900 -32.869  1.00  0.00     0.041 C 
ATOM     16  O   UNL     1      33.910   3.887 -33.366  1.00  0.00    -0.550 OA
ATOM     17  O   UNL     1      32.976   2.899 -31.518  1.00  0.00    -0.550 OA
ENDBRANCH  14  15
ENDBRANCH  13  14
ENDBRANCH  12  13
ENDBRANCH  11  12
ENDBRANCH  10  11
ENDBRANCH   9  10
ENDBRANCH   8   9
ENDBRANCH   7   8
ENDBRANCH   6   7
ENDBRANCH   5   6
ENDBRANCH   4   5
ENDBRANCH   3   4
ENDBRANCH   2   3
ENDBRANCH   1   2
BRANCH   1  18
ATOM     18  C   UNL     1      31.065  -1.802 -35.269  1.00  0.00     0.000 C 
BRANCH  18  19
ATOM     19  C   UNL     1      32.563  -1.905 -34.941  1.00  0.00     0.000 C 
BRANCH  19  20
ATOM     20  C   UNL     1      33.146  -3.296 -35.252  1.00  0.00     0.000 C 
BRANCH  20  21
ATOM     21  C   UNL     1      32.058  -4.316 -35.624  1.00  0.00     0.000 C 
BRANCH  21  22
ATOM     22  C   UNL     1      32.197  -4.824 -37.072  1.00  0.00     0.000 C 
BRANCH  22  23
ATOM     23  C   UNL     1      33.043  -3.888 -37.953  1.00  0.00     0.000 C 
BRANCH  23  24
ATOM     24  C   UNL     1      32.299  -3.289 -39.163  1.00  0.00    -0.000 C 
BRANCH  24  25
ATOM     25  C   UNL     1      30.922  -3.915 -39.463  1.00  0.00    -0.000 C 
BRANCH  25  26
ATOM     26  C   UNL     1      29.858  -2.929 -39.980  1.00  0.00    -0.000 C 
BRANCH  26  27
ATOM     27  C   UNL     1      28.599  -2.895 -39.103  1.00  0.00    -0.000 C 
BRANCH  27  28
ATOM     28  C   UNL     1      28.675  -3.949 -37.988  1.00  0.00    -0.000 C 
BRANCH  28  29
ATOM     29  C   UNL     1      28.109  -3.426 -36.651  1.00  0.00    -0.000 C 
BRANCH  29  30
ATOM     30  C   UNL     1      27.040  -4.344 -36.035  1.00  0.00    -0.000 C 
BRANCH  30  31
ATOM     31  C   UNL     1      25.615  -3.978 -36.473  1.00  0.00    -0.003 C 
ATOM     32  C   UNL     1      25.397  -2.467 -36.439  1.00  0.00     0.004 C 
ENDBRANCH  30  31
ENDBRANCH  29  30
ENDBRANCH  28  29
ENDBRANCH  27  28
ENDBRANCH  26  27
ENDBRANCH  25  26
ENDBRANCH  24  25
ENDBRANCH  23  24
ENDBRANCH  22  23
ENDBRANCH  21  22
ENDBRANCH  20  21
ENDBRANCH  19  20
ENDBRANCH  18  19
ENDBRANCH   1  18
TORSDOF 28
ENDMDL
MODEL 2
REMARK VINA RESULT:    -2.958      3.124      5.251
REMARK INTER + INTRA:         -14.777
REMARK INTER:                  -7.874
REMARK INTRA:                  -6.903
REMARK UNBOUND:                -6.976
REMARK SMILES CCCCCCCCCCCCCCCCCCCCCCCCCCCCCC(=O)[O-]
REMARK SMILES IDX 16 1 17 2 18 3 19 4 20 5 21 6 22 7 23 8 24 9 25 10 26 11
REMARK SMILES IDX 27 12 28 13 29 14 30 15 31 16 32 17 15 18 14 19 13 20 12 21
REMARK SMILES IDX 11 22 10 23 9 24 8 25 7 26 6 27 5 28 4 29 3 30 2 31 1 32
REMARK H PARENT
REMARK Flexibility Score: inf
ROOT
ATOM      1  C   UNL     1      29.354  -0.049 -35.478  1.00  0.00     0.000 C 
ENDROOT
BRANCH   1   2
ATOM      2  C   UNL     1      30.306   0.462 -34.382  1.00  0.00     0.000 C 
BRANCH   2   3
ATOM      3  C   UNL     1      31.602   1.133 -34.880  1.00  0.00     0.000 C 
BRANCH   3   4
ATOM      4  C   UNL     1      32.895   0.376 -34.514  1.00  0.00     0.000 C 
BRANCH   4   5
ATOM      5  C   UNL     1      33.334  -0.639 -35.584  1.00  0.00     0.000 C 
BRANCH   5   6
ATOM      6  C   UNL     1      33.375  -0.039 -37.002  1.00  0.00     0.000 C 
BRANCH   6   7
ATOM      7  C   UNL     1      33.064  -1.030 -38.137  1.00  0.00     0.000 C 
BRANCH   7   8
ATOM      8  C   UNL     1      31.650  -0.865 -38.711  1.00  0.00     0.000 C 
BRANCH   8   9
ATOM      9  C   UNL     1      31.169   0.584 -38.560  1.00  0.00     0.000 C 
BRANCH   9  10
ATOM     10  C   UNL     1      29.837   0.806 -39.291  1.00  0.00     0.000 C 
BRANCH  10  11
ATOM     11  C   UNL     1      29.222  -0.500 -39.828  1.00  0.00     0.000 C 
BRANCH  11  12
ATOM     12  C   UNL     1      27.683  -0.551 -39.810  1.00  0.00     0.000 C 
BRANCH  12  13
ATOM     13  C   UNL     1      27.091  -0.316 -38.410  1.00  0.00     0.006 C 
BRANCH  13  14
ATOM     14  C   UNL     1      26.277   0.982 -38.335  1.00  0.00     0.053 C 
BRANCH  14  15
ATOM     15  C   UNL     1      24.943   0.770 -37.684  1.00  0.00     0.041 C 
ATOM     16  O   UNL     1      24.576   1.510 -36.733  1.00  0.00    -0.550 OA
ATOM     17  O   UNL     1      24.099  -0.236 -38.141  1.00  0.00    -0.550 OA
ENDBRANCH  14  15
ENDBRANCH  13  14
ENDBRANCH  12  13
ENDBRANCH  11  12
ENDBRANCH  10  11
ENDBRANCH   9  10
ENDBRANCH   8   9
ENDBRANCH   7   8
ENDBRANCH   6   7
ENDBRANCH   5   6
ENDBRANCH   4   5
ENDBRANCH   3   4
ENDBRANCH   2   3
ENDBRANCH   1   2
BRANCH   1  18
ATOM     18  C   UNL     1      29.574  -1.533 -35.818  1.00  0.00     0.000 C 
BRANCH  18  19
ATOM     19  C   UNL     1      29.570  -2.440 -34.577  1.00  0.00     0.000 C 
BRANCH  19  20
ATOM     20  C   UNL     1      30.534  -3.634 -34.711  1.00  0.00     0.000 C 
BRANCH  20  21
ATOM     21  C   UNL     1      31.419  -3.534 -35.964  1.00  0.00     0.000 C 
BRANCH  21  22
ATOM     22  C   UNL     1      31.294  -4.771 -36.873  1.00  0.00     0.000 C 
BRANCH  22  23
ATOM     23  C   UNL     1      30.989  -4.407 -38.337  1.00  0.00     0.000 C 
BRANCH  23  24
ATOM     24  C   UNL     1      29.519  -4.040 -38.621  1.00  0.00    -0.000 C 
BRANCH  24  25
ATOM     25  C   UNL     1      28.474  -4.860 -37.839  1.00  0.00    -0.000 C 
BRANCH  25  26
ATOM     26  C   UNL     1      27.363  -4.030 -37.170  1.00  0.00    -0.000 C 
BRANCH  26  27
ATOM     27  C   UNL     1      26.702  -4.757 -35.990  1.00  0.00    -0.000 C 
BRANCH  27  28
ATOM     28  C   UNL     1      26.105  -3.755 -34.990  1.00  0.00    -0.000 C 
BRANCH  28  29
ATOM     29  C   UNL     1      25.772  -2.400 -35.649  1.00  0.00    -0.000 C 
BRANCH  29  30
ATOM     30  C   UNL     1      25.814  -1.214 -34.670  1.00  0.00    -0.000 C 
BRANCH  30  31
ATOM     31  C   UNL     1      24.577  -1.143 -33.765  1.00  0.00    -0.003 C 
ATOM     32  C   UNL     1      23.302  -0.960 -34.585  1.00  0.00     0.004 C 
ENDBRANCH  30  31
ENDBRANCH  29  30
ENDBRANCH  28  29
ENDBRANCH  27  28
ENDBRANCH  26  27
ENDBRANCH  25  26
ENDBRANCH  24  25
ENDBRANCH  23  24
ENDBRANCH  22  23
ENDBRANCH  21  22
ENDBRANCH  20  21
ENDBRANCH  19  20
ENDBRANCH  18  19
ENDBRANCH   1  18
TORSDOF 28
ENDMDL
MODEL 3
REMARK VINA RESULT:    -2.868      3.101      5.732
REMARK INTER + INTRA:         -14.539
REMARK INTER:                  -8.342
REMARK INTRA:                  -6.197
REMARK UNBOUND:                -6.976
REMARK SMILES CCCCCCCCCCCCCCCCCCCCCCCCCCCCCC(=O)[O-]
REMARK SMILES IDX 16 1 17 2 18 3 19 4 20 5 21 6 22 7 23 8 24 9 25 10 26 11
REMARK SMILES IDX 27 12 28 13 29 14 30 15 31 16 32 17 15 18 14 19 13 20 12 21
REMARK SMILES IDX 11 22 10 23 9 24 8 25 7 26 6 27 5 28 4 29 3 30 2 31 1 32
REMARK H PARENT
REMARK Flexibility Score: inf
ROOT
ATOM      1  C   UNL     1      31.730   0.785 -38.261  1.00  0.00     0.000 C 
ENDROOT
BRANCH   1   2
ATOM      2  C   UNL     1      30.496   0.266 -39.018  1.00  0.00     0.000 C 
BRANCH   2   3
ATOM      3  C   UNL     1      29.620   1.344 -39.690  1.00  0.00     0.000 C 
BRANCH   3   4
ATOM      4  C   UNL     1      28.269   1.596 -38.990  1.00  0.00     0.000 C 
BRANCH   4   5
ATOM      5  C   UNL     1      28.236   2.901 -38.176  1.00  0.00     0.000 C 
BRANCH   5   6
ATOM      6  C   UNL     1      27.733   2.698 -36.734  1.00  0.00     0.000 C 
BRANCH   6   7
ATOM      7  C   UNL     1      28.518   1.662 -35.910  1.00  0.00     0.000 C 
BRANCH   7   8
ATOM      8  C   UNL     1      27.616   0.767 -35.050  1.00  0.00     0.000 C 
BRANCH   8   9
ATOM      9  C   UNL     1      26.562   0.067 -35.918  1.00  0.00     0.000 C 
BRANCH   9  10
ATOM     10  C   UNL     1      26.205  -1.316 -35.353  1.00  0.00     0.000 C 
BRANCH  10  11
ATOM     11  C   UNL     1      25.501  -2.221 -36.381  1.00  0.00     0.000 C 
BRANCH  11  12
ATOM     12  C   UNL     1      25.624  -3.732 -36.112  1.00  0.00     0.000 C 
BRANCH  12  13
ATOM     13  C   UNL     1      26.398  -4.051 -34.823  1.00  0.00     0.006 C 
BRANCH  13  14
ATOM     14  C   UNL     1      25.847  -5.290 -34.106  1.00  0.00     0.053 C 
BRANCH  14  15
ATOM     15  C   UNL     1      25.244  -4.947 -32.777  1.00  0.00     0.041 C 
ATOM     16  O   UNL     1      24.015  -5.131 -32.572  1.00  0.00    -0.550 OA
ATOM     17  O   UNL     1      26.045  -4.439 -31.761  1.00  0.00    -0.550 OA
ENDBRANCH  14  15
ENDBRANCH  13  14
ENDBRANCH  12  13
ENDBRANCH  11  12
ENDBRANCH  10  11
ENDBRANCH   9  10
ENDBRANCH   8   9
ENDBRANCH   7   8
ENDBRANCH   6   7
ENDBRANCH   5   6
ENDBRANCH   4   5
ENDBRANCH   3   4
ENDBRANCH   2   3
ENDBRANCH   1   2
BRANCH   1  18
ATOM     18  C   UNL     1      32.798  -0.300 -38.040  1.00  0.00     0.000 C 
BRANCH  18  19
ATOM     19  C   UNL     1      32.489  -1.607 -38.788  1.00  0.00     0.000 C 
BRANCH  19  20
ATOM     20  C   UNL     1      32.826  -2.860 -37.959  1.00  0.00     0.000 C 
BRANCH  20  21
ATOM     21  C   UNL     1      32.235  -4.142 -38.569  1.00  0.00     0.000 C 
BRANCH  21  22
ATOM     22  C   UNL     1      31.238  -3.847 -39.705  1.00  0.00     0.000 C 
BRANCH  22  23
ATOM     23  C   UNL     1      29.973  -4.721 -39.631  1.00  0.00     0.000 C 
BRANCH  23  24
ATOM     24  C   UNL     1      29.074  -4.457 -38.407  1.00  0.00    -0.000 C 
BRANCH  24  25
ATOM     25  C   UNL     1      28.653  -2.988 -38.205  1.00  0.00    -0.000 C 
BRANCH  25  26
ATOM     26  C   UNL     1      29.239  -2.309 -36.954  1.00  0.00    -0.000 C 
BRANCH  26  27
ATOM     27  C   UNL     1      29.727  -3.316 -35.902  1.00  0.00    -0.000 C 
BRANCH  27  28
ATOM     28  C   UNL     1      30.560  -2.619 -34.816  1.00  0.00    -0.000 C 
BRANCH  28  29
ATOM     29  C   UNL     1      30.946  -1.178 -35.211  1.00  0.00    -0.000 C 
BRANCH  29  30
ATOM     30  C   UNL     1      31.071  -0.224 -34.011  1.00  0.00    -0.000 C 
BRANCH  30  31
ATOM     31  C   UNL     1      31.858   1.052 -34.342  1.00  0.00    -0.003 C 
ATOM     32  C   UNL     1      33.347   0.757 -34.502  1.00  0.00     0.004 C 
ENDBRANCH  30  31
ENDBRANCH  29  30
ENDBRANCH  28  29
ENDBRANCH  27  28
ENDBRANCH  26  27
ENDBRANCH  25  26
ENDBRANCH  24  25
ENDBRANCH  23  24
ENDBRANCH  22  23
ENDBRANCH  21  22
ENDBRANCH  20  21
ENDBRANCH  19  20
ENDBRANCH  18  19
ENDBRANCH   1  18
TORSDOF 28
ENDMDL
MODEL 4
REMARK VINA RESULT:    -2.819      3.549      8.247
REMARK INTER + INTRA:         -14.410
REMARK INTER:                 -10.018
REMARK INTRA:                  -4.392
REMARK UNBOUND:                -6.976
REMARK SMILES CCCCCCCCCCCCCCCCCCCCCCCCCCCCCC(=O)[O-]
REMARK SMILES IDX 16 1 17 2 18 3 19 4 20 5 21 6 22 7 23 8 24 9 25 10 26 11
REMARK SMILES IDX 27 12 28 13 29 14 30 15 31 16 32 17 15 18 14 19 13 20 12 21
REMARK SMILES IDX 11 22 10 23 9 24 8 25 7 26 6 27 5 28 4 29 3 30 2 31 1 32
REMARK H PARENT
REMARK Flexibility Score: inf
ROOT
ATOM      1  C   UNL     1      32.584  -0.176 -37.797  1.00  0.00     0.000 C 
ENDROOT
BRANCH   1   2
ATOM      2  C   UNL     1      32.765  -1.663 -38.150  1.00  0.00     0.000 C 
BRANCH   2   3
ATOM      3  C   UNL     1      33.425  -2.534 -37.061  1.00  0.00     0.000 C 
BRANCH   3   4
ATOM      4  C   UNL     1      32.778  -2.411 -35.666  1.00  0.00     0.000 C 
BRANCH   4   5
ATOM      5  C   UNL     1      32.156  -3.725 -35.162  1.00  0.00     0.000 C 
BRANCH   5   6
ATOM      6  C   UNL     1      30.625  -3.650 -35.020  1.00  0.00     0.000 C 
BRANCH   6   7
ATOM      7  C   UNL     1      29.890  -3.016 -36.215  1.00  0.00     0.000 C 
BRANCH   7   8
ATOM      8  C   UNL     1      29.880  -3.912 -37.460  1.00  0.00     0.000 C 
BRANCH   8   9
ATOM      9  C   UNL     1      28.575  -3.732 -38.247  1.00  0.00     0.000 C 
BRANCH   9  10
ATOM     10  C   UNL     1      27.448  -3.210 -37.343  1.00  0.00     0.000 C 
BRANCH  10  11
ATOM     11  C   UNL     1      26.627  -4.341 -36.695  1.00  0.00     0.000 C 
BRANCH  11  12
ATOM     12  C   UNL     1      25.947  -3.973 -35.363  1.00  0.00     0.000 C 
BRANCH  12  13
ATOM     13  C   UNL     1      26.415  -4.849 -34.189  1.00  0.00     0.006 C 
BRANCH  13  14
ATOM     14  C   UNL     1      25.809  -4.401 -32.853  1.00  0.00     0.053 C 
BRANCH  14  15
ATOM     15  C   UNL     1      24.397  -4.879 -32.690  1.00  0.00     0.041 C 
ATOM     16  O   UNL     1      24.145  -5.870 -31.954  1.00  0.00    -0.550 OA
ATOM     17  O   UNL     1      23.360  -4.218 -33.338  1.00  0.00    -0.550 OA
ENDBRANCH  14  15
ENDBRANCH  13  14
ENDBRANCH  12  13
ENDBRANCH  11  12
ENDBRANCH  10  11
ENDBRANCH   9  10
ENDBRANCH   8   9
ENDBRANCH   7   8
ENDBRANCH   6   7
ENDBRANCH   5   6
ENDBRANCH   4   5
ENDBRANCH   3   4
ENDBRANCH   2   3
ENDBRANCH   1   2
BRANCH   1  18
ATOM     18  C   UNL     1      31.474   0.504 -38.618  1.00  0.00     0.000 C 
BRANCH  18  19
ATOM     19  C   UNL     1      30.261  -0.408 -38.856  1.00  0.00     0.000 C 
BRANCH  19  20
ATOM     20  C   UNL     1      28.925   0.280 -38.518  1.00  0.00     0.000 C 
BRANCH  20  21
ATOM     21  C   UNL     1      28.683   0.376 -37.002  1.00  0.00     0.000 C 
BRANCH  21  22
ATOM     22  C   UNL     1      28.943   1.791 -36.454  1.00  0.00     0.000 C 
BRANCH  22  23
ATOM     23  C   UNL     1      29.793   1.786 -35.170  1.00  0.00     0.000 C 
BRANCH  23  24
ATOM     24  C   UNL     1      30.518   0.458 -34.878  1.00  0.00    -0.000 C 
BRANCH  24  25
ATOM     25  C   UNL     1      31.551   0.511 -33.734  1.00  0.00    -0.000 C 
BRANCH  25  26
ATOM     26  C   UNL     1      32.990   0.841 -34.172  1.00  0.00    -0.000 C 
BRANCH  26  27
ATOM     27  C   UNL     1      33.544   2.104 -33.497  1.00  0.00    -0.000 C 
BRANCH  27  28
ATOM     28  C   UNL     1      32.774   2.423 -32.207  1.00  0.00    -0.000 C 
BRANCH  28  29
ATOM     29  C   UNL     1      33.258   3.731 -31.547  1.00  0.00    -0.000 C 
BRANCH  29  30
ATOM     30  C   UNL     1      33.517   4.867 -32.551  1.00  0.00    -0.000 C 
BRANCH  30  31
ATOM     31  C   UNL     1      34.899   5.511 -32.380  1.00  0.00    -0.003 C 
ATOM     32  C   UNL     1      34.833   6.726 -31.457  1.00  0.00     0.004 C 
ENDBRANCH  30  31
ENDBRANCH  29  30
ENDBRANCH  28  29
ENDBRANCH  27  28
ENDBRANCH  26  27
ENDBRANCH  25  26
ENDBRANCH  24  25
ENDBRANCH  23  24
ENDBRANCH  22  23
ENDBRANCH  21  22
ENDBRANCH  20  21
ENDBRANCH  19  20
ENDBRANCH  18  19
ENDBRANCH   1  18
TORSDOF 28
ENDMDL
MODEL 5
REMARK VINA RESULT:    -2.776      1.661      4.214
REMARK INTER + INTRA:         -14.295
REMARK INTER:                  -8.183
REMARK INTRA:                  -6.112
REMARK UNBOUND:                -6.976
REMARK SMILES CCCCCCCCCCCCCCCCCCCCCCCCCCCCCC(=O)[O-]
REMARK SMILES IDX 16 1 17 2 18 3 19 4 20 5 21 6 22 7 23 8 24 9 25 10 26 11
REMARK SMILES IDX 27 12 28 13 29 14 30 15 31 16 32 17 15 18 14 19 13 20 12 21
REMARK SMILES IDX 11 22 10 23 9 24 8 25 7 26 6 27 5 28 4 29 3 30 2 31 1 32
REMARK H PARENT
REMARK Flexibility Score: inf
ROOT
ATOM      1  C   UNL     1      31.664  -3.025 -34.683  1.00  0.00     0.000 C 
ENDROOT
BRANCH   1   2
ATOM      2  C   UNL     1      32.587  -1.809 -34.877  1.00  0.00     0.000 C 
BRANCH   2   3
ATOM      3  C   UNL     1      33.405  -1.792 -36.185  1.00  0.00     0.000 C 
BRANCH   3   4
ATOM      4  C   UNL     1      33.397  -0.439 -36.925  1.00  0.00     0.000 C 
BRANCH   4   5
ATOM      5  C   UNL     1      32.641  -0.479 -38.265  1.00  0.00     0.000 C 
BRANCH   5   6
ATOM      6  C   UNL     1      31.490   0.543 -38.337  1.00  0.00     0.000 C 
BRANCH   6   7
ATOM      7  C   UNL     1      30.183   0.009 -38.948  1.00  0.00     0.000 C 
BRANCH   7   8
ATOM      8  C   UNL     1      29.046   1.040 -38.933  1.00  0.00     0.000 C 
BRANCH   8   9
ATOM      9  C   UNL     1      28.088   0.772 -37.764  1.00  0.00     0.000 C 
BRANCH   9  10
ATOM     10  C   UNL     1      27.923   2.020 -36.884  1.00  0.00     0.000 C 
BRANCH  10  11
ATOM     11  C   UNL     1      29.231   2.439 -36.186  1.00  0.00     0.000 C 
BRANCH  11  12
ATOM     12  C   UNL     1      29.853   1.369 -35.269  1.00  0.00     0.000 C 
BRANCH  12  13
ATOM     13  C   UNL     1      31.273   1.732 -34.802  1.00  0.00     0.006 C 
BRANCH  13  14
ATOM     14  C   UNL     1      31.284   2.954 -33.875  1.00  0.00     0.053 C 
BRANCH  14  15
ATOM     15  C   UNL     1      32.672   3.312 -33.436  1.00  0.00     0.041 C 
ATOM     16  O   UNL     1      32.949   4.498 -33.114  1.00  0.00    -0.550 OA
ATOM     17  O   UNL     1      33.655   2.331 -33.369  1.00  0.00    -0.550 OA
ENDBRANCH  14  15
ENDBRANCH  13  14
ENDBRANCH  12  13
ENDBRANCH  11  12
ENDBRANCH  10  11
ENDBRANCH   9  10
ENDBRANCH   8   9
ENDBRANCH   7   8
ENDBRANCH   6   7
ENDBRANCH   5   6
ENDBRANCH   4   5
ENDBRANCH   3   4
ENDBRANCH   2   3
ENDBRANCH   1   2
BRANCH   1  18
ATOM     18  C   UNL     1      30.172  -2.648 -34.674  1.00  0.00     0.000 C 
BRANCH  18  19
ATOM     19  C   UNL     1      29.668  -2.161 -36.042  1.00  0.00     0.000 C 
BRANCH  19  20
ATOM     20  C   UNL     1      29.736  -3.254 -37.124  1.00  0.00     0.000 C 
BRANCH  20  21
ATOM     21  C   UNL     1      28.396  -3.438 -37.855  1.00  0.00     0.000 C 
BRANCH  21  22
ATOM     22  C   UNL     1      27.233  -2.725 -37.140  1.00  0.00     0.000 C 
BRANCH  22  23
ATOM     23  C   UNL     1      26.131  -3.695 -36.679  1.00  0.00     0.000 C 
BRANCH  23  24
ATOM     24  C   UNL     1      26.644  -5.008 -36.053  1.00  0.00    -0.000 C 
BRANCH  24  25
ATOM     25  C   UNL     1      26.293  -5.208 -34.565  1.00  0.00    -0.000 C 
BRANCH  25  26
ATOM     26  C   UNL     1      27.116  -4.355 -33.583  1.00  0.00    -0.000 C 
BRANCH  26  27
ATOM     27  C   UNL     1      26.241  -3.577 -32.590  1.00  0.00    -0.000 C 
BRANCH  27  28
ATOM     28  C   UNL     1      25.040  -2.933 -33.300  1.00  0.00    -0.000 C 
BRANCH  28  29
ATOM     29  C   UNL     1      25.140  -1.394 -33.336  1.00  0.00    -0.000 C 
BRANCH  29  30
ATOM     30  C   UNL     1      26.368  -0.875 -34.104  1.00  0.00    -0.000 C 
BRANCH  30  31
ATOM     31  C   UNL     1      27.124   0.226 -33.348  1.00  0.00    -0.003 C 
ATOM     32  C   UNL     1      28.244  -0.360 -32.491  1.00  0.00     0.004 C 
ENDBRANCH  30  31
ENDBRANCH  29  30
ENDBRANCH  28  29
ENDBRANCH  27  28
ENDBRANCH  26  27
ENDBRANCH  25  26
ENDBRANCH  24  25
ENDBRANCH  23  24
ENDBRANCH  22  23
ENDBRANCH  21  22
ENDBRANCH  20  21
ENDBRANCH  19  20
ENDBRANCH  18  19
ENDBRANCH   1  18
TORSDOF 28
ENDMDL
MODEL 6
REMARK VINA RESULT:    -2.774      3.658      6.797
REMARK INTER + INTRA:         -14.291
REMARK INTER:                  -8.273
REMARK INTRA:                  -6.018
REMARK UNBOUND:                -6.976
REMARK SMILES CCCCCCCCCCCCCCCCCCCCCCCCCCCCCC(=O)[O-]
REMARK SMILES IDX 16 1 17 2 18 3 19 4 20 5 21 6 22 7 23 8 24 9 25 10 26 11
REMARK SMILES IDX 27 12 28 13 29 14 30 15 31 16 32 17 15 18 14 19 13 20 12 21
REMARK SMILES IDX 11 22 10 23 9 24 8 25 7 26 6 27 5 28 4 29 3 30 2 31 1 32
REMARK H PARENT
REMARK Flexibility Score: inf
ROOT
ATOM      1  C   UNL     1      31.786  -0.464 -34.239  1.00  0.00     0.000 C 
ENDROOT
BRANCH   1   2
ATOM      2  C   UNL     1      30.931  -1.475 -33.457  1.00  0.00     0.000 C 
BRANCH   2   3
ATOM      3  C   UNL     1      29.804  -2.160 -34.257  1.00  0.00     0.000 C 
BRANCH   3   4
ATOM      4  C   UNL     1      30.146  -3.580 -34.754  1.00  0.00     0.000 C 
BRANCH   4   5
ATOM      5  C   UNL     1      30.340  -3.664 -36.278  1.00  0.00     0.000 C 
BRANCH   5   6
ATOM      6  C   UNL     1      29.603  -2.547 -37.041  1.00  0.00     0.000 C 
BRANCH   6   7
ATOM      7  C   UNL     1      28.521  -3.033 -38.022  1.00  0.00     0.000 C 
BRANCH   7   8
ATOM      8  C   UNL     1      27.366  -3.768 -37.329  1.00  0.00     0.000 C 
BRANCH   8   9
ATOM      9  C   UNL     1      26.374  -2.769 -36.722  1.00  0.00     0.000 C 
BRANCH   9  10
ATOM     10  C   UNL     1      25.785  -3.299 -35.406  1.00  0.00     0.000 C 
BRANCH  10  11
ATOM     11  C   UNL     1      26.374  -4.661 -34.991  1.00  0.00     0.000 C 
BRANCH  11  12
ATOM     12  C   UNL     1      26.757  -4.780 -33.504  1.00  0.00     0.000 C 
BRANCH  12  13
ATOM     13  C   UNL     1      25.658  -4.266 -32.559  1.00  0.00     0.006 C 
BRANCH  13  14
ATOM     14  C   UNL     1      24.542  -5.298 -32.351  1.00  0.00     0.053 C 
BRANCH  14  15
ATOM     15  C   UNL     1      23.973  -5.238 -30.966  1.00  0.00     0.041 C 
ATOM     16  O   UNL     1      23.766  -6.300 -30.319  1.00  0.00    -0.550 OA
ATOM     17  O   UNL     1      23.687  -4.009 -30.385  1.00  0.00    -0.550 OA
ENDBRANCH  14  15
ENDBRANCH  13  14
ENDBRANCH  12  13
ENDBRANCH  11  12
ENDBRANCH  10  11
ENDBRANCH   9  10
ENDBRANCH   8   9
ENDBRANCH   7   8
ENDBRANCH   6   7
ENDBRANCH   5   6
ENDBRANCH   4   5
ENDBRANCH   3   4
ENDBRANCH   2   3
ENDBRANCH   1   2
BRANCH   1  18
ATOM     18  C   UNL     1      33.051  -1.092 -34.848  1.00  0.00     0.000 C 
BRANCH  18  19
ATOM     19  C   UNL     1      33.080  -1.017 -36.383  1.00  0.00     0.000 C 
BRANCH  19  20
ATOM     20  C   UNL     1      32.171   0.094 -36.940  1.00  0.00     0.000 C 
BRANCH  20  21
ATOM     21  C   UNL     1      31.970  -0.022 -38.460  1.00  0.00     0.000 C 
BRANCH  21  22
ATOM     22  C   UNL     1      30.820   0.867 -38.971  1.00  0.00     0.000 C 
BRANCH  22  23
ATOM     23  C   UNL     1      29.662   0.054 -39.577  1.00  0.00     0.000 C 
BRANCH  23  24
ATOM     24  C   UNL     1      28.403   0.876 -39.916  1.00  0.00    -0.000 C 
BRANCH  24  25
ATOM     25  C   UNL     1      27.070   0.107 -39.814  1.00  0.00    -0.000 C 
BRANCH  25  26
ATOM     26  C   UNL     1      26.212   0.455 -38.583  1.00  0.00    -0.000 C 
BRANCH  26  27
ATOM     27  C   UNL     1      26.423   1.896 -38.097  1.00  0.00    -0.000 C 
BRANCH  27  28
ATOM     28  C   UNL     1      26.481   1.957 -36.563  1.00  0.00    -0.000 C 
BRANCH  28  29
ATOM     29  C   UNL     1      27.261   0.770 -35.961  1.00  0.00    -0.000 C 
BRANCH  29  30
ATOM     30  C   UNL     1      28.788   0.944 -36.021  1.00  0.00    -0.000 C 
BRANCH  30  31
ATOM     31  C   UNL     1      29.221   2.416 -36.030  1.00  0.00    -0.003 C 
ATOM     32  C   UNL     1      30.172   2.721 -34.875  1.00  0.00     0.004 C 
ENDBRANCH  30  31
ENDBRANCH  29  30
ENDBRANCH  28  29
ENDBRANCH  27  28
ENDBRANCH  26  27
ENDBRANCH  25  26
ENDBRANCH  24  25
ENDBRANCH  23  24
ENDBRANCH  22  23
ENDBRANCH  21  22
ENDBRANCH  20  21
ENDBRANCH  19  20
ENDBRANCH  18  19
ENDBRANCH   1  18
TORSDOF 28
ENDMDL
MODEL 7
REMARK VINA RESULT:    -2.765      3.503      5.866
REMARK INTER + INTRA:         -14.266
REMARK INTER:                  -7.963
REMARK INTRA:                  -6.303
REMARK UNBOUND:                -6.976
REMARK SMILES CCCCCCCCCCCCCCCCCCCCCCCCCCCCCC(=O)[O-]
REMARK SMILES IDX 16 1 17 2 18 3 19 4 20 5 21 6 22 7 23 8 24 9 25 10 26 11
REMARK SMILES IDX 27 12 28 13 29 14 30 15 31 16 32 17 15 18 14 19 13 20 12 21
REMARK SMILES IDX 11 22 10 23 9 24 8 25 7 26 6 27 5 28 4 29 3 30 2 31 1 32
REMARK H PARENT
REMARK Flexibility Score: inf
ROOT
ATOM      1  C   UNL     1      31.148   3.087 -34.072  1.00  0.00     0.000 C 
ENDROOT
BRANCH   1   2
ATOM      2  C   UNL     1      32.549   2.570 -33.701  1.00  0.00     0.000 C 
BRANCH   2   3
ATOM      3  C   UNL     1      32.688   1.039 -33.584  1.00  0.00     0.000 C 
BRANCH   3   4
ATOM      4  C   UNL     1      33.332   0.360 -34.810  1.00  0.00     0.000 C 
BRANCH   4   5
ATOM      5  C   UNL     1      32.981  -1.132 -34.938  1.00  0.00     0.000 C 
BRANCH   5   6
ATOM      6  C   UNL     1      31.466  -1.402 -34.868  1.00  0.00     0.000 C 
BRANCH   6   7
ATOM      7  C   UNL     1      31.072  -2.736 -34.209  1.00  0.00     0.000 C 
BRANCH   7   8
ATOM      8  C   UNL     1      29.558  -2.885 -34.009  1.00  0.00     0.000 C 
BRANCH   8   9
ATOM      9  C   UNL     1      28.910  -1.522 -33.734  1.00  0.00     0.000 C 
BRANCH   9  10
ATOM     10  C   UNL     1      27.387  -1.651 -33.582  1.00  0.00     0.000 C 
BRANCH  10  11
ATOM     11  C   UNL     1      26.615  -0.524 -34.295  1.00  0.00     0.000 C 
BRANCH  11  12
ATOM     12  C   UNL     1      26.490  -0.684 -35.822  1.00  0.00     0.000 C 
BRANCH  12  13
ATOM     13  C   UNL     1      25.133  -1.265 -36.254  1.00  0.00     0.006 C 
BRANCH  13  14
ATOM     14  C   UNL     1      23.992  -0.829 -35.326  1.00  0.00     0.053 C 
BRANCH  14  15
ATOM     15  C   UNL     1      22.668  -0.822 -36.029  1.00  0.00     0.041 C 
ATOM     16  O   UNL     1      22.525  -1.441 -37.116  1.00  0.00    -0.550 OA
ATOM     17  O   UNL     1      21.590  -0.145 -35.472  1.00  0.00    -0.550 OA
ENDBRANCH  14  15
ENDBRANCH  13  14
ENDBRANCH  12  13
ENDBRANCH  11  12
ENDBRANCH  10  11
ENDBRANCH   9  10
ENDBRANCH   8   9
ENDBRANCH   7   8
ENDBRANCH   6   7
ENDBRANCH   5   6
ENDBRANCH   4   5
ENDBRANCH   3   4
ENDBRANCH   2   3
ENDBRANCH   1   2
BRANCH   1  18
ATOM     18  C   UNL     1      30.065   1.998 -33.984  1.00  0.00     0.000 C 
BRANCH  18  19
ATOM     19  C   UNL     1      29.278   1.828 -35.293  1.00  0.00     0.000 C 
BRANCH  19  20
ATOM     20  C   UNL     1      30.192   1.586 -36.508  1.00  0.00     0.000 C 
BRANCH  20  21
ATOM     21  C   UNL     1      29.687   0.441 -37.402  1.00  0.00     0.000 C 
BRANCH  21  22
ATOM     22  C   UNL     1      30.609   0.185 -38.608  1.00  0.00     0.000 C 
BRANCH  22  23
ATOM     23  C   UNL     1      32.102   0.313 -38.256  1.00  0.00     0.000 C 
BRANCH  23  24
ATOM     24  C   UNL     1      32.958  -0.920 -38.606  1.00  0.00    -0.000 C 
BRANCH  24  25
ATOM     25  C   UNL     1      32.167  -2.218 -38.861  1.00  0.00    -0.000 C 
BRANCH  25  26
ATOM     26  C   UNL     1      32.496  -3.379 -37.905  1.00  0.00    -0.000 C 
BRANCH  26  27
ATOM     27  C   UNL     1      31.272  -4.242 -37.570  1.00  0.00    -0.000 C 
BRANCH  27  28
ATOM     28  C   UNL     1      29.978  -3.418 -37.648  1.00  0.00    -0.000 C 
BRANCH  28  29
ATOM     29  C   UNL     1      28.739  -4.300 -37.910  1.00  0.00    -0.000 C 
BRANCH  29  30
ATOM     30  C   UNL     1      27.497  -3.868 -37.111  1.00  0.00    -0.000 C 
BRANCH  30  31
ATOM     31  C   UNL     1      26.785  -5.046 -36.433  1.00  0.00    -0.003 C 
ATOM     32  C   UNL     1      26.328  -4.679 -35.023  1.00  0.00     0.004 C 
ENDBRANCH  30  31
ENDBRANCH  29  30
ENDBRANCH  28  29
ENDBRANCH  27  28
ENDBRANCH  26  27
ENDBRANCH  25  26
ENDBRANCH  24  25
ENDBRANCH  23  24
ENDBRANCH  22  23
ENDBRANCH  21  22
ENDBRANCH  20  21
ENDBRANCH  19  20
ENDBRANCH  18  19
ENDBRANCH   1  18
TORSDOF 28
ENDMDL
MODEL 8
REMARK VINA RESULT:    -2.754      3.152      7.496
REMARK INTER + INTRA:         -14.239
REMARK INTER:                  -8.659
REMARK INTRA:                  -5.580
REMARK UNBOUND:                -6.976
REMARK SMILES CCCCCCCCCCCCCCCCCCCCCCCCCCCCCC(=O)[O-]
REMARK SMILES IDX 16 1 17 2 18 3 19 4 20 5 21 6 22 7 23 8 24 9 25 10 26 11
REMARK SMILES IDX 27 12 28 13 29 14 30 15 31 16 32 17 15 18 14 19 13 20 12 21
REMARK SMILES IDX 11 22 10 23 9 24 8 25 7 26 6 27 5 28 4 29 3 30 2 31 1 32
REMARK H PARENT
REMARK Flexibility Score: inf
ROOT
ATOM      1  C   UNL     1      30.863   0.917 -38.606  1.00  0.00     0.000 C 
ENDROOT
BRANCH   1   2
ATOM      2  C   UNL     1      31.696  -0.371 -38.490  1.00  0.00     0.000 C 
BRANCH   2   3
ATOM      3  C   UNL     1      33.158  -0.183 -38.035  1.00  0.00     0.000 C 
BRANCH   3   4
ATOM      4  C   UNL     1      33.510  -0.890 -36.710  1.00  0.00     0.000 C 
BRANCH   4   5
ATOM      5  C   UNL     1      33.256  -2.407 -36.740  1.00  0.00     0.000 C 
BRANCH   5   6
ATOM      6  C   UNL     1      32.874  -2.980 -35.362  1.00  0.00     0.000 C 
BRANCH   6   7
ATOM      7  C   UNL     1      31.396  -3.378 -35.210  1.00  0.00     0.000 C 
BRANCH   7   8
ATOM      8  C   UNL     1      30.456  -2.172 -35.080  1.00  0.00     0.000 C 
BRANCH   8   9
ATOM      9  C   UNL     1      29.472  -2.122 -36.256  1.00  0.00     0.000 C 
BRANCH   9  10
ATOM     10  C   UNL     1      29.674  -3.316 -37.200  1.00  0.00     0.000 C 
BRANCH  10  11
ATOM     11  C   UNL     1      28.347  -3.960 -37.646  1.00  0.00     0.000 C 
BRANCH  11  12
ATOM     12  C   UNL     1      27.083  -3.364 -36.999  1.00  0.00     0.000 C 
BRANCH  12  13
ATOM     13  C   UNL     1      26.160  -4.432 -36.390  1.00  0.00     0.006 C 
BRANCH  13  14
ATOM     14  C   UNL     1      26.482  -4.706 -34.915  1.00  0.00     0.053 C 
BRANCH  14  15
ATOM     15  C   UNL     1      25.310  -4.425 -34.024  1.00  0.00     0.041 C 
ATOM     16  O   UNL     1      24.630  -3.377 -34.182  1.00  0.00    -0.550 OA
ATOM     17  O   UNL     1      24.961  -5.332 -33.029  1.00  0.00    -0.550 OA
ENDBRANCH  14  15
ENDBRANCH  13  14
ENDBRANCH  12  13
ENDBRANCH  11  12
ENDBRANCH  10  11
ENDBRANCH   9  10
ENDBRANCH   8   9
ENDBRANCH   7   8
ENDBRANCH   6   7
ENDBRANCH   5   6
ENDBRANCH   4   5
ENDBRANCH   3   4
ENDBRANCH   2   3
ENDBRANCH   1   2
BRANCH   1  18
ATOM     18  C   UNL     1      29.698   0.790 -39.603  1.00  0.00     0.000 C 
BRANCH  18  19
ATOM     19  C   UNL     1      29.097  -0.624 -39.645  1.00  0.00     0.000 C 
BRANCH  19  20
ATOM     20  C   UNL     1      27.562  -0.622 -39.515  1.00  0.00     0.000 C 
BRANCH  20  21
ATOM     21  C   UNL     1      26.978   0.800 -39.508  1.00  0.00     0.000 C 
BRANCH  21  22
ATOM     22  C   UNL     1      26.164   1.096 -38.235  1.00  0.00     0.000 C 
BRANCH  22  23
ATOM     23  C   UNL     1      26.559   0.195 -37.051  1.00  0.00     0.000 C 
BRANCH  23  24
ATOM     24  C   UNL     1      27.489   0.857 -36.015  1.00  0.00    -0.000 C 
BRANCH  24  25
ATOM     25  C   UNL     1      28.103   2.204 -36.449  1.00  0.00    -0.000 C 
BRANCH  25  26
ATOM     26  C   UNL     1      29.295   2.679 -35.599  1.00  0.00    -0.000 C 
BRANCH  26  27
ATOM     27  C   UNL     1      29.923   1.550 -34.768  1.00  0.00    -0.000 C 
BRANCH  27  28
ATOM     28  C   UNL     1      31.419   1.400 -35.082  1.00  0.00    -0.000 C 
BRANCH  28  29
ATOM     29  C   UNL     1      32.292   1.471 -33.812  1.00  0.00    -0.000 C 
BRANCH  29  30
ATOM     30  C   UNL     1      31.794   2.499 -32.781  1.00  0.00    -0.000 C 
BRANCH  30  31
ATOM     31  C   UNL     1      32.935   3.306 -32.145  1.00  0.00    -0.003 C 
ATOM     32  C   UNL     1      33.733   4.064 -33.204  1.00  0.00     0.004 C 
ENDBRANCH  30  31
ENDBRANCH  29  30
ENDBRANCH  28  29
ENDBRANCH  27  28
ENDBRANCH  26  27
ENDBRANCH  25  26
ENDBRANCH  24  25
ENDBRANCH  23  24
ENDBRANCH  22  23
ENDBRANCH  21  22
ENDBRANCH  20  21
ENDBRANCH  19  20
ENDBRANCH  18  19
ENDBRANCH   1  18
TORSDOF 28
ENDMDL
MODEL 9
REMARK VINA RESULT:    -2.734      3.586      6.274
REMARK INTER + INTRA:         -14.186
REMARK INTER:                  -8.138
REMARK INTRA:                  -6.048
REMARK UNBOUND:                -6.976
REMARK SMILES CCCCCCCCCCCCCCCCCCCCCCCCCCCCCC(=O)[O-]
REMARK SMILES IDX 16 1 17 2 18 3 19 4 20 5 21 6 22 7 23 8 24 9 25 10 26 11
REMARK SMILES IDX 27 12 28 13 29 14 30 15 31 16 32 17 15 18 14 19 13 20 12 21
REMARK SMILES IDX 11 22 10 23 9 24 8 25 7 26 6 27 5 28 4 29 3 30 2 31 1 32
REMARK H PARENT
REMARK Flexibility Score: inf
ROOT
ATOM      1  C   UNL     1      29.842  -0.610 -34.605  1.00  0.00     0.000 C 
ENDROOT
BRANCH   1   2
ATOM      2  C   UNL     1      29.441   0.748 -35.207  1.00  0.00     0.000 C 
BRANCH   2   3
ATOM      3  C   UNL     1      28.296   0.709 -36.241  1.00  0.00     0.000 C 
BRANCH   3   4
ATOM      4  C   UNL     1      27.089  -0.156 -35.825  1.00  0.00     0.000 C 
BRANCH   4   5
ATOM      5  C   UNL     1      26.877  -1.385 -36.727  1.00  0.00     0.000 C 
BRANCH   5   6
ATOM      6  C   UNL     1      27.223  -2.712 -36.026  1.00  0.00     0.000 C 
BRANCH   6   7
ATOM      7  C   UNL     1      26.665  -3.973 -36.709  1.00  0.00     0.000 C 
BRANCH   7   8
ATOM      8  C   UNL     1      26.334  -5.098 -35.718  1.00  0.00     0.000 C 
BRANCH   8   9
ATOM      9  C   UNL     1      26.434  -4.594 -34.272  1.00  0.00     0.000 C 
BRANCH   9  10
ATOM     10  C   UNL     1      25.238  -5.068 -33.434  1.00  0.00     0.000 C 
BRANCH  10  11
ATOM     11  C   UNL     1      24.159  -3.982 -33.260  1.00  0.00     0.000 C 
BRANCH  11  12
ATOM     12  C   UNL     1      24.529  -2.598 -33.827  1.00  0.00     0.000 C 
BRANCH  12  13
ATOM     13  C   UNL     1      23.385  -1.951 -34.624  1.00  0.00     0.006 C 
BRANCH  13  14
ATOM     14  C   UNL     1      23.471  -2.267 -36.123  1.00  0.00     0.053 C 
BRANCH  14  15
ATOM     15  C   UNL     1      22.823  -1.204 -36.958  1.00  0.00     0.041 C 
ATOM     16  O   UNL     1      21.661  -0.803 -36.684  1.00  0.00    -0.550 OA
ATOM     17  O   UNL     1      23.511  -0.646 -38.029  1.00  0.00    -0.550 OA
ENDBRANCH  14  15
ENDBRANCH  13  14
ENDBRANCH  12  13
ENDBRANCH  11  12
ENDBRANCH  10  11
ENDBRANCH   9  10
ENDBRANCH   8   9
ENDBRANCH   7   8
ENDBRANCH   6   7
ENDBRANCH   5   6
ENDBRANCH   4   5
ENDBRANCH   3   4
ENDBRANCH   2   3
ENDBRANCH   1   2
BRANCH   1  18
ATOM     18  C   UNL     1      31.366  -0.819 -34.562  1.00  0.00     0.000 C 
BRANCH  18  19
ATOM     19  C   UNL     1      32.129   0.138 -35.492  1.00  0.00     0.000 C 
BRANCH  19  20
ATOM     20  C   UNL     1      33.511  -0.405 -35.900  1.00  0.00     0.000 C 
BRANCH  20  21
ATOM     21  C   UNL     1      33.411  -1.567 -36.902  1.00  0.00     0.000 C 
BRANCH  21  22
ATOM     22  C   UNL     1      33.932  -2.894 -36.320  1.00  0.00     0.000 C 
BRANCH  22  23
ATOM     23  C   UNL     1      33.055  -4.099 -36.703  1.00  0.00     0.000 C 
BRANCH  23  24
ATOM     24  C   UNL     1      31.874  -4.370 -35.750  1.00  0.00    -0.000 C 
BRANCH  24  25
ATOM     25  C   UNL     1      30.487  -3.966 -36.291  1.00  0.00    -0.000 C 
BRANCH  25  26
ATOM     26  C   UNL     1      30.169  -4.476 -37.709  1.00  0.00    -0.000 C 
BRANCH  26  27
ATOM     27  C   UNL     1      29.762  -3.351 -38.671  1.00  0.00    -0.000 C 
BRANCH  27  28
ATOM     28  C   UNL     1      30.163  -1.977 -38.113  1.00  0.00    -0.000 C 
BRANCH  28  29
ATOM     29  C   UNL     1      30.484  -0.964 -39.231  1.00  0.00    -0.000 C 
BRANCH  29  30
ATOM     30  C   UNL     1      30.822   0.443 -38.708  1.00  0.00    -0.000 C 
BRANCH  30  31
ATOM     31  C   UNL     1      30.083   1.554 -39.465  1.00  0.00    -0.003 C 
ATOM     32  C   UNL     1      28.695   1.095 -39.906  1.00  0.00     0.004 C 
ENDBRANCH  30  31
ENDBRANCH  29  30
ENDBRANCH  28  29
ENDBRANCH  27  28
ENDBRANCH  26  27
ENDBRANCH  25  26
ENDBRANCH  24  25
ENDBRANCH  23  24
ENDBRANCH  22  23
ENDBRANCH  21  22
ENDBRANCH  20  21
ENDBRANCH  19  20
ENDBRANCH  18  19
ENDBRANCH   1  18
TORSDOF 28
ENDMDL
