MODEL 1
REMARK VINA RESULT:    -1.463      0.000      0.000
REMARK INTER + INTRA:          -4.177
REMARK INTER:                  -3.686
REMARK INTRA:                  -0.490
REMARK UNBOUND:                -0.490
REMARK SMILES CCCCCCCCCCCCCCCCCCCCCCCCCCCC(=O)[O-]
REMARK SMILES IDX 15 1 16 2 17 3 18 4 19 5 20 6 21 7 22 8 23 9 24 10 25 11
REMARK SMILES IDX 26 12 27 13 28 14 29 15 30 16 14 17 13 18 12 19 11 20 10 21
REMARK SMILES IDX 9 22 8 23 7 24 6 25 5 26 4 27 3 28 2 29 1 30
REMARK H PARENT
REMARK Flexibility Score: inf
ROOT
ATOM      1  C   UNL     1      40.959  28.500  18.707  1.00  0.00     0.000 C 
ENDROOT
BRANCH   1   2
ATOM      2  C   UNL     1      41.472  27.791  19.970  1.00  0.00     0.000 C 
BRANCH   2   3
ATOM      3  C   UNL     1      40.924  26.363  20.121  1.00  0.00     0.000 C 
BRANCH   3   4
ATOM      4  C   UNL     1      39.433  26.259  19.758  1.00  0.00     0.000 C 
BRANCH   4   5
ATOM      5  C   UNL     1      39.151  26.585  18.280  1.00  0.00     0.000 C 
BRANCH   5   6
ATOM      6  C   UNL     1      38.268  25.563  17.539  1.00  0.00     0.000 C 
BRANCH   6   7
ATOM      7  C   UNL     1      37.538  26.162  16.328  1.00  0.00     0.000 C 
BRANCH   7   8
ATOM      8  C   UNL     1      36.258  25.382  16.010  1.00  0.00     0.000 C 
BRANCH   8   9
ATOM      9  C   UNL     1      35.125  26.331  15.591  1.00  0.00     0.000 C 
BRANCH   9  10
ATOM     10  C   UNL     1      34.653  27.237  16.739  1.00  0.00     0.000 C 
BRANCH  10  11
ATOM     11  C   UNL     1      34.670  28.727  16.367  1.00  0.00     0.000 C 
BRANCH  11  12
ATOM     12  C   UNL     1      34.913  28.909  14.862  1.00  0.00     0.006 C 
BRANCH  12  13
ATOM     13  C   UNL     1      35.030  30.386  14.461  1.00  0.00     0.053 C 
BRANCH  13  14
ATOM     14  C   UNL     1      34.048  30.758  13.391  1.00  0.00     0.041 C 
ATOM     15  O   UNL     1      33.995  30.097  12.320  1.00  0.00    -0.550 OA
ATOM     16  O   UNL     1      33.182  31.825  13.583  1.00  0.00    -0.550 OA
ENDBRANCH  13  14
ENDBRANCH  12  13
ENDBRANCH  11  12
ENDBRANCH  10  11
ENDBRANCH   9  10
ENDBRANCH   8   9
ENDBRANCH   7   8
ENDBRANCH   6   7
ENDBRANCH   5   6
ENDBRANCH   4   5
ENDBRANCH   3   4
ENDBRANCH   2   3
ENDBRANCH   1   2
BRANCH   1  17
ATOM     17  C   UNL     1      42.097  28.691  17.692  1.00  0.00     0.000 C 
BRANCH  17  18
ATOM     18  C   UNL     1      41.772  28.089  16.316  1.00  0.00     0.000 C 
BRANCH  18  19
ATOM     19  C   UNL     1      41.123  26.697  16.415  1.00  0.00     0.000 C 
BRANCH  19  20
ATOM     20  C   UNL     1      42.156  25.559  16.367  1.00  0.00     0.000 C 
BRANCH  20  21
ATOM     21  C   UNL     1      42.392  24.913  17.740  1.00  0.00     0.000 C 
BRANCH  21  22
ATOM     22  C   UNL     1      43.816  24.354  17.846  1.00  0.00    -0.000 C 
BRANCH  22  23
ATOM     23  C   UNL     1      44.062  23.267  16.789  1.00  0.00    -0.000 C 
BRANCH  23  24
ATOM     24  C   UNL     1      44.491  21.923  17.405  1.00  0.00    -0.000 C 
BRANCH  24  25
ATOM     25  C   UNL     1      43.693  20.701  16.914  1.00  0.00    -0.000 C 
BRANCH  25  26
ATOM     26  C   UNL     1      42.769  20.120  17.999  1.00  0.00    -0.000 C 
BRANCH  26  27
ATOM     27  C   UNL     1      41.488  19.506  17.406  1.00  0.00    -0.000 C 
BRANCH  27  28
ATOM     28  C   UNL     1      41.453  19.532  15.862  1.00  0.00    -0.000 C 
BRANCH  28  29
ATOM     29  C   UNL     1      41.418  18.132  15.224  1.00  0.00    -0.003 C 
ATOM     30  C   UNL     1      40.560  17.142  16.012  1.00  0.00     0.004 C 
ENDBRANCH  28  29
ENDBRANCH  27  28
ENDBRANCH  26  27
ENDBRANCH  25  26
ENDBRANCH  24  25
ENDBRANCH  23  24
ENDBRANCH  22  23
ENDBRANCH  21  22
ENDBRANCH  20  21
ENDBRANCH  19  20
ENDBRANCH  18  19
ENDBRANCH  17  18
ENDBRANCH   1  17
TORSDOF 26
ENDMDL
MODEL 2
REMARK VINA RESULT:    -1.344      3.241      6.702
REMARK INTER + INTRA:          -3.876
REMARK INTER:                  -2.486
REMARK INTRA:                  -1.390
REMARK UNBOUND:                -0.490
REMARK SMILES CCCCCCCCCCCCCCCCCCCCCCCCCCCC(=O)[O-]
REMARK SMILES IDX 15 1 16 2 17 3 18 4 19 5 20 6 21 7 22 8 23 9 24 10 25 11
REMARK SMILES IDX 26 12 27 13 28 14 29 15 30 16 14 17 13 18 12 19 11 20 10 21
REMARK SMILES IDX 9 22 8 23 7 24 6 25 5 26 4 27 3 28 2 29 1 30
REMARK H PARENT
REMARK Flexibility Score: inf
ROOT
ATOM      1  C   UNL     1      42.019  25.517  19.432  1.00  0.00     0.000 C 
ENDROOT
BRANCH   1   2
ATOM      2  C   UNL     1      42.109  26.864  20.165  1.00  0.00     0.000 C 
BRANCH   2   3
ATOM      3  C   UNL     1      40.736  27.515  20.397  1.00  0.00     0.000 C 
BRANCH   3   4
ATOM      4  C   UNL     1      39.571  26.619  19.946  1.00  0.00     0.000 C 
BRANCH   4   5
ATOM      5  C   UNL     1      39.056  26.968  18.536  1.00  0.00     0.000 C 
BRANCH   5   6
ATOM      6  C   UNL     1      38.526  25.775  17.718  1.00  0.00     0.000 C 
BRANCH   6   7
ATOM      7  C   UNL     1      38.018  26.179  16.325  1.00  0.00     0.000 C 
BRANCH   7   8
ATOM      8  C   UNL     1      36.848  25.292  15.883  1.00  0.00     0.000 C 
BRANCH   8   9
ATOM      9  C   UNL     1      35.513  25.841  16.409  1.00  0.00     0.000 C 
BRANCH   9  10
ATOM     10  C   UNL     1      34.795  26.737  15.387  1.00  0.00     0.000 C 
BRANCH  10  11
ATOM     11  C   UNL     1      34.987  28.235  15.670  1.00  0.00     0.000 C 
BRANCH  11  12
ATOM     12  C   UNL     1      35.280  28.999  14.370  1.00  0.00     0.006 C 
BRANCH  12  13
ATOM     13  C   UNL     1      34.932  30.490  14.476  1.00  0.00     0.053 C 
BRANCH  13  14
ATOM     14  C   UNL     1      33.953  30.916  13.423  1.00  0.00     0.041 C 
ATOM     15  O   UNL     1      33.179  31.887  13.632  1.00  0.00    -0.550 OA
ATOM     16  O   UNL     1      33.906  30.249  12.207  1.00  0.00    -0.550 OA
ENDBRANCH  13  14
ENDBRANCH  12  13
ENDBRANCH  11  12
ENDBRANCH  10  11
ENDBRANCH   9  10
ENDBRANCH   8   9
ENDBRANCH   7   8
ENDBRANCH   6   7
ENDBRANCH   5   6
ENDBRANCH   4   5
ENDBRANCH   3   4
ENDBRANCH   2   3
ENDBRANCH   1   2
BRANCH   1  17
ATOM     17  C   UNL     1      42.880  25.532  18.160  1.00  0.00     0.000 C 
BRANCH  17  18
ATOM     18  C   UNL     1      42.043  25.455  16.874  1.00  0.00     0.000 C 
BRANCH  18  19
ATOM     19  C   UNL     1      41.501  26.827  16.434  1.00  0.00     0.000 C 
BRANCH  19  20
ATOM     20  C   UNL     1      42.078  27.983  17.266  1.00  0.00     0.000 C 
BRANCH  20  21
ATOM     21  C   UNL     1      41.570  29.357  16.805  1.00  0.00     0.000 C 
BRANCH  21  22
ATOM     22  C   UNL     1      42.555  30.006  15.824  1.00  0.00    -0.000 C 
BRANCH  22  23
ATOM     23  C   UNL     1      42.488  31.538  15.909  1.00  0.00    -0.000 C 
BRANCH  23  24
ATOM     24  C   UNL     1      43.862  32.206  15.724  1.00  0.00    -0.000 C 
BRANCH  24  25
ATOM     25  C   UNL     1      45.030  31.488  16.426  1.00  0.00    -0.000 C 
BRANCH  25  26
ATOM     26  C   UNL     1      46.006  30.831  15.435  1.00  0.00    -0.000 C 
BRANCH  26  27
ATOM     27  C   UNL     1      47.308  30.372  16.117  1.00  0.00    -0.000 C 
BRANCH  27  28
ATOM     28  C   UNL     1      48.264  29.615  15.167  1.00  0.00    -0.000 C 
BRANCH  28  29
ATOM     29  C   UNL     1      49.245  30.535  14.420  1.00  0.00    -0.003 C 
ATOM     30  C   UNL     1      50.564  30.728  15.168  1.00  0.00     0.004 C 
ENDBRANCH  28  29
ENDBRANCH  27  28
ENDBRANCH  26  27
ENDBRANCH  25  26
ENDBRANCH  24  25
ENDBRANCH  23  24
ENDBRANCH  22  23
ENDBRANCH  21  22
ENDBRANCH  20  21
ENDBRANCH  19  20
ENDBRANCH  18  19
ENDBRANCH  17  18
ENDBRANCH   1  17
TORSDOF 26
ENDMDL
MODEL 3
REMARK VINA RESULT:    -1.320      4.904      9.754
REMARK INTER + INTRA:          -3.816
REMARK INTER:                  -3.108
REMARK INTRA:                  -0.708
REMARK UNBOUND:                -0.490
REMARK SMILES CCCCCCCCCCCCCCCCCCCCCCCCCCCC(=O)[O-]
REMARK SMILES IDX 15 1 16 2 17 3 18 4 19 5 20 6 21 7 22 8 23 9 24 10 25 11
REMARK SMILES IDX 26 12 27 13 28 14 29 15 30 16 14 17 13 18 12 19 11 20 10 21
REMARK SMILES IDX 9 22 8 23 7 24 6 25 5 26 4 27 3 28 2 29 1 30
REMARK H PARENT
REMARK Flexibility Score: inf
ROOT
ATOM      1  C   UNL     1      42.587  25.984  18.928  1.00  0.00     0.000 C 
ENDROOT
BRANCH   1   2
ATOM      2  C   UNL     1      41.350  26.001  19.840  1.00  0.00     0.000 C 
BRANCH   2   3
ATOM      3  C   UNL     1      41.177  27.331  20.591  1.00  0.00     0.000 C 
BRANCH   3   4
ATOM      4  C   UNL     1      40.771  28.487  19.663  1.00  0.00     0.000 C 
BRANCH   4   5
ATOM      5  C   UNL     1      41.702  28.634  18.444  1.00  0.00     0.000 C 
BRANCH   5   6
ATOM      6  C   UNL     1      41.494  29.912  17.609  1.00  0.00     0.000 C 
BRANCH   6   7
ATOM      7  C   UNL     1      42.365  29.954  16.345  1.00  0.00     0.000 C 
BRANCH   7   8
ATOM      8  C   UNL     1      42.561  31.394  15.855  1.00  0.00     0.000 C 
BRANCH   8   9
ATOM      9  C   UNL     1      44.044  31.682  15.576  1.00  0.00     0.000 C 
BRANCH   9  10
ATOM     10  C   UNL     1      44.869  31.849  16.861  1.00  0.00     0.000 C 
BRANCH  10  11
ATOM     11  C   UNL     1      46.219  31.119  16.802  1.00  0.00     0.000 C 
BRANCH  11  12
ATOM     12  C   UNL     1      46.508  30.628  15.375  1.00  0.00     0.006 C 
BRANCH  12  13
ATOM     13  C   UNL     1      47.756  29.738  15.303  1.00  0.00     0.053 C 
BRANCH  13  14
ATOM     14  C   UNL     1      48.882  30.406  14.573  1.00  0.00     0.041 C 
ATOM     15  O   UNL     1      48.822  30.569  13.326  1.00  0.00    -0.550 OA
ATOM     16  O   UNL     1      49.992  30.861  15.272  1.00  0.00    -0.550 OA
ENDBRANCH  13  14
ENDBRANCH  12  13
ENDBRANCH  11  12
ENDBRANCH  10  11
ENDBRANCH   9  10
ENDBRANCH   8   9
ENDBRANCH   7   8
ENDBRANCH   6   7
ENDBRANCH   5   6
ENDBRANCH   4   5
ENDBRANCH   3   4
ENDBRANCH   2   3
ENDBRANCH   1   2
BRANCH   1  17
ATOM     17  C   UNL     1      42.552  24.769  17.989  1.00  0.00     0.000 C 
BRANCH  17  18
ATOM     18  C   UNL     1      42.059  25.123  16.577  1.00  0.00     0.000 C 
BRANCH  18  19
ATOM     19  C   UNL     1      41.517  26.560  16.480  1.00  0.00     0.000 C 
BRANCH  19  20
ATOM     20  C   UNL     1      40.008  26.605  16.196  1.00  0.00     0.000 C 
BRANCH  20  21
ATOM     21  C   UNL     1      39.160  26.511  17.473  1.00  0.00     0.000 C 
BRANCH  21  22
ATOM     22  C   UNL     1      37.977  25.553  17.278  1.00  0.00    -0.000 C 
BRANCH  22  23
ATOM     23  C   UNL     1      37.207  25.884  15.991  1.00  0.00    -0.000 C 
BRANCH  23  24
ATOM     24  C   UNL     1      35.684  25.720  16.150  1.00  0.00    -0.000 C 
BRANCH  24  25
ATOM     25  C   UNL     1      34.837  26.603  15.215  1.00  0.00    -0.000 C 
BRANCH  25  26
ATOM     26  C   UNL     1      34.962  28.102  15.537  1.00  0.00    -0.000 C 
BRANCH  26  27
ATOM     27  C   UNL     1      35.346  28.935  14.301  1.00  0.00    -0.000 C 
BRANCH  27  28
ATOM     28  C   UNL     1      34.900  30.412  14.393  1.00  0.00    -0.000 C 
BRANCH  28  29
ATOM     29  C   UNL     1      33.976  30.847  13.242  1.00  0.00    -0.003 C 
ATOM     30  C   UNL     1      33.011  31.961  13.645  1.00  0.00     0.004 C 
ENDBRANCH  28  29
ENDBRANCH  27  28
ENDBRANCH  26  27
ENDBRANCH  25  26
ENDBRANCH  24  25
ENDBRANCH  23  24
ENDBRANCH  22  23
ENDBRANCH  21  22
ENDBRANCH  20  21
ENDBRANCH  19  20
ENDBRANCH  18  19
ENDBRANCH  17  18
ENDBRANCH   1  17
TORSDOF 26
ENDMDL
MODEL 4
REMARK VINA RESULT:    -1.244      5.108      9.950
REMARK INTER + INTRA:          -3.625
REMARK INTER:                  -1.862
REMARK INTRA:                  -1.763
REMARK UNBOUND:                -0.490
REMARK SMILES CCCCCCCCCCCCCCCCCCCCCCCCCCCC(=O)[O-]
REMARK SMILES IDX 15 1 16 2 17 3 18 4 19 5 20 6 21 7 22 8 23 9 24 10 25 11
REMARK SMILES IDX 26 12 27 13 28 14 29 15 30 16 14 17 13 18 12 19 11 20 10 21
REMARK SMILES IDX 9 22 8 23 7 24 6 25 5 26 4 27 3 28 2 29 1 30
REMARK H PARENT
REMARK Flexibility Score: inf
ROOT
ATOM      1  C   UNL     1      42.025  26.639  20.148  1.00  0.00     0.000 C 
ENDROOT
BRANCH   1   2
ATOM      2  C   UNL     1      41.920  25.501  19.120  1.00  0.00     0.000 C 
BRANCH   2   3
ATOM      3  C   UNL     1      42.665  25.805  17.811  1.00  0.00     0.000 C 
BRANCH   3   4
ATOM      4  C   UNL     1      41.712  26.090  16.638  1.00  0.00     0.000 C 
BRANCH   4   5
ATOM      5  C   UNL     1      41.657  27.582  16.258  1.00  0.00     0.000 C 
BRANCH   5   6
ATOM      6  C   UNL     1      42.049  28.561  17.382  1.00  0.00     0.000 C 
BRANCH   6   7
ATOM      7  C   UNL     1      41.683  30.019  17.067  1.00  0.00     0.000 C 
BRANCH   7   8
ATOM      8  C   UNL     1      42.325  30.480  15.753  1.00  0.00     0.000 C 
BRANCH   8   9
ATOM      9  C   UNL     1      43.035  31.830  15.933  1.00  0.00     0.000 C 
BRANCH   9  10
ATOM     10  C   UNL     1      44.524  31.774  15.558  1.00  0.00     0.000 C 
BRANCH  10  11
ATOM     11  C   UNL     1      45.444  31.667  16.783  1.00  0.00     0.000 C 
BRANCH  11  12
ATOM     12  C   UNL     1      46.633  30.740  16.490  1.00  0.00     0.006 C 
BRANCH  12  13
ATOM     13  C   UNL     1      46.748  30.386  15.001  1.00  0.00     0.053 C 
BRANCH  13  14
ATOM     14  C   UNL     1      48.175  30.258  14.561  1.00  0.00     0.041 C 
ATOM     15  O   UNL     1      48.539  30.716  13.446  1.00  0.00    -0.550 OA
ATOM     16  O   UNL     1      49.106  29.646  15.388  1.00  0.00    -0.550 OA
ENDBRANCH  13  14
ENDBRANCH  12  13
ENDBRANCH  11  12
ENDBRANCH  10  11
ENDBRANCH   9  10
ENDBRANCH   8   9
ENDBRANCH   7   8
ENDBRANCH   6   7
ENDBRANCH   5   6
ENDBRANCH   4   5
ENDBRANCH   3   4
ENDBRANCH   2   3
ENDBRANCH   1   2
BRANCH   1  17
ATOM     17  C   UNL     1      40.663  27.322  20.341  1.00  0.00     0.000 C 
BRANCH  17  18
ATOM     18  C   UNL     1      39.499  26.498  19.769  1.00  0.00     0.000 C 
BRANCH  18  19
ATOM     19  C   UNL     1      39.129  26.910  18.333  1.00  0.00     0.000 C 
BRANCH  19  20
ATOM     20  C   UNL     1      38.470  25.768  17.543  1.00  0.00     0.000 C 
BRANCH  20  21
ATOM     21  C   UNL     1      37.819  26.248  16.238  1.00  0.00     0.000 C 
BRANCH  21  22
ATOM     22  C   UNL     1      36.665  25.323  15.828  1.00  0.00    -0.000 C 
BRANCH  22  23
ATOM     23  C   UNL     1      35.308  25.932  16.213  1.00  0.00    -0.000 C 
BRANCH  23  24
ATOM     24  C   UNL     1      34.982  27.210  15.418  1.00  0.00    -0.000 C 
BRANCH  24  25
ATOM     25  C   UNL     1      34.671  28.447  16.282  1.00  0.00    -0.000 C 
BRANCH  25  26
ATOM     26  C   UNL     1      34.944  29.770  15.545  1.00  0.00    -0.000 C 
BRANCH  26  27
ATOM     27  C   UNL     1      35.192  29.559  14.040  1.00  0.00    -0.000 C 
BRANCH  27  28
ATOM     28  C   UNL     1      34.123  30.223  13.143  1.00  0.00    -0.000 C 
BRANCH  28  29
ATOM     29  C   UNL     1      34.028  31.748  13.328  1.00  0.00    -0.003 C 
ATOM     30  C   UNL     1      32.624  32.213  13.712  1.00  0.00     0.004 C 
ENDBRANCH  28  29
ENDBRANCH  27  28
ENDBRANCH  26  27
ENDBRANCH  25  26
ENDBRANCH  24  25
ENDBRANCH  23  24
ENDBRANCH  22  23
ENDBRANCH  21  22
ENDBRANCH  20  21
ENDBRANCH  19  20
ENDBRANCH  18  19
ENDBRANCH  17  18
ENDBRANCH   1  17
TORSDOF 26
ENDMDL
MODEL 5
REMARK VINA RESULT:    -1.173      4.860      9.709
REMARK INTER + INTRA:          -3.447
REMARK INTER:                  -2.031
REMARK INTRA:                  -1.416
REMARK UNBOUND:                -0.490
REMARK SMILES CCCCCCCCCCCCCCCCCCCCCCCCCCCC(=O)[O-]
REMARK SMILES IDX 15 1 16 2 17 3 18 4 19 5 20 6 21 7 22 8 23 9 24 10 25 11
REMARK SMILES IDX 26 12 27 13 28 14 29 15 30 16 14 17 13 18 12 19 11 20 10 21
REMARK SMILES IDX 9 22 8 23 7 24 6 25 5 26 4 27 3 28 2 29 1 30
REMARK H PARENT
REMARK Flexibility Score: inf
ROOT
ATOM      1  C   UNL     1      39.357  26.059  18.938  1.00  0.00     0.000 C 
ENDROOT
BRANCH   1   2
ATOM      2  C   UNL     1      39.974  27.076  19.910  1.00  0.00     0.000 C 
BRANCH   2   3
ATOM      3  C   UNL     1      41.511  27.092  19.867  1.00  0.00     0.000 C 
BRANCH   3   4
ATOM      4  C   UNL     1      42.113  25.693  19.656  1.00  0.00     0.000 C 
BRANCH   4   5
ATOM      5  C   UNL     1      42.972  25.595  18.381  1.00  0.00     0.000 C 
BRANCH   5   6
ATOM      6  C   UNL     1      42.421  24.659  17.288  1.00  0.00     0.000 C 
BRANCH   6   7
ATOM      7  C   UNL     1      43.511  23.809  16.617  1.00  0.00     0.000 C 
BRANCH   7   8
ATOM      8  C   UNL     1      44.504  23.265  17.651  1.00  0.00     0.000 C 
BRANCH   8   9
ATOM      9  C   UNL     1      44.877  21.808  17.341  1.00  0.00     0.000 C 
BRANCH   9  10
ATOM     10  C   UNL     1      43.665  20.959  16.925  1.00  0.00     0.000 C 
BRANCH  10  11
ATOM     11  C   UNL     1      42.982  20.272  18.117  1.00  0.00     0.000 C 
BRANCH  11  12
ATOM     12  C   UNL     1      41.718  19.526  17.663  1.00  0.00     0.006 C 
BRANCH  12  13
ATOM     13  C   UNL     1      41.513  19.591  16.143  1.00  0.00     0.053 C 
BRANCH  13  14
ATOM     14  C   UNL     1      41.023  18.289  15.585  1.00  0.00     0.041 C 
ATOM     15  O   UNL     1      39.872  17.868  15.874  1.00  0.00    -0.550 OA
ATOM     16  O   UNL     1      41.832  17.547  14.735  1.00  0.00    -0.550 OA
ENDBRANCH  13  14
ENDBRANCH  12  13
ENDBRANCH  11  12
ENDBRANCH  10  11
ENDBRANCH   9  10
ENDBRANCH   8   9
ENDBRANCH   7   8
ENDBRANCH   6   7
ENDBRANCH   5   6
ENDBRANCH   4   5
ENDBRANCH   3   4
ENDBRANCH   2   3
ENDBRANCH   1   2
BRANCH   1  17
ATOM     17  C   UNL     1      39.001  26.731  17.603  1.00  0.00     0.000 C 
BRANCH  17  18
ATOM     18  C   UNL     1      39.954  26.333  16.465  1.00  0.00     0.000 C 
BRANCH  18  19
ATOM     19  C   UNL     1      41.052  27.382  16.216  1.00  0.00     0.000 C 
BRANCH  19  20
ATOM     20  C   UNL     1      41.043  28.507  17.262  1.00  0.00     0.000 C 
BRANCH  20  21
ATOM     21  C   UNL     1      42.305  29.379  17.209  1.00  0.00     0.000 C 
BRANCH  21  22
ATOM     22  C   UNL     1      42.504  29.973  15.809  1.00  0.00    -0.000 C 
BRANCH  22  23
ATOM     23  C   UNL     1      42.467  31.508  15.852  1.00  0.00    -0.000 C 
BRANCH  23  24
ATOM     24  C   UNL     1      43.857  32.132  16.072  1.00  0.00    -0.000 C 
BRANCH  24  25
ATOM     25  C   UNL     1      45.040  31.238  15.654  1.00  0.00    -0.000 C 
BRANCH  25  26
ATOM     26  C   UNL     1      46.160  31.203  16.710  1.00  0.00    -0.000 C 
BRANCH  26  27
ATOM     27  C   UNL     1      47.320  30.278  16.299  1.00  0.00    -0.000 C 
BRANCH  27  28
ATOM     28  C   UNL     1      47.365  29.988  14.782  1.00  0.00    -0.000 C 
BRANCH  28  29
ATOM     29  C   UNL     1      48.624  30.537  14.088  1.00  0.00    -0.003 C 
ATOM     30  C   UNL     1      49.868  30.463  14.971  1.00  0.00     0.004 C 
ENDBRANCH  28  29
ENDBRANCH  27  28
ENDBRANCH  26  27
ENDBRANCH  25  26
ENDBRANCH  24  25
ENDBRANCH  23  24
ENDBRANCH  22  23
ENDBRANCH  21  22
ENDBRANCH  20  21
ENDBRANCH  19  20
ENDBRANCH  18  19
ENDBRANCH  17  18
ENDBRANCH   1  17
TORSDOF 26
ENDMDL
MODEL 6
REMARK VINA RESULT:    -1.110      4.098      9.809
REMARK INTER + INTRA:          -3.288
REMARK INTER:                  -2.081
REMARK INTRA:                  -1.207
REMARK UNBOUND:                -0.490
REMARK SMILES CCCCCCCCCCCCCCCCCCCCCCCCCCCC(=O)[O-]
REMARK SMILES IDX 15 1 16 2 17 3 18 4 19 5 20 6 21 7 22 8 23 9 24 10 25 11
REMARK SMILES IDX 26 12 27 13 28 14 29 15 30 16 14 17 13 18 12 19 11 20 10 21
REMARK SMILES IDX 9 22 8 23 7 24 6 25 5 26 4 27 3 28 2 29 1 30
REMARK H PARENT
REMARK Flexibility Score: inf
ROOT
ATOM      1  C   UNL     1      40.649  28.652  19.175  1.00  0.00     0.000 C 
ENDROOT
BRANCH   1   2
ATOM      2  C   UNL     1      40.658  27.572  20.268  1.00  0.00     0.000 C 
BRANCH   2   3
ATOM      3  C   UNL     1      41.884  26.649  20.190  1.00  0.00     0.000 C 
BRANCH   3   4
ATOM      4  C   UNL     1      41.696  25.497  19.189  1.00  0.00     0.000 C 
BRANCH   4   5
ATOM      5  C   UNL     1      42.985  25.154  18.419  1.00  0.00     0.000 C 
BRANCH   5   6
ATOM      6  C   UNL     1      42.781  24.345  17.124  1.00  0.00     0.000 C 
BRANCH   6   7
ATOM      7  C   UNL     1      44.068  23.672  16.624  1.00  0.00     0.000 C 
BRANCH   7   8
ATOM      8  C   UNL     1      44.543  22.590  17.601  1.00  0.00     0.000 C 
BRANCH   8   9
ATOM      9  C   UNL     1      44.900  21.296  16.855  1.00  0.00     0.000 C 
BRANCH   9  10
ATOM     10  C   UNL     1      43.677  20.401  16.597  1.00  0.00     0.000 C 
BRANCH  10  11
ATOM     11  C   UNL     1      42.768  20.266  17.827  1.00  0.00     0.000 C 
BRANCH  11  12
ATOM     12  C   UNL     1      41.502  19.467  17.482  1.00  0.00     0.006 C 
BRANCH  12  13
ATOM     13  C   UNL     1      41.276  19.351  15.969  1.00  0.00     0.053 C 
BRANCH  13  14
ATOM     14  C   UNL     1      41.069  17.931  15.538  1.00  0.00     0.041 C 
ATOM     15  O   UNL     1      41.301  17.588  14.348  1.00  0.00    -0.550 OA
ATOM     16  O   UNL     1      40.632  16.982  16.452  1.00  0.00    -0.550 OA
ENDBRANCH  13  14
ENDBRANCH  12  13
ENDBRANCH  11  12
ENDBRANCH  10  11
ENDBRANCH   9  10
ENDBRANCH   8   9
ENDBRANCH   7   8
ENDBRANCH   6   7
ENDBRANCH   5   6
ENDBRANCH   4   5
ENDBRANCH   3   4
ENDBRANCH   2   3
ENDBRANCH   1   2
BRANCH   1  17
ATOM     17  C   UNL     1      41.836  28.465  18.219  1.00  0.00     0.000 C 
BRANCH  17  18
ATOM     18  C   UNL     1      41.404  28.362  16.748  1.00  0.00     0.000 C 
BRANCH  18  19
ATOM     19  C   UNL     1      41.118  26.914  16.313  1.00  0.00     0.000 C 
BRANCH  19  20
ATOM     20  C   UNL     1      39.614  26.612  16.220  1.00  0.00     0.000 C 
BRANCH  20  21
ATOM     21  C   UNL     1      39.007  26.194  17.567  1.00  0.00     0.000 C 
BRANCH  21  22
ATOM     22  C   UNL     1      37.683  25.446  17.366  1.00  0.00    -0.000 C 
BRANCH  22  23
ATOM     23  C   UNL     1      37.074  25.764  15.992  1.00  0.00    -0.000 C 
BRANCH  23  24
ATOM     24  C   UNL     1      35.560  26.033  16.059  1.00  0.00    -0.000 C 
BRANCH  24  25
ATOM     25  C   UNL     1      35.162  27.519  15.987  1.00  0.00    -0.000 C 
BRANCH  25  26
ATOM     26  C   UNL     1      34.715  27.947  14.579  1.00  0.00    -0.000 C 
BRANCH  26  27
ATOM     27  C   UNL     1      35.441  29.216  14.096  1.00  0.00    -0.000 C 
BRANCH  27  28
ATOM     28  C   UNL     1      34.685  30.521  14.434  1.00  0.00    -0.000 C 
BRANCH  28  29
ATOM     29  C   UNL     1      33.982  31.155  13.221  1.00  0.00    -0.003 C 
ATOM     30  C   UNL     1      32.933  32.193  13.618  1.00  0.00     0.004 C 
ENDBRANCH  28  29
ENDBRANCH  27  28
ENDBRANCH  26  27
ENDBRANCH  25  26
ENDBRANCH  24  25
ENDBRANCH  23  24
ENDBRANCH  22  23
ENDBRANCH  21  22
ENDBRANCH  20  21
ENDBRANCH  19  20
ENDBRANCH  18  19
ENDBRANCH  17  18
ENDBRANCH   1  17
TORSDOF 26
ENDMDL
MODEL 7
REMARK VINA RESULT:    -0.956      8.430     12.933
REMARK INTER + INTRA:          -2.900
REMARK INTER:                  -1.419
REMARK INTRA:                  -1.482
REMARK UNBOUND:                -0.490
REMARK SMILES CCCCCCCCCCCCCCCCCCCCCCCCCCCC(=O)[O-]
REMARK SMILES IDX 15 1 16 2 17 3 18 4 19 5 20 6 21 7 22 8 23 9 24 10 25 11
REMARK SMILES IDX 26 12 27 13 28 14 29 15 30 16 14 17 13 18 12 19 11 20 10 21
REMARK SMILES IDX 9 22 8 23 7 24 6 25 5 26 4 27 3 28 2 29 1 30
REMARK H PARENT
REMARK Flexibility Score: inf
ROOT
ATOM      1  C   UNL     1      43.823  33.878  22.513  1.00  0.00     0.000 C 
ENDROOT
BRANCH   1   2
ATOM      2  C   UNL     1      43.112  34.316  21.223  1.00  0.00     0.000 C 
BRANCH   2   3
ATOM      3  C   UNL     1      43.963  34.088  19.963  1.00  0.00     0.000 C 
BRANCH   3   4
ATOM      4  C   UNL     1      45.297  33.388  20.267  1.00  0.00     0.000 C 
BRANCH   4   5
ATOM      5  C   UNL     1      46.074  32.997  18.995  1.00  0.00     0.000 C 
BRANCH   5   6
ATOM      6  C   UNL     1      45.200  32.654  17.772  1.00  0.00     0.000 C 
BRANCH   6   7
ATOM      7  C   UNL     1      45.826  31.583  16.867  1.00  0.00     0.000 C 
BRANCH   7   8
ATOM      8  C   UNL     1      44.952  31.321  15.634  1.00  0.00     0.000 C 
BRANCH   8   9
ATOM      9  C   UNL     1      43.586  32.010  15.772  1.00  0.00     0.000 C 
BRANCH   9  10
ATOM     10  C   UNL     1      42.409  31.047  15.552  1.00  0.00     0.000 C 
BRANCH  10  11
ATOM     11  C   UNL     1      42.044  30.255  16.815  1.00  0.00     0.000 C 
BRANCH  11  12
ATOM     12  C   UNL     1      42.103  28.744  16.545  1.00  0.00     0.006 C 
BRANCH  12  13
ATOM     13  C   UNL     1      41.571  27.916  17.724  1.00  0.00     0.053 C 
BRANCH  13  14
ATOM     14  C   UNL     1      41.086  26.566  17.290  1.00  0.00     0.041 C 
ATOM     15  O   UNL     1      40.137  26.467  16.467  1.00  0.00    -0.550 OA
ATOM     16  O   UNL     1      41.690  25.418  17.782  1.00  0.00    -0.550 OA
ENDBRANCH  13  14
ENDBRANCH  12  13
ENDBRANCH  11  12
ENDBRANCH  10  11
ENDBRANCH   9  10
ENDBRANCH   8   9
ENDBRANCH   7   8
ENDBRANCH   6   7
ENDBRANCH   5   6
ENDBRANCH   4   5
ENDBRANCH   3   4
ENDBRANCH   2   3
ENDBRANCH   1   2
BRANCH   1  17
ATOM     17  C   UNL     1      43.142  34.497  23.744  1.00  0.00     0.000 C 
BRANCH  17  18
ATOM     18  C   UNL     1      44.030  34.454  24.998  1.00  0.00     0.000 C 
BRANCH  18  19
ATOM     19  C   UNL     1      43.573  35.444  26.083  1.00  0.00     0.000 C 
BRANCH  19  20
ATOM     20  C   UNL     1      44.630  35.647  27.180  1.00  0.00     0.000 C 
BRANCH  20  21
ATOM     21  C   UNL     1      44.160  36.601  28.288  1.00  0.00     0.000 C 
BRANCH  21  22
ATOM     22  C   UNL     1      44.486  36.034  29.676  1.00  0.00    -0.000 C 
BRANCH  22  23
ATOM     23  C   UNL     1      43.482  34.941  30.074  1.00  0.00    -0.000 C 
BRANCH  23  24
ATOM     24  C   UNL     1      43.961  33.527  29.700  1.00  0.00    -0.000 C 
BRANCH  24  25
ATOM     25  C   UNL     1      42.853  32.459  29.657  1.00  0.00    -0.000 C 
BRANCH  25  26
ATOM     26  C   UNL     1      41.442  33.068  29.590  1.00  0.00    -0.000 C 
BRANCH  26  27
ATOM     27  C   UNL     1      40.342  31.991  29.556  1.00  0.00    -0.000 C 
BRANCH  27  28
ATOM     28  C   UNL     1      38.912  32.571  29.636  1.00  0.00    -0.000 C 
BRANCH  28  29
ATOM     29  C   UNL     1      38.126  32.452  28.319  1.00  0.00    -0.003 C 
ATOM     30  C   UNL     1      37.459  31.088  28.146  1.00  0.00     0.004 C 
ENDBRANCH  28  29
ENDBRANCH  27  28
ENDBRANCH  26  27
ENDBRANCH  25  26
ENDBRANCH  24  25
ENDBRANCH  23  24
ENDBRANCH  22  23
ENDBRANCH  21  22
ENDBRANCH  20  21
ENDBRANCH  19  20
ENDBRANCH  18  19
ENDBRANCH  17  18
ENDBRANCH   1  17
TORSDOF 26
ENDMDL
MODEL 8
REMARK VINA RESULT:    -0.932      8.153     12.555
REMARK INTER + INTRA:          -2.838
REMARK INTER:                  -1.509
REMARK INTRA:                  -1.329
REMARK UNBOUND:                -0.490
REMARK SMILES CCCCCCCCCCCCCCCCCCCCCCCCCCCC(=O)[O-]
REMARK SMILES IDX 15 1 16 2 17 3 18 4 19 5 20 6 21 7 22 8 23 9 24 10 25 11
REMARK SMILES IDX 26 12 27 13 28 14 29 15 30 16 14 17 13 18 12 19 11 20 10 21
REMARK SMILES IDX 9 22 8 23 7 24 6 25 5 26 4 27 3 28 2 29 1 30
REMARK H PARENT
REMARK Flexibility Score: inf
ROOT
ATOM      1  C   UNL     1      44.397  34.018  20.233  1.00  0.00     0.000 C 
ENDROOT
BRANCH   1   2
ATOM      2  C   UNL     1      45.439  33.257  19.399  1.00  0.00     0.000 C 
BRANCH   2   3
ATOM      3  C   UNL     1      45.001  33.041  17.941  1.00  0.00     0.000 C 
BRANCH   3   4
ATOM      4  C   UNL     1      45.547  31.733  17.345  1.00  0.00     0.000 C 
BRANCH   4   5
ATOM      5  C   UNL     1      44.979  31.428  15.946  1.00  0.00     0.000 C 
BRANCH   5   6
ATOM      6  C   UNL     1      43.676  32.170  15.590  1.00  0.00     0.000 C 
BRANCH   6   7
ATOM      7  C   UNL     1      42.416  31.450  16.090  1.00  0.00     0.000 C 
BRANCH   7   8
ATOM      8  C   UNL     1      42.556  29.929  15.953  1.00  0.00     0.000 C 
BRANCH   8   9
ATOM      9  C   UNL     1      41.801  29.204  17.078  1.00  0.00     0.000 C 
BRANCH   9  10
ATOM     10  C   UNL     1      41.596  27.709  16.789  1.00  0.00     0.000 C 
BRANCH  10  11
ATOM     11  C   UNL     1      40.435  27.101  17.590  1.00  0.00     0.000 C 
BRANCH  11  12
ATOM     12  C   UNL     1      40.954  26.414  18.862  1.00  0.00     0.006 C 
BRANCH  12  13
ATOM     13  C   UNL     1      41.233  27.411  19.995  1.00  0.00     0.053 C 
BRANCH  13  14
ATOM     14  C   UNL     1      40.788  26.889  21.327  1.00  0.00     0.041 C 
ATOM     15  O   UNL     1      39.982  25.923  21.393  1.00  0.00    -0.550 OA
ATOM     16  O   UNL     1      41.273  27.460  22.496  1.00  0.00    -0.550 OA
ENDBRANCH  13  14
ENDBRANCH  12  13
ENDBRANCH  11  12
ENDBRANCH  10  11
ENDBRANCH   9  10
ENDBRANCH   8   9
ENDBRANCH   7   8
ENDBRANCH   6   7
ENDBRANCH   5   6
ENDBRANCH   4   5
ENDBRANCH   3   4
ENDBRANCH   2   3
ENDBRANCH   1   2
BRANCH   1  17
ATOM     17  C   UNL     1      44.210  33.353  21.605  1.00  0.00     0.000 C 
BRANCH  17  18
ATOM     18  C   UNL     1      43.475  34.258  22.607  1.00  0.00     0.000 C 
BRANCH  18  19
ATOM     19  C   UNL     1      44.065  34.173  24.026  1.00  0.00     0.000 C 
BRANCH  19  20
ATOM     20  C   UNL     1      43.214  34.920  25.065  1.00  0.00     0.000 C 
BRANCH  20  21
ATOM     21  C   UNL     1      43.909  35.038  26.429  1.00  0.00     0.000 C 
BRANCH  21  22
ATOM     22  C   UNL     1      43.978  36.501  26.885  1.00  0.00    -0.000 C 
BRANCH  22  23
ATOM     23  C   UNL     1      45.014  36.681  28.005  1.00  0.00    -0.000 C 
BRANCH  23  24
ATOM     24  C   UNL     1      44.450  36.347  29.398  1.00  0.00    -0.000 C 
BRANCH  24  25
ATOM     25  C   UNL     1      44.426  34.847  29.744  1.00  0.00    -0.000 C 
BRANCH  25  26
ATOM     26  C   UNL     1      43.008  34.328  30.041  1.00  0.00    -0.000 C 
BRANCH  26  27
ATOM     27  C   UNL     1      42.700  33.015  29.298  1.00  0.00    -0.000 C 
BRANCH  27  28
ATOM     28  C   UNL     1      43.840  31.976  29.390  1.00  0.00    -0.000 C 
BRANCH  28  29
ATOM     29  C   UNL     1      43.427  30.568  28.928  1.00  0.00    -0.003 C 
ATOM     30  C   UNL     1      44.497  29.513  29.207  1.00  0.00     0.004 C 
ENDBRANCH  28  29
ENDBRANCH  27  28
ENDBRANCH  26  27
ENDBRANCH  25  26
ENDBRANCH  24  25
ENDBRANCH  23  24
ENDBRANCH  22  23
ENDBRANCH  21  22
ENDBRANCH  20  21
ENDBRANCH  19  20
ENDBRANCH  18  19
ENDBRANCH  17  18
ENDBRANCH   1  17
TORSDOF 26
ENDMDL
MODEL 9
REMARK VINA RESULT:    -0.720     11.852     15.542
REMARK INTER + INTRA:          -2.306
REMARK INTER:                  -1.804
REMARK INTRA:                  -0.501
REMARK UNBOUND:                -0.490
REMARK SMILES CCCCCCCCCCCCCCCCCCCCCCCCCCCC(=O)[O-]
REMARK SMILES IDX 15 1 16 2 17 3 18 4 19 5 20 6 21 7 22 8 23 9 24 10 25 11
REMARK SMILES IDX 26 12 27 13 28 14 29 15 30 16 14 17 13 18 12 19 11 20 10 21
REMARK SMILES IDX 9 22 8 23 7 24 6 25 5 26 4 27 3 28 2 29 1 30
REMARK H PARENT
REMARK Flexibility Score: inf
ROOT
ATOM      1  C   UNL     1      38.358  32.573  29.393  1.00  0.00     0.000 C 
ENDROOT
BRANCH   1   2
ATOM      2  C   UNL     1      39.696  32.176  28.749  1.00  0.00     0.000 C 
BRANCH   2   3
ATOM      3  C   UNL     1      40.882  32.267  29.723  1.00  0.00     0.000 C 
BRANCH   3   4
ATOM      4  C   UNL     1      42.240  32.274  29.004  1.00  0.00     0.000 C 
BRANCH   4   5
ATOM      5  C   UNL     1      43.433  32.365  29.974  1.00  0.00     0.000 C 
BRANCH   5   6
ATOM      6  C   UNL     1      44.213  33.693  29.934  1.00  0.00     0.000 C 
BRANCH   6   7
ATOM      7  C   UNL     1      43.309  34.916  29.717  1.00  0.00     0.000 C 
BRANCH   7   8
ATOM      8  C   UNL     1      44.027  36.212  30.109  1.00  0.00     0.000 C 
BRANCH   8   9
ATOM      9  C   UNL     1      45.287  36.423  29.255  1.00  0.00     0.000 C 
BRANCH   9  10
ATOM     10  C   UNL     1      44.992  36.407  27.747  1.00  0.00     0.000 C 
BRANCH  10  11
ATOM     11  C   UNL     1      43.683  37.124  27.388  1.00  0.00     0.000 C 
BRANCH  11  12
ATOM     12  C   UNL     1      43.237  36.761  25.964  1.00  0.00     0.006 C 
BRANCH  12  13
ATOM     13  C   UNL     1      44.180  35.754  25.293  1.00  0.00     0.053 C 
BRANCH  13  14
ATOM     14  C   UNL     1      43.473  34.489  24.911  1.00  0.00     0.041 C 
ATOM     15  O   UNL     1      43.283  33.584  25.766  1.00  0.00    -0.550 OA
ATOM     16  O   UNL     1      43.010  34.314  23.614  1.00  0.00    -0.550 OA
ENDBRANCH  13  14
ENDBRANCH  12  13
ENDBRANCH  11  12
ENDBRANCH  10  11
ENDBRANCH   9  10
ENDBRANCH   8   9
ENDBRANCH   7   8
ENDBRANCH   6   7
ENDBRANCH   5   6
ENDBRANCH   4   5
ENDBRANCH   3   4
ENDBRANCH   2   3
ENDBRANCH   1   2
BRANCH   1  17
ATOM     17  C   UNL     1      37.209  31.730  28.821  1.00  0.00     0.000 C 
BRANCH  17  18
ATOM     18  C   UNL     1      37.705  30.559  27.957  1.00  0.00     0.000 C 
BRANCH  18  19
ATOM     19  C   UNL     1      37.965  29.284  28.779  1.00  0.00     0.000 C 
BRANCH  19  20
ATOM     20  C   UNL     1      37.225  29.287  30.125  1.00  0.00     0.000 C 
BRANCH  20  21
ATOM     21  C   UNL     1      35.767  29.753  30.000  1.00  0.00     0.000 C 
BRANCH  21  22
ATOM     22  C   UNL     1      34.964  28.809  29.096  1.00  0.00    -0.000 C 
BRANCH  22  23
ATOM     23  C   UNL     1      33.958  27.986  29.915  1.00  0.00    -0.000 C 
BRANCH  23  24
ATOM     24  C   UNL     1      32.498  28.399  29.655  1.00  0.00    -0.000 C 
BRANCH  24  25
ATOM     25  C   UNL     1      31.449  27.334  30.023  1.00  0.00    -0.000 C 
BRANCH  25  26
ATOM     26  C   UNL     1      31.003  26.495  28.813  1.00  0.00    -0.000 C 
BRANCH  26  27
ATOM     27  C   UNL     1      32.135  26.305  27.787  1.00  0.00    -0.000 C 
BRANCH  27  28
ATOM     28  C   UNL     1      31.862  27.003  26.435  1.00  0.00    -0.000 C 
BRANCH  28  29
ATOM     29  C   UNL     1      33.120  27.176  25.567  1.00  0.00    -0.003 C 
ATOM     30  C   UNL     1      33.027  28.368  24.616  1.00  0.00     0.004 C 
ENDBRANCH  28  29
ENDBRANCH  27  28
ENDBRANCH  26  27
ENDBRANCH  25  26
ENDBRANCH  24  25
ENDBRANCH  23  24
ENDBRANCH  22  23
ENDBRANCH  21  22
ENDBRANCH  20  21
ENDBRANCH  19  20
ENDBRANCH  18  19
ENDBRANCH  17  18
ENDBRANCH   1  17
TORSDOF 26
ENDMDL
