MODEL 1
REMARK VINA RESULT:    -5.349      0.000      0.000
REMARK INTER + INTRA:          -5.843
REMARK INTER:                  -5.818
REMARK INTRA:                  -0.025
REMARK UNBOUND:                -0.025
REMARK SMILES COc1ccccc1O
REMARK SMILES IDX 3 1 4 2 5 3 6 4 7 5 8 6 2 7 1 8 9 9
REMARK H PARENT 9 10
REMARK Flexibility Score: inf
ROOT
ATOM      1  C   UNL     1     -13.098   1.664  -9.336  1.00  0.00     0.160 A 
ATOM      2  C   UNL     1     -14.450   1.640  -9.738  1.00  0.00     0.050 A 
ATOM      3  C   UNL     1     -14.986   0.502 -10.346  1.00  0.00     0.004 A 
ATOM      4  C   UNL     1     -14.186  -0.621 -10.559  1.00  0.00     0.004 A 
ATOM      5  C   UNL     1     -12.846  -0.610 -10.165  1.00  0.00     0.050 A 
ATOM      6  C   UNL     1     -12.298   0.525  -9.555  1.00  0.00     0.157 A 
ENDROOT
BRANCH   1   7
ATOM      7  O   UNL     1     -12.526   2.789  -8.722  1.00  0.00    -0.493 OA
ATOM      8  C   UNL     1     -13.211   4.014  -8.482  1.00  0.00     0.278 C 
ENDBRANCH   1   7
BRANCH   6   9
ATOM      9  O   UNL     1     -10.957   0.504  -9.173  1.00  0.00    -0.504 OA
ATOM     10  H   UNL     1     -10.666   0.238  -8.240  1.00  0.00     0.293 HD
ENDBRANCH   6   9
TORSDOF 2
ENDMDL
MODEL 2
REMARK VINA RESULT:    -5.252      1.067      3.009
REMARK INTER + INTRA:          -5.737
REMARK INTER:                  -5.712
REMARK INTRA:                  -0.026
REMARK UNBOUND:                -0.025
REMARK SMILES COc1ccccc1O
REMARK SMILES IDX 3 1 4 2 5 3 6 4 7 5 8 6 2 7 1 8 9 9
REMARK H PARENT 9 10
REMARK Flexibility Score: inf
ROOT
ATOM      1  C   UNL     1     -12.402   0.129  -9.828  1.00  0.00     0.160 A 
ATOM      2  C   UNL     1     -13.446  -0.634 -10.391  1.00  0.00     0.050 A 
ATOM      3  C   UNL     1     -14.739  -0.110 -10.471  1.00  0.00     0.004 A 
ATOM      4  C   UNL     1     -15.006   1.173  -9.992  1.00  0.00     0.004 A 
ATOM      5  C   UNL     1     -13.981   1.937  -9.432  1.00  0.00     0.050 A 
ATOM      6  C   UNL     1     -12.681   1.423  -9.347  1.00  0.00     0.157 A 
ENDROOT
BRANCH   1   7
ATOM      7  O   UNL     1     -11.091  -0.363  -9.731  1.00  0.00    -0.493 OA
ATOM      8  C   UNL     1     -10.722  -1.724  -9.930  1.00  0.00     0.278 C 
ENDBRANCH   1   7
BRANCH   6   9
ATOM      9  O   UNL     1     -11.680   2.213  -8.782  1.00  0.00    -0.504 OA
ATOM     10  H   UNL     1     -11.887   3.058  -8.264  1.00  0.00     0.293 HD
ENDBRANCH   6   9
TORSDOF 2
ENDMDL
MODEL 3
REMARK VINA RESULT:    -4.502     15.084     16.616
REMARK INTER + INTRA:          -4.922
REMARK INTER:                  -4.892
REMARK INTRA:                  -0.030
REMARK UNBOUND:                -0.025
REMARK SMILES COc1ccccc1O
REMARK SMILES IDX 3 1 4 2 5 3 6 4 7 5 8 6 2 7 1 8 9 9
REMARK H PARENT 9 10
REMARK Flexibility Score: inf
ROOT
ATOM      1  C   UNL     1     -11.784   4.711   5.797  1.00  0.00     0.160 A 
ATOM      2  C   UNL     1     -11.563   6.001   6.324  1.00  0.00     0.050 A 
ATOM      3  C   UNL     1     -10.948   6.158   7.569  1.00  0.00     0.004 A 
ATOM      4  C   UNL     1     -10.548   5.038   8.300  1.00  0.00     0.004 A 
ATOM      5  C   UNL     1     -10.762   3.757   7.788  1.00  0.00     0.050 A 
ATOM      6  C   UNL     1     -11.377   3.587   6.542  1.00  0.00     0.157 A 
ENDROOT
BRANCH   1   7
ATOM      7  O   UNL     1     -12.398   4.514   4.550  1.00  0.00    -0.493 OA
ATOM      8  C   UNL     1     -13.530   5.242   4.083  1.00  0.00     0.278 C 
ENDBRANCH   1   7
BRANCH   6   9
ATOM      9  O   UNL     1     -11.575   2.293   6.060  1.00  0.00    -0.504 OA
ATOM     10  H   UNL     1     -11.715   1.503   6.677  1.00  0.00     0.293 HD
ENDBRANCH   6   9
TORSDOF 2
ENDMDL
MODEL 4
REMARK VINA RESULT:    -4.395      1.823      3.371
REMARK INTER + INTRA:          -4.806
REMARK INTER:                  -4.768
REMARK INTRA:                  -0.038
REMARK UNBOUND:                -0.025
REMARK SMILES COc1ccccc1O
REMARK SMILES IDX 3 1 4 2 5 3 6 4 7 5 8 6 2 7 1 8 9 9
REMARK H PARENT 9 10
REMARK Flexibility Score: inf
ROOT
ATOM      1  C   UNL     1     -12.742   0.035 -10.007  1.00  0.00     0.160 A 
ATOM      2  C   UNL     1     -12.485   1.332  -9.514  1.00  0.00     0.050 A 
ATOM      3  C   UNL     1     -13.540   2.217  -9.275  1.00  0.00     0.004 A 
ATOM      4  C   UNL     1     -14.855   1.823  -9.522  1.00  0.00     0.004 A 
ATOM      5  C   UNL     1     -15.121   0.543 -10.010  1.00  0.00     0.050 A 
ATOM      6  C   UNL     1     -14.073  -0.353 -10.254  1.00  0.00     0.157 A 
ENDROOT
BRANCH   1   7
ATOM      7  O   UNL     1     -11.709  -0.881 -10.260  1.00  0.00    -0.493 OA
ATOM      8  C   UNL     1     -10.786  -1.348  -9.280  1.00  0.00     0.278 C 
ENDBRANCH   1   7
BRANCH   6   9
ATOM      9  O   UNL     1     -14.373  -1.625 -10.741  1.00  0.00    -0.504 OA
ATOM     10  H   UNL     1     -13.915  -2.013 -11.556  1.00  0.00     0.293 HD
ENDBRANCH   6   9
TORSDOF 2
ENDMDL
MODEL 5
REMARK VINA RESULT:    -4.338      6.407      7.696
REMARK INTER + INTRA:          -4.743
REMARK INTER:                  -4.715
REMARK INTRA:                  -0.028
REMARK UNBOUND:                -0.025
REMARK SMILES COc1ccccc1O
REMARK SMILES IDX 3 1 4 2 5 3 6 4 7 5 8 6 2 7 1 8 9 9
REMARK H PARENT 9 10
REMARK Flexibility Score: inf
ROOT
ATOM      1  C   UNL     1     -10.405  -5.002  -7.444  1.00  0.00     0.160 A 
ATOM      2  C   UNL     1     -10.958  -4.806  -6.161  1.00  0.00     0.050 A 
ATOM      3  C   UNL     1     -11.541  -5.873  -5.473  1.00  0.00     0.004 A 
ATOM      4  C   UNL     1     -11.578  -7.143  -6.051  1.00  0.00     0.004 A 
ATOM      5  C   UNL     1     -11.034  -7.349  -7.320  1.00  0.00     0.050 A 
ATOM      6  C   UNL     1     -10.448  -6.287  -8.019  1.00  0.00     0.157 A 
ENDROOT
BRANCH   1   7
ATOM      7  O   UNL     1      -9.812  -3.954  -8.165  1.00  0.00    -0.493 OA
ATOM      8  C   UNL     1     -10.250  -2.600  -8.129  1.00  0.00     0.278 C 
ENDBRANCH   1   7
BRANCH   6   9
ATOM      9  O   UNL     1      -9.913  -6.528  -9.285  1.00  0.00    -0.504 OA
ATOM     10  H   UNL     1      -9.991  -5.857 -10.040  1.00  0.00     0.293 HD
ENDBRANCH   6   9
TORSDOF 2
ENDMDL
MODEL 6
REMARK VINA RESULT:    -4.338     15.888     17.136
REMARK INTER + INTRA:          -4.743
REMARK INTER:                  -4.717
REMARK INTRA:                  -0.026
REMARK UNBOUND:                -0.025
REMARK SMILES COc1ccccc1O
REMARK SMILES IDX 3 1 4 2 5 3 6 4 7 5 8 6 2 7 1 8 9 9
REMARK H PARENT 9 10
REMARK Flexibility Score: inf
ROOT
ATOM      1  C   UNL     1      -9.926   5.651   6.625  1.00  0.00     0.160 A 
ATOM      2  C   UNL     1     -10.470   5.287   5.375  1.00  0.00     0.050 A 
ATOM      3  C   UNL     1     -11.326   4.187   5.271  1.00  0.00     0.004 A 
ATOM      4  C   UNL     1     -11.649   3.441   6.405  1.00  0.00     0.004 A 
ATOM      5  C   UNL     1     -11.117   3.792   7.647  1.00  0.00     0.050 A 
ATOM      6  C   UNL     1     -10.258   4.891   7.764  1.00  0.00     0.157 A 
ENDROOT
BRANCH   1   7
ATOM      7  O   UNL     1      -9.064   6.749   6.768  1.00  0.00    -0.493 OA
ATOM      8  C   UNL     1      -8.983   7.838   5.854  1.00  0.00     0.278 C 
ENDBRANCH   1   7
BRANCH   6   9
ATOM      9  O   UNL     1      -9.745   5.215   9.020  1.00  0.00    -0.504 OA
ATOM     10  H   UNL     1      -9.646   4.527   9.756  1.00  0.00     0.293 HD
ENDBRANCH   6   9
TORSDOF 2
ENDMDL
MODEL 7
REMARK VINA RESULT:    -4.103     16.076     17.231
REMARK INTER + INTRA:          -4.488
REMARK INTER:                  -4.462
REMARK INTRA:                  -0.026
REMARK UNBOUND:                -0.025
REMARK SMILES COc1ccccc1O
REMARK SMILES IDX 3 1 4 2 5 3 6 4 7 5 8 6 2 7 1 8 9 9
REMARK H PARENT 9 10
REMARK Flexibility Score: inf
ROOT
ATOM      1  C   UNL     1     -10.190   5.338   6.565  1.00  0.00     0.160 A 
ATOM      2  C   UNL     1     -10.019   5.670   7.926  1.00  0.00     0.050 A 
ATOM      3  C   UNL     1     -10.611   4.890   8.923  1.00  0.00     0.004 A 
ATOM      4  C   UNL     1     -11.376   3.776   8.578  1.00  0.00     0.004 A 
ATOM      5  C   UNL     1     -11.553   3.438   7.235  1.00  0.00     0.050 A 
ATOM      6  C   UNL     1     -10.966   4.212   6.228  1.00  0.00     0.157 A 
ENDROOT
BRANCH   1   7
ATOM      7  O   UNL     1      -9.611   6.098   5.537  1.00  0.00    -0.493 OA
ATOM      8  C   UNL     1      -9.136   7.432   5.687  1.00  0.00     0.278 C 
ENDBRANCH   1   7
BRANCH   6   9
ATOM      9  O   UNL     1     -11.162   3.846   4.896  1.00  0.00    -0.504 OA
ATOM     10  H   UNL     1     -10.454   3.991   4.187  1.00  0.00     0.293 HD
ENDBRANCH   6   9
TORSDOF 2
ENDMDL
