MODEL 1
REMARK VINA RESULT:    -4.623      0.000      0.000
REMARK INTER + INTRA:          -5.410
REMARK INTER:                  -5.298
REMARK INTRA:                  -0.112
REMARK UNBOUND:                -0.112
REMARK SMILES COc1ccc(C(C)=O)cc1O
REMARK SMILES IDX 6 1 10 2 11 3 3 4 4 5 5 6 7 7 8 8 9 9 12 10 2 12 1 13
REMARK H PARENT 12 11
REMARK Flexibility Score: inf
ROOT
ATOM      1  C   UNL     1      72.757  34.219  55.287  1.00  0.00     0.021 A 
ATOM      2  C   UNL     1      73.035  33.488  54.118  1.00  0.00     0.062 A 
ATOM      3  C   UNL     1      73.765  34.064  53.068  1.00  0.00     0.158 A 
ATOM      4  C   UNL     1      74.229  35.382  53.171  1.00  0.00     0.160 A 
ATOM      5  C   UNL     1      73.955  36.117  54.339  1.00  0.00     0.051 A 
ATOM      6  C   UNL     1      73.228  35.542  55.384  1.00  0.00     0.016 A 
ENDROOT
BRANCH   1   7
ATOM      7  C   UNL     1      71.980  33.592  56.392  1.00  0.00     0.159 C 
ATOM      8  C   UNL     1      70.637  34.109  56.810  1.00  0.00     0.093 C 
ATOM      9  O   UNL     1      72.455  32.595  57.003  1.00  0.00    -0.295 OA
ENDBRANCH   1   7
BRANCH   3  10
ATOM     10  O   UNL     1      74.034  33.329  51.915  1.00  0.00    -0.504 OA
ATOM     11  H   UNL     1      74.954  33.324  51.491  1.00  0.00     0.293 HD
ENDBRANCH   3  10
BRANCH   4  12
ATOM     12  O   UNL     1      74.957  35.922  52.099  1.00  0.00    -0.493 OA
ATOM     13  C   UNL     1      76.378  35.916  52.005  1.00  0.00     0.278 C 
ENDBRANCH   4  12
TORSDOF 3
ENDMDL
MODEL 2
REMARK VINA RESULT:    -4.468      2.615      4.132
REMARK INTER + INTRA:          -5.233
REMARK INTER:                  -5.134
REMARK INTRA:                  -0.099
REMARK UNBOUND:                -0.112
REMARK SMILES COc1ccc(C(C)=O)cc1O
REMARK SMILES IDX 6 1 10 2 11 3 3 4 4 5 5 6 7 7 8 8 9 9 12 10 2 12 1 13
REMARK H PARENT 12 11
REMARK Flexibility Score: inf
ROOT
ATOM      1  C   UNL     1      75.071  34.340  52.402  1.00  0.00     0.021 A 
ATOM      2  C   UNL     1      75.739  33.103  52.426  1.00  0.00     0.062 A 
ATOM      3  C   UNL     1      77.095  33.013  52.078  1.00  0.00     0.158 A 
ATOM      4  C   UNL     1      77.804  34.160  51.698  1.00  0.00     0.160 A 
ATOM      5  C   UNL     1      77.140  35.400  51.673  1.00  0.00     0.051 A 
ATOM      6  C   UNL     1      75.790  35.488  52.020  1.00  0.00     0.016 A 
ENDROOT
BRANCH   1   7
ATOM      7  C   UNL     1      73.631  34.417  52.775  1.00  0.00     0.159 C 
ATOM      8  C   UNL     1      73.044  33.554  53.850  1.00  0.00     0.093 C 
ATOM      9  O   UNL     1      72.873  35.228  52.176  1.00  0.00    -0.295 OA
ENDBRANCH   1   7
BRANCH   3  10
ATOM     10  O   UNL     1      77.746  31.781  52.106  1.00  0.00    -0.504 OA
ATOM     11  H   UNL     1      77.320  30.964  52.527  1.00  0.00     0.293 HD
ENDBRANCH   3  10
BRANCH   4  12
ATOM     12  O   UNL     1      79.159  34.029  51.357  1.00  0.00    -0.493 OA
ATOM     13  C   UNL     1      79.815  34.796  50.352  1.00  0.00     0.278 C 
ENDBRANCH   4  12
TORSDOF 3
ENDMDL
MODEL 3
REMARK VINA RESULT:    -4.372      1.376      4.837
REMARK INTER + INTRA:          -5.123
REMARK INTER:                  -5.288
REMARK INTRA:                   0.165
REMARK UNBOUND:                -0.112
REMARK SMILES COc1ccc(C(C)=O)cc1O
REMARK SMILES IDX 6 1 10 2 11 3 3 4 4 5 5 6 7 7 8 8 9 9 12 10 2 12 1 13
REMARK H PARENT 12 11
REMARK Flexibility Score: inf
ROOT
ATOM      1  C   UNL     1      75.153  35.015  52.740  1.00  0.00     0.021 A 
ATOM      2  C   UNL     1      74.459  33.795  52.824  1.00  0.00     0.062 A 
ATOM      3  C   UNL     1      73.467  33.598  53.796  1.00  0.00     0.158 A 
ATOM      4  C   UNL     1      73.154  34.621  54.702  1.00  0.00     0.160 A 
ATOM      5  C   UNL     1      73.845  35.844  54.622  1.00  0.00     0.051 A 
ATOM      6  C   UNL     1      74.833  36.038  53.653  1.00  0.00     0.016 A 
ENDROOT
BRANCH   1   7
ATOM      7  C   UNL     1      76.203  35.206  51.701  1.00  0.00     0.159 C 
ATOM      8  C   UNL     1      77.422  34.336  51.636  1.00  0.00     0.093 C 
ATOM      9  O   UNL     1      76.075  36.124  50.846  1.00  0.00    -0.295 OA
ENDBRANCH   1   7
BRANCH   3  10
ATOM     10  O   UNL     1      72.786  32.385  53.869  1.00  0.00    -0.504 OA
ATOM     11  H   UNL     1      73.041  31.597  53.285  1.00  0.00     0.293 HD
ENDBRANCH   3  10
BRANCH   4  12
ATOM     12  O   UNL     1      72.156  34.386  55.660  1.00  0.00    -0.493 OA
ATOM     13  C   UNL     1      72.243  33.408  56.691  1.00  0.00     0.278 C 
ENDBRANCH   4  12
TORSDOF 3
ENDMDL
MODEL 4
REMARK VINA RESULT:    -4.274      2.882      6.530
REMARK INTER + INTRA:          -5.011
REMARK INTER:                  -4.897
REMARK INTRA:                  -0.114
REMARK UNBOUND:                -0.112
REMARK SMILES COc1ccc(C(C)=O)cc1O
REMARK SMILES IDX 6 1 10 2 11 3 3 4 4 5 5 6 7 7 8 8 9 9 12 10 2 12 1 13
REMARK H PARENT 12 11
REMARK Flexibility Score: inf
ROOT
ATOM      1  C   UNL     1      78.365  35.048  51.139  1.00  0.00     0.021 A 
ATOM      2  C   UNL     1      77.908  33.830  51.672  1.00  0.00     0.062 A 
ATOM      3  C   UNL     1      76.581  33.687  52.105  1.00  0.00     0.158 A 
ATOM      4  C   UNL     1      75.690  34.765  52.013  1.00  0.00     0.160 A 
ATOM      5  C   UNL     1      76.142  35.986  51.480  1.00  0.00     0.051 A 
ATOM      6  C   UNL     1      77.463  36.125  51.049  1.00  0.00     0.016 A 
ENDROOT
BRANCH   1   7
ATOM      7  C   UNL     1      79.776  35.180  50.684  1.00  0.00     0.159 C 
ATOM      8  C   UNL     1      80.242  34.621  49.373  1.00  0.00     0.093 C 
ATOM      9  O   UNL     1      80.615  35.777  51.412  1.00  0.00    -0.295 OA
ENDBRANCH   1   7
BRANCH   3  10
ATOM     10  O   UNL     1      76.141  32.475  52.632  1.00  0.00    -0.504 OA
ATOM     11  H   UNL     1      76.774  31.696  52.774  1.00  0.00     0.293 HD
ENDBRANCH   3  10
BRANCH   4  12
ATOM     12  O   UNL     1      74.371  34.584  52.457  1.00  0.00    -0.493 OA
ATOM     13  C   UNL     1      73.877  35.027  53.717  1.00  0.00     0.278 C 
ENDBRANCH   4  12
TORSDOF 3
ENDMDL
MODEL 5
REMARK VINA RESULT:    -4.119     16.358     17.255
REMARK INTER + INTRA:          -4.833
REMARK INTER:                  -4.739
REMARK INTRA:                  -0.094
REMARK UNBOUND:                -0.112
REMARK SMILES COc1ccc(C(C)=O)cc1O
REMARK SMILES IDX 6 1 10 2 11 3 3 4 4 5 5 6 7 7 8 8 9 9 12 10 2 12 1 13
REMARK H PARENT 12 11
REMARK Flexibility Score: inf
ROOT
ATOM      1  C   UNL     1      86.639  32.008  65.501  1.00  0.00     0.021 A 
ATOM      2  C   UNL     1      85.333  32.367  65.124  1.00  0.00     0.062 A 
ATOM      3  C   UNL     1      84.397  31.388  64.756  1.00  0.00     0.158 A 
ATOM      4  C   UNL     1      84.755  30.034  64.759  1.00  0.00     0.160 A 
ATOM      5  C   UNL     1      86.061  29.670  65.136  1.00  0.00     0.051 A 
ATOM      6  C   UNL     1      86.991  30.645  65.502  1.00  0.00     0.016 A 
ENDROOT
BRANCH   1   7
ATOM      7  C   UNL     1      87.619  33.060  65.889  1.00  0.00     0.159 C 
ATOM      8  C   UNL     1      88.031  34.148  64.942  1.00  0.00     0.093 C 
ATOM      9  O   UNL     1      88.125  33.048  67.044  1.00  0.00    -0.295 OA
ENDBRANCH   1   7
BRANCH   3  10
ATOM     10  O   UNL     1      83.106  31.757  64.385  1.00  0.00    -0.504 OA
ATOM     11  H   UNL     1      82.513  32.306  64.997  1.00  0.00     0.293 HD
ENDBRANCH   3  10
BRANCH   4  12
ATOM     12  O   UNL     1      83.791  29.085  64.385  1.00  0.00    -0.493 OA
ATOM     13  C   UNL     1      83.991  27.675  64.424  1.00  0.00     0.278 C 
ENDBRANCH   4  12
TORSDOF 3
ENDMDL
MODEL 6
REMARK VINA RESULT:    -4.033     16.357     16.939
REMARK INTER + INTRA:          -4.734
REMARK INTER:                  -4.639
REMARK INTRA:                  -0.095
REMARK UNBOUND:                -0.112
REMARK SMILES COc1ccc(C(C)=O)cc1O
REMARK SMILES IDX 6 1 10 2 11 3 3 4 4 5 5 6 7 7 8 8 9 9 12 10 2 12 1 13
REMARK H PARENT 12 11
REMARK Flexibility Score: inf
ROOT
ATOM      1  C   UNL     1      84.852  30.593  64.750  1.00  0.00     0.021 A 
ATOM      2  C   UNL     1      85.937  30.218  65.561  1.00  0.00     0.062 A 
ATOM      3  C   UNL     1      86.996  31.107  65.801  1.00  0.00     0.158 A 
ATOM      4  C   UNL     1      86.985  32.387  65.231  1.00  0.00     0.160 A 
ATOM      5  C   UNL     1      85.900  32.768  64.420  1.00  0.00     0.051 A 
ATOM      6  C   UNL     1      84.847  31.881  64.182  1.00  0.00     0.016 A 
ENDROOT
BRANCH   1   7
ATOM      7  C   UNL     1      83.737  29.637  64.507  1.00  0.00     0.159 C 
ATOM      8  C   UNL     1      83.971  28.161  64.381  1.00  0.00     0.093 C 
ATOM      9  O   UNL     1      82.556  30.067  64.402  1.00  0.00    -0.295 OA
ENDBRANCH   1   7
BRANCH   3  10
ATOM     10  O   UNL     1      88.066  30.723  66.606  1.00  0.00    -0.504 OA
ATOM     11  H   UNL     1      88.959  31.200  66.566  1.00  0.00     0.293 HD
ENDBRANCH   3  10
BRANCH   4  12
ATOM     12  O   UNL     1      88.062  33.248  65.494  1.00  0.00    -0.493 OA
ATOM     13  C   UNL     1      88.125  34.609  65.081  1.00  0.00     0.278 C 
ENDBRANCH   4  12
TORSDOF 3
ENDMDL
MODEL 7
REMARK VINA RESULT:    -3.739      2.181      5.938
REMARK INTER + INTRA:          -4.398
REMARK INTER:                  -4.283
REMARK INTRA:                  -0.114
REMARK UNBOUND:                -0.112
REMARK SMILES COc1ccc(C(C)=O)cc1O
REMARK SMILES IDX 6 1 10 2 11 3 3 4 4 5 5 6 7 7 8 8 9 9 12 10 2 12 1 13
REMARK H PARENT 12 11
REMARK Flexibility Score: inf
ROOT
ATOM      1  C   UNL     1      77.138  34.617  51.626  1.00  0.00     0.021 A 
ATOM      2  C   UNL     1      76.113  35.560  51.819  1.00  0.00     0.062 A 
ATOM      3  C   UNL     1      74.884  35.181  52.378  1.00  0.00     0.158 A 
ATOM      4  C   UNL     1      74.660  33.849  52.752  1.00  0.00     0.160 A 
ATOM      5  C   UNL     1      75.682  32.901  52.562  1.00  0.00     0.051 A 
ATOM      6  C   UNL     1      76.906  33.281  52.006  1.00  0.00     0.016 A 
ENDROOT
BRANCH   1   7
ATOM      7  C   UNL     1      78.437  35.038  51.032  1.00  0.00     0.159 C 
ATOM      8  C   UNL     1      79.750  34.670  51.655  1.00  0.00     0.093 C 
ATOM      9  O   UNL     1      78.447  35.724  49.974  1.00  0.00    -0.295 OA
ENDBRANCH   1   7
BRANCH   3  10
ATOM     10  O   UNL     1      73.876  36.125  52.564  1.00  0.00    -0.504 OA
ATOM     11  H   UNL     1      73.196  36.325  51.841  1.00  0.00     0.293 HD
ENDBRANCH   3  10
BRANCH   4  12
ATOM     12  O   UNL     1      73.417  33.508  53.308  1.00  0.00    -0.493 OA
ATOM     13  C   UNL     1      73.138  33.483  54.704  1.00  0.00     0.278 C 
ENDBRANCH   4  12
TORSDOF 3
ENDMDL
