MODEL 1
REMARK VINA RESULT:    -2.865      0.000      0.000
REMARK INTER + INTRA:          -3.117
REMARK INTER:                  -3.117
REMARK INTRA:                   0.000
REMARK UNBOUND:                 0.000
REMARK SMILES [NH3+]CC(=O)[O-]
REMARK SMILES IDX 2 1 1 2 3 6 4 7 5 8
REMARK H PARENT 1 3 1 4 1 5
REMARK Flexibility Score: inf
ROOT
ATOM      1  C   UNL     1     122.374 145.100 135.365  1.00  0.00     0.312 C 
ENDROOT
BRANCH   1   2
ATOM      2  N   UNL     1     123.687 145.716 135.188  1.00  0.00    -0.353 N 
ATOM      3  H   UNL     1     124.379 144.977 134.926  1.00  0.00     0.344 HD
ATOM      4  H   UNL     1     123.649 146.431 134.425  1.00  0.00     0.344 HD
ATOM      5  H   UNL     1     123.996 146.167 136.080  1.00  0.00     0.344 HD
ENDBRANCH   1   2
BRANCH   1   6
ATOM      6  C   UNL     1     121.498 145.374 134.182  1.00  0.00     0.096 C 
ATOM      7  O   UNL     1     121.595 144.668 133.144  1.00  0.00    -0.544 OA
ATOM      8  O   UNL     1     120.610 146.442 134.208  1.00  0.00    -0.544 OA
ENDBRANCH   1   6
TORSDOF 2
ENDMDL
MODEL 2
REMARK VINA RESULT:    -2.854      2.066      2.480
REMARK INTER + INTRA:          -3.105
REMARK INTER:                  -3.105
REMARK INTRA:                   0.000
REMARK UNBOUND:                 0.000
REMARK SMILES [NH3+]CC(=O)[O-]
REMARK SMILES IDX 2 1 1 2 3 6 4 7 5 8
REMARK H PARENT 1 3 1 4 1 5
REMARK Flexibility Score: inf
ROOT
ATOM      1  C   UNL     1     122.219 145.367 135.064  1.00  0.00     0.312 C 
ENDROOT
BRANCH   1   2
ATOM      2  N   UNL     1     123.639 145.687 135.195  1.00  0.00    -0.353 N 
ATOM      3  H   UNL     1     124.119 145.493 134.287  1.00  0.00     0.344 HD
ATOM      4  H   UNL     1     123.759 146.699 135.433  1.00  0.00     0.344 HD
ATOM      5  H   UNL     1     124.073 145.095 135.940  1.00  0.00     0.344 HD
ENDBRANCH   1   2
BRANCH   1   6
ATOM      6  C   UNL     1     121.939 143.989 135.576  1.00  0.00     0.096 C 
ATOM      7  O   UNL     1     122.341 143.643 136.718  1.00  0.00    -0.544 OA
ATOM      8  O   UNL     1     121.277 143.070 134.773  1.00  0.00    -0.544 OA
ENDBRANCH   1   6
TORSDOF 2
ENDMDL
MODEL 3
REMARK VINA RESULT:    -2.636      2.963      3.276
REMARK INTER + INTRA:          -2.867
REMARK INTER:                  -2.867
REMARK INTRA:                   0.000
REMARK UNBOUND:                 0.000
REMARK SMILES [NH3+]CC(=O)[O-]
REMARK SMILES IDX 2 1 1 2 3 6 4 7 5 8
REMARK H PARENT 1 3 1 4 1 5
REMARK Flexibility Score: inf
ROOT
ATOM      1  C   UNL     1     121.745 147.035 131.743  1.00  0.00     0.312 C 
ENDROOT
BRANCH   1   2
ATOM      2  N   UNL     1     123.101 147.032 132.289  1.00  0.00    -0.353 N 
ATOM      3  H   UNL     1     123.102 146.522 133.201  1.00  0.00     0.344 HD
ATOM      4  H   UNL     1     123.754 146.549 131.629  1.00  0.00     0.344 HD
ATOM      5  H   UNL     1     123.426 148.014 132.450  1.00  0.00     0.344 HD
ENDBRANCH   1   2
BRANCH   1   6
ATOM      6  C   UNL     1     120.798 147.709 132.686  1.00  0.00     0.096 C 
ATOM      7  O   UNL     1     120.591 147.225 133.830  1.00  0.00    -0.544 OA
ATOM      8  O   UNL     1     120.107 148.844 132.283  1.00  0.00    -0.544 OA
ENDBRANCH   1   6
TORSDOF 2
ENDMDL
MODEL 4
REMARK VINA RESULT:    -2.445      3.344      3.831
REMARK INTER + INTRA:          -2.660
REMARK INTER:                  -2.660
REMARK INTRA:                   0.000
REMARK UNBOUND:                 0.000
REMARK SMILES [NH3+]CC(=O)[O-]
REMARK SMILES IDX 2 1 1 2 3 6 4 7 5 8
REMARK H PARENT 1 3 1 4 1 5
REMARK Flexibility Score: inf
ROOT
ATOM      1  C   UNL     1     119.977 147.047 133.228  1.00  0.00     0.312 C 
ENDROOT
BRANCH   1   2
ATOM      2  N   UNL     1     120.920 147.187 134.336  1.00  0.00    -0.353 N 
ATOM      3  H   UNL     1     121.708 146.513 134.202  1.00  0.00     0.344 HD
ATOM      4  H   UNL     1     121.306 148.159 134.359  1.00  0.00     0.344 HD
ATOM      5  H   UNL     1     120.443 146.975 135.243  1.00  0.00     0.344 HD
ENDBRANCH   1   2
BRANCH   1   6
ATOM      6  C   UNL     1     120.297 148.020 132.136  1.00  0.00     0.096 C 
ATOM      7  O   UNL     1     119.904 149.214 132.215  1.00  0.00    -0.544 OA
ATOM      8  O   UNL     1     120.987 147.596 131.007  1.00  0.00    -0.544 OA
ENDBRANCH   1   6
TORSDOF 2
ENDMDL
MODEL 5
REMARK VINA RESULT:    -2.431      2.727      3.008
REMARK INTER + INTRA:          -2.644
REMARK INTER:                  -2.644
REMARK INTRA:                   0.000
REMARK UNBOUND:                 0.000
REMARK SMILES [NH3+]CC(=O)[O-]
REMARK SMILES IDX 2 1 1 2 3 6 4 7 5 8
REMARK H PARENT 1 3 1 4 1 5
REMARK Flexibility Score: inf
ROOT
ATOM      1  C   UNL     1     120.371 145.807 134.290  1.00  0.00     0.312 C 
ENDROOT
BRANCH   1   2
ATOM      2  N   UNL     1     120.910 147.165 134.340  1.00  0.00    -0.353 N 
ATOM      3  H   UNL     1     121.382 147.312 135.262  1.00  0.00     0.344 HD
ATOM      4  H   UNL     1     121.610 147.302 133.575  1.00  0.00     0.344 HD
ATOM      5  H   UNL     1     120.136 147.862 134.242  1.00  0.00     0.344 HD
ENDBRANCH   1   2
BRANCH   1   6
ATOM      6  C   UNL     1     118.886 145.835 134.100  1.00  0.00     0.096 C 
ATOM      7  O   UNL     1     118.386 146.417 133.101  1.00  0.00    -0.544 OA
ATOM      8  O   UNL     1     118.053 145.263 135.052  1.00  0.00    -0.544 OA
ENDBRANCH   1   6
TORSDOF 2
ENDMDL
MODEL 6
REMARK VINA RESULT:    -2.410      2.435      2.888
REMARK INTER + INTRA:          -2.622
REMARK INTER:                  -2.622
REMARK INTRA:                   0.000
REMARK UNBOUND:                 0.000
REMARK SMILES [NH3+]CC(=O)[O-]
REMARK SMILES IDX 2 1 1 2 3 6 4 7 5 8
REMARK H PARENT 1 3 1 4 1 5
REMARK Flexibility Score: inf
ROOT
ATOM      1  C   UNL     1     120.723 147.612 132.872  1.00  0.00     0.312 C 
ENDROOT
BRANCH   1   2
ATOM      2  N   UNL     1     122.063 147.374 132.339  1.00  0.00    -0.353 N 
ATOM      3  H   UNL     1     122.675 147.007 133.104  1.00  0.00     0.344 HD
ATOM      4  H   UNL     1     122.023 146.667 131.569  1.00  0.00     0.344 HD
ATOM      5  H   UNL     1     122.471 148.267 131.979  1.00  0.00     0.344 HD
ENDBRANCH   1   2
BRANCH   1   6
ATOM      6  C   UNL     1     120.349 146.549 133.857  1.00  0.00     0.096 C 
ATOM      7  O   UNL     1     119.142 146.228 134.016  1.00  0.00    -0.544 OA
ATOM      8  O   UNL     1     121.330 145.948 134.636  1.00  0.00    -0.544 OA
ENDBRANCH   1   6
TORSDOF 2
ENDMDL
MODEL 7
REMARK VINA RESULT:    -2.382      1.917      2.388
REMARK INTER + INTRA:          -2.591
REMARK INTER:                  -2.591
REMARK INTRA:                   0.000
REMARK UNBOUND:                 0.000
REMARK SMILES [NH3+]CC(=O)[O-]
REMARK SMILES IDX 2 1 1 2 3 6 4 7 5 8
REMARK H PARENT 1 3 1 4 1 5
REMARK Flexibility Score: inf
ROOT
ATOM      1  C   UNL     1     122.459 145.700 132.665  1.00  0.00     0.312 C 
ENDROOT
BRANCH   1   2
ATOM      2  N   UNL     1     123.096 146.984 132.380  1.00  0.00    -0.353 N 
ATOM      3  H   UNL     1     122.427 147.755 132.605  1.00  0.00     0.344 HD
ATOM      4  H   UNL     1     123.955 147.098 132.968  1.00  0.00     0.344 HD
ATOM      5  H   UNL     1     123.351 147.042 131.367  1.00  0.00     0.344 HD
ENDBRANCH   1   2
BRANCH   1   6
ATOM      6  C   UNL     1     121.858 145.702 134.036  1.00  0.00     0.096 C 
ATOM      7  O   UNL     1     120.755 146.274 134.243  1.00  0.00    -0.544 OA
ATOM      8  O   UNL     1     122.538 145.114 135.094  1.00  0.00    -0.544 OA
ENDBRANCH   1   6
TORSDOF 2
ENDMDL
MODEL 8
REMARK VINA RESULT:    -2.326      2.159      2.570
REMARK INTER + INTRA:          -2.530
REMARK INTER:                  -2.530
REMARK INTRA:                   0.000
REMARK UNBOUND:                 0.000
REMARK SMILES [NH3+]CC(=O)[O-]
REMARK SMILES IDX 2 1 1 2 3 6 4 7 5 8
REMARK H PARENT 1 3 1 4 1 5
REMARK Flexibility Score: inf
ROOT
ATOM      1  C   UNL     1     120.709 145.593 134.234  1.00  0.00     0.312 C 
ENDROOT
BRANCH   1   2
ATOM      2  N   UNL     1     121.000 147.014 134.407  1.00  0.00    -0.353 N 
ATOM      3  H   UNL     1     120.447 147.381 135.214  1.00  0.00     0.344 HD
ATOM      4  H   UNL     1     122.019 147.152 134.604  1.00  0.00     0.344 HD
ATOM      5  H   UNL     1     120.733 147.544 133.545  1.00  0.00     0.344 HD
ENDBRANCH   1   2
BRANCH   1   6
ATOM      6  C   UNL     1     121.723 144.755 134.949  1.00  0.00     0.096 C 
ATOM      7  O   UNL     1     122.715 145.297 135.504  1.00  0.00    -0.544 OA
ATOM      8  O   UNL     1     121.599 143.372 134.960  1.00  0.00    -0.544 OA
ENDBRANCH   1   6
TORSDOF 2
ENDMDL
MODEL 9
REMARK VINA RESULT:    -2.258      4.737      5.061
REMARK INTER + INTRA:          -2.456
REMARK INTER:                  -2.456
REMARK INTRA:                   0.000
REMARK UNBOUND:                 0.000
REMARK SMILES [NH3+]CC(=O)[O-]
REMARK SMILES IDX 2 1 1 2 3 6 4 7 5 8
REMARK H PARENT 1 3 1 4 1 5
REMARK Flexibility Score: inf
ROOT
ATOM      1  C   UNL     1     119.304 146.980 131.509  1.00  0.00     0.312 C 
ENDROOT
BRANCH   1   2
ATOM      2  N   UNL     1     118.016 147.252 130.875  1.00  0.00    -0.353 N 
ATOM      3  H   UNL     1     118.025 146.866 129.903  1.00  0.00     0.344 HD
ATOM      4  H   UNL     1     117.245 146.794 131.415  1.00  0.00     0.344 HD
ATOM      5  H   UNL     1     117.850 148.284 130.828  1.00  0.00     0.344 HD
ENDBRANCH   1   2
BRANCH   1   6
ATOM      6  C   UNL     1     119.900 148.240 132.056  1.00  0.00     0.096 C 
ATOM      7  O   UNL     1     119.810 149.317 131.409  1.00  0.00    -0.544 OA
ATOM      8  O   UNL     1     120.598 148.215 133.256  1.00  0.00    -0.544 OA
ENDBRANCH   1   6
TORSDOF 2
ENDMDL
