MODEL 1
REMARK VINA RESULT:    -6.634      0.000      0.000
REMARK INTER + INTRA:         -11.193
REMARK INTER:                  -9.155
REMARK INTRA:                  -2.038
REMARK UNBOUND:                -2.038
REMARK SMILES CC[C@H](CC[C@@H](C)[C@@H]1CC[C@H]2[C@@H]3CC=C4C[C@H](O)CC[C@]4(C)[C@@H]3CC[C@@]21C)C(C)C
REMARK SMILES IDX 5 1 4 2 3 3 2 4 1 5 28 6 29 7 30 8 6 9 7 10 8 11 9 12 26 13
REMARK SMILES IDX 10 14 11 15 25 16 27 17 12 18 24 19 23 20 13 21 21 22 14 23
REMARK SMILES IDX 15 24 20 25 22 26 16 27 19 28 17 29 18 30
REMARK H PARENT 18 31
REMARK Flexibility Score: inf
ROOT
ATOM      1  C   UNL     1      47.478  -0.571  22.164  1.00  0.00     0.004 C 
ENDROOT
BRANCH   1   2
ATOM      2  C   UNL     1      48.862  -1.098  21.745  1.00  0.00     0.004 C 
BRANCH   2   3
ATOM      3  C   UNL     1      49.320  -2.358  22.557  1.00  0.00    -0.009 C 
BRANCH   3   4
ATOM      4  C   UNL     1      50.867  -2.518  22.548  1.00  0.00     0.000 C 
ATOM      5  C   UNL     1      51.601  -1.254  22.101  1.00  0.00     0.004 C 
ENDBRANCH   3   4
BRANCH   3   6
ATOM      6  C   UNL     1      48.733  -2.384  24.018  1.00  0.00    -0.014 C 
ATOM      7  C   UNL     1      49.831  -2.407  25.096  1.00  0.00     0.007 C 
ATOM      8  C   UNL     1      47.823  -3.611  24.239  1.00  0.00     0.007 C 
ENDBRANCH   3   6
ENDBRANCH   2   3
ENDBRANCH   1   2
BRANCH   1   9
ATOM      9  C   UNL     1      47.500   0.821  22.849  1.00  0.00    -0.011 C 
ATOM     10  C   UNL     1      46.360   0.848  23.892  1.00  0.00     0.008 C 
BRANCH   9  11
ATOM     11  C   UNL     1      48.918   1.199  23.418  1.00  0.00    -0.002 C 
ATOM     12  C   UNL     1      48.943   1.276  24.977  1.00  0.00     0.005 C 
ATOM     13  C   UNL     1      49.570   2.543  22.920  1.00  0.00    -0.026 C 
ATOM     14  C   UNL     1      49.577   2.620  25.355  1.00  0.00     0.005 C 
ATOM     15  C   UNL     1      49.328   3.477  24.126  1.00  0.00    -0.001 C 
ATOM     16  C   UNL     1      49.043   3.220  21.600  1.00  0.00     0.007 C 
ATOM     17  C   UNL     1      51.092   2.271  22.701  1.00  0.00     0.012 C 
ATOM     18  C   UNL     1      50.077   4.813  24.009  1.00  0.00     0.000 C 
ATOM     19  C   UNL     1      48.724   4.734  21.746  1.00  0.00     0.005 C 
ATOM     20  C   UNL     1      49.708   5.546  22.664  1.00  0.00     0.003 C 
ATOM     21  C   UNL     1      49.847   5.665  25.253  1.00  0.00     0.031 C 
ATOM     22  C   UNL     1      49.258   7.069  22.808  1.00  0.00    -0.008 C 
ATOM     23  C   UNL     1      50.370   7.045  25.045  1.00  0.00    -0.027 C 
ATOM     24  C   UNL     1      49.989   7.752  23.968  1.00  0.00    -0.065 C 
ATOM     25  C   UNL     1      47.723   7.266  23.083  1.00  0.00     0.014 C 
ATOM     26  C   UNL     1      49.599   7.767  21.461  1.00  0.00     0.016 C 
ATOM     27  C   UNL     1      49.725   9.227  24.178  1.00  0.00     0.063 C 
ATOM     28  C   UNL     1      47.329   8.730  23.397  1.00  0.00     0.033 C 
ATOM     29  C   UNL     1      48.223   9.414  24.466  1.00  0.00     0.118 C 
BRANCH  29  30
ATOM     30  O   UNL     1      47.919   8.983  25.764  1.00  0.00    -0.393 OA
ATOM     31  H   UNL     1      48.161   8.026  25.860  1.00  0.00     0.210 HD
ENDBRANCH  29  30
ENDBRANCH   9  11
ENDBRANCH   1   9
TORSDOF 7
ENDMDL
MODEL 2
REMARK VINA RESULT:    -6.606      2.159      4.494
REMARK INTER + INTRA:         -11.154
REMARK INTER:                  -8.706
REMARK INTRA:                  -2.448
REMARK UNBOUND:                -2.038
REMARK SMILES CC[C@H](CC[C@@H](C)[C@@H]1CC[C@H]2[C@@H]3CC=C4C[C@H](O)CC[C@]4(C)[C@@H]3CC[C@@]21C)C(C)C
REMARK SMILES IDX 5 1 4 2 3 3 2 4 1 5 28 6 29 7 30 8 6 9 7 10 8 11 9 12 26 13
REMARK SMILES IDX 10 14 11 15 25 16 27 17 12 18 24 19 23 20 13 21 21 22 14 23
REMARK SMILES IDX 15 24 20 25 22 26 16 27 19 28 17 29 18 30
REMARK H PARENT 18 31
REMARK Flexibility Score: inf
ROOT
ATOM      1  C   UNL     1      48.216   1.066  20.709  1.00  0.00     0.004 C 
ENDROOT
BRANCH   1   2
ATOM      2  C   UNL     1      49.359   1.124  21.736  1.00  0.00     0.004 C 
BRANCH   2   3
ATOM      3  C   UNL     1      49.876   2.578  22.011  1.00  0.00    -0.009 C 
BRANCH   3   4
ATOM      4  C   UNL     1      51.250   2.572  22.741  1.00  0.00     0.000 C 
ATOM      5  C   UNL     1      51.871   1.180  22.846  1.00  0.00     0.004 C 
ENDBRANCH   3   4
BRANCH   3   6
ATOM      6  C   UNL     1      49.904   3.467  20.711  1.00  0.00    -0.014 C 
ATOM      7  C   UNL     1      51.120   3.170  19.816  1.00  0.00     0.007 C 
ATOM      8  C   UNL     1      49.924   4.971  21.056  1.00  0.00     0.007 C 
ENDBRANCH   3   6
ENDBRANCH   2   3
ENDBRANCH   1   2
BRANCH   1   9
ATOM      9  C   UNL     1      46.865   0.557  21.277  1.00  0.00    -0.011 C 
ATOM     10  C   UNL     1      47.166  -0.224  22.575  1.00  0.00     0.008 C 
BRANCH   9  11
ATOM     11  C   UNL     1      45.798   1.704  21.436  1.00  0.00    -0.002 C 
ATOM     12  C   UNL     1      45.832   2.728  20.258  1.00  0.00     0.005 C 
ATOM     13  C   UNL     1      45.848   2.572  22.749  1.00  0.00    -0.026 C 
ATOM     14  C   UNL     1      45.909   4.128  20.877  1.00  0.00     0.005 C 
ATOM     15  C   UNL     1      46.516   3.870  22.244  1.00  0.00    -0.001 C 
ATOM     16  C   UNL     1      46.615   2.027  24.011  1.00  0.00     0.007 C 
ATOM     17  C   UNL     1      44.374   2.822  23.200  1.00  0.00     0.012 C 
ATOM     18  C   UNL     1      46.482   5.003  23.280  1.00  0.00     0.000 C 
ATOM     19  C   UNL     1      47.610   3.044  24.638  1.00  0.00     0.005 C 
ATOM     20  C   UNL     1      47.135   4.542  24.638  1.00  0.00     0.003 C 
ATOM     21  C   UNL     1      47.100   6.272  22.703  1.00  0.00     0.031 C 
ATOM     22  C   UNL     1      48.250   5.514  25.233  1.00  0.00    -0.008 C 
ATOM     23  C   UNL     1      47.285   7.296  23.772  1.00  0.00    -0.027 C 
ATOM     24  C   UNL     1      47.940   6.977  24.901  1.00  0.00    -0.065 C 
ATOM     25  C   UNL     1      49.700   5.241  24.693  1.00  0.00     0.014 C 
ATOM     26  C   UNL     1      48.261   5.294  26.772  1.00  0.00     0.016 C 
ATOM     27  C   UNL     1      48.869   8.027  25.470  1.00  0.00     0.063 C 
ATOM     28  C   UNL     1      50.740   6.298  25.138  1.00  0.00     0.033 C 
ATOM     29  C   UNL     1      50.286   7.768  24.924  1.00  0.00     0.118 C 
BRANCH  29  30
ATOM     30  O   UNL     1      50.368   8.156  23.580  1.00  0.00    -0.393 OA
ATOM     31  H   UNL     1      49.455   8.196  23.191  1.00  0.00     0.210 HD
ENDBRANCH  29  30
ENDBRANCH   9  11
ENDBRANCH   1   9
TORSDOF 7
ENDMDL
MODEL 3
REMARK VINA RESULT:    -6.577      3.182      7.466
REMARK INTER + INTRA:         -11.115
REMARK INTER:                  -8.652
REMARK INTRA:                  -2.463
REMARK UNBOUND:                -2.038
REMARK SMILES CC[C@H](CC[C@@H](C)[C@@H]1CC[C@H]2[C@@H]3CC=C4C[C@H](O)CC[C@]4(C)[C@@H]3CC[C@@]21C)C(C)C
REMARK SMILES IDX 5 1 4 2 3 3 2 4 1 5 28 6 29 7 30 8 6 9 7 10 8 11 9 12 26 13
REMARK SMILES IDX 10 14 11 15 25 16 27 17 12 18 24 19 23 20 13 21 21 22 14 23
REMARK SMILES IDX 15 24 20 25 22 26 16 27 19 28 17 29 18 30
REMARK H PARENT 18 31
REMARK Flexibility Score: inf
ROOT
ATOM      1  C   UNL     1      49.423   8.731  23.622  1.00  0.00     0.004 C 
ENDROOT
BRANCH   1   2
ATOM      2  C   UNL     1      48.288   8.697  22.584  1.00  0.00     0.004 C 
BRANCH   2   3
ATOM      3  C   UNL     1      48.294   7.403  21.699  1.00  0.00    -0.009 C 
BRANCH   3   4
ATOM      4  C   UNL     1      47.431   7.579  20.416  1.00  0.00     0.000 C 
ATOM      5  C   UNL     1      46.605   8.865  20.417  1.00  0.00     0.004 C 
ENDBRANCH   3   4
BRANCH   3   6
ATOM      6  C   UNL     1      49.750   6.903  21.365  1.00  0.00    -0.014 C 
ATOM      7  C   UNL     1      50.387   7.676  20.197  1.00  0.00     0.007 C 
ATOM      8  C   UNL     1      49.763   5.403  21.007  1.00  0.00     0.007 C 
ENDBRANCH   3   6
ENDBRANCH   2   3
ENDBRANCH   1   2
BRANCH   1   9
ATOM      9  C   UNL     1      48.945   8.710  25.099  1.00  0.00    -0.011 C 
ATOM     10  C   UNL     1      47.479   9.196  25.125  1.00  0.00     0.008 C 
BRANCH   9  11
ATOM     11  C   UNL     1      49.187   7.321  25.798  1.00  0.00    -0.002 C 
ATOM     12  C   UNL     1      50.529   6.651  25.366  1.00  0.00     0.005 C 
ATOM     13  C   UNL     1      48.085   6.210  25.617  1.00  0.00    -0.026 C 
ATOM     14  C   UNL     1      50.203   5.214  24.943  1.00  0.00     0.005 C 
ATOM     15  C   UNL     1      48.736   5.290  24.561  1.00  0.00    -0.001 C 
ATOM     16  C   UNL     1      46.637   6.620  25.156  1.00  0.00     0.007 C 
ATOM     17  C   UNL     1      47.924   5.484  26.990  1.00  0.00     0.012 C 
ATOM     18  C   UNL     1      47.969   3.974  24.358  1.00  0.00     0.000 C 
ATOM     19  C   UNL     1      46.086   5.780  23.970  1.00  0.00     0.005 C 
ATOM     20  C   UNL     1      46.463   4.255  23.990  1.00  0.00     0.003 C 
ATOM     21  C   UNL     1      48.690   3.086  23.351  1.00  0.00     0.031 C 
ATOM     22  C   UNL     1      45.915   3.494  22.700  1.00  0.00    -0.008 C 
ATOM     23  C   UNL     1      47.837   1.922  22.975  1.00  0.00    -0.027 C 
ATOM     24  C   UNL     1      46.581   2.124  22.543  1.00  0.00    -0.065 C 
ATOM     25  C   UNL     1      46.161   4.257  21.348  1.00  0.00     0.014 C 
ATOM     26  C   UNL     1      44.380   3.337  22.890  1.00  0.00     0.016 C 
ATOM     27  C   UNL     1      46.102   1.249  21.405  1.00  0.00     0.063 C 
ATOM     28  C   UNL     1      45.787   3.434  20.091  1.00  0.00     0.033 C 
ATOM     29  C   UNL     1      46.362   1.991  20.081  1.00  0.00     0.118 C 
BRANCH  29  30
ATOM     30  O   UNL     1      47.729   1.969  19.771  1.00  0.00    -0.393 OA
ATOM     31  H   UNL     1      47.979   1.065  19.448  1.00  0.00     0.210 HD
ENDBRANCH  29  30
ENDBRANCH   9  11
ENDBRANCH   1   9
TORSDOF 7
ENDMDL
MODEL 4
REMARK VINA RESULT:    -6.509      2.817      7.312
REMARK INTER + INTRA:         -11.021
REMARK INTER:                  -8.729
REMARK INTRA:                  -2.291
REMARK UNBOUND:                -2.038
REMARK SMILES CC[C@H](CC[C@@H](C)[C@@H]1CC[C@H]2[C@@H]3CC=C4C[C@H](O)CC[C@]4(C)[C@@H]3CC[C@@]21C)C(C)C
REMARK SMILES IDX 5 1 4 2 3 3 2 4 1 5 28 6 29 7 30 8 6 9 7 10 8 11 9 12 26 13
REMARK SMILES IDX 10 14 11 15 25 16 27 17 12 18 24 19 23 20 13 21 21 22 14 23
REMARK SMILES IDX 15 24 20 25 22 26 16 27 19 28 17 29 18 30
REMARK H PARENT 18 31
REMARK Flexibility Score: inf
ROOT
ATOM      1  C   UNL     1      47.692   8.574  25.417  1.00  0.00     0.004 C 
ENDROOT
BRANCH   1   2
ATOM      2  C   UNL     1      48.605   7.677  26.270  1.00  0.00     0.004 C 
BRANCH   2   3
ATOM      3  C   UNL     1      48.171   6.171  26.274  1.00  0.00    -0.009 C 
BRANCH   3   4
ATOM      4  C   UNL     1      47.000   5.907  25.284  1.00  0.00     0.000 C 
ATOM      5  C   UNL     1      46.276   4.587  25.546  1.00  0.00     0.004 C 
ENDBRANCH   3   4
BRANCH   3   6
ATOM      6  C   UNL     1      49.380   5.192  26.033  1.00  0.00    -0.014 C 
ATOM      7  C   UNL     1      49.535   4.155  27.159  1.00  0.00     0.007 C 
ATOM      8  C   UNL     1      50.712   5.959  25.905  1.00  0.00     0.007 C 
ENDBRANCH   3   6
ENDBRANCH   2   3
ENDBRANCH   1   2
BRANCH   1   9
ATOM      9  C   UNL     1      48.429   9.377  24.312  1.00  0.00    -0.011 C 
ATOM     10  C   UNL     1      49.929   9.017  24.391  1.00  0.00     0.008 C 
BRANCH   9  11
ATOM     11  C   UNL     1      47.784   9.188  22.888  1.00  0.00    -0.002 C 
ATOM     12  C   UNL     1      46.231   9.038  22.942  1.00  0.00     0.005 C 
ATOM     13  C   UNL     1      48.293   7.985  22.010  1.00  0.00    -0.026 C 
ATOM     14  C   UNL     1      45.869   7.787  22.133  1.00  0.00     0.005 C 
ATOM     15  C   UNL     1      47.145   6.965  22.175  1.00  0.00    -0.001 C 
ATOM     16  C   UNL     1      49.671   7.303  22.349  1.00  0.00     0.007 C 
ATOM     17  C   UNL     1      48.402   8.493  20.538  1.00  0.00     0.012 C 
ATOM     18  C   UNL     1      47.267   5.765  21.225  1.00  0.00     0.000 C 
ATOM     19  C   UNL     1      49.608   5.753  22.440  1.00  0.00     0.005 C 
ATOM     20  C   UNL     1      48.662   5.053  21.399  1.00  0.00     0.003 C 
ATOM     21  C   UNL     1      46.076   4.827  21.394  1.00  0.00     0.031 C 
ATOM     22  C   UNL     1      48.609   3.474  21.617  1.00  0.00    -0.008 C 
ATOM     23  C   UNL     1      46.305   3.553  20.653  1.00  0.00    -0.027 C 
ATOM     24  C   UNL     1      47.433   2.851  20.859  1.00  0.00    -0.065 C 
ATOM     25  C   UNL     1      48.443   3.035  23.117  1.00  0.00     0.014 C 
ATOM     26  C   UNL     1      49.959   2.904  21.096  1.00  0.00     0.016 C 
ATOM     27  C   UNL     1      47.301   1.345  20.905  1.00  0.00     0.063 C 
ATOM     28  C   UNL     1      48.215   1.515  23.300  1.00  0.00     0.033 C 
ATOM     29  C   UNL     1      47.119   0.920  22.374  1.00  0.00     0.118 C 
BRANCH  29  30
ATOM     30  O   UNL     1      45.826   1.235  22.816  1.00  0.00    -0.393 OA
ATOM     31  H   UNL     1      45.583   0.643  23.574  1.00  0.00     0.210 HD
ENDBRANCH  29  30
ENDBRANCH   9  11
ENDBRANCH   1   9
TORSDOF 7
ENDMDL
MODEL 5
REMARK VINA RESULT:    -6.502      1.909      3.887
REMARK INTER + INTRA:         -11.010
REMARK INTER:                  -8.587
REMARK INTRA:                  -2.424
REMARK UNBOUND:                -2.038
REMARK SMILES CC[C@H](CC[C@@H](C)[C@@H]1CC[C@H]2[C@@H]3CC=C4C[C@H](O)CC[C@]4(C)[C@@H]3CC[C@@]21C)C(C)C
REMARK SMILES IDX 5 1 4 2 3 3 2 4 1 5 28 6 29 7 30 8 6 9 7 10 8 11 9 12 26 13
REMARK SMILES IDX 10 14 11 15 25 16 27 17 12 18 24 19 23 20 13 21 21 22 14 23
REMARK SMILES IDX 15 24 20 25 22 26 16 27 19 28 17 29 18 30
REMARK H PARENT 18 31
REMARK Flexibility Score: inf
ROOT
ATOM      1  C   UNL     1      46.663   0.493  22.599  1.00  0.00     0.004 C 
ENDROOT
BRANCH   1   2
ATOM      2  C   UNL     1      45.567   1.296  21.878  1.00  0.00     0.004 C 
BRANCH   2   3
ATOM      3  C   UNL     1      45.196   2.634  22.605  1.00  0.00    -0.009 C 
BRANCH   3   4
ATOM      4  C   UNL     1      46.214   2.980  23.730  1.00  0.00     0.000 C 
ATOM      5  C   UNL     1      45.595   3.773  24.880  1.00  0.00     0.004 C 
ENDBRANCH   3   4
BRANCH   3   6
ATOM      6  C   UNL     1      44.995   3.833  21.603  1.00  0.00    -0.014 C 
ATOM      7  C   UNL     1      43.615   4.499  21.747  1.00  0.00     0.007 C 
ATOM      8  C   UNL     1      45.152   3.376  20.138  1.00  0.00     0.007 C 
ENDBRANCH   3   6
ENDBRANCH   2   3
ENDBRANCH   1   2
BRANCH   1   9
ATOM      9  C   UNL     1      47.830   0.032  21.686  1.00  0.00    -0.011 C 
ATOM     10  C   UNL     1      47.534   0.536  20.256  1.00  0.00     0.008 C 
BRANCH   9  11
ATOM     11  C   UNL     1      49.242   0.443  22.246  1.00  0.00    -0.002 C 
ATOM     12  C   UNL     1      49.354   0.267  23.793  1.00  0.00     0.005 C 
ATOM     13  C   UNL     1      49.747   1.905  21.952  1.00  0.00    -0.026 C 
ATOM     14  C   UNL     1      49.893   1.585  24.361  1.00  0.00     0.005 C 
ATOM     15  C   UNL     1      49.499   2.604  23.307  1.00  0.00    -0.001 C 
ATOM     16  C   UNL     1      49.087   2.736  20.789  1.00  0.00     0.007 C 
ATOM     17  C   UNL     1      51.271   1.816  21.621  1.00  0.00     0.012 C 
ATOM     18  C   UNL     1      50.124   4.005  23.382  1.00  0.00     0.000 C 
ATOM     19  C   UNL     1      48.650   4.170  21.201  1.00  0.00     0.005 C 
ATOM     20  C   UNL     1      49.614   4.910  22.196  1.00  0.00     0.003 C 
ATOM     21  C   UNL     1      49.898   4.618  24.759  1.00  0.00     0.031 C 
ATOM     22  C   UNL     1      49.047   6.340  22.614  1.00  0.00    -0.008 C 
ATOM     23  C   UNL     1      50.289   6.056  24.763  1.00  0.00    -0.027 C 
ATOM     24  C   UNL     1      49.785   6.891  23.838  1.00  0.00    -0.065 C 
ATOM     25  C   UNL     1      47.520   6.345  22.987  1.00  0.00     0.014 C 
ATOM     26  C   UNL     1      49.245   7.277  21.389  1.00  0.00     0.016 C 
ATOM     27  C   UNL     1      49.411   8.281  24.304  1.00  0.00     0.063 C 
ATOM     28  C   UNL     1      47.023   7.695  23.559  1.00  0.00     0.033 C 
ATOM     29  C   UNL     1      47.918   8.277  24.687  1.00  0.00     0.118 C 
BRANCH  29  30
ATOM     30  O   UNL     1      47.730   7.614  25.907  1.00  0.00    -0.393 OA
ATOM     31  H   UNL     1      47.790   6.634  25.763  1.00  0.00     0.210 HD
ENDBRANCH  29  30
ENDBRANCH   9  11
ENDBRANCH   1   9
TORSDOF 7
ENDMDL
MODEL 6
REMARK VINA RESULT:    -6.489      2.143      4.174
REMARK INTER + INTRA:         -10.993
REMARK INTER:                  -9.219
REMARK INTRA:                  -1.774
REMARK UNBOUND:                -2.038
REMARK SMILES CC[C@H](CC[C@@H](C)[C@@H]1CC[C@H]2[C@@H]3CC=C4C[C@H](O)CC[C@]4(C)[C@@H]3CC[C@@]21C)C(C)C
REMARK SMILES IDX 5 1 4 2 3 3 2 4 1 5 28 6 29 7 30 8 6 9 7 10 8 11 9 12 26 13
REMARK SMILES IDX 10 14 11 15 25 16 27 17 12 18 24 19 23 20 13 21 21 22 14 23
REMARK SMILES IDX 15 24 20 25 22 26 16 27 19 28 17 29 18 30
REMARK H PARENT 18 31
REMARK Flexibility Score: inf
ROOT
ATOM      1  C   UNL     1      46.528  -0.798  22.812  1.00  0.00     0.004 C 
ENDROOT
BRANCH   1   2
ATOM      2  C   UNL     1      45.542  -0.719  23.990  1.00  0.00     0.004 C 
BRANCH   2   3
ATOM      3  C   UNL     1      44.303   0.198  23.706  1.00  0.00    -0.009 C 
BRANCH   3   4
ATOM      4  C   UNL     1      43.469  -0.318  22.498  1.00  0.00     0.000 C 
ATOM      5  C   UNL     1      43.255   0.741  21.417  1.00  0.00     0.004 C 
ENDBRANCH   3   4
BRANCH   3   6
ATOM      6  C   UNL     1      43.411   0.425  24.984  1.00  0.00    -0.014 C 
ATOM      7  C   UNL     1      43.357   1.902  25.413  1.00  0.00     0.007 C 
ATOM      8  C   UNL     1      43.922  -0.400  26.183  1.00  0.00     0.007 C 
ENDBRANCH   3   6
ENDBRANCH   2   3
ENDBRANCH   1   2
BRANCH   1   9
ATOM      9  C   UNL     1      47.652   0.272  22.841  1.00  0.00    -0.011 C 
ATOM     10  C   UNL     1      48.987  -0.459  23.105  1.00  0.00     0.008 C 
BRANCH   9  11
ATOM     11  C   UNL     1      47.650   1.193  21.565  1.00  0.00    -0.002 C 
ATOM     12  C   UNL     1      49.064   1.333  20.918  1.00  0.00     0.005 C 
ATOM     13  C   UNL     1      47.115   2.665  21.728  1.00  0.00    -0.026 C 
ATOM     14  C   UNL     1      49.330   2.831  20.729  1.00  0.00     0.005 C 
ATOM     15  C   UNL     1      48.429   3.477  21.767  1.00  0.00    -0.001 C 
ATOM     16  C   UNL     1      46.218   3.033  22.969  1.00  0.00     0.007 C 
ATOM     17  C   UNL     1      46.271   2.999  20.457  1.00  0.00     0.012 C 
ATOM     18  C   UNL     1      48.199   4.993  21.687  1.00  0.00     0.000 C 
ATOM     19  C   UNL     1      46.678   4.308  23.729  1.00  0.00     0.005 C 
ATOM     20  C   UNL     1      47.223   5.473  22.828  1.00  0.00     0.003 C 
ATOM     21  C   UNL     1      49.532   5.735  21.669  1.00  0.00     0.031 C 
ATOM     22  C   UNL     1      47.735   6.705  23.701  1.00  0.00    -0.008 C 
ATOM     23  C   UNL     1      49.316   7.201  21.831  1.00  0.00    -0.027 C 
ATOM     24  C   UNL     1      48.585   7.663  22.860  1.00  0.00    -0.065 C 
ATOM     25  C   UNL     1      48.625   6.299  24.932  1.00  0.00     0.014 C 
ATOM     26  C   UNL     1      46.470   7.429  24.241  1.00  0.00     0.016 C 
ATOM     27  C   UNL     1      49.076   8.925  23.534  1.00  0.00     0.063 C 
ATOM     28  C   UNL     1      49.260   7.504  25.666  1.00  0.00     0.033 C 
ATOM     29  C   UNL     1      49.963   8.523  24.727  1.00  0.00     0.118 C 
BRANCH  29  30
ATOM     30  O   UNL     1      51.205   8.058  24.276  1.00  0.00    -0.393 OA
ATOM     31  H   UNL     1      51.684   7.616  25.024  1.00  0.00     0.210 HD
ENDBRANCH  29  30
ENDBRANCH   9  11
ENDBRANCH   1   9
TORSDOF 7
ENDMDL
MODEL 7
REMARK VINA RESULT:    -6.355     13.179     15.933
REMARK INTER + INTRA:         -10.808
REMARK INTER:                  -8.963
REMARK INTRA:                  -1.845
REMARK UNBOUND:                -2.038
REMARK SMILES CC[C@H](CC[C@@H](C)[C@@H]1CC[C@H]2[C@@H]3CC=C4C[C@H](O)CC[C@]4(C)[C@@H]3CC[C@@]21C)C(C)C
REMARK SMILES IDX 5 1 4 2 3 3 2 4 1 5 28 6 29 7 30 8 6 9 7 10 8 11 9 12 26 13
REMARK SMILES IDX 10 14 11 15 25 16 27 17 12 18 24 19 23 20 13 21 21 22 14 23
REMARK SMILES IDX 15 24 20 25 22 26 16 27 19 28 17 29 18 30
REMARK H PARENT 18 31
REMARK Flexibility Score: inf
ROOT
ATOM      1  C   UNL     1      53.824   8.238   8.506  1.00  0.00     0.004 C 
ENDROOT
BRANCH   1   2
ATOM      2  C   UNL     1      52.542   8.369   9.346  1.00  0.00     0.004 C 
BRANCH   2   3
ATOM      3  C   UNL     1      51.740   9.684   9.055  1.00  0.00    -0.009 C 
BRANCH   3   4
ATOM      4  C   UNL     1      50.422   9.395   8.280  1.00  0.00     0.000 C 
ATOM      5  C   UNL     1      49.586   8.280   8.906  1.00  0.00     0.004 C 
ENDBRANCH   3   4
BRANCH   3   6
ATOM      6  C   UNL     1      51.484  10.538  10.353  1.00  0.00    -0.014 C 
ATOM      7  C   UNL     1      52.508  11.674  10.526  1.00  0.00     0.007 C 
ATOM      8  C   UNL     1      51.527   9.662  11.623  1.00  0.00     0.007 C 
ENDBRANCH   3   6
ENDBRANCH   2   3
ENDBRANCH   1   2
BRANCH   1   9
ATOM      9  C   UNL     1      55.131   8.142   9.336  1.00  0.00    -0.011 C 
ATOM     10  C   UNL     1      56.269   8.761   8.494  1.00  0.00     0.008 C 
BRANCH   9  11
ATOM     11  C   UNL     1      54.982   8.748  10.781  1.00  0.00    -0.002 C 
ATOM     12  C   UNL     1      55.752  10.094  10.955  1.00  0.00     0.005 C 
ATOM     13  C   UNL     1      55.423   7.851  11.998  1.00  0.00    -0.026 C 
ATOM     14  C   UNL     1      56.609   9.966  12.220  1.00  0.00     0.005 C 
ATOM     15  C   UNL     1      56.792   8.466  12.364  1.00  0.00    -0.001 C 
ATOM     16  C   UNL     1      55.566   6.295  11.806  1.00  0.00     0.007 C 
ATOM     17  C   UNL     1      54.376   8.061  13.138  1.00  0.00     0.012 C 
ATOM     18  C   UNL     1      57.357   7.927  13.687  1.00  0.00     0.000 C 
ATOM     19  C   UNL     1      56.907   5.710  12.330  1.00  0.00     0.005 C 
ATOM     20  C   UNL     1      57.453   6.354  13.656  1.00  0.00     0.003 C 
ATOM     21  C   UNL     1      58.677   8.613  14.022  1.00  0.00     0.031 C 
ATOM     22  C   UNL     1      58.864   5.740  14.073  1.00  0.00    -0.008 C 
ATOM     23  C   UNL     1      59.343   7.933  15.170  1.00  0.00    -0.027 C 
ATOM     24  C   UNL     1      59.550   6.606  15.134  1.00  0.00    -0.065 C 
ATOM     25  C   UNL     1      59.887   5.609  12.887  1.00  0.00     0.014 C 
ATOM     26  C   UNL     1      58.585   4.314  14.628  1.00  0.00     0.016 C 
ATOM     27  C   UNL     1      60.865   6.105  15.690  1.00  0.00     0.063 C 
ATOM     28  C   UNL     1      61.306   5.179  13.334  1.00  0.00     0.033 C 
ATOM     29  C   UNL     1      61.871   5.996  14.528  1.00  0.00     0.118 C 
BRANCH  29  30
ATOM     30  O   UNL     1      62.306   7.270  14.139  1.00  0.00    -0.393 OA
ATOM     31  H   UNL     1      63.267   7.373  14.363  1.00  0.00     0.210 HD
ENDBRANCH  29  30
ENDBRANCH   9  11
ENDBRANCH   1   9
TORSDOF 7
ENDMDL
MODEL 8
REMARK VINA RESULT:    -6.294      1.926      3.745
REMARK INTER + INTRA:         -10.723
REMARK INTER:                  -8.173
REMARK INTRA:                  -2.550
REMARK UNBOUND:                -2.038
REMARK SMILES CC[C@H](CC[C@@H](C)[C@@H]1CC[C@H]2[C@@H]3CC=C4C[C@H](O)CC[C@]4(C)[C@@H]3CC[C@@]21C)C(C)C
REMARK SMILES IDX 5 1 4 2 3 3 2 4 1 5 28 6 29 7 30 8 6 9 7 10 8 11 9 12 26 13
REMARK SMILES IDX 10 14 11 15 25 16 27 17 12 18 24 19 23 20 13 21 21 22 14 23
REMARK SMILES IDX 15 24 20 25 22 26 16 27 19 28 17 29 18 30
REMARK H PARENT 18 31
REMARK Flexibility Score: inf
ROOT
ATOM      1  C   UNL     1      46.894   0.988  23.743  1.00  0.00     0.004 C 
ENDROOT
BRANCH   1   2
ATOM      2  C   UNL     1      48.106   0.174  24.229  1.00  0.00     0.004 C 
BRANCH   2   3
ATOM      3  C   UNL     1      49.453   0.974  24.183  1.00  0.00    -0.009 C 
BRANCH   3   4
ATOM      4  C   UNL     1      50.275   0.644  22.904  1.00  0.00     0.000 C 
ATOM      5  C   UNL     1      50.164  -0.819  22.476  1.00  0.00     0.004 C 
ENDBRANCH   3   4
BRANCH   3   6
ATOM      6  C   UNL     1      49.243   2.524  24.364  1.00  0.00    -0.014 C 
ATOM      7  C   UNL     1      50.323   3.355  23.648  1.00  0.00     0.007 C 
ATOM      8  C   UNL     1      49.247   2.923  25.855  1.00  0.00     0.007 C 
ENDBRANCH   3   6
ENDBRANCH   2   3
ENDBRANCH   1   2
BRANCH   1   9
ATOM      9  C   UNL     1      46.196   0.413  22.482  1.00  0.00    -0.011 C 
ATOM     10  C   UNL     1      44.745   0.055  22.872  1.00  0.00     0.008 C 
BRANCH   9  11
ATOM     11  C   UNL     1      46.325   1.356  21.229  1.00  0.00    -0.002 C 
ATOM     12  C   UNL     1      47.737   1.294  20.567  1.00  0.00     0.005 C 
ATOM     13  C   UNL     1      46.024   2.888  21.435  1.00  0.00    -0.026 C 
ATOM     14  C   UNL     1      48.228   2.738  20.411  1.00  0.00     0.005 C 
ATOM     15  C   UNL     1      47.447   3.487  21.476  1.00  0.00    -0.001 C 
ATOM     16  C   UNL     1      45.206   3.358  22.696  1.00  0.00     0.007 C 
ATOM     17  C   UNL     1      45.229   3.381  20.184  1.00  0.00     0.012 C 
ATOM     18  C   UNL     1      47.453   5.023  21.436  1.00  0.00     0.000 C 
ATOM     19  C   UNL     1      45.864   4.526  23.481  1.00  0.00     0.005 C 
ATOM     20  C   UNL     1      46.574   5.617  22.601  1.00  0.00     0.003 C 
ATOM     21  C   UNL     1      48.883   5.550  21.418  1.00  0.00     0.031 C 
ATOM     22  C   UNL     1      47.278   6.732  23.497  1.00  0.00    -0.008 C 
ATOM     23  C   UNL     1      48.898   7.028  21.617  1.00  0.00    -0.027 C 
ATOM     24  C   UNL     1      48.257   7.569  22.667  1.00  0.00    -0.065 C 
ATOM     25  C   UNL     1      48.106   6.162  24.705  1.00  0.00     0.014 C 
ATOM     26  C   UNL     1      46.144   7.628  24.071  1.00  0.00     0.016 C 
ATOM     27  C   UNL     1      48.942   8.724  23.365  1.00  0.00     0.063 C 
ATOM     28  C   UNL     1      48.927   7.237  25.459  1.00  0.00     0.033 C 
ATOM     29  C   UNL     1      49.768   8.159  24.536  1.00  0.00     0.118 C 
BRANCH  29  30
ATOM     30  O   UNL     1      50.919   7.520  24.057  1.00  0.00    -0.393 OA
ATOM     31  H   UNL     1      50.772   7.234  23.118  1.00  0.00     0.210 HD
ENDBRANCH  29  30
ENDBRANCH   9  11
ENDBRANCH   1   9
TORSDOF 7
ENDMDL
MODEL 9
REMARK VINA RESULT:    -6.237     12.576     15.975
REMARK INTER + INTRA:         -10.644
REMARK INTER:                  -8.669
REMARK INTRA:                  -1.975
REMARK UNBOUND:                -2.038
REMARK SMILES CC[C@H](CC[C@@H](C)[C@@H]1CC[C@H]2[C@@H]3CC=C4C[C@H](O)CC[C@]4(C)[C@@H]3CC[C@@]21C)C(C)C
REMARK SMILES IDX 5 1 4 2 3 3 2 4 1 5 28 6 29 7 30 8 6 9 7 10 8 11 9 12 26 13
REMARK SMILES IDX 10 14 11 15 25 16 27 17 12 18 24 19 23 20 13 21 21 22 14 23
REMARK SMILES IDX 15 24 20 25 22 26 16 27 19 28 17 29 18 30
REMARK H PARENT 18 31
REMARK Flexibility Score: inf
ROOT
ATOM      1  C   UNL     1      53.621   9.386   8.416  1.00  0.00     0.004 C 
ENDROOT
BRANCH   1   2
ATOM      2  C   UNL     1      52.827  10.636   8.831  1.00  0.00     0.004 C 
BRANCH   2   3
ATOM      3  C   UNL     1      51.494  10.305   9.586  1.00  0.00    -0.009 C 
BRANCH   3   4
ATOM      4  C   UNL     1      51.073   8.820   9.388  1.00  0.00     0.000 C 
ATOM      5  C   UNL     1      49.714   8.664   8.708  1.00  0.00     0.004 C 
ENDBRANCH   3   4
BRANCH   3   6
ATOM      6  C   UNL     1      51.544  10.705  11.109  1.00  0.00    -0.014 C 
ATOM      7  C   UNL     1      52.751  11.599  11.446  1.00  0.00     0.007 C 
ATOM      8  C   UNL     1      51.606   9.459  12.017  1.00  0.00     0.007 C 
ENDBRANCH   3   6
ENDBRANCH   2   3
ENDBRANCH   1   2
BRANCH   1   9
ATOM      9  C   UNL     1      54.483   8.766   9.547  1.00  0.00    -0.011 C 
ATOM     10  C   UNL     1      54.892   7.345   9.099  1.00  0.00     0.008 C 
BRANCH   9  11
ATOM     11  C   UNL     1      55.683   9.689   9.975  1.00  0.00    -0.002 C 
ATOM     12  C   UNL     1      56.971   9.439   9.128  1.00  0.00     0.005 C 
ATOM     13  C   UNL     1      56.151   9.628  11.478  1.00  0.00    -0.026 C 
ATOM     14  C   UNL     1      58.128   9.233  10.112  1.00  0.00     0.005 C 
ATOM     15  C   UNL     1      57.429   8.767  11.377  1.00  0.00    -0.001 C 
ATOM     16  C   UNL     1      55.185   9.032  12.569  1.00  0.00     0.007 C 
ATOM     17  C   UNL     1      56.476  11.088  11.926  1.00  0.00     0.012 C 
ATOM     18  C   UNL     1      58.236   8.736  12.683  1.00  0.00     0.000 C 
ATOM     19  C   UNL     1      55.845   7.967  13.488  1.00  0.00     0.005 C 
ATOM     20  C   UNL     1      57.340   8.248  13.884  1.00  0.00     0.003 C 
ATOM     21  C   UNL     1      59.513   7.921  12.502  1.00  0.00     0.031 C 
ATOM     22  C   UNL     1      57.949   7.068  14.766  1.00  0.00    -0.008 C 
ATOM     23  C   UNL     1      60.176   7.690  13.818  1.00  0.00    -0.027 C 
ATOM     24  C   UNL     1      59.476   7.166  14.839  1.00  0.00    -0.065 C 
ATOM     25  C   UNL     1      57.629   5.627  14.226  1.00  0.00     0.014 C 
ATOM     26  C   UNL     1      57.325   7.199  16.184  1.00  0.00     0.016 C 
ATOM     27  C   UNL     1      60.193   6.157  15.710  1.00  0.00     0.063 C 
ATOM     28  C   UNL     1      58.370   4.499  14.984  1.00  0.00     0.033 C 
ATOM     29  C   UNL     1      59.893   4.748  15.166  1.00  0.00     0.118 C 
BRANCH  29  30
ATOM     30  O   UNL     1      60.611   4.518  13.986  1.00  0.00    -0.393 OA
ATOM     31  H   UNL     1      60.506   5.295  13.378  1.00  0.00     0.210 HD
ENDBRANCH  29  30
ENDBRANCH   9  11
ENDBRANCH   1   9
TORSDOF 7
ENDMDL
