MODEL 1
REMARK VINA RESULT:    -3.436      0.000      0.000
REMARK INTER + INTRA:          -7.616
REMARK INTER:                  -5.847
REMARK INTRA:                  -1.769
REMARK UNBOUND:                -1.769
REMARK SMILES CCCCCCCCCCCCCC(=O)[O-]
REMARK SMILES IDX 8 1 9 2 10 3 11 4 12 5 13 6 14 7 15 8 16 9 7 10 6 11 5 12
REMARK SMILES IDX 4 13 3 14 2 15 1 16
REMARK H PARENT
REMARK Flexibility Score: inf
ROOT
ATOM      1  C   UNL     1      10.939  -2.583  43.997  1.00  0.00     0.000 C 
ENDROOT
BRANCH   1   2
ATOM      2  C   UNL     1       9.806  -3.506  43.500  1.00  0.00     0.000 C 
BRANCH   2   3
ATOM      3  C   UNL     1       9.331  -4.565  44.512  1.00  0.00     0.000 C 
BRANCH   3   4
ATOM      4  C   UNL     1       9.016  -5.920  43.854  1.00  0.00     0.000 C 
BRANCH   4   5
ATOM      5  C   UNL     1       9.536  -6.009  42.410  1.00  0.00     0.006 C 
BRANCH   5   6
ATOM      6  C   UNL     1       8.426  -6.322  41.399  1.00  0.00     0.053 C 
BRANCH   6   7
ATOM      7  C   UNL     1       7.914  -7.713  41.601  1.00  0.00     0.041 C 
ATOM      8  O   UNL     1       6.714  -7.905  41.934  1.00  0.00    -0.550 OA
ATOM      9  O   UNL     1       8.747  -8.801  41.376  1.00  0.00    -0.550 OA
ENDBRANCH   6   7
ENDBRANCH   5   6
ENDBRANCH   4   5
ENDBRANCH   3   4
ENDBRANCH   2   3
ENDBRANCH   1   2
BRANCH   1  10
ATOM     10  C   UNL     1      11.021  -2.414  45.525  1.00  0.00     0.000 C 
BRANCH  10  11
ATOM     11  C   UNL     1      12.320  -2.979  46.120  1.00  0.00    -0.000 C 
BRANCH  11  12
ATOM     12  C   UNL     1      13.115  -3.758  45.060  1.00  0.00    -0.000 C 
BRANCH  12  13
ATOM     13  C   UNL     1      12.986  -5.281  45.238  1.00  0.00    -0.000 C 
BRANCH  13  14
ATOM     14  C   UNL     1      13.000  -6.057  43.902  1.00  0.00    -0.000 C 
BRANCH  14  15
ATOM     15  C   UNL     1      13.133  -5.149  42.669  1.00  0.00    -0.003 C 
ATOM     16  C   UNL     1      14.392  -5.434  41.852  1.00  0.00     0.004 C 
ENDBRANCH  14  15
ENDBRANCH  13  14
ENDBRANCH  12  13
ENDBRANCH  11  12
ENDBRANCH  10  11
ENDBRANCH   1  10
TORSDOF 12
ENDMDL
MODEL 2
REMARK VINA RESULT:    -3.338      1.674      3.317
REMARK INTER + INTRA:          -7.449
REMARK INTER:                  -6.007
REMARK INTRA:                  -1.442
REMARK UNBOUND:                -1.769
REMARK SMILES CCCCCCCCCCCCCC(=O)[O-]
REMARK SMILES IDX 8 1 9 2 10 3 11 4 12 5 13 6 14 7 15 8 16 9 7 10 6 11 5 12
REMARK SMILES IDX 4 13 3 14 2 15 1 16
REMARK H PARENT
REMARK Flexibility Score: inf
ROOT
ATOM      1  C   UNL     1      10.044  -6.549  43.704  1.00  0.00     0.000 C 
ENDROOT
BRANCH   1   2
ATOM      2  C   UNL     1       9.998  -6.635  42.164  1.00  0.00     0.000 C 
BRANCH   2   3
ATOM      3  C   UNL     1       8.780  -5.962  41.506  1.00  0.00     0.000 C 
BRANCH   3   4
ATOM      4  C   UNL     1       8.540  -6.442  40.064  1.00  0.00     0.000 C 
BRANCH   4   5
ATOM      5  C   UNL     1       9.596  -7.456  39.596  1.00  0.00     0.006 C 
BRANCH   5   6
ATOM      6  C   UNL     1       9.027  -8.497  38.624  1.00  0.00     0.053 C 
BRANCH   6   7
ATOM      7  C   UNL     1       8.259  -9.541  39.370  1.00  0.00     0.041 C 
ATOM      8  O   UNL     1       7.319 -10.162  38.806  1.00  0.00    -0.550 OA
ATOM      9  O   UNL     1       8.612  -9.866  40.674  1.00  0.00    -0.550 OA
ENDBRANCH   6   7
ENDBRANCH   5   6
ENDBRANCH   4   5
ENDBRANCH   3   4
ENDBRANCH   2   3
ENDBRANCH   1   2
BRANCH   1  10
ATOM     10  C   UNL     1       8.908  -5.733  44.347  1.00  0.00     0.000 C 
BRANCH  10  11
ATOM     11  C   UNL     1       9.400  -4.430  44.994  1.00  0.00    -0.000 C 
BRANCH  11  12
ATOM     12  C   UNL     1       9.571  -3.324  43.940  1.00  0.00    -0.000 C 
BRANCH  12  13
ATOM     13  C   UNL     1      11.017  -2.802  43.873  1.00  0.00    -0.000 C 
BRANCH  13  14
ATOM     14  C   UNL     1      11.902  -3.301  45.037  1.00  0.00    -0.000 C 
BRANCH  14  15
ATOM     15  C   UNL     1      13.036  -4.237  44.586  1.00  0.00    -0.003 C 
ATOM     16  C   UNL     1      13.017  -4.512  43.084  1.00  0.00     0.004 C 
ENDBRANCH  14  15
ENDBRANCH  13  14
ENDBRANCH  12  13
ENDBRANCH  11  12
ENDBRANCH  10  11
ENDBRANCH   1  10
TORSDOF 12
ENDMDL
MODEL 3
REMARK VINA RESULT:    -3.338      1.979      2.952
REMARK INTER + INTRA:          -7.449
REMARK INTER:                  -6.447
REMARK INTRA:                  -1.002
REMARK UNBOUND:                -1.769
REMARK SMILES CCCCCCCCCCCCCC(=O)[O-]
REMARK SMILES IDX 8 1 9 2 10 3 11 4 12 5 13 6 14 7 15 8 16 9 7 10 6 11 5 12
REMARK SMILES IDX 4 13 3 14 2 15 1 16
REMARK H PARENT
REMARK Flexibility Score: inf
ROOT
ATOM      1  C   UNL     1       9.357  -5.099  44.386  1.00  0.00     0.000 C 
ENDROOT
BRANCH   1   2
ATOM      2  C   UNL     1       9.771  -5.456  42.944  1.00  0.00     0.000 C 
BRANCH   2   3
ATOM      3  C   UNL     1       8.798  -6.382  42.192  1.00  0.00     0.000 C 
BRANCH   3   4
ATOM      4  C   UNL     1       8.507  -5.903  40.758  1.00  0.00     0.000 C 
BRANCH   4   5
ATOM      5  C   UNL     1       8.428  -7.064  39.753  1.00  0.00     0.006 C 
BRANCH   5   6
ATOM      6  C   UNL     1       9.807  -7.631  39.395  1.00  0.00     0.053 C 
BRANCH   6   7
ATOM      7  C   UNL     1       9.689  -8.627  38.286  1.00  0.00     0.041 C 
ATOM      8  O   UNL     1       8.558  -8.925  37.819  1.00  0.00    -0.550 OA
ATOM      9  O   UNL     1      10.832  -9.191  37.733  1.00  0.00    -0.550 OA
ENDBRANCH   6   7
ENDBRANCH   5   6
ENDBRANCH   4   5
ENDBRANCH   3   4
ENDBRANCH   2   3
ENDBRANCH   1   2
BRANCH   1  10
ATOM     10  C   UNL     1       9.229  -3.592  44.676  1.00  0.00     0.000 C 
BRANCH  10  11
ATOM     11  C   UNL     1      10.542  -2.827  44.450  1.00  0.00    -0.000 C 
BRANCH  11  12
ATOM     12  C   UNL     1      11.163  -2.396  45.788  1.00  0.00    -0.000 C 
BRANCH  12  13
ATOM     13  C   UNL     1      12.635  -2.829  45.912  1.00  0.00    -0.000 C 
BRANCH  13  14
ATOM     14  C   UNL     1      12.893  -4.269  45.417  1.00  0.00    -0.000 C 
BRANCH  14  15
ATOM     15  C   UNL     1      13.965  -4.356  44.319  1.00  0.00    -0.003 C 
ATOM     16  C   UNL     1      13.389  -4.725  42.953  1.00  0.00     0.004 C 
ENDBRANCH  14  15
ENDBRANCH  13  14
ENDBRANCH  12  13
ENDBRANCH  11  12
ENDBRANCH  10  11
ENDBRANCH   1  10
TORSDOF 12
ENDMDL
MODEL 4
REMARK VINA RESULT:    -3.331      1.511      3.396
REMARK INTER + INTRA:          -7.436
REMARK INTER:                  -6.364
REMARK INTRA:                  -1.072
REMARK UNBOUND:                -1.769
REMARK SMILES CCCCCCCCCCCCCC(=O)[O-]
REMARK SMILES IDX 8 1 9 2 10 3 11 4 12 5 13 6 14 7 15 8 16 9 7 10 6 11 5 12
REMARK SMILES IDX 4 13 3 14 2 15 1 16
REMARK H PARENT
REMARK Flexibility Score: inf
ROOT
ATOM      1  C   UNL     1       9.439  -5.665  42.797  1.00  0.00     0.000 C 
ENDROOT
BRANCH   1   2
ATOM      2  C   UNL     1       8.477  -6.469  41.897  1.00  0.00     0.000 C 
BRANCH   2   3
ATOM      3  C   UNL     1       8.436  -6.028  40.423  1.00  0.00     0.000 C 
BRANCH   3   4
ATOM      4  C   UNL     1       8.407  -7.216  39.445  1.00  0.00     0.000 C 
BRANCH   4   5
ATOM      5  C   UNL     1       8.317  -8.571  40.166  1.00  0.00     0.006 C 
BRANCH   5   6
ATOM      6  C   UNL     1       7.110  -9.402  39.715  1.00  0.00     0.053 C 
BRANCH   6   7
ATOM      7  C   UNL     1       5.942  -9.157  40.616  1.00  0.00     0.041 C 
ATOM      8  O   UNL     1       4.784  -9.034  40.136  1.00  0.00    -0.550 OA
ATOM      9  O   UNL     1       6.123  -9.112  41.993  1.00  0.00    -0.550 OA
ENDBRANCH   6   7
ENDBRANCH   5   6
ENDBRANCH   4   5
ENDBRANCH   3   4
ENDBRANCH   2   3
ENDBRANCH   1   2
BRANCH   1  10
ATOM     10  C   UNL     1       9.060  -5.628  44.288  1.00  0.00     0.000 C 
BRANCH  10  11
ATOM     11  C   UNL     1       9.093  -4.209  44.878  1.00  0.00    -0.000 C 
BRANCH  11  12
ATOM     12  C   UNL     1       9.814  -3.238  43.930  1.00  0.00    -0.000 C 
BRANCH  12  13
ATOM     13  C   UNL     1      11.104  -2.671  44.549  1.00  0.00    -0.000 C 
BRANCH  13  14
ATOM     14  C   UNL     1      12.054  -3.762  45.090  1.00  0.00    -0.000 C 
BRANCH  14  15
ATOM     15  C   UNL     1      13.308  -3.966  44.224  1.00  0.00    -0.003 C 
ATOM     16  C   UNL     1      13.032  -4.777  42.960  1.00  0.00     0.004 C 
ENDBRANCH  14  15
ENDBRANCH  13  14
ENDBRANCH  12  13
ENDBRANCH  11  12
ENDBRANCH  10  11
ENDBRANCH   1  10
TORSDOF 12
ENDMDL
MODEL 5
REMARK VINA RESULT:    -3.316     11.992     14.035
REMARK INTER + INTRA:          -7.412
REMARK INTER:                  -5.716
REMARK INTRA:                  -1.696
REMARK UNBOUND:                -1.769
REMARK SMILES CCCCCCCCCCCCCC(=O)[O-]
REMARK SMILES IDX 8 1 9 2 10 3 11 4 12 5 13 6 14 7 15 8 16 9 7 10 6 11 5 12
REMARK SMILES IDX 4 13 3 14 2 15 1 16
REMARK H PARENT
REMARK Flexibility Score: inf
ROOT
ATOM      1  C   UNL     1       8.252  -7.547  31.719  1.00  0.00     0.000 C 
ENDROOT
BRANCH   1   2
ATOM      2  C   UNL     1       8.315  -6.038  31.406  1.00  0.00     0.000 C 
BRANCH   2   3
ATOM      3  C   UNL     1       9.711  -5.401  31.523  1.00  0.00     0.000 C 
BRANCH   3   4
ATOM      4  C   UNL     1      10.838  -6.445  31.614  1.00  0.00     0.000 C 
BRANCH   4   5
ATOM      5  C   UNL     1      11.845  -6.329  30.459  1.00  0.00     0.006 C 
BRANCH   5   6
ATOM      6  C   UNL     1      11.179  -5.965  29.127  1.00  0.00     0.053 C 
BRANCH   6   7
ATOM      7  C   UNL     1      10.520  -7.167  28.527  1.00  0.00     0.041 C 
ATOM      8  O   UNL     1      11.127  -8.270  28.489  1.00  0.00    -0.550 OA
ATOM      9  O   UNL     1       9.217  -7.083  28.054  1.00  0.00    -0.550 OA
ENDBRANCH   6   7
ENDBRANCH   5   6
ENDBRANCH   4   5
ENDBRANCH   3   4
ENDBRANCH   2   3
ENDBRANCH   1   2
BRANCH   1  10
ATOM     10  C   UNL     1       7.362  -8.374  30.774  1.00  0.00     0.000 C 
BRANCH  10  11
ATOM     11  C   UNL     1       6.289  -7.528  30.072  1.00  0.00    -0.000 C 
BRANCH  11  12
ATOM     12  C   UNL     1       4.915  -7.727  30.732  1.00  0.00    -0.000 C 
BRANCH  12  13
ATOM     13  C   UNL     1       4.504  -6.519  31.593  1.00  0.00    -0.000 C 
BRANCH  13  14
ATOM     14  C   UNL     1       4.593  -6.791  33.111  1.00  0.00    -0.000 C 
BRANCH  14  15
ATOM     15  C   UNL     1       4.610  -8.287  33.465  1.00  0.00    -0.003 C 
ATOM     16  C   UNL     1       5.867  -8.704  34.226  1.00  0.00     0.004 C 
ENDBRANCH  14  15
ENDBRANCH  13  14
ENDBRANCH  12  13
ENDBRANCH  11  12
ENDBRANCH  10  11
ENDBRANCH   1  10
TORSDOF 12
ENDMDL
MODEL 6
REMARK VINA RESULT:    -3.252      2.244      4.872
REMARK INTER + INTRA:          -7.303
REMARK INTER:                  -6.041
REMARK INTRA:                  -1.262
REMARK UNBOUND:                -1.769
REMARK SMILES CCCCCCCCCCCCCC(=O)[O-]
REMARK SMILES IDX 8 1 9 2 10 3 11 4 12 5 13 6 14 7 15 8 16 9 7 10 6 11 5 12
REMARK SMILES IDX 4 13 3 14 2 15 1 16
REMARK H PARENT
REMARK Flexibility Score: inf
ROOT
ATOM      1  C   UNL     1      10.392  -3.013  44.463  1.00  0.00     0.000 C 
ENDROOT
BRANCH   1   2
ATOM      2  C   UNL     1      11.149  -2.287  45.595  1.00  0.00     0.000 C 
BRANCH   2   3
ATOM      3  C   UNL     1      12.541  -2.857  45.924  1.00  0.00     0.000 C 
BRANCH   3   4
ATOM      4  C   UNL     1      12.705  -4.322  45.483  1.00  0.00     0.000 C 
BRANCH   4   5
ATOM      5  C   UNL     1      13.866  -4.515  44.494  1.00  0.00     0.006 C 
BRANCH   5   6
ATOM      6  C   UNL     1      13.414  -4.446  43.030  1.00  0.00     0.053 C 
BRANCH   6   7
ATOM      7  C   UNL     1      13.640  -5.760  42.353  1.00  0.00     0.041 C 
ATOM      8  O   UNL     1      14.313  -5.818  41.289  1.00  0.00    -0.550 OA
ATOM      9  O   UNL     1      13.150  -6.929  42.920  1.00  0.00    -0.550 OA
ENDBRANCH   6   7
ENDBRANCH   5   6
ENDBRANCH   4   5
ENDBRANCH   3   4
ENDBRANCH   2   3
ENDBRANCH   1   2
BRANCH   1  10
ATOM     10  C   UNL     1       9.127  -3.771  44.905  1.00  0.00     0.000 C 
BRANCH  10  11
ATOM     11  C   UNL     1       9.103  -5.228  44.418  1.00  0.00    -0.000 C 
BRANCH  11  12
ATOM     12  C   UNL     1       9.914  -5.387  43.122  1.00  0.00    -0.000 C 
BRANCH  12  13
ATOM     13  C   UNL     1       9.590  -6.702  42.391  1.00  0.00    -0.000 C 
BRANCH  13  14
ATOM     14  C   UNL     1       8.285  -6.638  41.566  1.00  0.00    -0.000 C 
BRANCH  14  15
ATOM     15  C   UNL     1       8.521  -6.403  40.065  1.00  0.00    -0.003 C 
ATOM     16  C   UNL     1       9.330  -7.519  39.408  1.00  0.00     0.004 C 
ENDBRANCH  14  15
ENDBRANCH  13  14
ENDBRANCH  12  13
ENDBRANCH  11  12
ENDBRANCH  10  11
ENDBRANCH   1  10
TORSDOF 12
ENDMDL
MODEL 7
REMARK VINA RESULT:    -3.223      2.685      5.348
REMARK INTER + INTRA:          -7.253
REMARK INTER:                  -5.822
REMARK INTRA:                  -1.431
REMARK UNBOUND:                -1.769
REMARK SMILES CCCCCCCCCCCCCC(=O)[O-]
REMARK SMILES IDX 8 1 9 2 10 3 11 4 12 5 13 6 14 7 15 8 16 9 7 10 6 11 5 12
REMARK SMILES IDX 4 13 3 14 2 15 1 16
REMARK H PARENT
REMARK Flexibility Score: inf
ROOT
ATOM      1  C   UNL     1       9.392  -5.870  43.975  1.00  0.00     0.000 C 
ENDROOT
BRANCH   1   2
ATOM      2  C   UNL     1       9.157  -4.628  44.860  1.00  0.00     0.000 C 
BRANCH   2   3
ATOM      3  C   UNL     1       9.571  -3.286  44.230  1.00  0.00     0.000 C 
BRANCH   3   4
ATOM      4  C   UNL     1      10.643  -2.547  45.051  1.00  0.00     0.000 C 
BRANCH   4   5
ATOM      5  C   UNL     1      11.535  -3.506  45.856  1.00  0.00     0.006 C 
BRANCH   5   6
ATOM      6  C   UNL     1      12.921  -3.694  45.226  1.00  0.00     0.053 C 
BRANCH   6   7
ATOM      7  C   UNL     1      12.892  -4.802  44.222  1.00  0.00     0.041 C 
ATOM      8  O   UNL     1      12.851  -4.542  42.990  1.00  0.00    -0.550 OA
ATOM      9  O   UNL     1      12.959  -6.124  44.643  1.00  0.00    -0.550 OA
ENDBRANCH   6   7
ENDBRANCH   5   6
ENDBRANCH   4   5
ENDBRANCH   3   4
ENDBRANCH   2   3
ENDBRANCH   1   2
BRANCH   1  10
ATOM     10  C   UNL     1       9.397  -5.601  42.460  1.00  0.00     0.000 C 
BRANCH  10  11
ATOM     11  C   UNL     1       8.313  -6.390  41.709  1.00  0.00    -0.000 C 
BRANCH  11  12
ATOM     12  C   UNL     1       8.492  -6.258  40.189  1.00  0.00    -0.000 C 
BRANCH  12  13
ATOM     13  C   UNL     1       8.931  -7.581  39.537  1.00  0.00    -0.000 C 
BRANCH  13  14
ATOM     14  C   UNL     1      10.462  -7.703  39.371  1.00  0.00    -0.000 C 
BRANCH  14  15
ATOM     15  C   UNL     1      11.144  -8.461  40.522  1.00  0.00    -0.003 C 
ATOM     16  C   UNL     1      12.216  -7.633  41.228  1.00  0.00     0.004 C 
ENDBRANCH  14  15
ENDBRANCH  13  14
ENDBRANCH  12  13
ENDBRANCH  11  12
ENDBRANCH  10  11
ENDBRANCH   1  10
TORSDOF 12
ENDMDL
MODEL 8
REMARK VINA RESULT:    -3.219      2.636      4.374
REMARK INTER + INTRA:          -7.246
REMARK INTER:                  -5.846
REMARK INTRA:                  -1.400
REMARK UNBOUND:                -1.769
REMARK SMILES CCCCCCCCCCCCCC(=O)[O-]
REMARK SMILES IDX 8 1 9 2 10 3 11 4 12 5 13 6 14 7 15 8 16 9 7 10 6 11 5 12
REMARK SMILES IDX 4 13 3 14 2 15 1 16
REMARK H PARENT
REMARK Flexibility Score: inf
ROOT
ATOM      1  C   UNL     1       9.656  -7.002  42.510  1.00  0.00     0.000 C 
ENDROOT
BRANCH   1   2
ATOM      2  C   UNL     1       8.770  -5.953  41.807  1.00  0.00     0.000 C 
BRANCH   2   3
ATOM      3  C   UNL     1       8.603  -6.146  40.289  1.00  0.00     0.000 C 
BRANCH   3   4
ATOM      4  C   UNL     1       8.099  -7.552  39.918  1.00  0.00     0.000 C 
BRANCH   4   5
ATOM      5  C   UNL     1       8.968  -8.227  38.845  1.00  0.00     0.006 C 
BRANCH   5   6
ATOM      6  C   UNL     1      10.469  -8.046  39.100  1.00  0.00     0.053 C 
BRANCH   6   7
ATOM      7  C   UNL     1      11.254  -8.431  37.887  1.00  0.00     0.041 C 
ATOM      8  O   UNL     1      11.165  -9.597  37.417  1.00  0.00    -0.550 OA
ATOM      9  O   UNL     1      12.047  -7.489  37.243  1.00  0.00    -0.550 OA
ENDBRANCH   6   7
ENDBRANCH   5   6
ENDBRANCH   4   5
ENDBRANCH   3   4
ENDBRANCH   2   3
ENDBRANCH   1   2
BRANCH   1  10
ATOM     10  C   UNL     1       9.697  -6.900  44.046  1.00  0.00     0.000 C 
BRANCH  10  11
ATOM     11  C   UNL     1       8.758  -5.816  44.597  1.00  0.00    -0.000 C 
BRANCH  11  12
ATOM     12  C   UNL     1       9.554  -4.707  45.303  1.00  0.00    -0.000 C 
BRANCH  12  13
ATOM     13  C   UNL     1       9.417  -3.349  44.591  1.00  0.00    -0.000 C 
BRANCH  13  14
ATOM     14  C   UNL     1      10.624  -3.007  43.690  1.00  0.00    -0.000 C 
BRANCH  14  15
ATOM     15  C   UNL     1      11.948  -3.613  44.183  1.00  0.00    -0.003 C 
ATOM     16  C   UNL     1      12.606  -4.525  43.149  1.00  0.00     0.004 C 
ENDBRANCH  14  15
ENDBRANCH  13  14
ENDBRANCH  12  13
ENDBRANCH  11  12
ENDBRANCH  10  11
ENDBRANCH   1  10
TORSDOF 12
ENDMDL
MODEL 9
REMARK VINA RESULT:    -3.214      1.442      3.446
REMARK INTER + INTRA:          -7.238
REMARK INTER:                  -5.798
REMARK INTRA:                  -1.440
REMARK UNBOUND:                -1.769
REMARK SMILES CCCCCCCCCCCCCC(=O)[O-]
REMARK SMILES IDX 8 1 9 2 10 3 11 4 12 5 13 6 14 7 15 8 16 9 7 10 6 11 5 12
REMARK SMILES IDX 4 13 3 14 2 15 1 16
REMARK H PARENT
REMARK Flexibility Score: inf
ROOT
ATOM      1  C   UNL     1      12.971  -5.942  42.800  1.00  0.00     0.000 C 
ENDROOT
BRANCH   1   2
ATOM      2  C   UNL     1      11.666  -6.702  42.481  1.00  0.00     0.000 C 
BRANCH   2   3
ATOM      3  C   UNL     1      11.736  -7.645  41.266  1.00  0.00     0.000 C 
BRANCH   3   4
ATOM      4  C   UNL     1      10.432  -7.664  40.449  1.00  0.00     0.000 C 
BRANCH   4   5
ATOM      5  C   UNL     1       9.377  -6.691  41.001  1.00  0.00     0.006 C 
BRANCH   5   6
ATOM      6  C   UNL     1       8.005  -6.868  40.337  1.00  0.00     0.053 C 
BRANCH   6   7
ATOM      7  C   UNL     1       7.062  -7.562  41.267  1.00  0.00     0.041 C 
ATOM      8  O   UNL     1       5.934  -7.946  40.857  1.00  0.00    -0.550 OA
ATOM      9  O   UNL     1       7.445  -7.830  42.575  1.00  0.00    -0.550 OA
ENDBRANCH   6   7
ENDBRANCH   5   6
ENDBRANCH   4   5
ENDBRANCH   3   4
ENDBRANCH   2   3
ENDBRANCH   1   2
BRANCH   1  10
ATOM     10  C   UNL     1      12.796  -4.445  43.111  1.00  0.00     0.000 C 
BRANCH  10  11
ATOM     11  C   UNL     1      13.033  -4.111  44.591  1.00  0.00    -0.000 C 
BRANCH  11  12
ATOM     12  C   UNL     1      12.009  -3.081  45.092  1.00  0.00    -0.000 C 
BRANCH  12  13
ATOM     13  C   UNL     1      10.849  -2.884  44.100  1.00  0.00    -0.000 C 
BRANCH  13  14
ATOM     14  C   UNL     1       9.491  -3.389  44.637  1.00  0.00    -0.000 C 
BRANCH  14  15
ATOM     15  C   UNL     1       9.202  -4.857  44.286  1.00  0.00    -0.003 C 
ATOM     16  C   UNL     1       9.532  -5.818  45.427  1.00  0.00     0.004 C 
ENDBRANCH  14  15
ENDBRANCH  13  14
ENDBRANCH  12  13
ENDBRANCH  11  12
ENDBRANCH  10  11
ENDBRANCH   1  10
TORSDOF 12
ENDMDL
