MODEL 1
REMARK VINA RESULT:    -4.029      0.000      0.000
REMARK INTER + INTRA:          -4.725
REMARK INTER:                  -4.500
REMARK INTRA:                  -0.225
REMARK UNBOUND:                -0.225
REMARK SMILES O=C([O-])c1ccccc1C(=O)[O-]
REMARK SMILES IDX 4 1 9 2 5 3 8 4 6 5 7 6 2 7 1 8 3 9 10 10 11 11 12 12
REMARK H PARENT
REMARK Flexibility Score: inf
ROOT
ATOM      1  C   UNL     1      -7.213  -0.598  -5.487  1.00  0.00     0.006 A 
ATOM      2  C   UNL     1      -8.188  -1.360  -6.190  1.00  0.00     0.006 A 
ATOM      3  C   UNL     1      -5.961  -1.178  -5.209  1.00  0.00     0.010 A 
ATOM      4  C   UNL     1      -7.897  -2.692  -6.533  1.00  0.00     0.010 A 
ATOM      5  C   UNL     1      -5.687  -2.495  -5.578  1.00  0.00     0.001 A 
ATOM      6  C   UNL     1      -6.657  -3.255  -6.228  1.00  0.00     0.001 A 
ENDROOT
BRANCH   1   7
ATOM      7  C   UNL     1      -7.484   0.762  -4.966  1.00  0.00     0.072 C 
ATOM      8  O   UNL     1      -7.039   1.773  -5.572  1.00  0.00    -0.545 OA
ATOM      9  O   UNL     1      -8.174   0.940  -3.773  1.00  0.00    -0.545 OA
ENDBRANCH   1   7
BRANCH   2  10
ATOM     10  C   UNL     1      -9.478  -0.793  -6.647  1.00  0.00     0.072 C 
ATOM     11  O   UNL     1     -10.530  -0.960  -5.976  1.00  0.00    -0.545 OA
ATOM     12  O   UNL     1      -9.528  -0.009  -7.795  1.00  0.00    -0.545 OA
ENDBRANCH   2  10
TORSDOF 2
ENDMDL
MODEL 2
REMARK VINA RESULT:    -4.011      0.053      3.154
REMARK INTER + INTRA:          -4.704
REMARK INTER:                  -4.481
REMARK INTRA:                  -0.223
REMARK UNBOUND:                -0.225
REMARK SMILES O=C([O-])c1ccccc1C(=O)[O-]
REMARK SMILES IDX 4 1 9 2 5 3 8 4 6 5 7 6 2 7 1 8 3 9 10 10 11 11 12 12
REMARK H PARENT
REMARK Flexibility Score: inf
ROOT
ATOM      1  C   UNL     1      -8.153  -1.364  -6.191  1.00  0.00     0.006 A 
ATOM      2  C   UNL     1      -7.189  -0.603  -5.470  1.00  0.00     0.006 A 
ATOM      3  C   UNL     1      -7.856  -2.696  -6.533  1.00  0.00     0.010 A 
ATOM      4  C   UNL     1      -5.943  -1.183  -5.174  1.00  0.00     0.010 A 
ATOM      5  C   UNL     1      -6.621  -3.259  -6.208  1.00  0.00     0.001 A 
ATOM      6  C   UNL     1      -5.662  -2.500  -5.541  1.00  0.00     0.001 A 
ENDROOT
BRANCH   1   7
ATOM      7  C   UNL     1      -9.432  -0.789  -6.667  1.00  0.00     0.072 C 
ATOM      8  O   UNL     1     -10.506  -1.044  -6.058  1.00  0.00    -0.545 OA
ATOM      9  O   UNL     1      -9.478  -0.017  -7.822  1.00  0.00    -0.545 OA
ENDBRANCH   1   7
BRANCH   2  10
ATOM     10  C   UNL     1      -7.462   0.756  -4.949  1.00  0.00     0.072 C 
ATOM     11  O   UNL     1      -7.068   1.777  -5.573  1.00  0.00    -0.545 OA
ATOM     12  O   UNL     1      -8.218   0.922  -3.794  1.00  0.00    -0.545 OA
ENDBRANCH   2  10
TORSDOF 2
ENDMDL
MODEL 3
REMARK VINA RESULT:    -3.947     18.907     19.991
REMARK INTER + INTRA:          -4.633
REMARK INTER:                  -4.468
REMARK INTRA:                  -0.166
REMARK UNBOUND:                -0.225
REMARK SMILES O=C([O-])c1ccccc1C(=O)[O-]
REMARK SMILES IDX 4 1 9 2 5 3 8 4 6 5 7 6 2 7 1 8 3 9 10 10 11 11 12 12
REMARK H PARENT
REMARK Flexibility Score: inf
ROOT
ATOM      1  C   UNL     1       5.308  -9.472   6.930  1.00  0.00     0.006 A 
ATOM      2  C   UNL     1       4.366 -10.368   6.351  1.00  0.00     0.006 A 
ATOM      3  C   UNL     1       6.570  -9.322   6.325  1.00  0.00     0.010 A 
ATOM      4  C   UNL     1       4.743 -11.125   5.228  1.00  0.00     0.010 A 
ATOM      5  C   UNL     1       6.915 -10.067   5.198  1.00  0.00     0.001 A 
ATOM      6  C   UNL     1       6.008 -10.976   4.657  1.00  0.00     0.001 A 
ENDROOT
BRANCH   1   7
ATOM      7  C   UNL     1       5.045  -8.741   8.191  1.00  0.00     0.072 C 
ATOM      8  O   UNL     1       5.333  -9.267   9.300  1.00  0.00    -0.545 OA
ATOM      9  O   UNL     1       4.422  -7.499   8.175  1.00  0.00    -0.545 OA
ENDBRANCH   1   7
BRANCH   2  10
ATOM     10  C   UNL     1       2.970 -10.492   6.832  1.00  0.00     0.072 C 
ATOM     11  O   UNL     1       2.707 -11.122   7.890  1.00  0.00    -0.545 OA
ATOM     12  O   UNL     1       1.939  -9.853   6.153  1.00  0.00    -0.545 OA
ENDBRANCH   2  10
TORSDOF 2
ENDMDL
MODEL 4
REMARK VINA RESULT:    -3.920     18.963     20.248
REMARK INTER + INTRA:          -4.603
REMARK INTER:                  -4.460
REMARK INTRA:                  -0.143
REMARK UNBOUND:                -0.225
REMARK SMILES O=C([O-])c1ccccc1C(=O)[O-]
REMARK SMILES IDX 4 1 9 2 5 3 8 4 6 5 7 6 2 7 1 8 3 9 10 10 11 11 12 12
REMARK H PARENT
REMARK Flexibility Score: inf
ROOT
ATOM      1  C   UNL     1       4.439 -10.338   6.366  1.00  0.00     0.006 A 
ATOM      2  C   UNL     1       5.369  -9.439   6.960  1.00  0.00     0.006 A 
ATOM      3  C   UNL     1       4.826 -11.070   5.228  1.00  0.00     0.010 A 
ATOM      4  C   UNL     1       6.627  -9.260   6.357  1.00  0.00     0.010 A 
ATOM      5  C   UNL     1       6.088 -10.893   4.661  1.00  0.00     0.001 A 
ATOM      6  C   UNL     1       6.982  -9.981   5.216  1.00  0.00     0.001 A 
ENDROOT
BRANCH   1   7
ATOM      7  C   UNL     1       3.047 -10.484   6.851  1.00  0.00     0.072 C 
ATOM      8  O   UNL     1       2.809 -11.124   7.910  1.00  0.00    -0.545 OA
ATOM      9  O   UNL     1       1.982  -9.977   6.116  1.00  0.00    -0.545 OA
ENDBRANCH   1   7
BRANCH   2  10
ATOM     10  C   UNL     1       5.103  -8.730   8.233  1.00  0.00     0.072 C 
ATOM     11  O   UNL     1       5.444  -9.234   9.335  1.00  0.00    -0.545 OA
ATOM     12  O   UNL     1       4.532  -7.463   8.219  1.00  0.00    -0.545 OA
ENDBRANCH   2  10
TORSDOF 2
ENDMDL
MODEL 5
REMARK VINA RESULT:    -3.821     18.156     19.782
REMARK INTER + INTRA:          -4.492
REMARK INTER:                  -4.260
REMARK INTRA:                  -0.232
REMARK UNBOUND:                -0.225
REMARK SMILES O=C([O-])c1ccccc1C(=O)[O-]
REMARK SMILES IDX 4 1 9 2 5 3 8 4 6 5 7 6 2 7 1 8 3 9 10 10 11 11 12 12
REMARK H PARENT
REMARK Flexibility Score: inf
ROOT
ATOM      1  C   UNL     1       2.876  -8.250   7.667  1.00  0.00     0.006 A 
ATOM      2  C   UNL     1       4.248  -8.286   8.045  1.00  0.00     0.006 A 
ATOM      3  C   UNL     1       2.212  -7.010   7.619  1.00  0.00     0.010 A 
ATOM      4  C   UNL     1       4.885  -7.090   8.420  1.00  0.00     0.010 A 
ATOM      5  C   UNL     1       2.870  -5.833   7.975  1.00  0.00     0.001 A 
ATOM      6  C   UNL     1       4.201  -5.874   8.386  1.00  0.00     0.001 A 
ENDROOT
BRANCH   1   7
ATOM      7  C   UNL     1       2.090  -9.475   7.392  1.00  0.00     0.072 C 
ATOM      8  O   UNL     1       1.496 -10.070   8.331  1.00  0.00    -0.545 OA
ATOM      9  O   UNL     1       2.049 -10.020   6.115  1.00  0.00    -0.545 OA
ENDBRANCH   1   7
BRANCH   2  10
ATOM     10  C   UNL     1       5.065  -9.519   7.993  1.00  0.00     0.072 C 
ATOM     11  O   UNL     1       5.182 -10.259   9.005  1.00  0.00    -0.545 OA
ATOM     12  O   UNL     1       5.662  -9.911   6.800  1.00  0.00    -0.545 OA
ENDBRANCH   2  10
TORSDOF 2
ENDMDL
MODEL 6
REMARK VINA RESULT:    -3.810      1.978      3.394
REMARK INTER + INTRA:          -4.480
REMARK INTER:                  -4.317
REMARK INTRA:                  -0.163
REMARK UNBOUND:                -0.225
REMARK SMILES O=C([O-])c1ccccc1C(=O)[O-]
REMARK SMILES IDX 4 1 9 2 5 3 8 4 6 5 7 6 2 7 1 8 3 9 10 10 11 11 12 12
REMARK H PARENT
REMARK Flexibility Score: inf
ROOT
ATOM      1  C   UNL     1      -8.621  -0.118  -5.655  1.00  0.00     0.006 A 
ATOM      2  C   UNL     1      -8.682  -1.296  -6.452  1.00  0.00     0.006 A 
ATOM      3  C   UNL     1      -9.820   0.481  -5.227  1.00  0.00     0.010 A 
ATOM      4  C   UNL     1      -9.938  -1.792  -6.842  1.00  0.00     0.010 A 
ATOM      5  C   UNL     1     -11.055  -0.042  -5.607  1.00  0.00     0.001 A 
ATOM      6  C   UNL     1     -11.115  -1.170  -6.424  1.00  0.00     0.001 A 
ENDROOT
BRANCH   1   7
ATOM      7  C   UNL     1      -7.344   0.552  -5.316  1.00  0.00     0.072 C 
ATOM      8  O   UNL     1      -6.606   0.086  -4.406  1.00  0.00    -0.545 OA
ATOM      9  O   UNL     1      -6.974   1.734  -5.945  1.00  0.00    -0.545 OA
ENDBRANCH   1   7
BRANCH   2  10
ATOM     10  C   UNL     1      -7.480  -2.072  -6.835  1.00  0.00     0.072 C 
ATOM     11  O   UNL     1      -6.918  -1.884  -7.946  1.00  0.00    -0.545 OA
ATOM     12  O   UNL     1      -6.920  -2.976  -5.940  1.00  0.00    -0.545 OA
ENDBRANCH   2  10
TORSDOF 2
ENDMDL
MODEL 7
REMARK VINA RESULT:    -3.751      2.004      3.949
REMARK INTER + INTRA:          -4.414
REMARK INTER:                  -4.269
REMARK INTRA:                  -0.145
REMARK UNBOUND:                -0.225
REMARK SMILES O=C([O-])c1ccccc1C(=O)[O-]
REMARK SMILES IDX 4 1 9 2 5 3 8 4 6 5 7 6 2 7 1 8 3 9 10 10 11 11 12 12
REMARK H PARENT
REMARK Flexibility Score: inf
ROOT
ATOM      1  C   UNL     1      -8.503  -1.337  -6.422  1.00  0.00     0.006 A 
ATOM      2  C   UNL     1      -8.567  -0.166  -5.616  1.00  0.00     0.006 A 
ATOM      3  C   UNL     1      -9.698  -1.902  -6.905  1.00  0.00     0.010 A 
ATOM      4  C   UNL     1      -9.826   0.359  -5.273  1.00  0.00     0.010 A 
ATOM      5  C   UNL     1     -10.935  -1.351  -6.570  1.00  0.00     0.001 A 
ATOM      6  C   UNL     1     -10.999  -0.230  -5.745  1.00  0.00     0.001 A 
ENDROOT
BRANCH   1   7
ATOM      7  C   UNL     1      -7.230  -2.036  -6.717  1.00  0.00     0.072 C 
ATOM      8  O   UNL     1      -6.626  -1.821  -7.802  1.00  0.00    -0.545 OA
ATOM      9  O   UNL     1      -6.720  -2.982  -5.836  1.00  0.00    -0.545 OA
ENDBRANCH   1   7
BRANCH   2  10
ATOM     10  C   UNL     1      -7.364   0.577  -5.177  1.00  0.00     0.072 C 
ATOM     11  O   UNL     1      -6.625   0.125  -4.262  1.00  0.00    -0.545 OA
ATOM     12  O   UNL     1      -6.998   1.755  -5.818  1.00  0.00    -0.545 OA
ENDBRANCH   2  10
TORSDOF 2
ENDMDL
MODEL 8
REMARK VINA RESULT:    -3.740      2.666      4.106
REMARK INTER + INTRA:          -4.402
REMARK INTER:                  -4.232
REMARK INTRA:                  -0.170
REMARK UNBOUND:                -0.225
REMARK SMILES O=C([O-])c1ccccc1C(=O)[O-]
REMARK SMILES IDX 4 1 9 2 5 3 8 4 6 5 7 6 2 7 1 8 3 9 10 10 11 11 12 12
REMARK H PARENT
REMARK Flexibility Score: inf
ROOT
ATOM      1  C   UNL     1      -6.904  -0.187  -7.088  1.00  0.00     0.006 A 
ATOM      2  C   UNL     1      -6.833  -0.879  -5.847  1.00  0.00     0.006 A 
ATOM      3  C   UNL     1      -7.354   1.146  -7.104  1.00  0.00     0.010 A 
ATOM      4  C   UNL     1      -7.274  -0.233  -4.678  1.00  0.00     0.010 A 
ATOM      5  C   UNL     1      -7.765   1.774  -5.929  1.00  0.00     0.001 A 
ATOM      6  C   UNL     1      -7.738   1.082  -4.720  1.00  0.00     0.001 A 
ENDROOT
BRANCH   1   7
ATOM      7  C   UNL     1      -6.593  -0.835  -8.384  1.00  0.00     0.072 C 
ATOM      8  O   UNL     1      -5.633  -0.419  -9.086  1.00  0.00    -0.545 OA
ATOM      9  O   UNL     1      -7.390  -1.863  -8.872  1.00  0.00    -0.545 OA
ENDBRANCH   1   7
BRANCH   2  10
ATOM     10  C   UNL     1      -6.246  -2.232  -5.711  1.00  0.00     0.072 C 
ATOM     11  O   UNL     1      -6.983  -3.247  -5.604  1.00  0.00    -0.545 OA
ATOM     12  O   UNL     1      -4.867  -2.403  -5.766  1.00  0.00    -0.545 OA
ENDBRANCH   2  10
TORSDOF 2
ENDMDL
MODEL 9
REMARK VINA RESULT:    -3.705      2.505      3.452
REMARK INTER + INTRA:          -4.363
REMARK INTER:                  -4.138
REMARK INTRA:                  -0.225
REMARK UNBOUND:                -0.225
REMARK SMILES O=C([O-])c1ccccc1C(=O)[O-]
REMARK SMILES IDX 4 1 9 2 5 3 8 4 6 5 7 6 2 7 1 8 3 9 10 10 11 11 12 12
REMARK H PARENT
REMARK Flexibility Score: inf
ROOT
ATOM      1  C   UNL     1      -7.519  -1.373  -6.769  1.00  0.00     0.006 A 
ATOM      2  C   UNL     1      -7.628  -0.689  -8.012  1.00  0.00     0.006 A 
ATOM      3  C   UNL     1      -8.507  -2.310  -6.414  1.00  0.00     0.010 A 
ATOM      4  C   UNL     1      -8.753  -0.921  -8.823  1.00  0.00     0.010 A 
ATOM      5  C   UNL     1      -9.603  -2.541  -7.245  1.00  0.00     0.001 A 
ATOM      6  C   UNL     1      -9.733  -1.839  -8.442  1.00  0.00     0.001 A 
ENDROOT
BRANCH   1   7
ATOM      7  C   UNL     1      -6.443  -1.088  -5.791  1.00  0.00     0.072 C 
ATOM      8  O   UNL     1      -5.438  -1.845  -5.715  1.00  0.00    -0.545 OA
ATOM      9  O   UNL     1      -6.555  -0.025  -4.903  1.00  0.00    -0.545 OA
ENDBRANCH   1   7
BRANCH   2  10
ATOM     10  C   UNL     1      -6.572   0.209  -8.533  1.00  0.00     0.072 C 
ATOM     11  O   UNL     1      -6.614   1.448  -8.314  1.00  0.00    -0.545 OA
ATOM     12  O   UNL     1      -5.483  -0.318  -9.217  1.00  0.00    -0.545 OA
ENDBRANCH   2  10
TORSDOF 2
ENDMDL
