MODEL 1
REMARK VINA RESULT:    -5.862      0.000      0.000
REMARK INTER + INTRA:         -10.137
REMARK INTER:                  -8.775
REMARK INTRA:                  -1.362
REMARK UNBOUND:                -1.362
REMARK SMILES COC(=O)C1=CO[C@H](O[C@H]2O[C@H](CO)[C@@H](O)[C@H](O)[C@@H]2O)[C@H]2C(CO)=CC[C@H]12
REMARK SMILES IDX 9 1 8 2 5 3 6 4 27 5 7 6 21 7 26 8 22 9 25 10 3 11 4 12 2 13
REMARK SMILES IDX 1 14 23 15 24 16 10 18 19 19 11 20 17 21 12 22 15 23 20 24
REMARK SMILES IDX 18 26 13 28 14 29 16 31
REMARK H PARENT 24 17 20 25 18 27 14 30 16 32
REMARK Flexibility Score: inf
ROOT
ATOM      1  O   UNL     1      -9.244  -0.697  -5.824  1.00  0.00    -0.310 OA
ENDROOT
BRANCH   1   2
ATOM      2  C   UNL     1      -9.164  -1.631  -6.888  1.00  0.00     0.316 C 
ATOM      3  C   UNL     1      -7.308  -3.263  -8.458  1.00  0.00     0.076 C 
ATOM      4  C   UNL     1      -7.371  -1.925  -8.639  1.00  0.00     0.202 C 
ATOM      5  C   UNL     1      -8.349  -3.863  -7.544  1.00  0.00     0.047 C 
ATOM      6  O   UNL     1      -8.267  -1.120  -7.893  1.00  0.00    -0.471 OA
ATOM      7  C   UNL     1      -8.566  -2.934  -6.358  1.00  0.00     0.094 C 
ATOM      8  C   UNL     1      -8.134  -5.218  -6.867  1.00  0.00     0.037 C 
ATOM      9  C   UNL     1      -9.334  -3.805  -5.423  1.00  0.00    -0.039 C 
ATOM     10  C   UNL     1      -9.011  -5.080  -5.655  1.00  0.00    -0.024 C 
BRANCH   3  11
ATOM     11  C   UNL     1      -6.400  -4.102  -9.274  1.00  0.00     0.337 C 
ATOM     12  O   UNL     1      -6.874  -4.986 -10.041  1.00  0.00    -0.246 OA
BRANCH  11  13
ATOM     13  O   UNL     1      -5.017  -3.921  -9.190  1.00  0.00    -0.466 OA
ATOM     14  C   UNL     1      -4.264  -4.257  -8.031  1.00  0.00     0.282 C 
ENDBRANCH  11  13
ENDBRANCH   3  11
BRANCH   9  15
ATOM     15  C   UNL     1     -10.041  -3.331  -4.183  1.00  0.00     0.187 C 
BRANCH  15  16
ATOM     16  O   UNL     1      -9.130  -2.723  -3.309  1.00  0.00    -0.392 OA
ATOM     17  H   UNL     1      -8.559  -2.130  -3.864  1.00  0.00     0.211 HD
ENDBRANCH  15  16
ENDBRANCH   9  15
ENDBRANCH   1   2
BRANCH   1  18
ATOM     18  C   UNL     1      -8.174   0.241  -5.837  1.00  0.00     0.286 C 
ATOM     19  C   UNL     1      -7.228   0.063  -4.623  1.00  0.00     0.202 C 
ATOM     20  O   UNL     1      -8.693   1.561  -5.873  1.00  0.00    -0.341 OA
ATOM     21  C   UNL     1      -7.949   0.444  -3.315  1.00  0.00     0.179 C 
ATOM     22  C   UNL     1      -9.493   1.850  -4.736  1.00  0.00     0.178 C 
ATOM     23  C   UNL     1      -8.642   1.809  -3.441  1.00  0.00     0.177 C 
BRANCH  19  24
ATOM     24  O   UNL     1      -6.042   0.803  -4.789  1.00  0.00    -0.385 OA
ATOM     25  H   UNL     1      -5.312   0.175  -5.027  1.00  0.00     0.211 HD
ENDBRANCH  19  24
BRANCH  21  26
ATOM     26  O   UNL     1      -7.039   0.478  -2.246  1.00  0.00    -0.387 OA
ATOM     27  H   UNL     1      -6.250   0.994  -2.557  1.00  0.00     0.211 HD
ENDBRANCH  21  26
BRANCH  22  28
ATOM     28  C   UNL     1     -10.125   3.236  -4.949  1.00  0.00     0.191 C 
BRANCH  28  29
ATOM     29  O   UNL     1      -9.359   4.245  -4.346  1.00  0.00    -0.394 OA
ATOM     30  H   UNL     1      -8.416   4.079  -4.604  1.00  0.00     0.210 HD
ENDBRANCH  28  29
ENDBRANCH  22  28
BRANCH  23  31
ATOM     31  O   UNL     1      -9.460   2.001  -2.315  1.00  0.00    -0.387 OA
ATOM     32  H   UNL     1      -9.842   2.915  -2.377  1.00  0.00     0.211 HD
ENDBRANCH  23  31
ENDBRANCH   1  18
TORSDOF 11
ENDMDL
MODEL 2
REMARK VINA RESULT:    -5.276     12.457     15.482
REMARK INTER + INTRA:          -9.260
REMARK INTER:                  -8.355
REMARK INTRA:                  -0.905
REMARK UNBOUND:                -1.362
REMARK SMILES COC(=O)C1=CO[C@H](O[C@H]2O[C@H](CO)[C@@H](O)[C@H](O)[C@@H]2O)[C@H]2C(CO)=CC[C@H]12
REMARK SMILES IDX 9 1 8 2 5 3 6 4 27 5 7 6 21 7 26 8 22 9 25 10 3 11 4 12 2 13
REMARK SMILES IDX 1 14 23 15 24 16 10 18 19 19 11 20 17 21 12 22 15 23 20 24
REMARK SMILES IDX 18 26 13 28 14 29 16 31
REMARK H PARENT 24 17 20 25 18 27 14 30 16 32
REMARK Flexibility Score: inf
ROOT
ATOM      1  O   UNL     1      -3.778  -7.799   6.149  1.00  0.00    -0.310 OA
ENDROOT
BRANCH   1   2
ATOM      2  C   UNL     1      -3.689  -7.090   7.374  1.00  0.00     0.316 C 
ATOM      3  C   UNL     1      -4.678  -4.741   8.815  1.00  0.00     0.076 C 
ATOM      4  C   UNL     1      -3.789  -4.606   7.804  1.00  0.00     0.202 C 
ATOM      5  C   UNL     1      -4.985  -6.153   9.250  1.00  0.00     0.047 C 
ATOM      6  O   UNL     1      -3.295  -5.731   7.101  1.00  0.00    -0.471 OA
ATOM      7  C   UNL     1      -5.074  -7.045   8.021  1.00  0.00     0.094 C 
ATOM      8  C   UNL     1      -6.272  -6.497  10.002  1.00  0.00     0.037 C 
ATOM      9  C   UNL     1      -5.696  -8.278   8.582  1.00  0.00    -0.039 C 
ATOM     10  C   UNL     1      -6.444  -7.944   9.637  1.00  0.00    -0.024 C 
BRANCH   3  11
ATOM     11  C   UNL     1      -5.154  -3.562   9.574  1.00  0.00     0.337 C 
ATOM     12  O   UNL     1      -4.324  -2.786  10.125  1.00  0.00    -0.246 OA
BRANCH  11  13
ATOM     13  O   UNL     1      -6.525  -3.310   9.688  1.00  0.00    -0.466 OA
ATOM     14  C   UNL     1      -7.164  -2.217   9.040  1.00  0.00     0.282 C 
ENDBRANCH  11  13
ENDBRANCH   3  11
BRANCH   9  15
ATOM     15  C   UNL     1      -5.795  -9.598   7.869  1.00  0.00     0.187 C 
BRANCH  15  16
ATOM     16  O   UNL     1      -6.332  -9.419   6.587  1.00  0.00    -0.392 OA
ATOM     17  H   UNL     1      -6.960 -10.173   6.436  1.00  0.00     0.211 HD
ENDBRANCH  15  16
ENDBRANCH   9  15
ENDBRANCH   1   2
BRANCH   1  18
ATOM     18  C   UNL     1      -3.987  -6.941   5.034  1.00  0.00     0.286 C 
ATOM     19  C   UNL     1      -5.038  -7.511   4.049  1.00  0.00     0.202 C 
ATOM     20  O   UNL     1      -2.754  -6.713   4.367  1.00  0.00    -0.341 OA
ATOM     21  C   UNL     1      -4.501  -8.781   3.359  1.00  0.00     0.179 C 
ATOM     22  C   UNL     1      -2.184  -7.917   3.873  1.00  0.00     0.178 C 
ATOM     23  C   UNL     1      -3.094  -8.550   2.790  1.00  0.00     0.177 C 
BRANCH  19  24
ATOM     24  O   UNL     1      -5.430  -6.542   3.106  1.00  0.00    -0.385 OA
ATOM     25  H   UNL     1      -5.206  -5.645   3.467  1.00  0.00     0.211 HD
ENDBRANCH  19  24
BRANCH  21  26
ATOM     26  O   UNL     1      -5.366  -9.179   2.326  1.00  0.00    -0.387 OA
ATOM     27  H   UNL     1      -6.136  -9.633   2.756  1.00  0.00     0.211 HD
ENDBRANCH  21  26
BRANCH  22  28
ATOM     28  C   UNL     1      -0.793  -7.578   3.311  1.00  0.00     0.191 C 
BRANCH  28  29
ATOM     29  O   UNL     1      -0.844  -6.469   2.454  1.00  0.00    -0.394 OA
ATOM     30  H   UNL     1      -1.651  -5.950   2.708  1.00  0.00     0.210 HD
ENDBRANCH  28  29
ENDBRANCH  22  28
BRANCH  23  31
ATOM     31  O   UNL     1      -2.570  -9.787   2.377  1.00  0.00    -0.387 OA
ATOM     32  H   UNL     1      -2.767  -9.885   1.409  1.00  0.00     0.211 HD
ENDBRANCH  23  31
ENDBRANCH   1  18
TORSDOF 11
ENDMDL
MODEL 3
REMARK VINA RESULT:    -5.152     13.983     16.985
REMARK INTER + INTRA:          -9.074
REMARK INTER:                  -8.572
REMARK INTRA:                  -0.502
REMARK UNBOUND:                -1.362
REMARK SMILES COC(=O)C1=CO[C@H](O[C@H]2O[C@H](CO)[C@@H](O)[C@H](O)[C@@H]2O)[C@H]2C(CO)=CC[C@H]12
REMARK SMILES IDX 9 1 8 2 5 3 6 4 27 5 7 6 21 7 26 8 22 9 25 10 3 11 4 12 2 13
REMARK SMILES IDX 1 14 23 15 24 16 10 18 19 19 11 20 17 21 12 22 15 23 20 24
REMARK SMILES IDX 18 26 13 28 14 29 16 31
REMARK H PARENT 24 17 20 25 18 27 14 30 16 32
REMARK Flexibility Score: inf
ROOT
ATOM      1  O   UNL     1      -1.798   6.167   8.612  1.00  0.00    -0.310 OA
ENDROOT
BRANCH   1   2
ATOM      2  C   UNL     1      -2.829   7.050   8.202  1.00  0.00     0.316 C 
ATOM      3  C   UNL     1      -4.168   8.183   5.857  1.00  0.00     0.076 C 
ATOM      4  C   UNL     1      -2.926   8.590   6.206  1.00  0.00     0.202 C 
ATOM      5  C   UNL     1      -4.865   7.261   6.828  1.00  0.00     0.047 C 
ATOM      6  O   UNL     1      -2.266   8.058   7.340  1.00  0.00    -0.471 OA
ATOM      7  C   UNL     1      -3.855   6.267   7.383  1.00  0.00     0.094 C 
ATOM      8  C   UNL     1      -6.014   6.353   6.385  1.00  0.00     0.037 C 
ATOM      9  C   UNL     1      -4.742   5.259   8.031  1.00  0.00    -0.039 C 
ATOM     10  C   UNL     1      -5.920   5.249   7.399  1.00  0.00    -0.024 C 
BRANCH   3  11
ATOM     11  C   UNL     1      -4.868   8.778   4.696  1.00  0.00     0.337 C 
ATOM     12  O   UNL     1      -5.723   9.691   4.872  1.00  0.00    -0.246 OA
BRANCH  11  13
ATOM     13  O   UNL     1      -4.589   8.325   3.403  1.00  0.00    -0.466 OA
ATOM     14  C   UNL     1      -3.659   7.282   3.136  1.00  0.00     0.282 C 
ENDBRANCH  11  13
ENDBRANCH   3  11
BRANCH   9  15
ATOM     15  C   UNL     1      -4.281   4.171   8.961  1.00  0.00     0.187 C 
BRANCH  15  16
ATOM     16  O   UNL     1      -5.004   2.994   8.728  1.00  0.00    -0.392 OA
ATOM     17  H   UNL     1      -4.337   2.263   8.650  1.00  0.00     0.211 HD
ENDBRANCH  15  16
ENDBRANCH   9  15
ENDBRANCH   1   2
BRANCH   1  18
ATOM     18  C   UNL     1      -0.509   6.599   8.195  1.00  0.00     0.286 C 
ATOM     19  C   UNL     1      -0.243   6.284   6.702  1.00  0.00     0.202 C 
ATOM     20  O   UNL     1       0.485   6.000   9.013  1.00  0.00    -0.341 OA
ATOM     21  C   UNL     1      -0.140   4.762   6.479  1.00  0.00     0.179 C 
ATOM     22  C   UNL     1       0.466   4.582   8.924  1.00  0.00     0.178 C 
ATOM     23  C   UNL     1       0.821   4.117   7.490  1.00  0.00     0.177 C 
BRANCH  19  24
ATOM     24  O   UNL     1       0.908   6.949   6.238  1.00  0.00    -0.385 OA
ATOM     25  H   UNL     1       1.636   6.282   6.140  1.00  0.00     0.211 HD
ENDBRANCH  19  24
BRANCH  21  26
ATOM     26  O   UNL     1       0.299   4.487   5.174  1.00  0.00    -0.387 OA
ATOM     27  H   UNL     1       1.245   4.783   5.121  1.00  0.00     0.211 HD
ENDBRANCH  21  26
BRANCH  22  28
ATOM     28  C   UNL     1       1.468   4.037   9.956  1.00  0.00     0.191 C 
BRANCH  28  29
ATOM     29  O   UNL     1       2.479   3.287   9.338  1.00  0.00    -0.394 OA
ATOM     30  H   UNL     1       2.645   2.499   9.919  1.00  0.00     0.210 HD
ENDBRANCH  28  29
ENDBRANCH  22  28
BRANCH  23  31
ATOM     31  O   UNL     1       0.705   2.720   7.388  1.00  0.00    -0.387 OA
ATOM     32  H   UNL     1       1.197   2.325   8.154  1.00  0.00     0.211 HD
ENDBRANCH  23  31
ENDBRANCH   1  18
TORSDOF 11
ENDMDL
MODEL 4
REMARK VINA RESULT:    -5.090     15.120     16.727
REMARK INTER + INTRA:          -8.981
REMARK INTER:                  -7.801
REMARK INTRA:                  -1.180
REMARK UNBOUND:                -1.362
REMARK SMILES COC(=O)C1=CO[C@H](O[C@H]2O[C@H](CO)[C@@H](O)[C@H](O)[C@@H]2O)[C@H]2C(CO)=CC[C@H]12
REMARK SMILES IDX 9 1 8 2 5 3 6 4 27 5 7 6 21 7 26 8 22 9 25 10 3 11 4 12 2 13
REMARK SMILES IDX 1 14 23 15 24 16 10 18 19 19 11 20 17 21 12 22 15 23 20 24
REMARK SMILES IDX 18 26 13 28 14 29 16 31
REMARK H PARENT 24 17 20 25 18 27 14 30 16 32
REMARK Flexibility Score: inf
ROOT
ATOM      1  O   UNL     1      -2.819   6.443   6.781  1.00  0.00    -0.310 OA
ENDROOT
BRANCH   1   2
ATOM      2  C   UNL     1      -4.087   5.811   6.836  1.00  0.00     0.316 C 
ATOM      3  C   UNL     1      -6.358   5.231   8.592  1.00  0.00     0.076 C 
ATOM      4  C   UNL     1      -5.185   4.573   8.741  1.00  0.00     0.202 C 
ATOM      5  C   UNL     1      -6.469   6.132   7.387  1.00  0.00     0.047 C 
ATOM      6  O   UNL     1      -4.079   4.836   7.897  1.00  0.00    -0.471 OA
ATOM      7  C   UNL     1      -5.146   6.857   7.183  1.00  0.00     0.094 C 
ATOM      8  C   UNL     1      -7.484   7.274   7.333  1.00  0.00     0.037 C 
ATOM      9  C   UNL     1      -5.525   7.916   6.204  1.00  0.00    -0.039 C 
ATOM     10  C   UNL     1      -6.819   8.210   6.364  1.00  0.00    -0.024 C 
BRANCH   3  11
ATOM     11  C   UNL     1      -7.523   4.917   9.450  1.00  0.00     0.337 C 
ATOM     12  O   UNL     1      -7.741   3.727   9.811  1.00  0.00    -0.246 OA
BRANCH  11  13
ATOM     13  O   UNL     1      -8.388   5.938   9.856  1.00  0.00    -0.466 OA
ATOM     14  C   UNL     1      -9.804   5.813   9.805  1.00  0.00     0.282 C 
ENDBRANCH  11  13
ENDBRANCH   3  11
BRANCH   9  15
ATOM     15  C   UNL     1      -4.556   8.782   5.448  1.00  0.00     0.187 C 
BRANCH  15  16
ATOM     16  O   UNL     1      -4.323   8.249   4.173  1.00  0.00    -0.392 OA
ATOM     17  H   UNL     1      -5.214   8.117   3.755  1.00  0.00     0.211 HD
ENDBRANCH  15  16
ENDBRANCH   9  15
ENDBRANCH   1   2
BRANCH   1  18
ATOM     18  C   UNL     1      -2.030   5.992   5.687  1.00  0.00     0.286 C 
ATOM     19  C   UNL     1      -0.744   5.265   6.156  1.00  0.00     0.202 C 
ATOM     20  O   UNL     1      -1.702   7.089   4.848  1.00  0.00    -0.341 OA
ATOM     21  C   UNL     1       0.220   6.257   6.837  1.00  0.00     0.179 C 
ATOM     22  C   UNL     1      -0.948   8.078   5.534  1.00  0.00     0.178 C 
ATOM     23  C   UNL     1       0.425   7.512   5.976  1.00  0.00     0.177 C 
BRANCH  19  24
ATOM     24  O   UNL     1      -0.119   4.596   5.086  1.00  0.00    -0.385 OA
ATOM     25  H   UNL     1       0.575   5.194   4.706  1.00  0.00     0.211 HD
ENDBRANCH  19  24
BRANCH  21  26
ATOM     26  O   UNL     1       1.461   5.645   7.079  1.00  0.00    -0.387 OA
ATOM     27  H   UNL     1       1.458   5.354   8.028  1.00  0.00     0.211 HD
ENDBRANCH  21  26
BRANCH  22  28
ATOM     28  C   UNL     1      -0.782   9.278   4.587  1.00  0.00     0.191 C 
BRANCH  28  29
ATOM     29  O   UNL     1      -1.640   9.180   3.481  1.00  0.00    -0.394 OA
ATOM     30  H   UNL     1      -2.146  10.032   3.437  1.00  0.00     0.210 HD
ENDBRANCH  28  29
ENDBRANCH  22  28
BRANCH  23  31
ATOM     31  O   UNL     1       1.124   8.466   6.736  1.00  0.00    -0.387 OA
ATOM     32  H   UNL     1       1.005   8.229   7.692  1.00  0.00     0.211 HD
ENDBRANCH  23  31
ENDBRANCH   1  18
TORSDOF 11
ENDMDL
MODEL 5
REMARK VINA RESULT:    -5.008     14.034     17.431
REMARK INTER + INTRA:          -8.859
REMARK INTER:                  -7.614
REMARK INTRA:                  -1.244
REMARK UNBOUND:                -1.362
REMARK SMILES COC(=O)C1=CO[C@H](O[C@H]2O[C@H](CO)[C@@H](O)[C@H](O)[C@@H]2O)[C@H]2C(CO)=CC[C@H]12
REMARK SMILES IDX 9 1 8 2 5 3 6 4 27 5 7 6 21 7 26 8 22 9 25 10 3 11 4 12 2 13
REMARK SMILES IDX 1 14 23 15 24 16 10 18 19 19 11 20 17 21 12 22 15 23 20 24
REMARK SMILES IDX 18 26 13 28 14 29 16 31
REMARK H PARENT 24 17 20 25 18 27 14 30 16 32
REMARK Flexibility Score: inf
ROOT
ATOM      1  O   UNL     1      -2.474   5.311   7.389  1.00  0.00    -0.310 OA
ENDROOT
BRANCH   1   2
ATOM      2  C   UNL     1      -3.891   5.324   7.409  1.00  0.00     0.316 C 
ATOM      3  C   UNL     1      -6.223   6.924   8.169  1.00  0.00     0.076 C 
ATOM      4  C   UNL     1      -5.466   6.318   9.111  1.00  0.00     0.202 C 
ATOM      5  C   UNL     1      -5.898   6.587   6.734  1.00  0.00     0.047 C 
ATOM      6  O   UNL     1      -4.338   5.536   8.762  1.00  0.00    -0.471 OA
ATOM      7  C   UNL     1      -4.387   6.504   6.572  1.00  0.00     0.094 C 
ATOM      8  C   UNL     1      -6.303   7.511   5.584  1.00  0.00     0.037 C 
ATOM      9  C   UNL     1      -4.237   6.506   5.089  1.00  0.00    -0.039 C 
ATOM     10  C   UNL     1      -5.271   7.159   4.550  1.00  0.00    -0.024 C 
BRANCH   3  11
ATOM     11  C   UNL     1      -7.427   7.702   8.541  1.00  0.00     0.337 C 
ATOM     12  O   UNL     1      -7.307   8.879   8.983  1.00  0.00    -0.246 OA
BRANCH  11  13
ATOM     13  O   UNL     1      -8.697   7.133   8.411  1.00  0.00    -0.466 OA
ATOM     14  C   UNL     1      -9.169   6.099   9.266  1.00  0.00     0.282 C 
ENDBRANCH  11  13
ENDBRANCH   3  11
BRANCH   9  15
ATOM     15  C   UNL     1      -2.968   6.188   4.347  1.00  0.00     0.187 C 
BRANCH  15  16
ATOM     16  O   UNL     1      -2.653   4.831   4.486  1.00  0.00    -0.392 OA
ATOM     17  H   UNL     1      -3.449   4.322   4.178  1.00  0.00     0.211 HD
ENDBRANCH  15  16
ENDBRANCH   9  15
ENDBRANCH   1   2
BRANCH   1  18
ATOM     18  C   UNL     1      -1.904   5.946   8.527  1.00  0.00     0.286 C 
ATOM     19  C   UNL     1      -1.168   7.258   8.156  1.00  0.00     0.202 C 
ATOM     20  O   UNL     1      -1.021   5.050   9.185  1.00  0.00    -0.341 OA
ATOM     21  C   UNL     1       0.090   6.954   7.317  1.00  0.00     0.179 C 
ATOM     22  C   UNL     1       0.052   4.647   8.345  1.00  0.00     0.178 C 
ATOM     23  C   UNL     1       0.943   5.859   7.974  1.00  0.00     0.177 C 
BRANCH  19  24
ATOM     24  O   UNL     1      -0.849   8.005   9.306  1.00  0.00    -0.385 OA
ATOM     25  H   UNL     1       0.139   8.024   9.402  1.00  0.00     0.211 HD
ENDBRANCH  19  24
BRANCH  21  26
ATOM     26  O   UNL     1       0.861   8.116   7.154  1.00  0.00    -0.387 OA
ATOM     27  H   UNL     1       1.694   7.983   7.678  1.00  0.00     0.211 HD
ENDBRANCH  21  26
BRANCH  22  28
ATOM     28  C   UNL     1       0.852   3.569   9.095  1.00  0.00     0.191 C 
BRANCH  28  29
ATOM     29  O   UNL     1       1.801   2.963   8.259  1.00  0.00    -0.394 OA
ATOM     30  H   UNL     1       1.294   2.492   7.548  1.00  0.00     0.210 HD
ENDBRANCH  28  29
ENDBRANCH  22  28
BRANCH  23  31
ATOM     31  O   UNL     1       1.944   5.468   7.068  1.00  0.00    -0.387 OA
ATOM     32  H   UNL     1       2.804   5.452   7.564  1.00  0.00     0.211 HD
ENDBRANCH  23  31
ENDBRANCH   1  18
TORSDOF 11
ENDMDL
MODEL 6
REMARK VINA RESULT:    -4.997      1.904      7.302
REMARK INTER + INTRA:          -8.842
REMARK INTER:                  -7.601
REMARK INTRA:                  -1.241
REMARK UNBOUND:                -1.362
REMARK SMILES COC(=O)C1=CO[C@H](O[C@H]2O[C@H](CO)[C@@H](O)[C@H](O)[C@@H]2O)[C@H]2C(CO)=CC[C@H]12
REMARK SMILES IDX 9 1 8 2 5 3 6 4 27 5 7 6 21 7 26 8 22 9 25 10 3 11 4 12 2 13
REMARK SMILES IDX 1 14 23 15 24 16 10 18 19 19 11 20 17 21 12 22 15 23 20 24
REMARK SMILES IDX 18 26 13 28 14 29 16 31
REMARK H PARENT 24 17 20 25 18 27 14 30 16 32
REMARK Flexibility Score: inf
ROOT
ATOM      1  O   UNL     1      -7.736  -2.881  -6.943  1.00  0.00    -0.310 OA
ENDROOT
BRANCH   1   2
ATOM      2  C   UNL     1      -8.648  -2.161  -6.131  1.00  0.00     0.316 C 
ATOM      3  C   UNL     1      -8.845  -0.067  -4.094  1.00  0.00     0.076 C 
ATOM      4  C   UNL     1      -8.366  -1.292  -3.779  1.00  0.00     0.202 C 
ATOM      5  C   UNL     1      -9.415   0.091  -5.483  1.00  0.00     0.047 C 
ATOM      6  O   UNL     1      -8.270  -2.319  -4.749  1.00  0.00    -0.471 OA
ATOM      7  C   UNL     1      -8.543  -0.674  -6.468  1.00  0.00     0.094 C 
ATOM      8  C   UNL     1      -9.538   1.463  -6.146  1.00  0.00     0.037 C 
ATOM      9  C   UNL     1      -9.029  -0.150  -7.777  1.00  0.00    -0.039 C 
ATOM     10  C   UNL     1      -9.498   1.089  -7.600  1.00  0.00    -0.024 C 
BRANCH   3  11
ATOM     11  C   UNL     1      -8.984   0.986  -3.062  1.00  0.00     0.337 C 
ATOM     12  O   UNL     1     -10.125   1.284  -2.612  1.00  0.00    -0.246 OA
BRANCH  11  13
ATOM     13  O   UNL     1      -7.851   1.657  -2.590  1.00  0.00    -0.466 OA
ATOM     14  C   UNL     1      -7.148   2.621  -3.364  1.00  0.00     0.282 C 
ENDBRANCH  11  13
ENDBRANCH   3  11
BRANCH   9  15
ATOM     15  C   UNL     1      -8.695  -0.736  -9.121  1.00  0.00     0.187 C 
BRANCH  15  16
ATOM     16  O   UNL     1      -7.312  -0.926  -9.238  1.00  0.00    -0.392 OA
ATOM     17  H   UNL     1      -7.178  -1.874  -9.501  1.00  0.00     0.211 HD
ENDBRANCH  15  16
ENDBRANCH   9  15
ENDBRANCH   1   2
BRANCH   1  18
ATOM     18  C   UNL     1      -8.389  -3.729  -7.881  1.00  0.00     0.286 C 
ATOM     19  C   UNL     1      -8.922  -5.025  -7.223  1.00  0.00     0.202 C 
ATOM     20  O   UNL     1      -7.501  -4.040  -8.945  1.00  0.00    -0.341 OA
ATOM     21  C   UNL     1      -7.753  -5.922  -6.767  1.00  0.00     0.179 C 
ATOM     22  C   UNL     1      -6.344  -4.727  -8.490  1.00  0.00     0.178 C 
ATOM     23  C   UNL     1      -6.724  -6.105  -7.892  1.00  0.00     0.177 C 
BRANCH  19  24
ATOM     24  O   UNL     1      -9.790  -5.717  -8.090  1.00  0.00    -0.385 OA
ATOM     25  H   UNL     1      -9.518  -6.671  -8.108  1.00  0.00     0.211 HD
ENDBRANCH  19  24
BRANCH  21  26
ATOM     26  O   UNL     1      -8.230  -7.178  -6.358  1.00  0.00    -0.387 OA
ATOM     27  H   UNL     1      -8.858  -7.015  -5.606  1.00  0.00     0.211 HD
ENDBRANCH  21  26
BRANCH  22  28
ATOM     28  C   UNL     1      -5.390  -4.876  -9.686  1.00  0.00     0.191 C 
BRANCH  28  29
ATOM     29  O   UNL     1      -4.097  -5.224  -9.268  1.00  0.00    -0.394 OA
ATOM     30  H   UNL     1      -4.096  -6.207  -9.131  1.00  0.00     0.210 HD
ENDBRANCH  28  29
ENDBRANCH  22  28
BRANCH  23  31
ATOM     31  O   UNL     1      -5.586  -6.734  -7.359  1.00  0.00    -0.387 OA
ATOM     32  H   UNL     1      -4.844  -6.075  -7.382  1.00  0.00     0.211 HD
ENDBRANCH  23  31
ENDBRANCH   1  18
TORSDOF 11
ENDMDL
MODEL 7
REMARK VINA RESULT:    -4.932      1.679      3.374
REMARK INTER + INTRA:          -8.745
REMARK INTER:                  -8.101
REMARK INTRA:                  -0.643
REMARK UNBOUND:                -1.362
REMARK SMILES COC(=O)C1=CO[C@H](O[C@H]2O[C@H](CO)[C@@H](O)[C@H](O)[C@@H]2O)[C@H]2C(CO)=CC[C@H]12
REMARK SMILES IDX 9 1 8 2 5 3 6 4 27 5 7 6 21 7 26 8 22 9 25 10 3 11 4 12 2 13
REMARK SMILES IDX 1 14 23 15 24 16 10 18 19 19 11 20 17 21 12 22 15 23 20 24
REMARK SMILES IDX 18 26 13 28 14 29 16 31
REMARK H PARENT 24 17 20 25 18 27 14 30 16 32
REMARK Flexibility Score: inf
ROOT
ATOM      1  O   UNL     1      -8.998  -0.898  -5.810  1.00  0.00    -0.310 OA
ENDROOT
BRANCH   1   2
ATOM      2  C   UNL     1      -8.516  -2.231  -5.804  1.00  0.00     0.316 C 
ATOM      3  C   UNL     1      -9.341  -5.036  -5.971  1.00  0.00     0.076 C 
ATOM      4  C   UNL     1      -9.568  -4.316  -4.849  1.00  0.00     0.202 C 
ATOM      5  C   UNL     1      -8.504  -4.367  -7.035  1.00  0.00     0.047 C 
ATOM      6  O   UNL     1      -9.171  -2.961  -4.748  1.00  0.00    -0.471 OA
ATOM      7  C   UNL     1      -8.895  -2.899  -7.126  1.00  0.00     0.094 C 
ATOM      8  C   UNL     1      -8.561  -4.816  -8.496  1.00  0.00     0.037 C 
ATOM      9  C   UNL     1      -8.247  -2.489  -8.404  1.00  0.00    -0.039 C 
ATOM     10  C   UNL     1      -8.152  -3.555  -9.203  1.00  0.00    -0.024 C 
BRANCH   3  11
ATOM     11  C   UNL     1      -9.720  -6.465  -6.050  1.00  0.00     0.337 C 
ATOM     12  O   UNL     1      -9.812  -7.155  -4.997  1.00  0.00    -0.246 OA
BRANCH  11  13
ATOM     13  O   UNL     1      -9.969  -7.055  -7.294  1.00  0.00    -0.466 OA
ATOM     14  C   UNL     1      -9.423  -8.313  -7.673  1.00  0.00     0.282 C 
ENDBRANCH  11  13
ENDBRANCH   3  11
BRANCH   9  15
ATOM     15  C   UNL     1      -8.087  -1.070  -8.877  1.00  0.00     0.187 C 
BRANCH  15  16
ATOM     16  O   UNL     1      -6.741  -0.688  -8.817  1.00  0.00    -0.392 OA
ATOM     17  H   UNL     1      -6.527  -0.555  -7.857  1.00  0.00     0.211 HD
ENDBRANCH  15  16
ENDBRANCH   9  15
ENDBRANCH   1   2
BRANCH   1  18
ATOM     18  C   UNL     1      -7.972   0.056  -5.562  1.00  0.00     0.286 C 
ATOM     19  C   UNL     1      -7.358  -0.101  -4.149  1.00  0.00     0.202 C 
ATOM     20  O   UNL     1      -8.484   1.368  -5.738  1.00  0.00    -0.341 OA
ATOM     21  C   UNL     1      -8.390   0.275  -3.066  1.00  0.00     0.179 C 
ATOM     22  C   UNL     1      -9.548   1.650  -4.840  1.00  0.00     0.178 C 
ATOM     23  C   UNL     1      -9.048   1.629  -3.374  1.00  0.00     0.177 C 
BRANCH  19  24
ATOM     24  O   UNL     1      -6.179   0.657  -4.018  1.00  0.00    -0.385 OA
ATOM     25  H   UNL     1      -5.436   0.156  -4.444  1.00  0.00     0.211 HD
ENDBRANCH  19  24
BRANCH  21  26
ATOM     26  O   UNL     1      -7.777   0.328  -1.803  1.00  0.00    -0.387 OA
ATOM     27  H   UNL     1      -8.103  -0.459  -1.293  1.00  0.00     0.211 HD
ENDBRANCH  21  26
BRANCH  22  28
ATOM     28  C   UNL     1     -10.125   3.025  -5.217  1.00  0.00     0.191 C 
BRANCH  28  29
ATOM     29  O   UNL     1      -9.502   4.055  -4.497  1.00  0.00    -0.394 OA
ATOM     30  H   UNL     1      -8.780   3.633  -3.963  1.00  0.00     0.210 HD
ENDBRANCH  28  29
ENDBRANCH  22  28
BRANCH  23  31
ATOM     31  O   UNL     1     -10.125   1.813  -2.489  1.00  0.00    -0.387 OA
ATOM     32  H   UNL     1     -10.804   1.121  -2.701  1.00  0.00     0.211 HD
ENDBRANCH  23  31
ENDBRANCH   1  18
TORSDOF 11
ENDMDL
MODEL 8
REMARK VINA RESULT:    -4.864     15.543     17.434
REMARK INTER + INTRA:          -8.643
REMARK INTER:                  -7.596
REMARK INTRA:                  -1.047
REMARK UNBOUND:                -1.362
REMARK SMILES COC(=O)C1=CO[C@H](O[C@H]2O[C@H](CO)[C@@H](O)[C@H](O)[C@@H]2O)[C@H]2C(CO)=CC[C@H]12
REMARK SMILES IDX 9 1 8 2 5 3 6 4 27 5 7 6 21 7 26 8 22 9 25 10 3 11 4 12 2 13
REMARK SMILES IDX 1 14 23 15 24 16 10 18 19 19 11 20 17 21 12 22 15 23 20 24
REMARK SMILES IDX 18 26 13 28 14 29 16 31
REMARK H PARENT 24 17 20 25 18 27 14 30 16 32
REMARK Flexibility Score: inf
ROOT
ATOM      1  O   UNL     1      -2.296   5.958   7.978  1.00  0.00    -0.310 OA
ENDROOT
BRANCH   1   2
ATOM      2  C   UNL     1      -3.310   6.918   8.222  1.00  0.00     0.316 C 
ATOM      3  C   UNL     1      -5.404   8.513   6.938  1.00  0.00     0.076 C 
ATOM      4  C   UNL     1      -4.099   8.826   6.771  1.00  0.00     0.202 C 
ATOM      5  C   UNL     1      -5.706   7.425   7.941  1.00  0.00     0.047 C 
ATOM      6  O   UNL     1      -3.073   8.070   7.389  1.00  0.00    -0.471 OA
ATOM      7  C   UNL     1      -4.660   6.327   7.814  1.00  0.00     0.094 C 
ATOM      8  C   UNL     1      -7.017   6.639   7.897  1.00  0.00     0.037 C 
ATOM      9  C   UNL     1      -5.280   5.222   8.600  1.00  0.00    -0.039 C 
ATOM     10  C   UNL     1      -6.609   5.354   8.558  1.00  0.00    -0.024 C 
BRANCH   3  11
ATOM     11  C   UNL     1      -6.471   9.336   6.325  1.00  0.00     0.337 C 
ATOM     12  O   UNL     1      -6.630   9.336   5.072  1.00  0.00    -0.246 OA
BRANCH  11  13
ATOM     13  O   UNL     1      -7.300  10.122   7.132  1.00  0.00    -0.466 OA
ATOM     14  C   UNL     1      -8.703   9.912   7.230  1.00  0.00     0.282 C 
ENDBRANCH  11  13
ENDBRANCH   3  11
BRANCH   9  15
ATOM     15  C   UNL     1      -4.575   3.965   9.029  1.00  0.00     0.187 C 
BRANCH  15  16
ATOM     16  O   UNL     1      -5.257   2.839   8.551  1.00  0.00    -0.392 OA
ATOM     17  H   UNL     1      -6.222   3.074   8.548  1.00  0.00     0.211 HD
ENDBRANCH  15  16
ENDBRANCH   9  15
ENDBRANCH   1   2
BRANCH   1  18
ATOM     18  C   UNL     1      -1.044   6.552   7.658  1.00  0.00     0.286 C 
ATOM     19  C   UNL     1      -0.556   6.156   6.242  1.00  0.00     0.202 C 
ATOM     20  O   UNL     1      -0.079   6.193   8.635  1.00  0.00    -0.341 OA
ATOM     21  C   UNL     1      -0.201   4.656   6.192  1.00  0.00     0.179 C 
ATOM     22  C   UNL     1       0.123   4.788   8.693  1.00  0.00     0.178 C 
ATOM     23  C   UNL     1       0.715   4.263   7.361  1.00  0.00     0.177 C 
BRANCH  19  24
ATOM     24  O   UNL     1       0.532   6.953   5.837  1.00  0.00    -0.385 OA
ATOM     25  H   UNL     1       1.366   6.547   6.190  1.00  0.00     0.211 HD
ENDBRANCH  19  24
BRANCH  21  26
ATOM     26  O   UNL     1       0.428   4.343   4.976  1.00  0.00    -0.387 OA
ATOM     27  H   UNL     1       0.639   5.205   4.532  1.00  0.00     0.211 HD
ENDBRANCH  21  26
BRANCH  22  28
ATOM     28  C   UNL     1       1.062   4.500   9.877  1.00  0.00     0.191 C 
BRANCH  28  29
ATOM     29  O   UNL     1       2.331   4.095   9.435  1.00  0.00    -0.394 OA
ATOM     30  H   UNL     1       2.774   3.657  10.208  1.00  0.00     0.210 HD
ENDBRANCH  28  29
ENDBRANCH  22  28
BRANCH  23  31
ATOM     31  O   UNL     1       0.821   2.862   7.393  1.00  0.00    -0.387 OA
ATOM     32  H   UNL     1       0.781   2.539   6.456  1.00  0.00     0.211 HD
ENDBRANCH  23  31
ENDBRANCH   1  18
TORSDOF 11
ENDMDL
MODEL 9
REMARK VINA RESULT:    -4.783     12.487     15.499
REMARK INTER + INTRA:          -8.521
REMARK INTER:                  -7.367
REMARK INTRA:                  -1.154
REMARK UNBOUND:                -1.362
REMARK SMILES COC(=O)C1=CO[C@H](O[C@H]2O[C@H](CO)[C@@H](O)[C@H](O)[C@@H]2O)[C@H]2C(CO)=CC[C@H]12
REMARK SMILES IDX 9 1 8 2 5 3 6 4 27 5 7 6 21 7 26 8 22 9 25 10 3 11 4 12 2 13
REMARK SMILES IDX 1 14 23 15 24 16 10 18 19 19 11 20 17 21 12 22 15 23 20 24
REMARK SMILES IDX 18 26 13 28 14 29 16 31
REMARK H PARENT 24 17 20 25 18 27 14 30 16 32
REMARK Flexibility Score: inf
ROOT
ATOM      1  O   UNL     1      -4.007  -7.212   5.800  1.00  0.00    -0.310 OA
ENDROOT
BRANCH   1   2
ATOM      2  C   UNL     1      -3.643  -6.591   7.022  1.00  0.00     0.316 C 
ATOM      3  C   UNL     1      -4.174  -4.281   8.742  1.00  0.00     0.076 C 
ATOM      4  C   UNL     1      -3.477  -4.138   7.592  1.00  0.00     0.202 C 
ATOM      5  C   UNL     1      -4.500  -5.696   9.154  1.00  0.00     0.047 C 
ATOM      6  O   UNL     1      -3.205  -5.245   6.751  1.00  0.00    -0.471 OA
ATOM      7  C   UNL     1      -4.879  -6.499   7.917  1.00  0.00     0.094 C 
ATOM      8  C   UNL     1      -5.650  -6.005  10.114  1.00  0.00     0.037 C 
ATOM      9  C   UNL     1      -5.479  -7.724   8.520  1.00  0.00    -0.039 C 
ATOM     10  C   UNL     1      -5.994  -7.411   9.713  1.00  0.00    -0.024 C 
BRANCH   3  11
ATOM     11  C   UNL     1      -4.414  -3.126   9.637  1.00  0.00     0.337 C 
ATOM     12  O   UNL     1      -3.438  -2.490  10.125  1.00  0.00    -0.246 OA
BRANCH  11  13
ATOM     13  O   UNL     1      -5.721  -2.742   9.948  1.00  0.00    -0.466 OA
ATOM     14  C   UNL     1      -6.713  -2.509   8.956  1.00  0.00     0.282 C 
ENDBRANCH  11  13
ENDBRANCH   3  11
BRANCH   9  15
ATOM     15  C   UNL     1      -5.805  -8.986   7.771  1.00  0.00     0.187 C 
BRANCH  15  16
ATOM     16  O   UNL     1      -6.681  -8.710   6.714  1.00  0.00    -0.392 OA
ATOM     17  H   UNL     1      -6.802  -9.561   6.217  1.00  0.00     0.211 HD
ENDBRANCH  15  16
ENDBRANCH   9  15
ENDBRANCH   1   2
BRANCH   1  18
ATOM     18  C   UNL     1      -3.097  -8.235   5.414  1.00  0.00     0.286 C 
ATOM     19  C   UNL     1      -1.847  -7.665   4.699  1.00  0.00     0.202 C 
ATOM     20  O   UNL     1      -3.760  -9.176   4.583  1.00  0.00    -0.341 OA
ATOM     21  C   UNL     1      -2.232  -7.069   3.330  1.00  0.00     0.179 C 
ATOM     22  C   UNL     1      -4.255  -8.580   3.392  1.00  0.00     0.178 C 
ATOM     23  C   UNL     1      -3.090  -8.051   2.518  1.00  0.00     0.177 C 
BRANCH  19  24
ATOM     24  O   UNL     1      -0.845  -8.645   4.567  1.00  0.00    -0.385 OA
ATOM     25  H   UNL     1      -0.540  -8.904   5.475  1.00  0.00     0.211 HD
ENDBRANCH  19  24
BRANCH  21  26
ATOM     26  O   UNL     1      -1.079  -6.738   2.599  1.00  0.00    -0.387 OA
ATOM     27  H   UNL     1      -0.845  -5.804   2.840  1.00  0.00     0.211 HD
ENDBRANCH  21  26
BRANCH  22  28
ATOM     28  C   UNL     1      -5.079  -9.643   2.646  1.00  0.00     0.191 C 
BRANCH  28  29
ATOM     29  O   UNL     1      -4.645  -9.789   1.320  1.00  0.00    -0.394 OA
ATOM     30  H   UNL     1      -4.707  -8.892   0.900  1.00  0.00     0.210 HD
ENDBRANCH  28  29
ENDBRANCH  22  28
BRANCH  23  31
ATOM     31  O   UNL     1      -3.593  -7.379   1.391  1.00  0.00    -0.387 OA
ATOM     32  H   UNL     1      -4.582  -7.355   1.477  1.00  0.00     0.211 HD
ENDBRANCH  23  31
ENDBRANCH   1  18
TORSDOF 11
ENDMDL
