MODEL 1
REMARK VINA RESULT:    -6.836      0.000      0.000
REMARK INTER + INTRA:          -9.710
REMARK INTER:                  -9.234
REMARK INTRA:                  -0.476
REMARK UNBOUND:                -0.476
REMARK SMILES CC(=O)CCC=C(C)CCC=C(C)C
REMARK SMILES IDX 7 1 6 2 8 3 9 4 10 5 11 6 13 7 12 8 14 9 5 10 4 11 2 12 3 13
REMARK SMILES IDX 1 14
REMARK H PARENT
REMARK Flexibility Score: inf
ROOT
ATOM      1  C   UNL     1      11.603  16.794  29.774  1.00  0.00    -0.077 C 
ATOM      2  C   UNL     1      12.851  16.500  30.208  1.00  0.00    -0.028 C 
ATOM      3  C   UNL     1      11.099  18.216  29.700  1.00  0.00     0.039 C 
ENDROOT
BRANCH   1   4
ATOM      4  C   UNL     1      10.681  15.664  29.369  1.00  0.00     0.034 C 
BRANCH   4   5
ATOM      5  C   UNL     1      11.483  14.403  29.032  1.00  0.00     0.032 C 
BRANCH   5   6
ATOM      6  C   UNL     1      11.436  14.118  27.552  1.00  0.00    -0.028 C 
ATOM      7  C   UNL     1      10.329  11.892  27.854  1.00  0.00     0.039 C 
ATOM      8  C   UNL     1      10.949  12.978  27.011  1.00  0.00    -0.080 C 
ATOM      9  C   UNL     1      10.977  12.785  25.516  1.00  0.00     0.039 C 
ENDBRANCH   5   6
ENDBRANCH   4   5
ENDBRANCH   1   4
BRANCH   2  10
ATOM     10  C   UNL     1      13.883  17.529  30.595  1.00  0.00     0.035 C 
BRANCH  10  11
ATOM     11  C   UNL     1      14.989  16.892  31.442  1.00  0.00     0.079 C 
BRANCH  11  12
ATOM     12  C   UNL     1      16.169  17.817  31.562  1.00  0.00     0.130 C 
ATOM     13  O   UNL     1      16.035  19.007  31.315  1.00  0.00    -0.300 OA
ATOM     14  C   UNL     1      17.513  17.287  31.959  1.00  0.00     0.087 C 
ENDBRANCH  11  12
ENDBRANCH  10  11
ENDBRANCH   2  10
TORSDOF 6
ENDMDL
MODEL 2
REMARK VINA RESULT:    -6.765      2.602      7.330
REMARK INTER + INTRA:          -9.614
REMARK INTER:                  -9.213
REMARK INTRA:                  -0.401
REMARK UNBOUND:                -0.476
REMARK SMILES CC(=O)CCC=C(C)CCC=C(C)C
REMARK SMILES IDX 7 1 6 2 8 3 9 4 10 5 11 6 13 7 12 8 14 9 5 10 4 11 2 12 3 13
REMARK SMILES IDX 1 14
REMARK H PARENT
REMARK Flexibility Score: inf
ROOT
ATOM      1  C   UNL     1      13.515  16.388  30.585  1.00  0.00    -0.077 C 
ATOM      2  C   UNL     1      12.377  16.377  29.851  1.00  0.00    -0.028 C 
ATOM      3  C   UNL     1      13.857  15.271  31.543  1.00  0.00     0.039 C 
ENDROOT
BRANCH   1   4
ATOM      4  C   UNL     1      14.462  17.561  30.453  1.00  0.00     0.034 C 
BRANCH   4   5
ATOM      5  C   UNL     1      15.549  17.505  31.531  1.00  0.00     0.032 C 
BRANCH   5   6
ATOM      6  C   UNL     1      16.432  18.726  31.465  1.00  0.00    -0.028 C 
ATOM      7  C   UNL     1      18.471  17.490  32.233  1.00  0.00     0.039 C 
ATOM      8  C   UNL     1      17.740  18.740  31.809  1.00  0.00    -0.080 C 
ATOM      9  C   UNL     1      18.522  20.027  31.733  1.00  0.00     0.039 C 
ENDBRANCH   5   6
ENDBRANCH   4   5
ENDBRANCH   1   4
BRANCH   2  10
ATOM     10  C   UNL     1      11.374  15.251  29.851  1.00  0.00     0.035 C 
BRANCH  10  11
ATOM     11  C   UNL     1      10.593  15.223  28.534  1.00  0.00     0.079 C 
BRANCH  11  12
ATOM     12  C   UNL     1      10.907  13.976  27.753  1.00  0.00     0.130 C 
ATOM     13  O   UNL     1      11.016  14.033  26.537  1.00  0.00    -0.300 OA
ATOM     14  C   UNL     1      11.065  12.661  28.453  1.00  0.00     0.087 C 
ENDBRANCH  11  12
ENDBRANCH  10  11
ENDBRANCH   2  10
TORSDOF 6
ENDMDL
MODEL 3
REMARK VINA RESULT:    -6.550      3.703      9.082
REMARK INTER + INTRA:          -9.324
REMARK INTER:                  -8.851
REMARK INTRA:                  -0.473
REMARK UNBOUND:                -0.476
REMARK SMILES CC(=O)CCC=C(C)CCC=C(C)C
REMARK SMILES IDX 7 1 6 2 8 3 9 4 10 5 11 6 13 7 12 8 14 9 5 10 4 11 2 12 3 13
REMARK SMILES IDX 1 14
REMARK H PARENT
REMARK Flexibility Score: inf
ROOT
ATOM      1  C   UNL     1      17.944  18.784  31.771  1.00  0.00    -0.077 C 
ATOM      2  C   UNL     1      16.623  18.683  31.491  1.00  0.00    -0.028 C 
ATOM      3  C   UNL     1      18.709  17.658  32.425  1.00  0.00     0.039 C 
ENDROOT
BRANCH   1   4
ATOM      4  C   UNL     1      18.669  20.069  31.432  1.00  0.00     0.034 C 
BRANCH   4   5
ATOM      5  C   UNL     1      17.723  21.269  31.530  1.00  0.00     0.032 C 
BRANCH   5   6
ATOM      6  C   UNL     1      17.793  21.896  32.901  1.00  0.00    -0.028 C 
ATOM      7  C   UNL     1      17.197  24.180  32.061  1.00  0.00     0.039 C 
ATOM      8  C   UNL     1      17.590  23.210  33.148  1.00  0.00    -0.080 C 
ATOM      9  C   UNL     1      17.714  23.736  34.555  1.00  0.00     0.039 C 
ENDBRANCH   5   6
ENDBRANCH   4   5
ENDBRANCH   1   4
BRANCH   2  10
ATOM     10  C   UNL     1      15.793  17.447  31.731  1.00  0.00     0.035 C 
BRANCH  10  11
ATOM     11  C   UNL     1      14.586  17.415  30.789  1.00  0.00     0.079 C 
BRANCH  11  12
ATOM     12  C   UNL     1      13.784  16.160  30.992  1.00  0.00     0.130 C 
ATOM     13  O   UNL     1      14.159  15.323  31.800  1.00  0.00    -0.300 OA
ATOM     14  C   UNL     1      12.540  15.916  30.193  1.00  0.00     0.087 C 
ENDBRANCH  11  12
ENDBRANCH  10  11
ENDBRANCH   2  10
TORSDOF 6
ENDMDL
MODEL 4
REMARK VINA RESULT:    -6.133      2.734      5.184
REMARK INTER + INTRA:          -8.760
REMARK INTER:                  -8.350
REMARK INTRA:                  -0.411
REMARK UNBOUND:                -0.476
REMARK SMILES CC(=O)CCC=C(C)CCC=C(C)C
REMARK SMILES IDX 7 1 6 2 8 3 9 4 10 5 11 6 13 7 12 8 14 9 5 10 4 11 2 12 3 13
REMARK SMILES IDX 1 14
REMARK H PARENT
REMARK Flexibility Score: inf
ROOT
ATOM      1  C   UNL     1      16.458  17.847  31.565  1.00  0.00    -0.077 C 
ATOM      2  C   UNL     1      16.167  19.156  31.383  1.00  0.00    -0.028 C 
ATOM      3  C   UNL     1      17.849  17.381  31.923  1.00  0.00     0.039 C 
ENDROOT
BRANCH   1   4
ATOM      4  C   UNL     1      15.360  16.820  31.390  1.00  0.00     0.034 C 
BRANCH   4   5
ATOM      5  C   UNL     1      14.107  17.462  30.785  1.00  0.00     0.032 C 
BRANCH   5   6
ATOM      6  C   UNL     1      13.110  16.407  30.376  1.00  0.00    -0.028 C 
ATOM      7  C   UNL     1      11.360  18.082  29.737  1.00  0.00     0.039 C 
ATOM      8  C   UNL     1      11.859  16.672  29.933  1.00  0.00    -0.080 C 
ATOM      9  C   UNL     1      10.933  15.537  29.578  1.00  0.00     0.039 C 
ENDBRANCH   5   6
ENDBRANCH   4   5
ENDBRANCH   1   4
BRANCH   2  10
ATOM     10  C   UNL     1      17.152  20.283  31.573  1.00  0.00     0.035 C 
BRANCH  10  11
ATOM     11  C   UNL     1      16.554  21.379  32.459  1.00  0.00     0.079 C 
BRANCH  11  12
ATOM     12  C   UNL     1      17.456  22.582  32.502  1.00  0.00     0.130 C 
ATOM     13  O   UNL     1      17.710  23.187  31.471  1.00  0.00    -0.300 OA
ATOM     14  C   UNL     1      18.065  23.030  33.795  1.00  0.00     0.087 C 
ENDBRANCH  11  12
ENDBRANCH  10  11
ENDBRANCH   2  10
TORSDOF 6
ENDMDL
MODEL 5
REMARK VINA RESULT:    -6.086      1.889      4.121
REMARK INTER + INTRA:          -8.697
REMARK INTER:                  -8.142
REMARK INTRA:                  -0.555
REMARK UNBOUND:                -0.476
REMARK SMILES CC(=O)CCC=C(C)CCC=C(C)C
REMARK SMILES IDX 7 1 6 2 8 3 9 4 10 5 11 6 13 7 12 8 14 9 5 10 4 11 2 12 3 13
REMARK SMILES IDX 1 14
REMARK H PARENT
REMARK Flexibility Score: inf
ROOT
ATOM      1  C   UNL     1      15.749  17.325  31.337  1.00  0.00    -0.077 C 
ATOM      2  C   UNL     1      16.920  17.112  31.981  1.00  0.00    -0.028 C 
ATOM      3  C   UNL     1      15.594  18.418  30.305  1.00  0.00     0.039 C 
ENDROOT
BRANCH   1   4
ATOM      4  C   UNL     1      14.556  16.456  31.673  1.00  0.00     0.034 C 
BRANCH   4   5
ATOM      5  C   UNL     1      13.331  16.875  30.855  1.00  0.00     0.032 C 
BRANCH   5   6
ATOM      6  C   UNL     1      12.762  15.698  30.102  1.00  0.00    -0.028 C 
ATOM      7  C   UNL     1      10.606  16.867  29.587  1.00  0.00     0.039 C 
ATOM      8  C   UNL     1      11.525  15.670  29.555  1.00  0.00    -0.080 C 
ATOM      9  C   UNL     1      11.046  14.428  28.848  1.00  0.00     0.039 C 
ENDBRANCH   5   6
ENDBRANCH   4   5
ENDBRANCH   1   4
BRANCH   2  10
ATOM     10  C   UNL     1      18.194  17.872  31.709  1.00  0.00     0.035 C 
BRANCH  10  11
ATOM     11  C   UNL     1      18.404  18.967  32.758  1.00  0.00     0.079 C 
BRANCH  11  12
ATOM     12  C   UNL     1      18.354  20.330  32.124  1.00  0.00     0.130 C 
ATOM     13  O   UNL     1      18.469  20.440  30.912  1.00  0.00    -0.300 OA
ATOM     14  C   UNL     1      18.188  21.556  32.970  1.00  0.00     0.087 C 
ENDBRANCH  11  12
ENDBRANCH  10  11
ENDBRANCH   2  10
TORSDOF 6
ENDMDL
MODEL 6
REMARK VINA RESULT:    -5.846      5.573     10.550
REMARK INTER + INTRA:          -8.372
REMARK INTER:                  -7.698
REMARK INTRA:                  -0.674
REMARK UNBOUND:                -0.476
REMARK SMILES CC(=O)CCC=C(C)CCC=C(C)C
REMARK SMILES IDX 7 1 6 2 8 3 9 4 10 5 11 6 13 7 12 8 14 9 5 10 4 11 2 12 3 13
REMARK SMILES IDX 1 14
REMARK H PARENT
REMARK Flexibility Score: inf
ROOT
ATOM      1  C   UNL     1      18.140  21.650  32.705  1.00  0.00    -0.077 C 
ATOM      2  C   UNL     1      18.673  20.408  32.778  1.00  0.00    -0.028 C 
ATOM      3  C   UNL     1      17.575  22.202  31.417  1.00  0.00     0.039 C 
ENDROOT
BRANCH   1   4
ATOM      4  C   UNL     1      18.126  22.517  33.946  1.00  0.00     0.034 C 
BRANCH   4   5
ATOM      5  C   UNL     1      17.229  23.743  33.742  1.00  0.00     0.032 C 
BRANCH   5   6
ATOM      6  C   UNL     1      18.003  25.017  33.975  1.00  0.00    -0.028 C 
ATOM      7  C   UNL     1      17.484  25.935  31.702  1.00  0.00     0.039 C 
ATOM      8  C   UNL     1      18.152  25.996  33.054  1.00  0.00    -0.080 C 
ATOM      9  C   UNL     1      18.973  27.217  33.384  1.00  0.00     0.039 C 
ENDBRANCH   5   6
ENDBRANCH   4   5
ENDBRANCH   1   4
BRANCH   2  10
ATOM     10  C   UNL     1      18.707  19.426  31.634  1.00  0.00     0.035 C 
BRANCH  10  11
ATOM     11  C   UNL     1      18.025  18.113  32.028  1.00  0.00     0.079 C 
BRANCH  11  12
ATOM     12  C   UNL     1      16.585  18.107  31.594  1.00  0.00     0.130 C 
ATOM     13  O   UNL     1      16.108  19.098  31.060  1.00  0.00    -0.300 OA
ATOM     14  C   UNL     1      15.725  16.904  31.832  1.00  0.00     0.087 C 
ENDBRANCH  11  12
ENDBRANCH  10  11
ENDBRANCH   2  10
TORSDOF 6
ENDMDL
MODEL 7
REMARK VINA RESULT:    -5.797      5.684      8.856
REMARK INTER + INTRA:          -8.306
REMARK INTER:                  -7.695
REMARK INTRA:                  -0.611
REMARK UNBOUND:                -0.476
REMARK SMILES CC(=O)CCC=C(C)CCC=C(C)C
REMARK SMILES IDX 7 1 6 2 8 3 9 4 10 5 11 6 13 7 12 8 14 9 5 10 4 11 2 12 3 13
REMARK SMILES IDX 1 14
REMARK H PARENT
REMARK Flexibility Score: inf
ROOT
ATOM      1  C   UNL     1      17.774  22.466  32.744  1.00  0.00    -0.077 C 
ATOM      2  C   UNL     1      17.693  23.129  33.921  1.00  0.00    -0.028 C 
ATOM      3  C   UNL     1      17.274  23.069  31.453  1.00  0.00     0.039 C 
ENDROOT
BRANCH   1   4
ATOM      4  C   UNL     1      18.367  21.073  32.725  1.00  0.00     0.034 C 
BRANCH   4   5
ATOM      5  C   UNL     1      18.139  20.404  31.366  1.00  0.00     0.032 C 
BRANCH   5   6
ATOM      6  C   UNL     1      16.898  19.546  31.393  1.00  0.00    -0.028 C 
ATOM      7  C   UNL     1      18.155  17.471  32.019  1.00  0.00     0.039 C 
ATOM      8  C   UNL     1      16.896  18.219  31.654  1.00  0.00    -0.080 C 
ATOM      9  C   UNL     1      15.600  17.451  31.626  1.00  0.00     0.039 C 
ENDBRANCH   5   6
ENDBRANCH   4   5
ENDBRANCH   1   4
BRANCH   2  10
ATOM     10  C   UNL     1      17.171  24.536  34.073  1.00  0.00     0.035 C 
BRANCH  10  11
ATOM     11  C   UNL     1      16.038  24.583  35.103  1.00  0.00     0.079 C 
BRANCH  11  12
ATOM     12  C   UNL     1      14.765  25.080  34.474  1.00  0.00     0.130 C 
ATOM     13  O   UNL     1      14.040  25.844  35.093  1.00  0.00    -0.300 OA
ATOM     14  C   UNL     1      14.368  24.626  33.102  1.00  0.00     0.087 C 
ENDBRANCH  11  12
ENDBRANCH  10  11
ENDBRANCH   2  10
TORSDOF 6
ENDMDL
MODEL 8
REMARK VINA RESULT:    -5.746      5.766      9.061
REMARK INTER + INTRA:          -8.238
REMARK INTER:                  -7.670
REMARK INTRA:                  -0.567
REMARK UNBOUND:                -0.476
REMARK SMILES CC(=O)CCC=C(C)CCC=C(C)C
REMARK SMILES IDX 7 1 6 2 8 3 9 4 10 5 11 6 13 7 12 8 14 9 5 10 4 11 2 12 3 13
REMARK SMILES IDX 1 14
REMARK H PARENT
REMARK Flexibility Score: inf
ROOT
ATOM      1  C   UNL     1      17.814  22.412  32.863  1.00  0.00    -0.077 C 
ATOM      2  C   UNL     1      17.231  22.962  31.773  1.00  0.00    -0.028 C 
ATOM      3  C   UNL     1      17.940  23.165  34.166  1.00  0.00     0.039 C 
ENDROOT
BRANCH   1   4
ATOM      4  C   UNL     1      18.369  21.007  32.769  1.00  0.00     0.034 C 
BRANCH   4   5
ATOM      5  C   UNL     1      18.093  20.405  31.387  1.00  0.00     0.032 C 
BRANCH   5   6
ATOM      6  C   UNL     1      16.902  19.480  31.434  1.00  0.00    -0.028 C 
ATOM      7  C   UNL     1      18.281  17.479  32.041  1.00  0.00     0.039 C 
ATOM      8  C   UNL     1      16.977  18.155  31.696  1.00  0.00    -0.080 C 
ATOM      9  C   UNL     1      15.724  17.318  31.689  1.00  0.00     0.039 C 
ENDBRANCH   5   6
ENDBRANCH   4   5
ENDBRANCH   1   4
BRANCH   2  10
ATOM     10  C   UNL     1      16.596  24.330  31.744  1.00  0.00     0.035 C 
BRANCH  10  11
ATOM     11  C   UNL     1      17.612  25.388  31.303  1.00  0.00     0.079 C 
BRANCH  11  12
ATOM     12  C   UNL     1      17.602  26.562  32.242  1.00  0.00     0.130 C 
ATOM     13  O   UNL     1      16.554  27.147  32.472  1.00  0.00    -0.300 OA
ATOM     14  C   UNL     1      18.872  27.035  32.881  1.00  0.00     0.087 C 
ENDBRANCH  11  12
ENDBRANCH  10  11
ENDBRANCH   2  10
TORSDOF 6
ENDMDL
MODEL 9
REMARK VINA RESULT:    -5.677      5.185      9.439
REMARK INTER + INTRA:          -8.145
REMARK INTER:                  -7.566
REMARK INTRA:                  -0.580
REMARK UNBOUND:                -0.476
REMARK SMILES CC(=O)CCC=C(C)CCC=C(C)C
REMARK SMILES IDX 7 1 6 2 8 3 9 4 10 5 11 6 13 7 12 8 14 9 5 10 4 11 2 12 3 13
REMARK SMILES IDX 1 14
REMARK H PARENT
REMARK Flexibility Score: inf
ROOT
ATOM      1  C   UNL     1      18.093  21.552  32.553  1.00  0.00    -0.077 C 
ATOM      2  C   UNL     1      18.610  20.319  32.768  1.00  0.00    -0.028 C 
ATOM      3  C   UNL     1      17.623  21.993  31.187  1.00  0.00     0.039 C 
ENDROOT
BRANCH   1   4
ATOM      4  C   UNL     1      18.000  22.521  33.712  1.00  0.00     0.034 C 
BRANCH   4   5
ATOM      5  C   UNL     1      17.458  23.876  33.245  1.00  0.00     0.032 C 
BRANCH   5   6
ATOM      6  C   UNL     1      15.976  23.977  33.503  1.00  0.00    -0.028 C 
ATOM      7  C   UNL     1      15.520  25.163  31.344  1.00  0.00     0.039 C 
ATOM      8  C   UNL     1      15.098  24.583  32.671  1.00  0.00    -0.080 C 
ATOM      9  C   UNL     1      13.639  24.652  33.042  1.00  0.00     0.039 C 
ENDBRANCH   5   6
ENDBRANCH   4   5
ENDBRANCH   1   4
BRANCH   2  10
ATOM     10  C   UNL     1      18.715  19.244  31.716  1.00  0.00     0.035 C 
BRANCH  10  11
ATOM     11  C   UNL     1      17.968  17.982  32.156  1.00  0.00     0.079 C 
BRANCH  11  12
ATOM     12  C   UNL     1      16.573  17.965  31.596  1.00  0.00     0.130 C 
ATOM     13  O   UNL     1      16.142  18.947  31.009  1.00  0.00    -0.300 OA
ATOM     14  C   UNL     1      15.697  16.762  31.772  1.00  0.00     0.087 C 
ENDBRANCH  11  12
ENDBRANCH  10  11
ENDBRANCH   2  10
TORSDOF 6
ENDMDL
