MODEL 1
REMARK VINA RESULT:    -5.648      0.000      0.000
REMARK INTER + INTRA:          -8.621
REMARK INTER:                  -7.630
REMARK INTRA:                  -0.992
REMARK UNBOUND:                -0.992
REMARK SMILES CC(=O)CCC=C(C)CCC=C(C)C
REMARK SMILES IDX 7 1 6 2 8 3 9 4 10 5 11 6 13 7 12 8 14 9 5 10 4 11 2 12 3 13
REMARK SMILES IDX 1 14
REMARK H PARENT
REMARK Flexibility Score: inf
ROOT
ATOM      1  C   UNL     1     -12.316 -16.080  31.004  1.00  0.00    -0.077 C 
ATOM      2  C   UNL     1     -13.556 -15.848  31.488  1.00  0.00    -0.028 C 
ATOM      3  C   UNL     1     -11.179 -16.479  31.916  1.00  0.00     0.039 C 
ENDROOT
BRANCH   1   4
ATOM      4  C   UNL     1     -12.065 -15.949  29.518  1.00  0.00     0.034 C 
BRANCH   4   5
ATOM      5  C   UNL     1     -11.528 -17.263  28.935  1.00  0.00     0.032 C 
BRANCH   5   6
ATOM      6  C   UNL     1     -12.653 -18.162  28.485  1.00  0.00    -0.028 C 
ATOM      7  C   UNL     1     -14.159 -20.102  28.619  1.00  0.00     0.039 C 
ATOM      8  C   UNL     1     -13.023 -19.272  29.158  1.00  0.00    -0.080 C 
ATOM      9  C   UNL     1     -12.325 -19.694  30.430  1.00  0.00     0.039 C 
ENDBRANCH   5   6
ENDBRANCH   4   5
ENDBRANCH   1   4
BRANCH   2  10
ATOM     10  C   UNL     1     -13.904 -15.955  32.955  1.00  0.00     0.035 C 
BRANCH  10  11
ATOM     11  C   UNL     1     -14.313 -14.601  33.549  1.00  0.00     0.079 C 
BRANCH  11  12
ATOM     12  C   UNL     1     -13.392 -14.181  34.667  1.00  0.00     0.130 C 
ATOM     13  O   UNL     1     -13.699 -13.236  35.379  1.00  0.00    -0.300 OA
ATOM     14  C   UNL     1     -12.106 -14.906  34.933  1.00  0.00     0.087 C 
ENDBRANCH  11  12
ENDBRANCH  10  11
ENDBRANCH   2  10
TORSDOF 6
ENDMDL
MODEL 2
REMARK VINA RESULT:    -5.578      2.175      3.040
REMARK INTER + INTRA:          -8.526
REMARK INTER:                  -8.150
REMARK INTRA:                  -0.376
REMARK UNBOUND:                -0.992
REMARK SMILES CC(=O)CCC=C(C)CCC=C(C)C
REMARK SMILES IDX 7 1 6 2 8 3 9 4 10 5 11 6 13 7 12 8 14 9 5 10 4 11 2 12 3 13
REMARK SMILES IDX 1 14
REMARK H PARENT
REMARK Flexibility Score: inf
ROOT
ATOM      1  C   UNL     1     -13.588 -15.625  31.880  1.00  0.00    -0.077 C 
ATOM      2  C   UNL     1     -12.826 -15.737  32.990  1.00  0.00    -0.028 C 
ATOM      3  C   UNL     1     -14.764 -14.678  31.827  1.00  0.00     0.039 C 
ENDROOT
BRANCH   1   4
ATOM      4  C   UNL     1     -13.248 -16.456  30.663  1.00  0.00     0.034 C 
BRANCH   4   5
ATOM      5  C   UNL     1     -12.948 -15.560  29.454  1.00  0.00     0.032 C 
BRANCH   5   6
ATOM      6  C   UNL     1     -11.974 -16.222  28.511  1.00  0.00    -0.028 C 
ATOM      7  C   UNL     1     -11.233 -17.191  26.375  1.00  0.00     0.039 C 
ATOM      8  C   UNL     1     -12.281 -16.530  27.233  1.00  0.00    -0.080 C 
ATOM      9  C   UNL     1     -13.642 -16.227  26.652  1.00  0.00     0.039 C 
ENDBRANCH   5   6
ENDBRANCH   4   5
ENDBRANCH   1   4
BRANCH   2  10
ATOM     10  C   UNL     1     -13.085 -14.948  34.253  1.00  0.00     0.035 C 
BRANCH  10  11
ATOM     11  C   UNL     1     -11.811 -14.762  35.087  1.00  0.00     0.079 C 
BRANCH  11  12
ATOM     12  C   UNL     1     -12.075 -13.963  36.339  1.00  0.00     0.130 C 
ATOM     13  O   UNL     1     -11.610 -14.340  37.404  1.00  0.00    -0.300 OA
ATOM     14  C   UNL     1     -12.888 -12.703  36.303  1.00  0.00     0.087 C 
ENDBRANCH  11  12
ENDBRANCH  10  11
ENDBRANCH   2  10
TORSDOF 6
ENDMDL
MODEL 3
REMARK VINA RESULT:    -5.546      2.310      6.076
REMARK INTER + INTRA:          -8.483
REMARK INTER:                  -7.632
REMARK INTRA:                  -0.851
REMARK UNBOUND:                -0.992
REMARK SMILES CC(=O)CCC=C(C)CCC=C(C)C
REMARK SMILES IDX 7 1 6 2 8 3 9 4 10 5 11 6 13 7 12 8 14 9 5 10 4 11 2 12 3 13
REMARK SMILES IDX 1 14
REMARK H PARENT
REMARK Flexibility Score: inf
ROOT
ATOM      1  C   UNL     1     -13.230 -15.843  30.639  1.00  0.00    -0.077 C 
ATOM      2  C   UNL     1     -12.329 -16.730  31.115  1.00  0.00    -0.028 C 
ATOM      3  C   UNL     1     -13.261 -15.462  29.178  1.00  0.00     0.039 C 
ENDROOT
BRANCH   1   4
ATOM      4  C   UNL     1     -14.234 -15.228  31.589  1.00  0.00     0.034 C 
BRANCH   4   5
ATOM      5  C   UNL     1     -14.027 -15.747  33.017  1.00  0.00     0.032 C 
BRANCH   5   6
ATOM      6  C   UNL     1     -14.053 -14.619  34.019  1.00  0.00    -0.028 C 
ATOM      7  C   UNL     1     -13.120 -13.134  35.744  1.00  0.00     0.039 C 
ATOM      8  C   UNL     1     -12.985 -14.278  34.772  1.00  0.00    -0.080 C 
ATOM      9  C   UNL     1     -11.671 -15.015  34.660  1.00  0.00     0.039 C 
ENDBRANCH   5   6
ENDBRANCH   4   5
ENDBRANCH   1   4
BRANCH   2  10
ATOM     10  C   UNL     1     -11.288 -17.398  30.245  1.00  0.00     0.035 C 
BRANCH  10  11
ATOM     11  C   UNL     1     -11.240 -18.915  30.468  1.00  0.00     0.079 C 
BRANCH  11  12
ATOM     12  C   UNL     1     -12.602 -19.545  30.323  1.00  0.00     0.130 C 
ATOM     13  O   UNL     1     -13.157 -20.013  31.305  1.00  0.00    -0.300 OA
ATOM     14  C   UNL     1     -13.298 -19.600  28.995  1.00  0.00     0.087 C 
ENDBRANCH  11  12
ENDBRANCH  10  11
ENDBRANCH   2  10
TORSDOF 6
ENDMDL
MODEL 4
REMARK VINA RESULT:    -5.543      1.755      2.840
REMARK INTER + INTRA:          -8.479
REMARK INTER:                  -7.642
REMARK INTRA:                  -0.837
REMARK UNBOUND:                -0.992
REMARK SMILES CC(=O)CCC=C(C)CCC=C(C)C
REMARK SMILES IDX 7 1 6 2 8 3 9 4 10 5 11 6 13 7 12 8 14 9 5 10 4 11 2 12 3 13
REMARK SMILES IDX 1 14
REMARK H PARENT
REMARK Flexibility Score: inf
ROOT
ATOM      1  C   UNL     1     -12.420 -18.128  31.583  1.00  0.00    -0.077 C 
ATOM      2  C   UNL     1     -13.203 -17.131  32.050  1.00  0.00    -0.028 C 
ATOM      3  C   UNL     1     -10.924 -18.113  31.785  1.00  0.00     0.039 C 
ENDROOT
BRANCH   1   4
ATOM      4  C   UNL     1     -13.059 -19.289  30.851  1.00  0.00     0.034 C 
BRANCH   4   5
ATOM      5  C   UNL     1     -12.557 -19.367  29.404  1.00  0.00     0.032 C 
BRANCH   5   6
ATOM      6  C   UNL     1     -13.233 -18.336  28.533  1.00  0.00    -0.028 C 
ATOM      7  C   UNL     1     -13.349 -16.323  27.126  1.00  0.00     0.039 C 
ATOM      8  C   UNL     1     -12.577 -17.295  27.978  1.00  0.00    -0.080 C 
ATOM      9  C   UNL     1     -11.095 -17.090  28.195  1.00  0.00     0.039 C 
ENDBRANCH   5   6
ENDBRANCH   4   5
ENDBRANCH   1   4
BRANCH   2  10
ATOM     10  C   UNL     1     -12.658 -15.933  32.793  1.00  0.00     0.035 C 
BRANCH  10  11
ATOM     11  C   UNL     1     -13.767 -15.134  33.490  1.00  0.00     0.079 C 
BRANCH  11  12
ATOM     12  C   UNL     1     -14.998 -15.017  32.626  1.00  0.00     0.130 C 
ATOM     13  O   UNL     1     -16.047 -15.519  33.000  1.00  0.00    -0.300 OA
ATOM     14  C   UNL     1     -14.965 -14.285  31.317  1.00  0.00     0.087 C 
ENDBRANCH  11  12
ENDBRANCH  10  11
ENDBRANCH   2  10
TORSDOF 6
ENDMDL
MODEL 5
REMARK VINA RESULT:    -5.451      2.487      6.490
REMARK INTER + INTRA:          -8.355
REMARK INTER:                  -7.802
REMARK INTRA:                  -0.553
REMARK UNBOUND:                -0.992
REMARK SMILES CC(=O)CCC=C(C)CCC=C(C)C
REMARK SMILES IDX 7 1 6 2 8 3 9 4 10 5 11 6 13 7 12 8 14 9 5 10 4 11 2 12 3 13
REMARK SMILES IDX 1 14
REMARK H PARENT
REMARK Flexibility Score: inf
ROOT
ATOM      1  C   UNL     1     -14.165 -15.439  31.932  1.00  0.00    -0.077 C 
ATOM      2  C   UNL     1     -13.270 -16.364  31.523  1.00  0.00    -0.028 C 
ATOM      3  C   UNL     1     -14.742 -14.425  30.973  1.00  0.00     0.039 C 
ENDROOT
BRANCH   1   4
ATOM      4  C   UNL     1     -14.606 -15.426  33.380  1.00  0.00     0.034 C 
BRANCH   4   5
ATOM      5  C   UNL     1     -13.912 -14.298  34.154  1.00  0.00     0.032 C 
BRANCH   5   6
ATOM      6  C   UNL     1     -12.815 -14.836  35.039  1.00  0.00    -0.028 C 
ATOM      7  C   UNL     1     -11.167 -14.753  36.863  1.00  0.00     0.039 C 
ATOM      8  C   UNL     1     -12.259 -14.120  36.040  1.00  0.00    -0.080 C 
ATOM      9  C   UNL     1     -12.708 -12.710  36.347  1.00  0.00     0.039 C 
ENDBRANCH   5   6
ENDBRANCH   4   5
ENDBRANCH   1   4
BRANCH   2  10
ATOM     10  C   UNL     1     -12.771 -16.457  30.099  1.00  0.00     0.035 C 
BRANCH  10  11
ATOM     11  C   UNL     1     -12.915 -17.874  29.530  1.00  0.00     0.079 C 
BRANCH  11  12
ATOM     12  C   UNL     1     -12.140 -18.883  30.340  1.00  0.00     0.130 C 
ATOM     13  O   UNL     1     -10.928 -18.774  30.438  1.00  0.00    -0.300 OA
ATOM     14  C   UNL     1     -12.830 -20.016  31.041  1.00  0.00     0.087 C 
ENDBRANCH  11  12
ENDBRANCH  10  11
ENDBRANCH   2  10
TORSDOF 6
ENDMDL
MODEL 6
REMARK VINA RESULT:    -5.450      2.880      5.486
REMARK INTER + INTRA:          -8.353
REMARK INTER:                  -7.275
REMARK INTRA:                  -1.078
REMARK UNBOUND:                -0.992
REMARK SMILES CC(=O)CCC=C(C)CCC=C(C)C
REMARK SMILES IDX 7 1 6 2 8 3 9 4 10 5 11 6 13 7 12 8 14 9 5 10 4 11 2 12 3 13
REMARK SMILES IDX 1 14
REMARK H PARENT
REMARK Flexibility Score: inf
ROOT
ATOM      1  C   UNL     1     -12.819 -19.331  29.535  1.00  0.00    -0.077 C 
ATOM      2  C   UNL     1     -11.814 -18.495  29.194  1.00  0.00    -0.028 C 
ATOM      3  C   UNL     1     -13.989 -19.571  28.609  1.00  0.00     0.039 C 
ENDROOT
BRANCH   1   4
ATOM      4  C   UNL     1     -12.766 -20.048  30.866  1.00  0.00     0.034 C 
BRANCH   4   5
ATOM      5  C   UNL     1     -12.444 -19.070  32.002  1.00  0.00     0.032 C 
BRANCH   5   6
ATOM      6  C   UNL     1     -13.395 -17.898  32.003  1.00  0.00    -0.028 C 
ATOM      7  C   UNL     1     -14.018 -15.520  32.073  1.00  0.00     0.039 C 
ATOM      8  C   UNL     1     -12.983 -16.615  32.079  1.00  0.00    -0.080 C 
ATOM      9  C   UNL     1     -11.517 -16.260  32.169  1.00  0.00     0.039 C 
ENDBRANCH   5   6
ENDBRANCH   4   5
ENDBRANCH   1   4
BRANCH   2  10
ATOM     10  C   UNL     1     -11.778 -17.736  27.887  1.00  0.00     0.035 C 
BRANCH  10  11
ATOM     11  C   UNL     1     -11.897 -16.222  28.098  1.00  0.00     0.079 C 
BRANCH  11  12
ATOM     12  C   UNL     1     -13.231 -15.696  27.631  1.00  0.00     0.130 C 
ATOM     13  O   UNL     1     -13.783 -16.218  26.674  1.00  0.00    -0.300 OA
ATOM     14  C   UNL     1     -13.904 -14.549  28.325  1.00  0.00     0.087 C 
ENDBRANCH  11  12
ENDBRANCH  10  11
ENDBRANCH   2  10
TORSDOF 6
ENDMDL
MODEL 7
REMARK VINA RESULT:    -5.449      1.721      3.023
REMARK INTER + INTRA:          -8.351
REMARK INTER:                  -7.866
REMARK INTRA:                  -0.485
REMARK UNBOUND:                -0.992
REMARK SMILES CC(=O)CCC=C(C)CCC=C(C)C
REMARK SMILES IDX 7 1 6 2 8 3 9 4 10 5 11 6 13 7 12 8 14 9 5 10 4 11 2 12 3 13
REMARK SMILES IDX 1 14
REMARK H PARENT
REMARK Flexibility Score: inf
ROOT
ATOM      1  C   UNL     1     -13.803 -15.525  32.884  1.00  0.00    -0.077 C 
ATOM      2  C   UNL     1     -13.001 -15.199  33.921  1.00  0.00    -0.028 C 
ATOM      3  C   UNL     1     -15.104 -14.798  32.638  1.00  0.00     0.039 C 
ENDROOT
BRANCH   1   4
ATOM      4  C   UNL     1     -13.382 -16.634  31.944  1.00  0.00     0.034 C 
BRANCH   4   5
ATOM      5  C   UNL     1     -12.237 -16.174  31.033  1.00  0.00     0.032 C 
BRANCH   5   6
ATOM      6  C   UNL     1     -12.742 -15.815  29.657  1.00  0.00    -0.028 C 
ATOM      7  C   UNL     1     -13.237 -16.209  27.281  1.00  0.00     0.039 C 
ATOM      8  C   UNL     1     -12.708 -16.670  28.613  1.00  0.00    -0.080 C 
ATOM      9  C   UNL     1     -12.152 -18.068  28.756  1.00  0.00     0.039 C 
ENDBRANCH   5   6
ENDBRANCH   4   5
ENDBRANCH   1   4
BRANCH   2  10
ATOM     10  C   UNL     1     -13.335 -14.107  34.911  1.00  0.00     0.035 C 
BRANCH  10  11
ATOM     11  C   UNL     1     -12.332 -14.056  36.072  1.00  0.00     0.079 C 
BRANCH  11  12
ATOM     12  C   UNL     1     -12.283 -12.689  36.708  1.00  0.00     0.130 C 
ATOM     13  O   UNL     1     -13.018 -12.437  37.650  1.00  0.00    -0.300 OA
ATOM     14  C   UNL     1     -11.340 -11.633  36.214  1.00  0.00     0.087 C 
ENDBRANCH  11  12
ENDBRANCH  10  11
ENDBRANCH   2  10
TORSDOF 6
ENDMDL
MODEL 8
REMARK VINA RESULT:    -5.376      3.133      6.890
REMARK INTER + INTRA:          -8.254
REMARK INTER:                  -7.730
REMARK INTRA:                  -0.524
REMARK UNBOUND:                -0.992
REMARK SMILES CC(=O)CCC=C(C)CCC=C(C)C
REMARK SMILES IDX 7 1 6 2 8 3 9 4 10 5 11 6 13 7 12 8 14 9 5 10 4 11 2 12 3 13
REMARK SMILES IDX 1 14
REMARK H PARENT
REMARK Flexibility Score: inf
ROOT
ATOM      1  C   UNL     1     -13.125 -15.620  32.390  1.00  0.00    -0.077 C 
ATOM      2  C   UNL     1     -13.644 -15.759  31.150  1.00  0.00    -0.028 C 
ATOM      3  C   UNL     1     -11.716 -16.064  32.707  1.00  0.00     0.039 C 
ENDROOT
BRANCH   1   4
ATOM      4  C   UNL     1     -13.970 -14.998  33.480  1.00  0.00     0.034 C 
BRANCH   4   5
ATOM      5  C   UNL     1     -13.233 -15.021  34.825  1.00  0.00     0.032 C 
BRANCH   5   6
ATOM      6  C   UNL     1     -13.020 -13.625  35.356  1.00  0.00    -0.028 C 
ATOM      7  C   UNL     1     -11.802 -11.835  36.524  1.00  0.00     0.039 C 
ATOM      8  C   UNL     1     -11.913 -13.256  36.035  1.00  0.00    -0.080 C 
ATOM      9  C   UNL     1     -10.794 -14.233  36.312  1.00  0.00     0.039 C 
ENDBRANCH   5   6
ENDBRANCH   4   5
ENDBRANCH   1   4
BRANCH   2  10
ATOM     10  C   UNL     1     -12.877 -16.366  29.998  1.00  0.00     0.035 C 
BRANCH  10  11
ATOM     11  C   UNL     1     -12.900 -15.468  28.754  1.00  0.00     0.079 C 
BRANCH  11  12
ATOM     12  C   UNL     1     -12.775 -16.270  27.483  1.00  0.00     0.130 C 
ATOM     13  O   UNL     1     -13.686 -16.255  26.669  1.00  0.00    -0.300 OA
ATOM     14  C   UNL     1     -11.548 -17.080  27.190  1.00  0.00     0.087 C 
ENDBRANCH  11  12
ENDBRANCH  10  11
ENDBRANCH   2  10
TORSDOF 6
ENDMDL
MODEL 9
REMARK VINA RESULT:    -5.354      2.825      6.942
REMARK INTER + INTRA:          -8.223
REMARK INTER:                  -7.703
REMARK INTRA:                  -0.520
REMARK UNBOUND:                -0.992
REMARK SMILES CC(=O)CCC=C(C)CCC=C(C)C
REMARK SMILES IDX 7 1 6 2 8 3 9 4 10 5 11 6 13 7 12 8 14 9 5 10 4 11 2 12 3 13
REMARK SMILES IDX 1 14
REMARK H PARENT
REMARK Flexibility Score: inf
ROOT
ATOM      1  C   UNL     1     -13.823 -15.054  33.284  1.00  0.00    -0.077 C 
ATOM      2  C   UNL     1     -12.886 -15.963  32.936  1.00  0.00    -0.028 C 
ATOM      3  C   UNL     1     -15.047 -14.821  32.431  1.00  0.00     0.039 C 
ENDROOT
BRANCH   1   4
ATOM      4  C   UNL     1     -13.645 -14.261  34.561  1.00  0.00     0.034 C 
BRANCH   4   5
ATOM      5  C   UNL     1     -12.389 -14.712  35.316  1.00  0.00     0.032 C 
BRANCH   5   6
ATOM      6  C   UNL     1     -11.328 -13.639  35.305  1.00  0.00    -0.028 C 
ATOM      7  C   UNL     1     -10.226 -11.573  36.055  1.00  0.00     0.039 C 
ATOM      8  C   UNL     1     -11.334 -12.589  36.153  1.00  0.00    -0.080 C 
ATOM      9  C   UNL     1     -12.421 -12.416  37.188  1.00  0.00     0.039 C 
ENDBRANCH   5   6
ENDBRANCH   4   5
ENDBRANCH   1   4
BRANCH   2  10
ATOM     10  C   UNL     1     -12.975 -16.803  31.683  1.00  0.00     0.035 C 
BRANCH  10  11
ATOM     11  C   UNL     1     -12.101 -16.245  30.553  1.00  0.00     0.079 C 
BRANCH  11  12
ATOM     12  C   UNL     1     -12.798 -16.322  29.217  1.00  0.00     0.130 C 
ATOM     13  O   UNL     1     -12.969 -17.410  28.689  1.00  0.00    -0.300 OA
ATOM     14  C   UNL     1     -13.299 -15.088  28.526  1.00  0.00     0.087 C 
ENDBRANCH  11  12
ENDBRANCH  10  11
ENDBRANCH   2  10
TORSDOF 6
ENDMDL
