MODEL 1
REMARK VINA RESULT:    -3.313      0.000      0.000
REMARK INTER + INTRA:          -4.083
REMARK INTER:                  -3.991
REMARK INTRA:                  -0.092
REMARK UNBOUND:                -0.092
REMARK SMILES CC[C@H](C)[C@H]([NH3+])C(=O)[O-]
REMARK SMILES IDX 3 1 4 2 5 3 6 4 7 8 8 9 9 10 2 11 1 12
REMARK H PARENT 6 5 6 6 6 7
REMARK Flexibility Score: inf
ROOT
ATOM      1  C   UNL     1      11.543   4.031 -18.199  1.00  0.00     0.050 C 
ATOM      2  C   UNL     1      11.504   5.476 -18.741  1.00  0.00     0.014 C 
ENDROOT
BRANCH   1   3
ATOM      3  C   UNL     1      10.688   3.087 -19.107  1.00  0.00     0.230 C 
BRANCH   3   4
ATOM      4  N   UNL     1       9.996   2.046 -18.332  1.00  0.00    -0.350 N 
ATOM      5  H   UNL     1       8.986   2.003 -18.603  1.00  0.00     0.345 HD
ATOM      6  H   UNL     1      10.024   2.275 -17.312  1.00  0.00     0.345 HD
ATOM      7  H   UNL     1      10.430   1.109 -18.498  1.00  0.00     0.345 HD
ENDBRANCH   3   4
BRANCH   3   8
ATOM      8  C   UNL     1      11.550   2.427 -20.156  1.00  0.00     0.099 C 
ATOM      9  O   UNL     1      11.030   1.969 -21.208  1.00  0.00    -0.544 OA
ATOM     10  O   UNL     1      12.922   2.316 -19.966  1.00  0.00    -0.544 OA
ENDBRANCH   3   8
ENDBRANCH   1   3
BRANCH   1  11
ATOM     11  C   UNL     1      11.065   3.989 -16.723  1.00  0.00     0.006 C 
ATOM     12  C   UNL     1      10.738   5.367 -16.145  1.00  0.00     0.004 C 
ENDBRANCH   1  11
TORSDOF 4
ENDMDL
MODEL 2
REMARK VINA RESULT:    -3.267      2.028      2.693
REMARK INTER + INTRA:          -4.027
REMARK INTER:                  -3.887
REMARK INTRA:                  -0.140
REMARK UNBOUND:                -0.092
REMARK SMILES CC[C@H](C)[C@H]([NH3+])C(=O)[O-]
REMARK SMILES IDX 3 1 4 2 5 3 6 4 7 8 8 9 9 10 2 11 1 12
REMARK H PARENT 6 5 6 6 6 7
REMARK Flexibility Score: inf
ROOT
ATOM      1  C   UNL     1      11.334   5.906 -17.059  1.00  0.00     0.050 C 
ATOM      2  C   UNL     1      10.235   6.478 -16.138  1.00  0.00     0.014 C 
ENDROOT
BRANCH   1   3
ATOM      3  C   UNL     1      11.046   4.402 -17.381  1.00  0.00     0.230 C 
BRANCH   3   4
ATOM      4  N   UNL     1      11.649   3.496 -16.391  1.00  0.00    -0.350 N 
ATOM      5  H   UNL     1      11.776   2.542 -16.802  1.00  0.00     0.345 HD
ATOM      6  H   UNL     1      11.014   3.387 -15.567  1.00  0.00     0.345 HD
ATOM      7  H   UNL     1      12.580   3.855 -16.078  1.00  0.00     0.345 HD
ENDBRANCH   3   4
BRANCH   3   8
ATOM      8  C   UNL     1      11.558   4.040 -18.754  1.00  0.00     0.099 C 
ATOM      9  O   UNL     1      11.599   4.910 -19.665  1.00  0.00    -0.544 OA
ATOM     10  O   UNL     1      11.984   2.746 -19.024  1.00  0.00    -0.544 OA
ENDBRANCH   3   8
ENDBRANCH   1   3
BRANCH   1  11
ATOM     11  C   UNL     1      12.735   6.093 -16.418  1.00  0.00     0.006 C 
ATOM     12  C   UNL     1      13.646   7.041 -17.202  1.00  0.00     0.004 C 
ENDBRANCH   1  11
TORSDOF 4
ENDMDL
MODEL 3
REMARK VINA RESULT:    -3.241      2.245      3.817
REMARK INTER + INTRA:          -3.996
REMARK INTER:                  -3.876
REMARK INTRA:                  -0.120
REMARK UNBOUND:                -0.092
REMARK SMILES CC[C@H](C)[C@H]([NH3+])C(=O)[O-]
REMARK SMILES IDX 3 1 4 2 5 3 6 4 7 8 8 9 9 10 2 11 1 12
REMARK H PARENT 6 5 6 6 6 7
REMARK Flexibility Score: inf
ROOT
ATOM      1  C   UNL     1      11.957   3.120 -20.057  1.00  0.00     0.050 C 
ATOM      2  C   UNL     1      13.296   2.371 -20.230  1.00  0.00     0.014 C 
ENDROOT
BRANCH   1   3
ATOM      3  C   UNL     1      11.473   3.034 -18.573  1.00  0.00     0.230 C 
BRANCH   3   4
ATOM      4  N   UNL     1      10.204   2.302 -18.443  1.00  0.00    -0.350 N 
ATOM      5  H   UNL     1      10.133   1.564 -19.181  1.00  0.00     0.345 HD
ATOM      6  H   UNL     1       9.396   2.950 -18.586  1.00  0.00     0.345 HD
ATOM      7  H   UNL     1      10.132   1.847 -17.503  1.00  0.00     0.345 HD
ENDBRANCH   3   4
BRANCH   3   8
ATOM      8  C   UNL     1      11.307   4.413 -17.982  1.00  0.00     0.099 C 
ATOM      9  O   UNL     1      11.191   4.559 -16.736  1.00  0.00    -0.544 OA
ATOM     10  O   UNL     1      11.276   5.530 -18.808  1.00  0.00    -0.544 OA
ENDBRANCH   3   8
ENDBRANCH   1   3
BRANCH   1  11
ATOM     11  C   UNL     1      10.891   2.565 -21.038  1.00  0.00     0.006 C 
ATOM     12  C   UNL     1      10.566   3.515 -22.193  1.00  0.00     0.004 C 
ENDBRANCH   1  11
TORSDOF 4
ENDMDL
MODEL 4
REMARK VINA RESULT:    -3.176      7.326      8.387
REMARK INTER + INTRA:          -3.919
REMARK INTER:                  -3.751
REMARK INTRA:                  -0.167
REMARK UNBOUND:                -0.092
REMARK SMILES CC[C@H](C)[C@H]([NH3+])C(=O)[O-]
REMARK SMILES IDX 3 1 4 2 5 3 6 4 7 8 8 9 9 10 2 11 1 12
REMARK H PARENT 6 5 6 6 6 7
REMARK Flexibility Score: inf
ROOT
ATOM      1  C   UNL     1      16.907  -0.663 -21.526  1.00  0.00     0.050 C 
ATOM      2  C   UNL     1      16.236  -0.966 -20.168  1.00  0.00     0.014 C 
ENDROOT
BRANCH   1   3
ATOM      3  C   UNL     1      16.725   0.845 -21.898  1.00  0.00     0.230 C 
BRANCH   3   4
ATOM      4  N   UNL     1      15.807   1.032 -23.032  1.00  0.00    -0.350 N 
ATOM      5  H   UNL     1      15.580   0.110 -23.471  1.00  0.00     0.345 HD
ATOM      6  H   UNL     1      16.261   1.615 -23.772  1.00  0.00     0.345 HD
ATOM      7  H   UNL     1      14.917   1.485 -22.719  1.00  0.00     0.345 HD
ENDBRANCH   3   4
BRANCH   3   8
ATOM      8  C   UNL     1      18.054   1.478 -22.232  1.00  0.00     0.099 C 
ATOM      9  O   UNL     1      19.076   0.760 -22.394  1.00  0.00    -0.544 OA
ATOM     10  O   UNL     1      18.160   2.858 -22.358  1.00  0.00    -0.544 OA
ENDBRANCH   3   8
ENDBRANCH   1   3
BRANCH   1  11
ATOM     11  C   UNL     1      16.346  -1.595 -22.632  1.00  0.00     0.006 C 
ATOM     12  C   UNL     1      17.428  -2.217 -23.518  1.00  0.00     0.004 C 
ENDBRANCH   1  11
TORSDOF 4
ENDMDL
MODEL 5
REMARK VINA RESULT:    -3.153      7.268      8.405
REMARK INTER + INTRA:          -3.890
REMARK INTER:                  -3.812
REMARK INTRA:                  -0.078
REMARK UNBOUND:                -0.092
REMARK SMILES CC[C@H](C)[C@H]([NH3+])C(=O)[O-]
REMARK SMILES IDX 3 1 4 2 5 3 6 4 7 8 8 9 9 10 2 11 1 12
REMARK H PARENT 6 5 6 6 6 7
REMARK Flexibility Score: inf
ROOT
ATOM      1  C   UNL     1      16.628  -0.585 -21.625  1.00  0.00     0.050 C 
ATOM      2  C   UNL     1      16.287  -0.978 -20.171  1.00  0.00     0.014 C 
ENDROOT
BRANCH   1   3
ATOM      3  C   UNL     1      17.895  -1.361 -22.114  1.00  0.00     0.230 C 
BRANCH   3   4
ATOM      4  N   UNL     1      19.084  -0.498 -22.182  1.00  0.00    -0.350 N 
ATOM      5  H   UNL     1      19.927  -1.061 -22.439  1.00  0.00     0.345 HD
ATOM      6  H   UNL     1      19.278  -0.076 -21.244  1.00  0.00     0.345 HD
ATOM      7  H   UNL     1      18.954   0.259 -22.892  1.00  0.00     0.345 HD
ENDBRANCH   3   4
BRANCH   3   8
ATOM      8  C   UNL     1      17.656  -1.974 -23.473  1.00  0.00     0.099 C 
ATOM      9  O   UNL     1      16.853  -2.936 -23.601  1.00  0.00    -0.544 OA
ATOM     10  O   UNL     1      18.322  -1.484 -24.589  1.00  0.00    -0.544 OA
ENDBRANCH   3   8
ENDBRANCH   1   3
BRANCH   1  11
ATOM     11  C   UNL     1      16.817   0.951 -21.745  1.00  0.00     0.006 C 
ATOM     12  C   UNL     1      16.012   1.750 -20.717  1.00  0.00     0.004 C 
ENDBRANCH   1  11
TORSDOF 4
ENDMDL
MODEL 6
REMARK VINA RESULT:    -3.091      5.216      6.840
REMARK INTER + INTRA:          -3.816
REMARK INTER:                  -3.742
REMARK INTRA:                  -0.074
REMARK UNBOUND:                -0.092
REMARK SMILES CC[C@H](C)[C@H]([NH3+])C(=O)[O-]
REMARK SMILES IDX 3 1 4 2 5 3 6 4 7 8 8 9 9 10 2 11 1 12
REMARK H PARENT 6 5 6 6 6 7
REMARK Flexibility Score: inf
ROOT
ATOM      1  C   UNL     1      16.480   0.706 -21.798  1.00  0.00     0.050 C 
ATOM      2  C   UNL     1      17.827   1.354 -22.187  1.00  0.00     0.014 C 
ENDROOT
BRANCH   1   3
ATOM      3  C   UNL     1      15.881   1.413 -20.539  1.00  0.00     0.230 C 
BRANCH   3   4
ATOM      4  N   UNL     1      15.498   0.454 -19.491  1.00  0.00    -0.350 N 
ATOM      5  H   UNL     1      16.127   0.553 -18.661  1.00  0.00     0.345 HD
ATOM      6  H   UNL     1      15.610  -0.526 -19.840  1.00  0.00     0.345 HD
ATOM      7  H   UNL     1      14.509   0.612 -19.187  1.00  0.00     0.345 HD
ENDBRANCH   3   4
BRANCH   3   8
ATOM      8  C   UNL     1      14.674   2.240 -20.912  1.00  0.00     0.099 C 
ATOM      9  O   UNL     1      14.698   2.967 -21.941  1.00  0.00    -0.544 OA
ATOM     10  O   UNL     1      13.532   2.209 -20.122  1.00  0.00    -0.544 OA
ENDBRANCH   3   8
ENDBRANCH   1   3
BRANCH   1  11
ATOM     11  C   UNL     1      16.655  -0.819 -21.568  1.00  0.00     0.006 C 
ATOM     12  C   UNL     1      17.894  -1.404 -22.249  1.00  0.00     0.004 C 
ENDBRANCH   1  11
TORSDOF 4
ENDMDL
MODEL 7
REMARK VINA RESULT:    -3.062      7.603      9.168
REMARK INTER + INTRA:          -3.781
REMARK INTER:                  -3.639
REMARK INTRA:                  -0.141
REMARK UNBOUND:                -0.092
REMARK SMILES CC[C@H](C)[C@H]([NH3+])C(=O)[O-]
REMARK SMILES IDX 3 1 4 2 5 3 6 4 7 8 8 9 9 10 2 11 1 12
REMARK H PARENT 6 5 6 6 6 7
REMARK Flexibility Score: inf
ROOT
ATOM      1  C   UNL     1      18.628  -1.413 -22.231  1.00  0.00     0.050 C 
ATOM      2  C   UNL     1      18.904  -2.902 -22.529  1.00  0.00     0.014 C 
ENDROOT
BRANCH   1   3
ATOM      3  C   UNL     1      17.091  -1.126 -22.274  1.00  0.00     0.230 C 
BRANCH   3   4
ATOM      4  N   UNL     1      16.703  -0.342 -23.457  1.00  0.00    -0.350 N 
ATOM      5  H   UNL     1      16.560  -0.973 -24.279  1.00  0.00     0.345 HD
ATOM      6  H   UNL     1      17.468   0.322 -23.717  1.00  0.00     0.345 HD
ATOM      7  H   UNL     1      15.818   0.186 -23.278  1.00  0.00     0.345 HD
ENDBRANCH   3   4
BRANCH   3   8
ATOM      8  C   UNL     1      16.649  -0.391 -21.031  1.00  0.00     0.099 C 
ATOM      9  O   UNL     1      16.588   0.867 -21.027  1.00  0.00    -0.544 OA
ATOM     10  O   UNL     1      16.310  -1.096 -19.883  1.00  0.00    -0.544 OA
ENDBRANCH   3   8
ENDBRANCH   1   3
BRANCH   1  11
ATOM     11  C   UNL     1      19.405  -0.505 -23.222  1.00  0.00     0.006 C 
ATOM     12  C   UNL     1      20.212   0.600 -22.536  1.00  0.00     0.004 C 
ENDBRANCH   1  11
TORSDOF 4
ENDMDL
MODEL 8
REMARK VINA RESULT:    -3.028      7.148      8.174
REMARK INTER + INTRA:          -3.740
REMARK INTER:                  -3.637
REMARK INTRA:                  -0.103
REMARK UNBOUND:                -0.092
REMARK SMILES CC[C@H](C)[C@H]([NH3+])C(=O)[O-]
REMARK SMILES IDX 3 1 4 2 5 3 6 4 7 8 8 9 9 10 2 11 1 12
REMARK H PARENT 6 5 6 6 6 7
REMARK Flexibility Score: inf
ROOT
ATOM      1  C   UNL     1      17.015  -0.134 -21.650  1.00  0.00     0.050 C 
ATOM      2  C   UNL     1      16.422   1.288 -21.749  1.00  0.00     0.014 C 
ENDROOT
BRANCH   1   3
ATOM      3  C   UNL     1      16.836  -0.894 -23.005  1.00  0.00     0.230 C 
BRANCH   3   4
ATOM      4  N   UNL     1      16.038  -2.120 -22.854  1.00  0.00    -0.350 N 
ATOM      5  H   UNL     1      15.150  -1.915 -22.339  1.00  0.00     0.345 HD
ATOM      6  H   UNL     1      16.561  -2.824 -22.284  1.00  0.00     0.345 HD
ATOM      7  H   UNL     1      15.799  -2.525 -23.789  1.00  0.00     0.345 HD
ENDBRANCH   3   4
BRANCH   3   8
ATOM      8  C   UNL     1      18.176  -1.250 -23.601  1.00  0.00     0.099 C 
ATOM      9  O   UNL     1      19.237  -1.009 -22.966  1.00  0.00    -0.544 OA
ATOM     10  O   UNL     1      18.250  -1.842 -24.856  1.00  0.00    -0.544 OA
ENDBRANCH   3   8
ENDBRANCH   1   3
BRANCH   1  11
ATOM     11  C   UNL     1      16.373  -0.912 -20.470  1.00  0.00     0.006 C 
ATOM     12  C   UNL     1      15.578  -0.023 -19.511  1.00  0.00     0.004 C 
ENDBRANCH   1  11
TORSDOF 4
ENDMDL
MODEL 9
REMARK VINA RESULT:    -2.982      9.724     11.130
REMARK INTER + INTRA:          -3.685
REMARK INTER:                  -3.520
REMARK INTRA:                  -0.165
REMARK UNBOUND:                -0.092
REMARK SMILES CC[C@H](C)[C@H]([NH3+])C(=O)[O-]
REMARK SMILES IDX 3 1 4 2 5 3 6 4 7 8 8 9 9 10 2 11 1 12
REMARK H PARENT 6 5 6 6 6 7
REMARK Flexibility Score: inf
ROOT
ATOM      1  C   UNL     1      18.130  -3.289 -23.509  1.00  0.00     0.050 C 
ATOM      2  C   UNL     1      19.497  -3.639 -22.882  1.00  0.00     0.014 C 
ENDROOT
BRANCH   1   3
ATOM      3  C   UNL     1      18.014  -3.908 -24.940  1.00  0.00     0.230 C 
BRANCH   3   4
ATOM      4  N   UNL     1      18.072  -2.885 -25.995  1.00  0.00    -0.350 N 
ATOM      5  H   UNL     1      17.106  -2.637 -26.314  1.00  0.00     0.345 HD
ATOM      6  H   UNL     1      18.579  -3.255 -26.832  1.00  0.00     0.345 HD
ATOM      7  H   UNL     1      18.545  -2.019 -25.647  1.00  0.00     0.345 HD
ENDBRANCH   3   4
BRANCH   3   8
ATOM      8  C   UNL     1      16.730  -4.689 -25.084  1.00  0.00     0.099 C 
ATOM      9  O   UNL     1      15.832  -4.600 -24.205  1.00  0.00    -0.544 OA
ATOM     10  O   UNL     1      16.532  -5.515 -26.183  1.00  0.00    -0.544 OA
ENDBRANCH   3   8
ENDBRANCH   1   3
BRANCH   1  11
ATOM     11  C   UNL     1      17.918  -1.752 -23.533  1.00  0.00     0.006 C 
ATOM     12  C   UNL     1      16.595  -1.306 -22.905  1.00  0.00     0.004 C 
ENDBRANCH   1  11
TORSDOF 4
ENDMDL
