MODEL 1
REMARK VINA RESULT:    -7.584      0.000      0.000
REMARK INTER + INTRA:          -9.415
REMARK INTER:                  -9.135
REMARK INTRA:                  -0.280
REMARK UNBOUND:                -0.280
REMARK SMILES Oc1cc(O)c2c(c1)O[C@H](c1ccc(O)c(O)c1)[C@@H](O)C2
REMARK SMILES IDX 21 1 19 2 10 3 9 4 7 5 8 6 2 7 3 8 4 9 6 10 20 11 11 13
REMARK SMILES IDX 18 14 12 15 16 16 13 17 14 18 17 19 15 21 5 23 1 25
REMARK H PARENT 20 12 17 20 15 22 5 24 1 26
REMARK Flexibility Score: inf
ROOT
ATOM      1  C   UNL     1       3.233 -10.803  23.761  1.00  0.00     0.079 C 
ATOM      2  C   UNL     1       4.443 -11.702  23.441  1.00  0.00     0.164 C 
ATOM      3  C   UNL     1       4.093 -13.172  23.733  1.00  0.00     0.232 C 
ATOM      4  O   UNL     1       3.675 -13.309  25.090  1.00  0.00    -0.482 OA
ATOM      5  C   UNL     1       2.882 -12.350  25.729  1.00  0.00     0.131 A 
ATOM      6  C   UNL     1       2.353 -12.636  26.990  1.00  0.00     0.093 A 
ATOM      7  C   UNL     1       1.543 -11.702  27.644  1.00  0.00     0.122 A 
ATOM      8  C   UNL     1       1.254 -10.482  27.028  1.00  0.00     0.092 A 
ATOM      9  C   UNL     1       1.773 -10.179  25.764  1.00  0.00     0.126 A 
ATOM     10  C   UNL     1       2.630 -11.101  25.117  1.00  0.00     0.039 A 
ENDROOT
BRANCH   2  11
ATOM     11  O   UNL     1       4.797 -11.559  22.090  1.00  0.00    -0.389 OA
ATOM     12  H   UNL     1       3.954 -11.597  21.568  1.00  0.00     0.211 HD
ENDBRANCH   2  11
BRANCH   3  13
ATOM     13  C   UNL     1       5.275 -14.076  23.473  1.00  0.00    -0.001 A 
ATOM     14  C   UNL     1       6.255 -14.264  24.463  1.00  0.00     0.057 A 
ATOM     15  C   UNL     1       5.384 -14.778  22.260  1.00  0.00     0.012 A 
ATOM     16  C   UNL     1       7.339 -15.125  24.236  1.00  0.00     0.157 A 
ATOM     17  C   UNL     1       6.463 -15.635  22.033  1.00  0.00     0.050 A 
ATOM     18  C   UNL     1       7.444 -15.809  23.019  1.00  0.00     0.157 A 
BRANCH  16  19
ATOM     19  O   UNL     1       8.313 -15.304  25.216  1.00  0.00    -0.504 OA
ATOM     20  H   UNL     1       8.069 -15.542  26.170  1.00  0.00     0.293 HD
ENDBRANCH  16  19
BRANCH  18  21
ATOM     21  O   UNL     1       8.523 -16.663  22.797  1.00  0.00    -0.504 OA
ATOM     22  H   UNL     1       8.540 -17.605  23.171  1.00  0.00     0.293 HD
ENDBRANCH  18  21
ENDBRANCH   3  13
BRANCH   9  23
ATOM     23  O   UNL     1       1.412  -8.963  25.180  1.00  0.00    -0.507 OA
ATOM     24  H   UNL     1       1.917  -8.100  25.334  1.00  0.00     0.293 HD
ENDBRANCH   9  23
BRANCH   7  25
ATOM     25  O   UNL     1       1.014 -11.979  28.903  1.00  0.00    -0.508 OA
ATOM     26  H   UNL     1       0.739 -12.918  29.167  1.00  0.00     0.293 HD
ENDBRANCH   7  25
TORSDOF 6
ENDMDL
MODEL 2
REMARK VINA RESULT:    -7.485      1.862      6.723
REMARK INTER + INTRA:          -9.296
REMARK INTER:                  -9.368
REMARK INTRA:                   0.072
REMARK UNBOUND:                -0.280
REMARK SMILES Oc1cc(O)c2c(c1)O[C@H](c1ccc(O)c(O)c1)[C@@H](O)C2
REMARK SMILES IDX 21 1 19 2 10 3 9 4 7 5 8 6 2 7 3 8 4 9 6 10 20 11 11 13
REMARK SMILES IDX 18 14 12 15 16 16 13 17 14 18 17 19 15 21 5 23 1 25
REMARK H PARENT 20 12 17 20 15 22 5 24 1 26
REMARK Flexibility Score: inf
ROOT
ATOM      1  C   UNL     1       4.905 -13.922  21.533  1.00  0.00     0.079 C 
ATOM      2  C   UNL     1       3.628 -13.103  21.802  1.00  0.00     0.164 C 
ATOM      3  C   UNL     1       3.979 -11.838  22.605  1.00  0.00     0.232 C 
ATOM      4  O   UNL     1       4.640 -12.201  23.815  1.00  0.00    -0.482 OA
ATOM      5  C   UNL     1       5.570 -13.245  23.875  1.00  0.00     0.131 A 
ATOM      6  C   UNL     1       6.318 -13.423  25.042  1.00  0.00     0.093 A 
ATOM      7  C   UNL     1       7.266 -14.447  25.124  1.00  0.00     0.122 A 
ATOM      8  C   UNL     1       7.473 -15.289  24.029  1.00  0.00     0.092 A 
ATOM      9  C   UNL     1       6.735 -15.125  22.851  1.00  0.00     0.126 A 
ATOM     10  C   UNL     1       5.743 -14.118  22.779  1.00  0.00     0.039 A 
ENDROOT
BRANCH   2  11
ATOM     11  O   UNL     1       3.030 -12.741  20.584  1.00  0.00    -0.389 OA
ATOM     12  H   UNL     1       3.693 -12.187  20.095  1.00  0.00     0.211 HD
ENDBRANCH   2  11
BRANCH   3  13
ATOM     13  C   UNL     1       2.740 -11.034  22.925  1.00  0.00    -0.001 A 
ATOM     14  C   UNL     1       2.315 -10.889  24.257  1.00  0.00     0.057 A 
ATOM     15  C   UNL     1       2.029 -10.380  21.904  1.00  0.00     0.012 A 
ATOM     16  C   UNL     1       1.182 -10.120  24.561  1.00  0.00     0.157 A 
ATOM     17  C   UNL     1       0.900  -9.615  22.207  1.00  0.00     0.050 A 
ATOM     18  C   UNL     1       0.473  -9.484  23.536  1.00  0.00     0.157 A 
BRANCH  16  19
ATOM     19  O   UNL     1       0.757  -9.984  25.882  1.00  0.00    -0.504 OA
ATOM     20  H   UNL     1       1.289  -9.448  26.558  1.00  0.00     0.293 HD
ENDBRANCH  16  19
BRANCH  18  21
ATOM     21  O   UNL     1      -0.653  -8.722  23.842  1.00  0.00    -0.504 OA
ATOM     22  H   UNL     1      -0.572  -7.775  24.197  1.00  0.00     0.293 HD
ENDBRANCH  18  21
ENDBRANCH   3  13
BRANCH   9  23
ATOM     23  O   UNL     1       7.019 -15.969  21.775  1.00  0.00    -0.507 OA
ATOM     24  H   UNL     1       6.371 -16.661  21.425  1.00  0.00     0.293 HD
ENDBRANCH   9  23
BRANCH   7  25
ATOM     25  O   UNL     1       8.014 -14.632  26.285  1.00  0.00    -0.508 OA
ATOM     26  H   UNL     1       7.832 -14.093  27.123  1.00  0.00     0.293 HD
ENDBRANCH   7  25
TORSDOF 6
ENDMDL
MODEL 3
REMARK VINA RESULT:    -7.462      1.691      3.458
REMARK INTER + INTRA:          -9.268
REMARK INTER:                  -9.187
REMARK INTRA:                  -0.081
REMARK UNBOUND:                -0.280
REMARK SMILES Oc1cc(O)c2c(c1)O[C@H](c1ccc(O)c(O)c1)[C@@H](O)C2
REMARK SMILES IDX 21 1 19 2 10 3 9 4 7 5 8 6 2 7 3 8 4 9 6 10 20 11 11 13
REMARK SMILES IDX 18 14 12 15 16 16 13 17 14 18 17 19 15 21 5 23 1 25
REMARK H PARENT 20 12 17 20 15 22 5 24 1 26
REMARK Flexibility Score: inf
ROOT
ATOM      1  C   UNL     1       2.747 -11.753  24.973  1.00  0.00     0.079 C 
ATOM      2  C   UNL     1       3.699 -12.954  24.817  1.00  0.00     0.164 C 
ATOM      3  C   UNL     1       4.888 -12.565  23.921  1.00  0.00     0.232 C 
ATOM      4  O   UNL     1       4.411 -12.100  22.660  1.00  0.00    -0.482 OA
ATOM      5  C   UNL     1       3.266 -11.305  22.540  1.00  0.00     0.131 A 
ATOM      6  C   UNL     1       2.965 -10.729  21.303  1.00  0.00     0.093 A 
ATOM      7  C   UNL     1       1.836  -9.917  21.159  1.00  0.00     0.122 A 
ATOM      8  C   UNL     1       1.011  -9.673  22.260  1.00  0.00     0.092 A 
ATOM      9  C   UNL     1       1.298 -10.241  23.507  1.00  0.00     0.126 A 
ATOM     10  C   UNL     1       2.414 -11.099  23.648  1.00  0.00     0.039 A 
ENDROOT
BRANCH   2  11
ATOM     11  O   UNL     1       4.167 -13.356  26.079  1.00  0.00    -0.389 OA
ATOM     12  H   UNL     1       5.156 -13.418  26.009  1.00  0.00     0.211 HD
ENDBRANCH   2  11
BRANCH   3  13
ATOM     13  C   UNL     1       5.819 -13.736  23.711  1.00  0.00    -0.001 A 
ATOM     14  C   UNL     1       6.770 -14.070  24.690  1.00  0.00     0.057 A 
ATOM     15  C   UNL     1       5.713 -14.535  22.559  1.00  0.00     0.012 A 
ATOM     16  C   UNL     1       7.617 -15.174  24.512  1.00  0.00     0.157 A 
ATOM     17  C   UNL     1       6.557 -15.633  22.380  1.00  0.00     0.050 A 
ATOM     18  C   UNL     1       7.512 -15.955  23.355  1.00  0.00     0.157 A 
BRANCH  16  19
ATOM     19  O   UNL     1       8.565 -15.499  25.481  1.00  0.00    -0.504 OA
ATOM     20  H   UNL     1       9.514 -15.147  25.434  1.00  0.00     0.293 HD
ENDBRANCH  16  19
BRANCH  18  21
ATOM     21  O   UNL     1       8.356 -17.050  23.181  1.00  0.00    -0.504 OA
ATOM     22  H   UNL     1       8.931 -17.151  22.352  1.00  0.00     0.293 HD
ENDBRANCH  18  21
ENDBRANCH   3  13
BRANCH   9  23
ATOM     23  O   UNL     1       0.462  -9.923  24.580  1.00  0.00    -0.507 OA
ATOM     24  H   UNL     1       0.697  -9.235  25.283  1.00  0.00     0.293 HD
ENDBRANCH   9  23
BRANCH   7  25
ATOM     25  O   UNL     1       1.528  -9.341  19.928  1.00  0.00    -0.508 OA
ATOM     26  H   UNL     1       2.237  -9.198  19.219  1.00  0.00     0.293 HD
ENDBRANCH   7  25
TORSDOF 6
ENDMDL
MODEL 4
REMARK VINA RESULT:    -7.422      2.575      4.381
REMARK INTER + INTRA:          -9.220
REMARK INTER:                  -8.857
REMARK INTRA:                  -0.363
REMARK UNBOUND:                -0.280
REMARK SMILES Oc1cc(O)c2c(c1)O[C@H](c1ccc(O)c(O)c1)[C@@H](O)C2
REMARK SMILES IDX 21 1 19 2 10 3 9 4 7 5 8 6 2 7 3 8 4 9 6 10 20 11 11 13
REMARK SMILES IDX 18 14 12 15 16 16 13 17 14 18 17 19 15 21 5 23 1 25
REMARK H PARENT 20 12 17 20 15 22 5 24 1 26
REMARK Flexibility Score: inf
ROOT
ATOM      1  C   UNL     1       2.880 -11.967  28.526  1.00  0.00     0.079 C 
ATOM      2  C   UNL     1       3.635 -12.177  27.199  1.00  0.00     0.164 C 
ATOM      3  C   UNL     1       2.631 -12.261  26.036  1.00  0.00     0.232 C 
ATOM      4  O   UNL     1       1.693 -13.307  26.282  1.00  0.00    -0.482 OA
ATOM      5  C   UNL     1       1.178 -13.564  27.557  1.00  0.00     0.131 A 
ATOM      6  C   UNL     1       0.125 -14.473  27.695  1.00  0.00     0.093 A 
ATOM      7  C   UNL     1      -0.419 -14.738  28.955  1.00  0.00     0.122 A 
ATOM      8  C   UNL     1       0.086 -14.082  30.080  1.00  0.00     0.092 A 
ATOM      9  C   UNL     1       1.139 -13.167  29.962  1.00  0.00     0.126 A 
ATOM     10  C   UNL     1       1.724 -12.930  28.695  1.00  0.00     0.039 A 
ENDROOT
BRANCH   2  11
ATOM     11  O   UNL     1       4.522 -11.109  26.983  1.00  0.00    -0.389 OA
ATOM     12  H   UNL     1       4.281 -10.402  27.637  1.00  0.00     0.211 HD
ENDBRANCH   2  11
BRANCH   3  13
ATOM     13  C   UNL     1       3.337 -12.512  24.723  1.00  0.00    -0.001 A 
ATOM     14  C   UNL     1       3.328 -11.533  23.716  1.00  0.00     0.057 A 
ATOM     15  C   UNL     1       4.051 -13.705  24.513  1.00  0.00     0.012 A 
ATOM     16  C   UNL     1       4.006 -11.750  22.507  1.00  0.00     0.157 A 
ATOM     17  C   UNL     1       4.725 -13.922  23.309  1.00  0.00     0.050 A 
ATOM     18  C   UNL     1       4.703 -12.946  22.303  1.00  0.00     0.157 A 
BRANCH  16  19
ATOM     19  O   UNL     1       3.991 -10.780  21.507  1.00  0.00    -0.504 OA
ATOM     20  H   UNL     1       3.126 -10.476  21.076  1.00  0.00     0.293 HD
ENDBRANCH  16  19
BRANCH  18  21
ATOM     21  O   UNL     1       5.375 -13.159  21.100  1.00  0.00    -0.504 OA
ATOM     22  H   UNL     1       5.729 -14.074  20.845  1.00  0.00     0.293 HD
ENDBRANCH  18  21
ENDBRANCH   3  13
BRANCH   9  23
ATOM     23  O   UNL     1       1.570 -12.510  31.117  1.00  0.00    -0.507 OA
ATOM     24  H   UNL     1       2.545 -12.398  31.361  1.00  0.00     0.293 HD
ENDBRANCH   9  23
BRANCH   7  25
ATOM     25  O   UNL     1      -1.468 -15.644  29.100  1.00  0.00    -0.508 OA
ATOM     26  H   UNL     1      -1.445 -16.370  29.806  1.00  0.00     0.293 HD
ENDBRANCH   7  25
TORSDOF 6
ENDMDL
MODEL 5
REMARK VINA RESULT:    -7.183      2.177      6.699
REMARK INTER + INTRA:          -8.933
REMARK INTER:                  -8.562
REMARK INTRA:                  -0.370
REMARK UNBOUND:                -0.280
REMARK SMILES Oc1cc(O)c2c(c1)O[C@H](c1ccc(O)c(O)c1)[C@@H](O)C2
REMARK SMILES IDX 21 1 19 2 10 3 9 4 7 5 8 6 2 7 3 8 4 9 6 10 20 11 11 13
REMARK SMILES IDX 18 14 12 15 16 16 13 17 14 18 17 19 15 21 5 23 1 25
REMARK H PARENT 20 12 17 20 15 22 5 24 1 26
REMARK Flexibility Score: inf
ROOT
ATOM      1  C   UNL     1       2.514 -11.022  24.393  1.00  0.00     0.079 C 
ATOM      2  C   UNL     1       1.626 -11.560  25.532  1.00  0.00     0.164 C 
ATOM      3  C   UNL     1       2.463 -12.443  26.474  1.00  0.00     0.232 C 
ATOM      4  O   UNL     1       3.073 -13.498  25.733  1.00  0.00    -0.482 OA
ATOM      5  C   UNL     1       3.591 -13.307  24.448  1.00  0.00     0.131 A 
ATOM      6  C   UNL     1       4.340 -14.329  23.859  1.00  0.00     0.093 A 
ATOM      7  C   UNL     1       4.884 -14.160  22.582  1.00  0.00     0.122 A 
ATOM      8  C   UNL     1       4.685 -12.958  21.897  1.00  0.00     0.092 A 
ATOM      9  C   UNL     1       3.939 -11.923  22.472  1.00  0.00     0.126 A 
ATOM     10  C   UNL     1       3.349 -12.106  23.745  1.00  0.00     0.039 A 
ENDROOT
BRANCH   2  11
ATOM     11  O   UNL     1       1.075 -10.487  26.252  1.00  0.00    -0.389 OA
ATOM     12  H   UNL     1       0.391 -10.072  25.664  1.00  0.00     0.211 HD
ENDBRANCH   2  11
BRANCH   3  13
ATOM     13  C   UNL     1       1.611 -13.024  27.578  1.00  0.00    -0.001 A 
ATOM     14  C   UNL     1       0.502 -13.829  27.268  1.00  0.00     0.057 A 
ATOM     15  C   UNL     1       1.945 -12.808  28.927  1.00  0.00     0.012 A 
ATOM     16  C   UNL     1      -0.275 -14.393  28.290  1.00  0.00     0.157 A 
ATOM     17  C   UNL     1       1.171 -13.370  29.945  1.00  0.00     0.050 A 
ATOM     18  C   UNL     1       0.059 -14.163  29.630  1.00  0.00     0.157 A 
BRANCH  16  19
ATOM     19  O   UNL     1      -1.379 -15.186  27.980  1.00  0.00    -0.504 OA
ATOM     20  H   UNL     1      -1.387 -15.790  27.166  1.00  0.00     0.293 HD
ENDBRANCH  16  19
BRANCH  18  21
ATOM     21  O   UNL     1      -0.716 -14.725  30.642  1.00  0.00    -0.504 OA
ATOM     22  H   UNL     1      -1.382 -14.172  31.170  1.00  0.00     0.293 HD
ENDBRANCH  18  21
ENDBRANCH   3  13
BRANCH   9  23
ATOM     23  O   UNL     1       3.813 -10.729  21.758  1.00  0.00    -0.507 OA
ATOM     24  H   UNL     1       3.003 -10.127  21.820  1.00  0.00     0.293 HD
ENDBRANCH   9  23
BRANCH   7  25
ATOM     25  O   UNL     1       5.631 -15.175  21.987  1.00  0.00    -0.508 OA
ATOM     26  H   UNL     1       6.641 -15.128  21.936  1.00  0.00     0.293 HD
ENDBRANCH   7  25
TORSDOF 6
ENDMDL
MODEL 6
REMARK VINA RESULT:    -7.152      4.305      5.342
REMARK INTER + INTRA:          -8.895
REMARK INTER:                  -8.518
REMARK INTRA:                  -0.376
REMARK UNBOUND:                -0.280
REMARK SMILES Oc1cc(O)c2c(c1)O[C@H](c1ccc(O)c(O)c1)[C@@H](O)C2
REMARK SMILES IDX 21 1 19 2 10 3 9 4 7 5 8 6 2 7 3 8 4 9 6 10 20 11 11 13
REMARK SMILES IDX 18 14 12 15 16 16 13 17 14 18 17 19 15 21 5 23 1 25
REMARK H PARENT 20 12 17 20 15 22 5 24 1 26
REMARK Flexibility Score: inf
ROOT
ATOM      1  C   UNL     1       1.412 -13.490  20.561  1.00  0.00     0.079 C 
ATOM      2  C   UNL     1       2.660 -13.489  21.466  1.00  0.00     0.164 C 
ATOM      3  C   UNL     1       3.390 -14.838  21.351  1.00  0.00     0.232 C 
ATOM      4  O   UNL     1       2.497 -15.900  21.682  1.00  0.00    -0.482 OA
ATOM      5  C   UNL     1       1.152 -15.894  21.296  1.00  0.00     0.131 A 
ATOM      6  C   UNL     1       0.385 -17.047  21.487  1.00  0.00     0.093 A 
ATOM      7  C   UNL     1      -0.956 -17.075  21.096  1.00  0.00     0.122 A 
ATOM      8  C   UNL     1      -1.530 -15.947  20.502  1.00  0.00     0.092 A 
ATOM      9  C   UNL     1      -0.776 -14.785  20.301  1.00  0.00     0.126 A 
ATOM     10  C   UNL     1       0.569 -14.736  20.736  1.00  0.00     0.039 A 
ENDROOT
BRANCH   2  11
ATOM     11  O   UNL     1       3.523 -12.449  21.083  1.00  0.00    -0.389 OA
ATOM     12  H   UNL     1       3.195 -12.114  20.208  1.00  0.00     0.211 HD
ENDBRANCH   2  11
BRANCH   3  13
ATOM     13  C   UNL     1       4.595 -14.886  22.262  1.00  0.00    -0.001 A 
ATOM     14  C   UNL     1       4.433 -14.803  23.655  1.00  0.00     0.057 A 
ATOM     15  C   UNL     1       5.884 -15.065  21.731  1.00  0.00     0.012 A 
ATOM     16  C   UNL     1       5.546 -14.875  24.506  1.00  0.00     0.157 A 
ATOM     17  C   UNL     1       6.993 -15.136  22.578  1.00  0.00     0.050 A 
ATOM     18  C   UNL     1       6.827 -15.040  23.967  1.00  0.00     0.157 A 
BRANCH  16  19
ATOM     19  O   UNL     1       5.384 -14.785  25.887  1.00  0.00    -0.504 OA
ATOM     20  H   UNL     1       6.125 -14.441  26.487  1.00  0.00     0.293 HD
ENDBRANCH  16  19
BRANCH  18  21
ATOM     21  O   UNL     1       7.931 -15.111  24.815  1.00  0.00    -0.504 OA
ATOM     22  H   UNL     1       8.385 -14.275  25.165  1.00  0.00     0.293 HD
ENDBRANCH  18  21
ENDBRANCH   3  13
BRANCH   9  23
ATOM     23  O   UNL     1      -1.392 -13.706  19.662  1.00  0.00    -0.507 OA
ATOM     24  H   UNL     1      -0.980 -13.216  18.879  1.00  0.00     0.293 HD
ENDBRANCH   9  23
BRANCH   7  25
ATOM     25  O   UNL     1      -1.728 -18.220  21.284  1.00  0.00    -0.508 OA
ATOM     26  H   UNL     1      -2.624 -18.335  20.825  1.00  0.00     0.293 HD
ENDBRANCH   7  25
TORSDOF 6
ENDMDL
MODEL 7
REMARK VINA RESULT:    -7.091      3.592      4.824
REMARK INTER + INTRA:          -8.821
REMARK INTER:                  -8.565
REMARK INTRA:                  -0.256
REMARK UNBOUND:                -0.280
REMARK SMILES Oc1cc(O)c2c(c1)O[C@H](c1ccc(O)c(O)c1)[C@@H](O)C2
REMARK SMILES IDX 21 1 19 2 10 3 9 4 7 5 8 6 2 7 3 8 4 9 6 10 20 11 11 13
REMARK SMILES IDX 18 14 12 15 16 16 13 17 14 18 17 19 15 21 5 23 1 25
REMARK H PARENT 20 12 17 20 15 22 5 24 1 26
REMARK Flexibility Score: inf
ROOT
ATOM      1  C   UNL     1       4.669 -11.874  23.155  1.00  0.00     0.079 C 
ATOM      2  C   UNL     1       4.130 -12.988  22.236  1.00  0.00     0.164 C 
ATOM      3  C   UNL     1       2.636 -12.754  21.952  1.00  0.00     0.232 C 
ATOM      4  O   UNL     1       1.916 -12.687  23.181  1.00  0.00    -0.482 OA
ATOM      5  C   UNL     1       2.432 -12.054  24.317  1.00  0.00     0.131 A 
ATOM      6  C   UNL     1       1.601 -11.859  25.423  1.00  0.00     0.093 A 
ATOM      7  C   UNL     1       2.085 -11.215  26.566  1.00  0.00     0.122 A 
ATOM      8  C   UNL     1       3.404 -10.755  26.596  1.00  0.00     0.092 A 
ATOM      9  C   UNL     1       4.251 -10.940  25.497  1.00  0.00     0.126 A 
ATOM     10  C   UNL     1       3.779 -11.631  24.356  1.00  0.00     0.039 A 
ENDROOT
BRANCH   2  11
ATOM     11  O   UNL     1       4.847 -12.995  21.028  1.00  0.00    -0.389 OA
ATOM     12  H   UNL     1       4.194 -12.795  20.308  1.00  0.00     0.211 HD
ENDBRANCH   2  11
BRANCH   3  13
ATOM     13  C   UNL     1       2.066 -13.856  21.089  1.00  0.00    -0.001 A 
ATOM     14  C   UNL     1       1.186 -13.547  20.038  1.00  0.00     0.057 A 
ATOM     15  C   UNL     1       2.445 -15.193  21.295  1.00  0.00     0.012 A 
ATOM     16  C   UNL     1       0.676 -14.564  19.216  1.00  0.00     0.157 A 
ATOM     17  C   UNL     1       1.937 -16.206  20.478  1.00  0.00     0.050 A 
ATOM     18  C   UNL     1       1.051 -15.894  19.438  1.00  0.00     0.157 A 
BRANCH  16  19
ATOM     19  O   UNL     1      -0.201 -14.257  18.178  1.00  0.00    -0.504 OA
ATOM     20  H   UNL     1      -0.951 -14.885  17.913  1.00  0.00     0.293 HD
ENDBRANCH  16  19
BRANCH  18  21
ATOM     21  O   UNL     1       0.542 -16.902  18.620  1.00  0.00    -0.504 OA
ATOM     22  H   UNL     1       1.056 -17.759  18.452  1.00  0.00     0.293 HD
ENDBRANCH  18  21
ENDBRANCH   3  13
BRANCH   9  23
ATOM     23  O   UNL     1       5.545 -10.418  25.570  1.00  0.00    -0.507 OA
ATOM     24  H   UNL     1       6.260 -10.790  26.180  1.00  0.00     0.293 HD
ENDBRANCH   9  23
BRANCH   7  25
ATOM     25  O   UNL     1       1.263 -11.019  27.674  1.00  0.00    -0.508 OA
ATOM     26  H   UNL     1       0.268 -10.859  27.572  1.00  0.00     0.293 HD
ENDBRANCH   7  25
TORSDOF 6
ENDMDL
MODEL 8
REMARK VINA RESULT:    -7.000      2.539      6.476
REMARK INTER + INTRA:          -8.712
REMARK INTER:                  -8.598
REMARK INTRA:                  -0.114
REMARK UNBOUND:                -0.280
REMARK SMILES Oc1cc(O)c2c(c1)O[C@H](c1ccc(O)c(O)c1)[C@@H](O)C2
REMARK SMILES IDX 21 1 19 2 10 3 9 4 7 5 8 6 2 7 3 8 4 9 6 10 20 11 11 13
REMARK SMILES IDX 18 14 12 15 16 16 13 17 14 18 17 19 15 21 5 23 1 25
REMARK H PARENT 20 12 17 20 15 22 5 24 1 26
REMARK Flexibility Score: inf
ROOT
ATOM      1  C   UNL     1       5.669 -13.664  24.492  1.00  0.00     0.079 C 
ATOM      2  C   UNL     1       4.284 -13.036  24.246  1.00  0.00     0.164 C 
ATOM      3  C   UNL     1       4.393 -11.501  24.278  1.00  0.00     0.232 C 
ATOM      4  O   UNL     1       4.952 -11.082  25.522  1.00  0.00    -0.482 OA
ATOM      5  C   UNL     1       5.985 -11.785  26.152  1.00  0.00     0.131 A 
ATOM      6  C   UNL     1       6.612 -11.218  27.265  1.00  0.00     0.093 A 
ATOM      7  C   UNL     1       7.657 -11.890  27.905  1.00  0.00     0.122 A 
ATOM      8  C   UNL     1       8.083 -13.131  27.423  1.00  0.00     0.092 A 
ATOM      9  C   UNL     1       7.467 -13.713  26.308  1.00  0.00     0.126 A 
ATOM     10  C   UNL     1       6.379 -13.058  25.684  1.00  0.00     0.039 A 
ENDROOT
BRANCH   2  11
ATOM     11  O   UNL     1       3.789 -13.450  22.999  1.00  0.00    -0.389 OA
ATOM     12  H   UNL     1       2.860 -13.106  22.933  1.00  0.00     0.211 HD
ENDBRANCH   2  11
BRANCH   3  13
ATOM     13  C   UNL     1       3.042 -10.854  24.085  1.00  0.00    -0.001 A 
ATOM     14  C   UNL     1       2.324 -10.371  25.193  1.00  0.00     0.057 A 
ATOM     15  C   UNL     1       2.510 -10.681  22.796  1.00  0.00     0.012 A 
ATOM     16  C   UNL     1       1.082  -9.744  25.016  1.00  0.00     0.157 A 
ATOM     17  C   UNL     1       1.273 -10.058  22.619  1.00  0.00     0.050 A 
ATOM     18  C   UNL     1       0.555  -9.588  23.728  1.00  0.00     0.157 A 
BRANCH  16  19
ATOM     19  O   UNL     1       0.367  -9.272  26.116  1.00  0.00    -0.504 OA
ATOM     20  H   UNL     1       0.407  -8.300  26.397  1.00  0.00     0.293 HD
ENDBRANCH  16  19
BRANCH  18  21
ATOM     21  O   UNL     1      -0.680  -8.965  23.556  1.00  0.00    -0.504 OA
ATOM     22  H   UNL     1      -1.446  -9.429  23.081  1.00  0.00     0.293 HD
ENDBRANCH  18  21
ENDBRANCH   3  13
BRANCH   9  23
ATOM     23  O   UNL     1       7.967 -14.933  25.846  1.00  0.00    -0.507 OA
ATOM     24  H   UNL     1       8.336 -15.065  24.914  1.00  0.00     0.293 HD
ENDBRANCH   9  23
BRANCH   7  25
ATOM     25  O   UNL     1       8.287 -11.332  29.016  1.00  0.00    -0.508 OA
ATOM     26  H   UNL     1       8.089 -11.658  29.955  1.00  0.00     0.293 HD
ENDBRANCH   7  25
TORSDOF 6
ENDMDL
MODEL 9
REMARK VINA RESULT:    -6.921      3.592      5.228
REMARK INTER + INTRA:          -8.617
REMARK INTER:                  -8.855
REMARK INTRA:                   0.238
REMARK UNBOUND:                -0.280
REMARK SMILES Oc1cc(O)c2c(c1)O[C@H](c1ccc(O)c(O)c1)[C@@H](O)C2
REMARK SMILES IDX 21 1 19 2 10 3 9 4 7 5 8 6 2 7 3 8 4 9 6 10 20 11 11 13
REMARK SMILES IDX 18 14 12 15 16 16 13 17 14 18 17 19 15 21 5 23 1 25
REMARK H PARENT 20 12 17 20 15 22 5 24 1 26
REMARK Flexibility Score: inf
ROOT
ATOM      1  C   UNL     1       2.792 -13.029  25.035  1.00  0.00     0.079 C 
ATOM      2  C   UNL     1       2.285 -13.994  23.947  1.00  0.00     0.164 C 
ATOM      3  C   UNL     1       2.456 -13.353  22.559  1.00  0.00     0.232 C 
ATOM      4  O   UNL     1       1.773 -12.101  22.518  1.00  0.00    -0.482 OA
ATOM      5  C   UNL     1       1.760 -11.220  23.604  1.00  0.00     0.131 A 
ATOM      6  C   UNL     1       1.236  -9.936  23.432  1.00  0.00     0.093 A 
ATOM      7  C   UNL     1       1.225  -9.030  24.496  1.00  0.00     0.122 A 
ATOM      8  C   UNL     1       1.750  -9.407  25.735  1.00  0.00     0.092 A 
ATOM      9  C   UNL     1       2.280 -10.689  25.926  1.00  0.00     0.126 A 
ATOM     10  C   UNL     1       2.252 -11.625  24.865  1.00  0.00     0.039 A 
ENDROOT
BRANCH   2  11
ATOM     11  O   UNL     1       3.006 -15.198  24.005  1.00  0.00    -0.389 OA
ATOM     12  H   UNL     1       2.363 -15.926  23.801  1.00  0.00     0.211 HD
ENDBRANCH   2  11
BRANCH   3  13
ATOM     13  C   UNL     1       1.925 -14.256  21.470  1.00  0.00    -0.001 A 
ATOM     14  C   UNL     1       0.979 -13.775  20.549  1.00  0.00     0.057 A 
ATOM     15  C   UNL     1       2.406 -15.570  21.335  1.00  0.00     0.012 A 
ATOM     16  C   UNL     1       0.505 -14.601  19.520  1.00  0.00     0.157 A 
ATOM     17  C   UNL     1       1.933 -16.394  20.311  1.00  0.00     0.050 A 
ATOM     18  C   UNL     1       0.980 -15.913  19.402  1.00  0.00     0.157 A 
BRANCH  16  19
ATOM     19  O   UNL     1      -0.439 -14.125  18.612  1.00  0.00    -0.504 OA
ATOM     20  H   UNL     1      -1.422 -14.068  18.848  1.00  0.00     0.293 HD
ENDBRANCH  16  19
BRANCH  18  21
ATOM     21  O   UNL     1       0.506 -16.731  18.379  1.00  0.00    -0.504 OA
ATOM     22  H   UNL     1       0.538 -17.742  18.450  1.00  0.00     0.293 HD
ENDBRANCH  18  21
ENDBRANCH   3  13
BRANCH   9  23
ATOM     23  O   UNL     1       2.831 -10.993  27.173  1.00  0.00    -0.507 OA
ATOM     24  H   UNL     1       2.277 -11.117  28.010  1.00  0.00     0.293 HD
ENDBRANCH   9  23
BRANCH   7  25
ATOM     25  O   UNL     1       0.703  -7.748  24.333  1.00  0.00    -0.508 OA
ATOM     26  H   UNL     1       1.221  -6.926  24.619  1.00  0.00     0.293 HD
ENDBRANCH   7  25
TORSDOF 6
ENDMDL
