MODEL 1
REMARK VINA RESULT:     0.000      0.000      0.000
REMARK INTER + INTRA:           0.000
REMARK INTER:                   0.000
REMARK INTRA:                   0.000
REMARK UNBOUND:                 0.000
REMARK SMILES CC(=O)[O-]
REMARK SMILES IDX 1 1 2 2 3 3 4 4
REMARK H PARENT
REMARK Flexibility Score: inf
ROOT
ATOM      1  C   UNL     1     181.851 184.931 173.565  1.00  0.00     0.063 C 
ATOM      2  C   UNL     1     181.024 185.712 174.530  1.00  0.00     0.038 C 
ATOM      3  O   UNL     1     179.807 185.431 174.691  1.00  0.00    -0.550 OA
ATOM      4  O   UNL     1     181.606 186.716 175.292  1.00  0.00    -0.550 OA
ENDROOT
TORSDOF 0
ENDMDL
MODEL 2
REMARK VINA RESULT:     0.000      2.294      2.417
REMARK INTER + INTRA:           0.000
REMARK INTER:                   0.000
REMARK INTRA:                   0.000
REMARK UNBOUND:                 0.000
REMARK SMILES CC(=O)[O-]
REMARK SMILES IDX 1 1 2 2 3 3 4 4
REMARK H PARENT
REMARK Flexibility Score: inf
ROOT
ATOM      1  C   UNL     1     180.752 184.507 175.319  1.00  0.00     0.063 C 
ATOM      2  C   UNL     1     179.832 184.899 176.426  1.00  0.00     0.038 C 
ATOM      3  O   UNL     1     178.593 184.707 176.315  1.00  0.00    -0.550 OA
ATOM      4  O   UNL     1     180.346 185.426 177.603  1.00  0.00    -0.550 OA
ENDROOT
TORSDOF 0
ENDMDL
MODEL 3
REMARK VINA RESULT:     0.000      2.394      2.523
REMARK INTER + INTRA:           0.000
REMARK INTER:                   0.000
REMARK INTRA:                   0.000
REMARK UNBOUND:                 0.000
REMARK SMILES CC(=O)[O-]
REMARK SMILES IDX 1 1 2 2 3 3 4 4
REMARK H PARENT
REMARK Flexibility Score: inf
ROOT
ATOM      1  C   UNL     1     180.091 186.983 173.449  1.00  0.00     0.063 C 
ATOM      2  C   UNL     1     179.171 187.375 174.555  1.00  0.00     0.038 C 
ATOM      3  O   UNL     1     177.932 187.183 174.445  1.00  0.00    -0.550 OA
ATOM      4  O   UNL     1     179.685 187.902 175.732  1.00  0.00    -0.550 OA
ENDROOT
TORSDOF 0
ENDMDL
MODEL 4
REMARK VINA RESULT:     0.000      1.743      2.192
REMARK INTER + INTRA:           0.000
REMARK INTER:                   0.000
REMARK INTRA:                   0.000
REMARK UNBOUND:                 0.000
REMARK SMILES CC(=O)[O-]
REMARK SMILES IDX 1 1 2 2 3 3 4 4
REMARK H PARENT
REMARK Flexibility Score: inf
ROOT
ATOM      1  C   UNL     1     180.121 186.842 173.155  1.00  0.00     0.063 C 
ATOM      2  C   UNL     1     181.440 186.941 173.846  1.00  0.00     0.038 C 
ATOM      3  O   UNL     1     181.576 186.493 175.014  1.00  0.00    -0.550 OA
ATOM      4  O   UNL     1     182.534 187.478 173.181  1.00  0.00    -0.550 OA
ENDROOT
TORSDOF 0
ENDMDL
MODEL 5
REMARK VINA RESULT:     0.000     16.611     16.922
REMARK INTER + INTRA:           0.000
REMARK INTER:                   0.000
REMARK INTRA:                   0.000
REMARK UNBOUND:                 0.000
REMARK SMILES CC(=O)[O-]
REMARK SMILES IDX 1 1 2 2 3 3 4 4
REMARK H PARENT
REMARK Flexibility Score: inf
ROOT
ATOM      1  C   UNL     1     178.906 176.642 188.414  1.00  0.00     0.063 C 
ATOM      2  C   UNL     1     177.641 176.037 187.906  1.00  0.00     0.038 C 
ATOM      3  O   UNL     1     177.416 174.809 188.072  1.00  0.00    -0.550 OA
ATOM      4  O   UNL     1     176.683 176.836 187.297  1.00  0.00    -0.550 OA
ENDROOT
TORSDOF 0
ENDMDL
MODEL 6
REMARK VINA RESULT:     0.000     15.705     15.998
REMARK INTER + INTRA:           0.000
REMARK INTER:                   0.000
REMARK INTRA:                   0.000
REMARK UNBOUND:                 0.000
REMARK SMILES CC(=O)[O-]
REMARK SMILES IDX 1 1 2 2 3 3 4 4
REMARK H PARENT
REMARK Flexibility Score: inf
ROOT
ATOM      1  C   UNL     1     179.764 176.714 187.049  1.00  0.00     0.063 C 
ATOM      2  C   UNL     1     179.120 175.487 186.498  1.00  0.00     0.038 C 
ATOM      3  O   UNL     1     179.771 174.716 185.745  1.00  0.00    -0.550 OA
ATOM      4  O   UNL     1     177.819 175.162 186.858  1.00  0.00    -0.550 OA
ENDROOT
TORSDOF 0
ENDMDL
MODEL 7
REMARK VINA RESULT:     0.000     14.350     14.574
REMARK INTER + INTRA:           0.000
REMARK INTER:                   0.000
REMARK INTRA:                   0.000
REMARK UNBOUND:                 0.000
REMARK SMILES CC(=O)[O-]
REMARK SMILES IDX 1 1 2 2 3 3 4 4
REMARK H PARENT
REMARK Flexibility Score: inf
ROOT
ATOM      1  C   UNL     1     179.764 176.714 187.049  1.00  0.00     0.063 C 
ATOM      2  C   UNL     1     178.788 177.558 186.301  1.00  0.00     0.038 C 
ATOM      3  O   UNL     1     177.954 177.022 185.526  1.00  0.00    -0.550 OA
ATOM      4  O   UNL     1     178.761 178.932 186.500  1.00  0.00    -0.550 OA
ENDROOT
TORSDOF 0
ENDMDL
MODEL 8
REMARK VINA RESULT:     0.000      6.865      7.437
REMARK INTER + INTRA:           0.000
REMARK INTER:                   0.000
REMARK INTRA:                   0.000
REMARK UNBOUND:                 0.000
REMARK SMILES CC(=O)[O-]
REMARK SMILES IDX 1 1 2 2 3 3 4 4
REMARK H PARENT
REMARK Flexibility Score: inf
ROOT
ATOM      1  C   UNL     1     178.924 188.595 181.614  1.00  0.00     0.063 C 
ATOM      2  C   UNL     1     179.186 189.320 180.338  1.00  0.00     0.038 C 
ATOM      3  O   UNL     1     180.126 190.155 180.267  1.00  0.00    -0.550 OA
ATOM      4  O   UNL     1     178.429 189.038 179.209  1.00  0.00    -0.550 OA
ENDROOT
TORSDOF 0
ENDMDL
MODEL 9
REMARK VINA RESULT:     0.000      8.253      8.793
REMARK INTER + INTRA:           0.000
REMARK INTER:                   0.000
REMARK INTRA:                   0.000
REMARK UNBOUND:                 0.000
REMARK SMILES CC(=O)[O-]
REMARK SMILES IDX 1 1 2 2 3 3 4 4
REMARK H PARENT
REMARK Flexibility Score: inf
ROOT
ATOM      1  C   UNL     1     176.549 190.367 181.771  1.00  0.00     0.063 C 
ATOM      2  C   UNL     1     176.580 189.807 180.390  1.00  0.00     0.038 C 
ATOM      3  O   UNL     1     177.280 190.357 179.500  1.00  0.00    -0.550 OA
ATOM      4  O   UNL     1     175.878 188.646 180.094  1.00  0.00    -0.550 OA
ENDROOT
TORSDOF 0
ENDMDL
