MODEL 1
REMARK VINA RESULT:    -2.608      0.000      0.000
REMARK INTER + INTRA:          -3.180
REMARK INTER:                  -3.066
REMARK INTRA:                  -0.114
REMARK UNBOUND:                -0.114
REMARK SMILES O=C([O-])CCC(=O)[O-]
REMARK SMILES IDX 4 1 2 2 1 3 3 4 5 5 6 6 7 7 8 8
REMARK H PARENT
REMARK Flexibility Score: inf
ROOT
ATOM      1  C   UNL     1      29.108  21.007  14.223  1.00  0.00     0.059 C 
ENDROOT
BRANCH   1   2
ATOM      2  C   UNL     1      27.912  20.731  15.082  1.00  0.00     0.042 C 
ATOM      3  O   UNL     1      26.834  20.342  14.560  1.00  0.00    -0.550 OA
ATOM      4  O   UNL     1      28.000  20.864  16.461  1.00  0.00    -0.550 OA
ENDBRANCH   1   2
BRANCH   1   5
ATOM      5  C   UNL     1      29.195  22.487  13.835  1.00  0.00     0.059 C 
BRANCH   5   6
ATOM      6  C   UNL     1      28.991  22.684  12.364  1.00  0.00     0.042 C 
ATOM      7  O   UNL     1      28.164  21.972  11.737  1.00  0.00    -0.550 OA
ATOM      8  O   UNL     1      29.745  23.628  11.679  1.00  0.00    -0.550 OA
ENDBRANCH   5   6
ENDBRANCH   1   5
TORSDOF 3
ENDMDL
MODEL 2
REMARK VINA RESULT:    -2.600      0.108      3.975
REMARK INTER + INTRA:          -3.170
REMARK INTER:                  -3.064
REMARK INTRA:                  -0.107
REMARK UNBOUND:                -0.114
REMARK SMILES O=C([O-])CCC(=O)[O-]
REMARK SMILES IDX 4 1 2 2 1 3 3 4 5 5 6 6 7 7 8 8
REMARK H PARENT
REMARK Flexibility Score: inf
ROOT
ATOM      1  C   UNL     1      29.187  22.521  13.802  1.00  0.00     0.059 C 
ENDROOT
BRANCH   1   2
ATOM      2  C   UNL     1      29.028  22.678  12.321  1.00  0.00     0.042 C 
ATOM      3  O   UNL     1      28.211  21.955  11.692  1.00  0.00    -0.550 OA
ATOM      4  O   UNL     1      29.753  23.648  11.642  1.00  0.00    -0.550 OA
ENDBRANCH   1   2
BRANCH   1   5
ATOM      5  C   UNL     1      29.091  21.052  14.229  1.00  0.00     0.059 C 
BRANCH   5   6
ATOM      6  C   UNL     1      27.878  20.802  15.073  1.00  0.00     0.042 C 
ATOM      7  O   UNL     1      27.913  21.018  16.313  1.00  0.00    -0.550 OA
ATOM      8  O   UNL     1      26.723  20.293  14.495  1.00  0.00    -0.550 OA
ENDBRANCH   5   6
ENDBRANCH   1   5
TORSDOF 3
ENDMDL
MODEL 3
REMARK VINA RESULT:    -2.597      0.070      3.887
REMARK INTER + INTRA:          -3.167
REMARK INTER:                  -3.052
REMARK INTRA:                  -0.115
REMARK UNBOUND:                -0.114
REMARK SMILES O=C([O-])CCC(=O)[O-]
REMARK SMILES IDX 4 1 2 2 1 3 3 4 5 5 6 6 7 7 8 8
REMARK H PARENT
REMARK Flexibility Score: inf
ROOT
ATOM      1  C   UNL     1      29.149  22.481  13.844  1.00  0.00     0.059 C 
ENDROOT
BRANCH   1   2
ATOM      2  C   UNL     1      28.990  22.658  12.365  1.00  0.00     0.042 C 
ATOM      3  O   UNL     1      28.166  21.951  11.727  1.00  0.00    -0.550 OA
ATOM      4  O   UNL     1      29.724  23.630  11.697  1.00  0.00    -0.550 OA
ENDBRANCH   1   2
BRANCH   1   5
ATOM      5  C   UNL     1      29.070  21.004  14.248  1.00  0.00     0.059 C 
BRANCH   5   6
ATOM      6  C   UNL     1      27.845  20.722  15.065  1.00  0.00     0.042 C 
ATOM      7  O   UNL     1      26.786  20.332  14.508  1.00  0.00    -0.550 OA
ATOM      8  O   UNL     1      27.865  20.928  16.438  1.00  0.00    -0.550 OA
ENDBRANCH   5   6
ENDBRANCH   1   5
TORSDOF 3
ENDMDL
MODEL 4
REMARK VINA RESULT:    -2.592      1.487      2.282
REMARK INTER + INTRA:          -3.161
REMARK INTER:                  -3.114
REMARK INTRA:                  -0.046
REMARK UNBOUND:                -0.114
REMARK SMILES O=C([O-])CCC(=O)[O-]
REMARK SMILES IDX 4 1 2 2 1 3 3 4 5 5 6 6 7 7 8 8
REMARK H PARENT
REMARK Flexibility Score: inf
ROOT
ATOM      1  C   UNL     1      27.882  21.014  15.645  1.00  0.00     0.059 C 
ENDROOT
BRANCH   1   2
ATOM      2  C   UNL     1      26.630  20.474  16.265  1.00  0.00     0.042 C 
ATOM      3  O   UNL     1      26.473  20.512  17.513  1.00  0.00    -0.550 OA
ATOM      4  O   UNL     1      25.618  19.966  15.460  1.00  0.00    -0.550 OA
ENDBRANCH   1   2
BRANCH   1   5
ATOM      5  C   UNL     1      27.967  20.673  14.153  1.00  0.00     0.059 C 
BRANCH   5   6
ATOM      6  C   UNL     1      28.532  21.811  13.359  1.00  0.00     0.042 C 
ATOM      7  O   UNL     1      29.312  22.638  13.902  1.00  0.00    -0.550 OA
ATOM      8  O   UNL     1      28.165  21.981  12.031  1.00  0.00    -0.550 OA
ENDBRANCH   5   6
ENDBRANCH   1   5
TORSDOF 3
ENDMDL
MODEL 5
REMARK VINA RESULT:    -2.581      1.553      4.388
REMARK INTER + INTRA:          -3.147
REMARK INTER:                  -3.088
REMARK INTRA:                  -0.059
REMARK UNBOUND:                -0.114
REMARK SMILES O=C([O-])CCC(=O)[O-]
REMARK SMILES IDX 4 1 2 2 1 3 3 4 5 5 6 6 7 7 8 8
REMARK H PARENT
REMARK Flexibility Score: inf
ROOT
ATOM      1  C   UNL     1      28.112  20.472  14.384  1.00  0.00     0.059 C 
ENDROOT
BRANCH   1   2
ATOM      2  C   UNL     1      28.459  21.598  13.460  1.00  0.00     0.042 C 
ATOM      3  O   UNL     1      29.163  22.559  13.868  1.00  0.00    -0.550 OA
ATOM      4  O   UNL     1      28.038  21.568  12.137  1.00  0.00    -0.550 OA
ENDBRANCH   1   2
BRANCH   1   5
ATOM      5  C   UNL     1      27.886  20.966  15.818  1.00  0.00     0.059 C 
BRANCH   5   6
ATOM      6  C   UNL     1      26.567  20.504  16.358  1.00  0.00     0.042 C 
ATOM      7  O   UNL     1      26.362  20.485  17.600  1.00  0.00    -0.550 OA
ATOM      8  O   UNL     1      25.579  20.056  15.491  1.00  0.00    -0.550 OA
ENDBRANCH   5   6
ENDBRANCH   1   5
TORSDOF 3
ENDMDL
MODEL 6
REMARK VINA RESULT:    -2.389      3.479      5.067
REMARK INTER + INTRA:          -2.921
REMARK INTER:                  -2.878
REMARK INTRA:                  -0.043
REMARK UNBOUND:                -0.114
REMARK SMILES O=C([O-])CCC(=O)[O-]
REMARK SMILES IDX 4 1 2 2 1 3 3 4 5 5 6 6 7 7 8 8
REMARK H PARENT
REMARK Flexibility Score: inf
ROOT
ATOM      1  C   UNL     1      25.958  20.044  15.150  1.00  0.00     0.059 C 
ENDROOT
BRANCH   1   2
ATOM      2  C   UNL     1      26.937  20.590  16.144  1.00  0.00     0.042 C 
ATOM      3  O   UNL     1      26.568  20.845  17.321  1.00  0.00    -0.550 OA
ATOM      4  O   UNL     1      28.264  20.780  15.783  1.00  0.00    -0.550 OA
ENDBRANCH   1   2
BRANCH   1   5
ATOM      5  C   UNL     1      24.564  19.875  15.764  1.00  0.00     0.059 C 
BRANCH   5   6
ATOM      6  C   UNL     1      23.489  19.966  14.723  1.00  0.00     0.042 C 
ATOM      7  O   UNL     1      23.786  19.928  13.500  1.00  0.00    -0.550 OA
ATOM      8  O   UNL     1      22.165  20.133  15.105  1.00  0.00    -0.550 OA
ENDBRANCH   5   6
ENDBRANCH   1   5
TORSDOF 3
ENDMDL
MODEL 7
REMARK VINA RESULT:    -2.287     14.126     15.441
REMARK INTER + INTRA:          -2.802
REMARK INTER:                  -2.746
REMARK INTRA:                  -0.056
REMARK UNBOUND:                -0.114
REMARK SMILES O=C([O-])CCC(=O)[O-]
REMARK SMILES IDX 4 1 2 2 1 3 3 4 5 5 6 6 7 7 8 8
REMARK H PARENT
REMARK Flexibility Score: inf
ROOT
ATOM      1  C   UNL     1      13.336  20.001  18.017  1.00  0.00     0.059 C 
ENDROOT
BRANCH   1   2
ATOM      2  C   UNL     1      12.139  20.846  18.327  1.00  0.00     0.042 C 
ATOM      3  O   UNL     1      11.502  21.409  17.398  1.00  0.00    -0.550 OA
ATOM      4  O   UNL     1      11.701  20.979  19.639  1.00  0.00    -0.550 OA
ENDBRANCH   1   2
BRANCH   1   5
ATOM      5  C   UNL     1      13.798  20.187  16.567  1.00  0.00     0.059 C 
BRANCH   5   6
ATOM      6  C   UNL     1      15.218  20.661  16.497  1.00  0.00     0.042 C 
ATOM      7  O   UNL     1      15.496  21.748  15.927  1.00  0.00    -0.550 OA
ATOM      8  O   UNL     1      16.237  19.881  17.028  1.00  0.00    -0.550 OA
ENDBRANCH   5   6
ENDBRANCH   1   5
TORSDOF 3
ENDMDL
MODEL 8
REMARK VINA RESULT:    -2.284     14.155     15.756
REMARK INTER + INTRA:          -2.799
REMARK INTER:                  -2.753
REMARK INTRA:                  -0.045
REMARK UNBOUND:                -0.114
REMARK SMILES O=C([O-])CCC(=O)[O-]
REMARK SMILES IDX 4 1 2 2 1 3 3 4 5 5 6 6 7 7 8 8
REMARK H PARENT
REMARK Flexibility Score: inf
ROOT
ATOM      1  C   UNL     1      13.768  20.236  16.603  1.00  0.00     0.059 C 
ENDROOT
BRANCH   1   2
ATOM      2  C   UNL     1      15.202  20.658  16.499  1.00  0.00     0.042 C 
ATOM      3  O   UNL     1      15.504  21.741  15.933  1.00  0.00    -0.550 OA
ATOM      4  O   UNL     1      16.201  19.875  17.063  1.00  0.00    -0.550 OA
ENDBRANCH   1   2
BRANCH   1   5
ATOM      5  C   UNL     1      13.339  20.051  18.063  1.00  0.00     0.059 C 
BRANCH   5   6
ATOM      6  C   UNL     1      12.104  20.840  18.378  1.00  0.00     0.042 C 
ATOM      7  O   UNL     1      11.732  20.986  19.572  1.00  0.00    -0.550 OA
ATOM      8  O   UNL     1      11.342  21.378  17.349  1.00  0.00    -0.550 OA
ENDBRANCH   5   6
ENDBRANCH   1   5
TORSDOF 3
ENDMDL
