MODEL 1
REMARK VINA RESULT:    -3.258      0.000      0.000
REMARK INTER + INTRA:          -7.699
REMARK INTER:                  -5.733
REMARK INTRA:                  -1.965
REMARK UNBOUND:                -1.965
REMARK SMILES CCCCCCCCCCCCCCC(=O)[O-]
REMARK SMILES IDX 9 1 10 2 11 3 12 4 13 5 14 6 15 7 16 8 17 9 8 10 7 11 6 12
REMARK SMILES IDX 5 13 4 14 3 15 2 16 1 17
REMARK H PARENT
REMARK Flexibility Score: inf
ROOT
ATOM      1  C   UNL     1     -97.321 -43.654 -11.427  1.00  0.00     0.000 C 
ENDROOT
BRANCH   1   2
ATOM      2  C   UNL     1     -98.744 -43.529 -11.996  1.00  0.00     0.000 C 
BRANCH   2   3
ATOM      3  C   UNL     1     -99.348 -44.888 -12.376  1.00  0.00     0.000 C 
BRANCH   3   4
ATOM      4  C   UNL     1     -98.296 -46.003 -12.288  1.00  0.00     0.000 C 
BRANCH   4   5
ATOM      5  C   UNL     1     -98.904 -47.385 -11.988  1.00  0.00     0.006 C 
BRANCH   5   6
ATOM      6  C   UNL     1     -98.986 -48.312 -13.214  1.00  0.00     0.053 C 
BRANCH   6   7
ATOM      7  C   UNL     1    -100.390 -48.501 -13.704  1.00  0.00     0.041 C 
ATOM      8  O   UNL     1    -101.078 -47.510 -14.065  1.00  0.00    -0.550 OA
ATOM      9  O   UNL     1    -100.951 -49.772 -13.732  1.00  0.00    -0.550 OA
ENDBRANCH   6   7
ENDBRANCH   5   6
ENDBRANCH   4   5
ENDBRANCH   3   4
ENDBRANCH   2   3
ENDBRANCH   1   2
BRANCH   1  10
ATOM     10  C   UNL     1     -97.141 -42.885 -10.106  1.00  0.00     0.000 C 
BRANCH  10  11
ATOM     11  C   UNL     1     -96.759 -43.801  -8.933  1.00  0.00    -0.000 C 
BRANCH  11  12
ATOM     12  C   UNL     1     -97.569 -45.110  -8.919  1.00  0.00    -0.000 C 
BRANCH  12  13
ATOM     13  C   UNL     1     -96.672 -46.358  -8.947  1.00  0.00    -0.000 C 
BRANCH  13  14
ATOM     14  C   UNL     1     -95.200 -46.031  -8.640  1.00  0.00    -0.000 C 
BRANCH  14  15
ATOM     15  C   UNL     1     -94.262 -46.331  -9.824  1.00  0.00    -0.000 C 
BRANCH  15  16
ATOM     16  C   UNL     1     -94.959 -46.871 -11.085  1.00  0.00    -0.003 C 
ATOM     17  C   UNL     1     -94.450 -46.225 -12.373  1.00  0.00     0.004 C 
ENDBRANCH  15  16
ENDBRANCH  14  15
ENDBRANCH  13  14
ENDBRANCH  12  13
ENDBRANCH  11  12
ENDBRANCH  10  11
ENDBRANCH   1  10
TORSDOF 13
ENDMDL
MODEL 2
REMARK VINA RESULT:    -3.240      2.919      5.203
REMARK INTER + INTRA:          -7.668
REMARK INTER:                  -5.924
REMARK INTRA:                  -1.744
REMARK UNBOUND:                -1.965
REMARK SMILES CCCCCCCCCCCCCCC(=O)[O-]
REMARK SMILES IDX 9 1 10 2 11 3 12 4 13 5 14 6 15 7 16 8 17 9 8 10 7 11 6 12
REMARK SMILES IDX 5 13 4 14 3 15 2 16 1 17
REMARK H PARENT
REMARK Flexibility Score: inf
ROOT
ATOM      1  C   UNL     1     -97.587 -44.159  -9.147  1.00  0.00     0.000 C 
ENDROOT
BRANCH   1   2
ATOM      2  C   UNL     1     -96.438 -44.740  -8.305  1.00  0.00     0.000 C 
BRANCH   2   3
ATOM      3  C   UNL     1     -95.555 -45.711  -9.104  1.00  0.00     0.000 C 
BRANCH   3   4
ATOM      4  C   UNL     1     -96.392 -46.850  -9.703  1.00  0.00     0.000 C 
BRANCH   4   5
ATOM      5  C   UNL     1     -95.688 -47.568 -10.869  1.00  0.00     0.006 C 
BRANCH   5   6
ATOM      6  C   UNL     1     -95.239 -46.627 -12.002  1.00  0.00     0.053 C 
BRANCH   6   7
ATOM      7  C   UNL     1     -93.774 -46.737 -12.301  1.00  0.00     0.041 C 
ATOM      8  O   UNL     1     -93.071 -47.611 -11.728  1.00  0.00    -0.550 OA
ATOM      9  O   UNL     1     -93.178 -45.851 -13.190  1.00  0.00    -0.550 OA
ENDBRANCH   6   7
ENDBRANCH   5   6
ENDBRANCH   4   5
ENDBRANCH   3   4
ENDBRANCH   2   3
ENDBRANCH   1   2
BRANCH   1  10
ATOM     10  C   UNL     1     -97.097 -43.152 -10.202  1.00  0.00     0.000 C 
BRANCH  10  11
ATOM     11  C   UNL     1     -97.357 -43.627 -11.640  1.00  0.00    -0.000 C 
BRANCH  11  12
ATOM     12  C   UNL     1     -98.818 -43.416 -12.075  1.00  0.00    -0.000 C 
BRANCH  12  13
ATOM     13  C   UNL     1     -99.557 -44.743 -12.318  1.00  0.00    -0.000 C 
BRANCH  13  14
ATOM     14  C   UNL     1     -98.597 -45.941 -12.423  1.00  0.00    -0.000 C 
BRANCH  14  15
ATOM     15  C   UNL     1     -99.269 -47.279 -12.063  1.00  0.00    -0.000 C 
BRANCH  15  16
ATOM     16  C   UNL     1     -99.310 -48.312 -13.202  1.00  0.00    -0.003 C 
ATOM     17  C   UNL     1    -100.699 -48.467 -13.820  1.00  0.00     0.004 C 
ENDBRANCH  15  16
ENDBRANCH  14  15
ENDBRANCH  13  14
ENDBRANCH  12  13
ENDBRANCH  11  12
ENDBRANCH  10  11
ENDBRANCH   1  10
TORSDOF 13
ENDMDL
MODEL 3
REMARK VINA RESULT:    -3.203      1.987      2.226
REMARK INTER + INTRA:          -7.602
REMARK INTER:                  -5.429
REMARK INTRA:                  -2.173
REMARK UNBOUND:                -1.965
REMARK SMILES CCCCCCCCCCCCCCC(=O)[O-]
REMARK SMILES IDX 9 1 10 2 11 3 12 4 13 5 14 6 15 7 16 8 17 9 8 10 7 11 6 12
REMARK SMILES IDX 5 13 4 14 3 15 2 16 1 17
REMARK H PARENT
REMARK Flexibility Score: inf
ROOT
ATOM      1  C   UNL     1     -97.176 -43.626 -11.449  1.00  0.00     0.000 C 
ENDROOT
BRANCH   1   2
ATOM      2  C   UNL     1     -98.600 -43.624 -12.029  1.00  0.00     0.000 C 
BRANCH   2   3
ATOM      3  C   UNL     1     -99.104 -45.037 -12.360  1.00  0.00     0.000 C 
BRANCH   3   4
ATOM      4  C   UNL     1     -98.007 -46.083 -12.116  1.00  0.00     0.000 C 
BRANCH   4   5
ATOM      5  C   UNL     1     -98.407 -47.496 -12.580  1.00  0.00     0.006 C 
BRANCH   5   6
ATOM      6  C   UNL     1     -97.250 -48.512 -12.560  1.00  0.00     0.053 C 
BRANCH   6   7
ATOM      7  C   UNL     1     -97.181 -49.286 -11.278  1.00  0.00     0.041 C 
ATOM      8  O   UNL     1     -98.097 -49.182 -10.421  1.00  0.00    -0.550 OA
ATOM      9  O   UNL     1     -96.085 -50.099 -11.017  1.00  0.00    -0.550 OA
ENDBRANCH   6   7
ENDBRANCH   5   6
ENDBRANCH   4   5
ENDBRANCH   3   4
ENDBRANCH   2   3
ENDBRANCH   1   2
BRANCH   1  10
ATOM     10  C   UNL     1     -97.128 -43.126  -9.994  1.00  0.00     0.000 C 
BRANCH  10  11
ATOM     11  C   UNL     1     -96.220 -43.987  -9.102  1.00  0.00    -0.000 C 
BRANCH  11  12
ATOM     12  C   UNL     1     -96.872 -45.325  -8.713  1.00  0.00    -0.000 C 
BRANCH  12  13
ATOM     13  C   UNL     1     -95.981 -46.533  -9.046  1.00  0.00    -0.000 C 
BRANCH  13  14
ATOM     14  C   UNL     1     -94.711 -46.132  -9.817  1.00  0.00    -0.000 C 
BRANCH  14  15
ATOM     15  C   UNL     1     -93.967 -47.342 -10.414  1.00  0.00    -0.000 C 
BRANCH  15  16
ATOM     16  C   UNL     1     -93.810 -47.317 -11.944  1.00  0.00    -0.003 C 
ATOM     17  C   UNL     1     -94.367 -46.044 -12.583  1.00  0.00     0.004 C 
ENDBRANCH  15  16
ENDBRANCH  14  15
ENDBRANCH  13  14
ENDBRANCH  12  13
ENDBRANCH  11  12
ENDBRANCH  10  11
ENDBRANCH   1  10
TORSDOF 13
ENDMDL
MODEL 4
REMARK VINA RESULT:    -3.190      2.819      4.948
REMARK INTER + INTRA:          -7.581
REMARK INTER:                  -5.473
REMARK INTRA:                  -2.108
REMARK UNBOUND:                -1.965
REMARK SMILES CCCCCCCCCCCCCCC(=O)[O-]
REMARK SMILES IDX 9 1 10 2 11 3 12 4 13 5 14 6 15 7 16 8 17 9 8 10 7 11 6 12
REMARK SMILES IDX 5 13 4 14 3 15 2 16 1 17
REMARK H PARENT
REMARK Flexibility Score: inf
ROOT
ATOM      1  C   UNL     1     -97.725 -43.793  -8.946  1.00  0.00     0.000 C 
ENDROOT
BRANCH   1   2
ATOM      2  C   UNL     1     -96.940 -45.017  -8.445  1.00  0.00     0.000 C 
BRANCH   2   3
ATOM      3  C   UNL     1     -95.486 -45.026  -8.940  1.00  0.00     0.000 C 
BRANCH   3   4
ATOM      4  C   UNL     1     -95.019 -46.455  -9.252  1.00  0.00     0.000 C 
BRANCH   4   5
ATOM      5  C   UNL     1     -95.652 -47.031 -10.532  1.00  0.00     0.006 C 
BRANCH   5   6
ATOM      6  C   UNL     1     -95.343 -46.217 -11.802  1.00  0.00     0.053 C 
BRANCH   6   7
ATOM      7  C   UNL     1     -94.022 -46.574 -12.413  1.00  0.00     0.041 C 
ATOM      8  O   UNL     1     -93.412 -45.745 -13.139  1.00  0.00    -0.550 OA
ATOM      9  O   UNL     1     -93.479 -47.836 -12.206  1.00  0.00    -0.550 OA
ENDBRANCH   6   7
ENDBRANCH   5   6
ENDBRANCH   4   5
ENDBRANCH   3   4
ENDBRANCH   2   3
ENDBRANCH   1   2
BRANCH   1  10
ATOM     10  C   UNL     1     -96.975 -43.016 -10.042  1.00  0.00     0.000 C 
BRANCH  10  11
ATOM     11  C   UNL     1     -97.600 -43.203 -11.434  1.00  0.00    -0.000 C 
BRANCH  11  12
ATOM     12  C   UNL     1     -99.136 -43.268 -11.386  1.00  0.00    -0.000 C 
BRANCH  12  13
ATOM     13  C   UNL     1     -99.712 -44.299 -12.371  1.00  0.00    -0.000 C 
BRANCH  13  14
ATOM     14  C   UNL     1     -98.893 -45.601 -12.406  1.00  0.00    -0.000 C 
BRANCH  14  15
ATOM     15  C   UNL     1     -99.242 -46.558 -11.251  1.00  0.00    -0.000 C 
BRANCH  15  16
ATOM     16  C   UNL     1     -99.058 -48.052 -11.568  1.00  0.00    -0.003 C 
ATOM     17  C   UNL     1     -98.816 -48.324 -13.053  1.00  0.00     0.004 C 
ENDBRANCH  15  16
ENDBRANCH  14  15
ENDBRANCH  13  14
ENDBRANCH  12  13
ENDBRANCH  11  12
ENDBRANCH  10  11
ENDBRANCH   1  10
TORSDOF 13
ENDMDL
MODEL 5
REMARK VINA RESULT:    -3.181      2.635      4.941
REMARK INTER + INTRA:          -7.564
REMARK INTER:                  -5.619
REMARK INTRA:                  -1.945
REMARK UNBOUND:                -1.965
REMARK SMILES CCCCCCCCCCCCCCC(=O)[O-]
REMARK SMILES IDX 9 1 10 2 11 3 12 4 13 5 14 6 15 7 16 8 17 9 8 10 7 11 6 12
REMARK SMILES IDX 5 13 4 14 3 15 2 16 1 17
REMARK H PARENT
REMARK Flexibility Score: inf
ROOT
ATOM      1  C   UNL     1     -97.037 -45.518  -8.717  1.00  0.00     0.000 C 
ENDROOT
BRANCH   1   2
ATOM      2  C   UNL     1     -95.575 -45.607  -8.250  1.00  0.00     0.000 C 
BRANCH   2   3
ATOM      3  C   UNL     1     -94.610 -45.953  -9.394  1.00  0.00     0.000 C 
BRANCH   3   4
ATOM      4  C   UNL     1     -95.366 -46.549 -10.590  1.00  0.00     0.000 C 
BRANCH   4   5
ATOM      5  C   UNL     1     -94.766 -46.141 -11.947  1.00  0.00     0.006 C 
BRANCH   5   6
ATOM      6  C   UNL     1     -93.599 -47.034 -12.408  1.00  0.00     0.053 C 
BRANCH   6   7
ATOM      7  C   UNL     1     -93.867 -48.494 -12.199  1.00  0.00     0.041 C 
ATOM      8  O   UNL     1     -93.158 -49.163 -11.403  1.00  0.00    -0.550 OA
ATOM      9  O   UNL     1     -94.882 -49.122 -12.909  1.00  0.00    -0.550 OA
ENDBRANCH   6   7
ENDBRANCH   5   6
ENDBRANCH   4   5
ENDBRANCH   3   4
ENDBRANCH   2   3
ENDBRANCH   1   2
BRANCH   1  10
ATOM     10  C   UNL     1     -97.635 -44.113  -8.525  1.00  0.00     0.000 C 
BRANCH  10  11
ATOM     11  C   UNL     1     -96.968 -43.057  -9.420  1.00  0.00    -0.000 C 
BRANCH  11  12
ATOM     12  C   UNL     1     -97.304 -43.249 -10.909  1.00  0.00    -0.000 C 
BRANCH  12  13
ATOM     13  C   UNL     1     -98.814 -43.153 -11.189  1.00  0.00    -0.000 C 
BRANCH  13  14
ATOM     14  C   UNL     1     -99.291 -44.202 -12.208  1.00  0.00    -0.000 C 
BRANCH  14  15
ATOM     15  C   UNL     1     -98.405 -45.462 -12.229  1.00  0.00    -0.000 C 
BRANCH  15  16
ATOM     16  C   UNL     1     -99.173 -46.795 -12.265  1.00  0.00    -0.003 C 
ATOM     17  C   UNL     1     -98.310 -47.970 -12.726  1.00  0.00     0.004 C 
ENDBRANCH  15  16
ENDBRANCH  14  15
ENDBRANCH  13  14
ENDBRANCH  12  13
ENDBRANCH  11  12
ENDBRANCH  10  11
ENDBRANCH   1  10
TORSDOF 13
ENDMDL
MODEL 6
REMARK VINA RESULT:    -3.176      2.509      5.027
REMARK INTER + INTRA:          -7.555
REMARK INTER:                  -5.611
REMARK INTRA:                  -1.944
REMARK UNBOUND:                -1.965
REMARK SMILES CCCCCCCCCCCCCCC(=O)[O-]
REMARK SMILES IDX 9 1 10 2 11 3 12 4 13 5 14 6 15 7 16 8 17 9 8 10 7 11 6 12
REMARK SMILES IDX 5 13 4 14 3 15 2 16 1 17
REMARK H PARENT
REMARK Flexibility Score: inf
ROOT
ATOM      1  C   UNL     1     -97.723 -43.218  -9.891  1.00  0.00     0.000 C 
ENDROOT
BRANCH   1   2
ATOM      2  C   UNL     1     -96.424 -43.773  -9.285  1.00  0.00     0.000 C 
BRANCH   2   3
ATOM      3  C   UNL     1     -96.680 -44.904  -8.279  1.00  0.00     0.000 C 
BRANCH   3   4
ATOM      4  C   UNL     1     -95.593 -45.984  -8.375  1.00  0.00     0.000 C 
BRANCH   4   5
ATOM      5  C   UNL     1     -94.767 -45.895  -9.672  1.00  0.00     0.006 C 
BRANCH   5   6
ATOM      6  C   UNL     1     -94.517 -47.255 -10.348  1.00  0.00     0.053 C 
BRANCH   6   7
ATOM      7  C   UNL     1     -94.483 -47.161 -11.844  1.00  0.00     0.041 C 
ATOM      8  O   UNL     1     -94.992 -48.070 -12.551  1.00  0.00    -0.550 OA
ATOM      9  O   UNL     1     -93.858 -46.083 -12.458  1.00  0.00    -0.550 OA
ENDBRANCH   6   7
ENDBRANCH   5   6
ENDBRANCH   4   5
ENDBRANCH   3   4
ENDBRANCH   2   3
ENDBRANCH   1   2
BRANCH   1  10
ATOM     10  C   UNL     1     -97.742 -43.302 -11.428  1.00  0.00     0.000 C 
BRANCH  10  11
ATOM     11  C   UNL     1     -97.165 -44.625 -11.956  1.00  0.00    -0.000 C 
BRANCH  11  12
ATOM     12  C   UNL     1     -98.244 -45.705 -12.146  1.00  0.00    -0.000 C 
BRANCH  12  13
ATOM     13  C   UNL     1     -98.213 -46.770 -11.037  1.00  0.00    -0.000 C 
BRANCH  13  14
ATOM     14  C   UNL     1     -98.314 -48.201 -11.592  1.00  0.00    -0.000 C 
BRANCH  14  15
ATOM     15  C   UNL     1     -98.606 -48.237 -13.103  1.00  0.00    -0.000 C 
BRANCH  15  16
ATOM     16  C   UNL     1    -100.013 -48.733 -13.482  1.00  0.00    -0.003 C 
ATOM     17  C   UNL     1    -101.023 -47.598 -13.648  1.00  0.00     0.004 C 
ENDBRANCH  15  16
ENDBRANCH  14  15
ENDBRANCH  13  14
ENDBRANCH  12  13
ENDBRANCH  11  12
ENDBRANCH  10  11
ENDBRANCH   1  10
TORSDOF 13
ENDMDL
MODEL 7
REMARK VINA RESULT:    -3.092      2.708      4.970
REMARK INTER + INTRA:          -7.407
REMARK INTER:                  -4.980
REMARK INTRA:                  -2.428
REMARK UNBOUND:                -1.965
REMARK SMILES CCCCCCCCCCCCCCC(=O)[O-]
REMARK SMILES IDX 9 1 10 2 11 3 12 4 13 5 14 6 15 7 16 8 17 9 8 10 7 11 6 12
REMARK SMILES IDX 5 13 4 14 3 15 2 16 1 17
REMARK H PARENT
REMARK Flexibility Score: inf
ROOT
ATOM      1  C   UNL     1     -97.706 -43.356 -10.043  1.00  0.00     0.000 C 
ENDROOT
BRANCH   1   2
ATOM      2  C   UNL     1     -96.445 -43.653  -9.215  1.00  0.00     0.000 C 
BRANCH   2   3
ATOM      3  C   UNL     1     -96.647 -44.814  -8.230  1.00  0.00     0.000 C 
BRANCH   3   4
ATOM      4  C   UNL     1     -95.842 -46.049  -8.661  1.00  0.00     0.000 C 
BRANCH   4   5
ATOM      5  C   UNL     1     -94.851 -45.754  -9.801  1.00  0.00     0.006 C 
BRANCH   5   6
ATOM      6  C   UNL     1     -94.208 -47.014 -10.412  1.00  0.00     0.053 C 
BRANCH   6   7
ATOM      7  C   UNL     1     -94.237 -47.011 -11.910  1.00  0.00     0.041 C 
ATOM      8  O   UNL     1     -93.726 -46.057 -12.555  1.00  0.00    -0.550 OA
ATOM      9  O   UNL     1     -94.858 -48.048 -12.595  1.00  0.00    -0.550 OA
ENDBRANCH   6   7
ENDBRANCH   5   6
ENDBRANCH   4   5
ENDBRANCH   3   4
ENDBRANCH   2   3
ENDBRANCH   1   2
BRANCH   1  10
ATOM     10  C   UNL     1     -97.517 -43.663 -11.539  1.00  0.00     0.000 C 
BRANCH  10  11
ATOM     11  C   UNL     1     -98.847 -43.929 -12.262  1.00  0.00    -0.000 C 
BRANCH  11  12
ATOM     12  C   UNL     1     -99.209 -45.424 -12.300  1.00  0.00    -0.000 C 
BRANCH  12  13
ATOM     13  C   UNL     1     -97.969 -46.331 -12.238  1.00  0.00    -0.000 C 
BRANCH  13  14
ATOM     14  C   UNL     1     -98.042 -47.348 -11.086  1.00  0.00    -0.000 C 
BRANCH  14  15
ATOM     15  C   UNL     1     -99.438 -47.422 -10.440  1.00  0.00    -0.000 C 
BRANCH  15  16
ATOM     16  C   UNL     1     -99.485 -47.041  -8.950  1.00  0.00    -0.003 C 
ATOM     17  C   UNL     1    -100.250 -45.743  -8.688  1.00  0.00     0.004 C 
ENDBRANCH  15  16
ENDBRANCH  14  15
ENDBRANCH  13  14
ENDBRANCH  12  13
ENDBRANCH  11  12
ENDBRANCH  10  11
ENDBRANCH   1  10
TORSDOF 13
ENDMDL
MODEL 8
REMARK VINA RESULT:    -3.036      2.919      4.668
REMARK INTER + INTRA:          -7.308
REMARK INTER:                  -5.107
REMARK INTRA:                  -2.202
REMARK UNBOUND:                -1.965
REMARK SMILES CCCCCCCCCCCCCCC(=O)[O-]
REMARK SMILES IDX 9 1 10 2 11 3 12 4 13 5 14 6 15 7 16 8 17 9 8 10 7 11 6 12
REMARK SMILES IDX 5 13 4 14 3 15 2 16 1 17
REMARK H PARENT
REMARK Flexibility Score: inf
ROOT
ATOM      1  C   UNL     1     -99.076 -46.662 -11.039  1.00  0.00     0.000 C 
ENDROOT
BRANCH   1   2
ATOM      2  C   UNL     1     -98.648 -47.218 -12.407  1.00  0.00     0.000 C 
BRANCH   2   3
ATOM      3  C   UNL     1     -97.302 -47.954 -12.348  1.00  0.00     0.000 C 
BRANCH   3   4
ATOM      4  C   UNL     1     -96.276 -47.162 -11.523  1.00  0.00     0.000 C 
BRANCH   4   5
ATOM      5  C   UNL     1     -95.206 -46.475 -12.390  1.00  0.00     0.006 C 
BRANCH   5   6
ATOM      6  C   UNL     1     -93.760 -46.791 -11.966  1.00  0.00     0.053 C 
BRANCH   6   7
ATOM      7  C   UNL     1     -93.539 -48.250 -11.703  1.00  0.00     0.041 C 
ATOM      8  O   UNL     1     -93.664 -49.091 -12.632  1.00  0.00    -0.550 OA
ATOM      9  O   UNL     1     -93.227 -48.686 -10.421  1.00  0.00    -0.550 OA
ENDBRANCH   6   7
ENDBRANCH   5   6
ENDBRANCH   4   5
ENDBRANCH   3   4
ENDBRANCH   2   3
ENDBRANCH   1   2
BRANCH   1  10
ATOM     10  C   UNL     1     -99.477 -45.177 -11.103  1.00  0.00     0.000 C 
BRANCH  10  11
ATOM     11  C   UNL     1     -98.772 -44.421 -12.239  1.00  0.00    -0.000 C 
BRANCH  11  12
ATOM     12  C   UNL     1     -97.536 -43.645 -11.753  1.00  0.00    -0.000 C 
BRANCH  12  13
ATOM     13  C   UNL     1     -97.618 -43.283 -10.260  1.00  0.00    -0.000 C 
BRANCH  13  14
ATOM     14  C   UNL     1     -96.508 -43.952  -9.431  1.00  0.00    -0.000 C 
BRANCH  14  15
ATOM     15  C   UNL     1     -97.057 -44.779  -8.254  1.00  0.00    -0.000 C 
BRANCH  15  16
ATOM     16  C   UNL     1     -96.214 -46.011  -7.877  1.00  0.00    -0.003 C 
ATOM     17  C   UNL     1     -94.808 -45.979  -8.476  1.00  0.00     0.004 C 
ENDBRANCH  15  16
ENDBRANCH  14  15
ENDBRANCH  13  14
ENDBRANCH  12  13
ENDBRANCH  11  12
ENDBRANCH  10  11
ENDBRANCH   1  10
TORSDOF 13
ENDMDL
MODEL 9
REMARK VINA RESULT:    -3.002      1.533      2.181
REMARK INTER + INTRA:          -7.249
REMARK INTER:                  -4.970
REMARK INTRA:                  -2.280
REMARK UNBOUND:                -1.965
REMARK SMILES CCCCCCCCCCCCCCC(=O)[O-]
REMARK SMILES IDX 9 1 10 2 11 3 12 4 13 5 14 6 15 7 16 8 17 9 8 10 7 11 6 12
REMARK SMILES IDX 5 13 4 14 3 15 2 16 1 17
REMARK H PARENT
REMARK Flexibility Score: inf
ROOT
ATOM      1  C   UNL     1     -97.507 -42.965  -9.383  1.00  0.00     0.000 C 
ENDROOT
BRANCH   1   2
ATOM      2  C   UNL     1     -98.352 -43.105 -10.661  1.00  0.00     0.000 C 
BRANCH   2   3
ATOM      3  C   UNL     1     -97.503 -43.459 -11.891  1.00  0.00     0.000 C 
BRANCH   3   4
ATOM      4  C   UNL     1     -97.394 -44.981 -12.065  1.00  0.00     0.000 C 
BRANCH   4   5
ATOM      5  C   UNL     1     -98.762 -45.685 -12.097  1.00  0.00     0.006 C 
BRANCH   5   6
ATOM      6  C   UNL     1     -98.839 -46.942 -11.211  1.00  0.00     0.053 C 
BRANCH   6   7
ATOM      7  C   UNL     1     -99.063 -48.196 -12.002  1.00  0.00     0.041 C 
ATOM      8  O   UNL     1     -99.656 -49.178 -11.483  1.00  0.00    -0.550 OA
ATOM      9  O   UNL     1     -98.588 -48.290 -13.304  1.00  0.00    -0.550 OA
ENDBRANCH   6   7
ENDBRANCH   5   6
ENDBRANCH   4   5
ENDBRANCH   3   4
ENDBRANCH   2   3
ENDBRANCH   1   2
BRANCH   1  10
ATOM     10  C   UNL     1     -97.857 -44.025  -8.324  1.00  0.00     0.000 C 
BRANCH  10  11
ATOM     11  C   UNL     1     -96.871 -45.204  -8.318  1.00  0.00    -0.000 C 
BRANCH  11  12
ATOM     12  C   UNL     1     -95.545 -44.867  -9.022  1.00  0.00    -0.000 C 
BRANCH  12  13
ATOM     13  C   UNL     1     -94.834 -46.117  -9.568  1.00  0.00    -0.000 C 
BRANCH  13  14
ATOM     14  C   UNL     1     -95.598 -47.414  -9.251  1.00  0.00    -0.000 C 
BRANCH  14  15
ATOM     15  C   UNL     1     -95.555 -48.431 -10.406  1.00  0.00    -0.000 C 
BRANCH  15  16
ATOM     16  C   UNL     1     -95.243 -47.832 -11.788  1.00  0.00    -0.003 C 
ATOM     17  C   UNL     1     -95.100 -48.891 -12.881  1.00  0.00     0.004 C 
ENDBRANCH  15  16
ENDBRANCH  14  15
ENDBRANCH  13  14
ENDBRANCH  12  13
ENDBRANCH  11  12
ENDBRANCH  10  11
ENDBRANCH   1  10
TORSDOF 13
ENDMDL
