MODEL 1
REMARK VINA RESULT:    -3.518      0.000      0.000
REMARK INTER + INTRA:          -4.230
REMARK INTER:                  -4.134
REMARK INTRA:                  -0.096
REMARK UNBOUND:                -0.096
REMARK SMILES O=C([O-])CCC(=O)[O-]
REMARK SMILES IDX 4 1 2 2 1 3 3 4 5 5 6 6 7 7 8 8
REMARK H PARENT
REMARK Flexibility Score: inf
ROOT
ATOM      1  C   UNL     1       6.774  57.074  16.845  1.00  0.00     0.059 C 
ENDROOT
BRANCH   1   2
ATOM      2  C   UNL     1       5.366  56.575  16.971  1.00  0.00     0.042 C 
ATOM      3  O   UNL     1       4.636  56.970  17.917  1.00  0.00    -0.550 OA
ATOM      4  O   UNL     1       4.877  55.641  16.068  1.00  0.00    -0.550 OA
ENDBRANCH   1   2
BRANCH   1   5
ATOM      5  C   UNL     1       7.494  57.081  18.198  1.00  0.00     0.059 C 
BRANCH   5   6
ATOM      6  C   UNL     1       7.929  58.461  18.585  1.00  0.00     0.042 C 
ATOM      7  O   UNL     1       7.263  59.123  19.423  1.00  0.00    -0.550 OA
ATOM      8  O   UNL     1       9.047  59.031  17.989  1.00  0.00    -0.550 OA
ENDBRANCH   5   6
ENDBRANCH   1   5
TORSDOF 3
ENDMDL
MODEL 2
REMARK VINA RESULT:    -3.426      2.657      3.874
REMARK INTER + INTRA:          -4.123
REMARK INTER:                  -4.081
REMARK INTRA:                  -0.043
REMARK UNBOUND:                -0.096
REMARK SMILES O=C([O-])CCC(=O)[O-]
REMARK SMILES IDX 4 1 2 2 1 3 3 4 5 5 6 6 7 7 8 8
REMARK H PARENT
REMARK Flexibility Score: inf
ROOT
ATOM      1  C   UNL     1       9.064  58.627  17.086  1.00  0.00     0.059 C 
ENDROOT
BRANCH   1   2
ATOM      2  C   UNL     1       8.198  58.176  18.222  1.00  0.00     0.042 C 
ATOM      3  O   UNL     1       7.709  59.019  19.019  1.00  0.00    -0.550 OA
ATOM      4  O   UNL     1       7.966  56.822  18.425  1.00  0.00    -0.550 OA
ENDBRANCH   1   2
BRANCH   1   5
ATOM      5  C   UNL     1      10.357  59.279  17.585  1.00  0.00     0.059 C 
BRANCH   5   6
ATOM      6  C   UNL     1      10.812  60.376  16.672  1.00  0.00     0.042 C 
ATOM      7  O   UNL     1      11.696  61.189  17.050  1.00  0.00    -0.550 OA
ATOM      8  O   UNL     1      10.230  60.525  15.419  1.00  0.00    -0.550 OA
ENDBRANCH   5   6
ENDBRANCH   1   5
TORSDOF 3
ENDMDL
MODEL 3
REMARK VINA RESULT:    -3.385      2.670      5.080
REMARK INTER + INTRA:          -4.074
REMARK INTER:                  -4.025
REMARK INTRA:                  -0.049
REMARK UNBOUND:                -0.096
REMARK SMILES O=C([O-])CCC(=O)[O-]
REMARK SMILES IDX 4 1 2 2 1 3 3 4 5 5 6 6 7 7 8 8
REMARK H PARENT
REMARK Flexibility Score: inf
ROOT
ATOM      1  C   UNL     1      10.360  59.296  17.621  1.00  0.00     0.059 C 
ENDROOT
BRANCH   1   2
ATOM      2  C   UNL     1      10.775  60.427  16.729  1.00  0.00     0.042 C 
ATOM      3  O   UNL     1      10.200  60.606  15.624  1.00  0.00    -0.550 OA
ATOM      4  O   UNL     1      11.824  61.257  17.102  1.00  0.00    -0.550 OA
ENDBRANCH   1   2
BRANCH   1   5
ATOM      5  C   UNL     1       9.135  58.561  17.068  1.00  0.00     0.059 C 
BRANCH   5   6
ATOM      6  C   UNL     1       8.240  58.074  18.166  1.00  0.00     0.042 C 
ATOM      7  O   UNL     1       7.732  58.891  18.978  1.00  0.00    -0.550 OA
ATOM      8  O   UNL     1       8.001  56.714  18.317  1.00  0.00    -0.550 OA
ENDBRANCH   5   6
ENDBRANCH   1   5
TORSDOF 3
ENDMDL
MODEL 4
REMARK VINA RESULT:    -3.267      2.678      3.769
REMARK INTER + INTRA:          -3.936
REMARK INTER:                  -3.835
REMARK INTRA:                  -0.101
REMARK UNBOUND:                -0.096
REMARK SMILES O=C([O-])CCC(=O)[O-]
REMARK SMILES IDX 4 1 2 2 1 3 3 4 5 5 6 6 7 7 8 8
REMARK H PARENT
REMARK Flexibility Score: inf
ROOT
ATOM      1  C   UNL     1       9.306  58.372  16.980  1.00  0.00     0.059 C 
ENDROOT
BRANCH   1   2
ATOM      2  C   UNL     1       8.339  58.082  18.087  1.00  0.00     0.042 C 
ATOM      3  O   UNL     1       7.861  59.022  18.774  1.00  0.00    -0.550 OA
ATOM      4  O   UNL     1       7.998  56.769  18.385  1.00  0.00    -0.550 OA
ENDBRANCH   1   2
BRANCH   1   5
ATOM      5  C   UNL     1      10.708  57.845  17.301  1.00  0.00     0.059 C 
BRANCH   5   6
ATOM      6  C   UNL     1      11.611  58.938  17.786  1.00  0.00     0.042 C 
ATOM      7  O   UNL     1      11.314  60.143  17.579  1.00  0.00    -0.550 OA
ATOM      8  O   UNL     1      12.802  58.622  18.429  1.00  0.00    -0.550 OA
ENDBRANCH   5   6
ENDBRANCH   1   5
TORSDOF 3
ENDMDL
MODEL 5
REMARK VINA RESULT:    -3.208      3.859      5.248
REMARK INTER + INTRA:          -3.866
REMARK INTER:                  -3.744
REMARK INTRA:                  -0.122
REMARK UNBOUND:                -0.096
REMARK SMILES O=C([O-])CCC(=O)[O-]
REMARK SMILES IDX 4 1 2 2 1 3 3 4 5 5 6 6 7 7 8 8
REMARK H PARENT
REMARK Flexibility Score: inf
ROOT
ATOM      1  C   UNL     1       1.534  55.307  16.919  1.00  0.00     0.059 C 
ENDROOT
BRANCH   1   2
ATOM      2  C   UNL     1       1.053  56.700  17.187  1.00  0.00     0.042 C 
ATOM      3  O   UNL     1      -0.005  57.119  16.648  1.00  0.00    -0.550 OA
ATOM      4  O   UNL     1       1.795  57.548  17.998  1.00  0.00    -0.550 OA
ENDBRANCH   1   2
BRANCH   1   5
ATOM      5  C   UNL     1       2.595  55.278  15.814  1.00  0.00     0.059 C 
BRANCH   5   6
ATOM      6  C   UNL     1       3.982  55.232  16.380  1.00  0.00     0.042 C 
ATOM      7  O   UNL     1       4.447  54.152  16.826  1.00  0.00    -0.550 OA
ATOM      8  O   UNL     1       4.743  56.393  16.451  1.00  0.00    -0.550 OA
ENDBRANCH   5   6
ENDBRANCH   1   5
TORSDOF 3
ENDMDL
MODEL 6
REMARK VINA RESULT:    -3.202      7.873      9.845
REMARK INTER + INTRA:          -3.859
REMARK INTER:                  -3.758
REMARK INTRA:                  -0.102
REMARK UNBOUND:                -0.096
REMARK SMILES O=C([O-])CCC(=O)[O-]
REMARK SMILES IDX 4 1 2 2 1 3 3 4 5 5 6 6 7 7 8 8
REMARK H PARENT
REMARK Flexibility Score: inf
ROOT
ATOM      1  C   UNL     1      -1.426  56.154  18.116  1.00  0.00     0.059 C 
ENDROOT
BRANCH   1   2
ATOM      2  C   UNL     1      -0.989  55.653  19.459  1.00  0.00     0.042 C 
ATOM      3  O   UNL     1       0.147  55.957  19.909  1.00  0.00    -0.550 OA
ATOM      4  O   UNL     1      -1.819  54.818  20.194  1.00  0.00    -0.550 OA
ENDBRANCH   1   2
BRANCH   1   5
ATOM      5  C   UNL     1      -2.887  55.794  17.828  1.00  0.00     0.059 C 
BRANCH   5   6
ATOM      6  C   UNL     1      -3.796  56.967  18.035  1.00  0.00     0.042 C 
ATOM      7  O   UNL     1      -3.704  57.978  17.291  1.00  0.00    -0.550 OA
ATOM      8  O   UNL     1      -4.717  56.958  19.075  1.00  0.00    -0.550 OA
ENDBRANCH   5   6
ENDBRANCH   1   5
TORSDOF 3
ENDMDL
MODEL 7
REMARK VINA RESULT:    -3.196      3.832      5.534
REMARK INTER + INTRA:          -3.853
REMARK INTER:                  -3.733
REMARK INTRA:                  -0.120
REMARK UNBOUND:                -0.096
REMARK SMILES O=C([O-])CCC(=O)[O-]
REMARK SMILES IDX 4 1 2 2 1 3 3 4 5 5 6 6 7 7 8 8
REMARK H PARENT
REMARK Flexibility Score: inf
ROOT
ATOM      1  C   UNL     1       2.617  55.253  15.884  1.00  0.00     0.059 C 
ENDROOT
BRANCH   1   2
ATOM      2  C   UNL     1       3.994  55.221  16.475  1.00  0.00     0.042 C 
ATOM      3  O   UNL     1       4.437  54.162  16.992  1.00  0.00    -0.550 OA
ATOM      4  O   UNL     1       4.771  56.372  16.493  1.00  0.00    -0.550 OA
ENDBRANCH   1   2
BRANCH   1   5
ATOM      5  C   UNL     1       1.538  55.308  16.970  1.00  0.00     0.059 C 
BRANCH   5   6
ATOM      6  C   UNL     1       1.076  56.711  17.220  1.00  0.00     0.042 C 
ATOM      7  O   UNL     1       0.010  57.129  16.698  1.00  0.00    -0.550 OA
ATOM      8  O   UNL     1       1.845  57.568  17.998  1.00  0.00    -0.550 OA
ENDBRANCH   5   6
ENDBRANCH   1   5
TORSDOF 3
ENDMDL
MODEL 8
REMARK VINA RESULT:    -3.183      2.613      4.849
REMARK INTER + INTRA:          -3.837
REMARK INTER:                  -3.771
REMARK INTRA:                  -0.066
REMARK UNBOUND:                -0.096
REMARK SMILES O=C([O-])CCC(=O)[O-]
REMARK SMILES IDX 4 1 2 2 1 3 3 4 5 5 6 6 7 7 8 8
REMARK H PARENT
REMARK Flexibility Score: inf
ROOT
ATOM      1  C   UNL     1      10.200  57.828  17.132  1.00  0.00     0.059 C 
ENDROOT
BRANCH   1   2
ATOM      2  C   UNL     1      11.566  58.199  17.625  1.00  0.00     0.042 C 
ATOM      3  O   UNL     1      11.784  59.351  18.082  1.00  0.00    -0.550 OA
ATOM      4  O   UNL     1      12.608  57.284  17.540  1.00  0.00    -0.550 OA
ENDBRANCH   1   2
BRANCH   1   5
ATOM      5  C   UNL     1       9.141  58.834  17.594  1.00  0.00     0.059 C 
BRANCH   5   6
ATOM      6  C   UNL     1       8.088  58.181  18.435  1.00  0.00     0.042 C 
ATOM      7  O   UNL     1       7.351  58.878  19.180  1.00  0.00    -0.550 OA
ATOM      8  O   UNL     1       7.949  56.798  18.428  1.00  0.00    -0.550 OA
ENDBRANCH   5   6
ENDBRANCH   1   5
TORSDOF 3
ENDMDL
MODEL 9
REMARK VINA RESULT:    -3.122      3.075      4.707
REMARK INTER + INTRA:          -3.765
REMARK INTER:                  -3.651
REMARK INTRA:                  -0.114
REMARK UNBOUND:                -0.096
REMARK SMILES O=C([O-])CCC(=O)[O-]
REMARK SMILES IDX 4 1 2 2 1 3 3 4 5 5 6 6 7 7 8 8
REMARK H PARENT
REMARK Flexibility Score: inf
ROOT
ATOM      1  C   UNL     1       2.357  55.247  16.102  1.00  0.00     0.059 C 
ENDROOT
BRANCH   1   2
ATOM      2  C   UNL     1       1.692  54.221  16.969  1.00  0.00     0.042 C 
ATOM      3  O   UNL     1       1.302  53.131  16.474  1.00  0.00    -0.550 OA
ATOM      4  O   UNL     1       1.465  54.487  18.312  1.00  0.00    -0.550 OA
ENDBRANCH   1   2
BRANCH   1   5
ATOM      5  C   UNL     1       3.884  55.140  16.170  1.00  0.00     0.059 C 
BRANCH   5   6
ATOM      6  C   UNL     1       4.487  56.297  16.906  1.00  0.00     0.042 C 
ATOM      7  O   UNL     1       5.613  56.745  16.567  1.00  0.00    -0.550 OA
ATOM      8  O   UNL     1       3.824  56.852  17.993  1.00  0.00    -0.550 OA
ENDBRANCH   5   6
ENDBRANCH   1   5
TORSDOF 3
ENDMDL
