MODEL 1
REMARK VINA RESULT:    -3.269      0.000      0.000
REMARK INTER + INTRA:          -3.269
REMARK INTER:                  -3.269
REMARK INTRA:                   0.000
REMARK UNBOUND:                 0.000
REMARK SMILES CC1(C)O[C@]2(C)CC[C@H]1CC2
REMARK SMILES IDX 1 1 2 2 9 3 8 4 7 5 5 6 4 7 11 8 10 9 6 10 3 11
REMARK H PARENT
REMARK Flexibility Score: inf
ROOT
ATOM      1  C   UNL     1     146.890 134.167 145.567  1.00  0.00     0.042 C 
ATOM      2  C   UNL     1     145.841 133.648 144.560  1.00  0.00     0.066 C 
ATOM      3  C   UNL     1     144.791 132.715 145.280  1.00  0.00     0.021 C 
ATOM      4  C   UNL     1     143.738 132.267 144.238  1.00  0.00     0.009 C 
ATOM      5  C   UNL     1     143.181 133.516 143.510  1.00  0.00     0.035 C 
ATOM      6  C   UNL     1     143.796 134.804 144.129  1.00  0.00     0.066 C 
ATOM      7  O   UNL     1     145.212 134.783 143.947  1.00  0.00    -0.369 OA
ATOM      8  C   UNL     1     143.476 134.836 145.652  1.00  0.00     0.035 C 
ATOM      9  C   UNL     1     144.026 133.557 146.329  1.00  0.00     0.009 C 
ATOM     10  C   UNL     1     143.227 136.049 143.439  1.00  0.00     0.042 C 
ATOM     11  C   UNL     1     146.601 132.871 143.464  1.00  0.00     0.042 C 
ENDROOT
TORSDOF 0
ENDMDL
MODEL 2
REMARK VINA RESULT:    -3.264     13.520     16.015
REMARK INTER + INTRA:          -3.264
REMARK INTER:                  -3.264
REMARK INTRA:                   0.000
REMARK UNBOUND:                 0.000
REMARK SMILES CC1(C)O[C@]2(C)CC[C@H]1CC2
REMARK SMILES IDX 1 1 2 2 9 3 8 4 7 5 5 6 4 7 11 8 10 9 6 10 3 11
REMARK H PARENT
REMARK Flexibility Score: inf
ROOT
ATOM      1  C   UNL     1     134.615 147.390 145.493  1.00  0.00     0.042 C 
ATOM      2  C   UNL     1     135.694 147.875 144.501  1.00  0.00     0.066 C 
ATOM      3  C   UNL     1     136.754 148.787 145.232  1.00  0.00     0.021 C 
ATOM      4  C   UNL     1     137.836 149.200 144.205  1.00  0.00     0.009 C 
ATOM      5  C   UNL     1     138.374 147.933 143.497  1.00  0.00     0.035 C 
ATOM      6  C   UNL     1     137.717 146.665 144.114  1.00  0.00     0.066 C 
ATOM      7  O   UNL     1     136.305 146.720 143.907  1.00  0.00    -0.369 OA
ATOM      8  C   UNL     1     138.009 146.637 145.642  1.00  0.00     0.035 C 
ATOM      9  C   UNL     1     137.480 147.934 146.301  1.00  0.00     0.009 C 
ATOM     10  C   UNL     1     138.266 145.401 143.444  1.00  0.00     0.042 C 
ATOM     11  C   UNL     1     134.973 148.662 143.385  1.00  0.00     0.042 C 
ENDROOT
TORSDOF 0
ENDMDL
MODEL 3
REMARK VINA RESULT:    -3.260      9.863     11.291
REMARK INTER + INTRA:          -3.260
REMARK INTER:                  -3.260
REMARK INTRA:                   0.000
REMARK UNBOUND:                 0.000
REMARK SMILES CC1(C)O[C@]2(C)CC[C@H]1CC2
REMARK SMILES IDX 1 1 2 2 9 3 8 4 7 5 5 6 4 7 11 8 10 9 6 10 3 11
REMARK H PARENT
REMARK Flexibility Score: inf
ROOT
ATOM      1  C   UNL     1     134.195 134.632 145.492  1.00  0.00     0.042 C 
ATOM      2  C   UNL     1     133.703 135.720 144.513  1.00  0.00     0.066 C 
ATOM      3  C   UNL     1     132.771 136.756 145.254  1.00  0.00     0.021 C 
ATOM      4  C   UNL     1     132.351 137.848 144.241  1.00  0.00     0.009 C 
ATOM      5  C   UNL     1     133.617 138.415 143.551  1.00  0.00     0.035 C 
ATOM      6  C   UNL     1     134.888 137.765 144.168  1.00  0.00     0.066 C 
ATOM      7  O   UNL     1     134.854 136.356 143.939  1.00  0.00    -0.369 OA
ATOM      8  C   UNL     1     134.900 138.033 145.701  1.00  0.00     0.035 C 
ATOM      9  C   UNL     1     133.605 137.476 146.341  1.00  0.00     0.009 C 
ATOM     10  C   UNL     1     136.150 138.342 143.517  1.00  0.00     0.042 C 
ATOM     11  C   UNL     1     132.935 135.006 143.380  1.00  0.00     0.042 C 
ENDROOT
TORSDOF 0
ENDMDL
MODEL 4
REMARK VINA RESULT:    -3.253      9.991     11.400
REMARK INTER + INTRA:          -3.253
REMARK INTER:                  -3.253
REMARK INTRA:                   0.000
REMARK UNBOUND:                 0.000
REMARK SMILES CC1(C)O[C@]2(C)CC[C@H]1CC2
REMARK SMILES IDX 1 1 2 2 9 3 8 4 7 5 5 6 4 7 11 8 10 9 6 10 3 11
REMARK H PARENT
REMARK Flexibility Score: inf
ROOT
ATOM      1  C   UNL     1     147.389 146.998 145.508  1.00  0.00     0.042 C 
ATOM      2  C   UNL     1     147.872 145.902 144.533  1.00  0.00     0.066 C 
ATOM      3  C   UNL     1     148.810 144.871 145.272  1.00  0.00     0.021 C 
ATOM      4  C   UNL     1     149.221 143.772 144.263  1.00  0.00     0.009 C 
ATOM      5  C   UNL     1     147.949 143.201 143.588  1.00  0.00     0.035 C 
ATOM      6  C   UNL     1     146.683 143.856 144.212  1.00  0.00     0.066 C 
ATOM      7  O   UNL     1     146.716 145.263 143.972  1.00  0.00    -0.369 OA
ATOM      8  C   UNL     1     146.685 143.598 145.746  1.00  0.00     0.035 C 
ATOM      9  C   UNL     1     147.985 144.159 146.371  1.00  0.00     0.009 C 
ATOM     10  C   UNL     1     145.415 143.275 143.576  1.00  0.00     0.042 C 
ATOM     11  C   UNL     1     148.631 146.608 143.388  1.00  0.00     0.042 C 
ENDROOT
TORSDOF 0
ENDMDL
MODEL 5
REMARK VINA RESULT:    -3.097      1.500      3.230
REMARK INTER + INTRA:          -3.097
REMARK INTER:                  -3.097
REMARK INTRA:                   0.000
REMARK UNBOUND:                 0.000
REMARK SMILES CC1(C)O[C@]2(C)CC[C@H]1CC2
REMARK SMILES IDX 1 1 2 2 9 3 8 4 7 5 5 6 4 7 11 8 10 9 6 10 3 11
REMARK H PARENT
REMARK Flexibility Score: inf
ROOT
ATOM      1  C   UNL     1     144.213 135.684 143.904  1.00  0.00     0.042 C 
ATOM      2  C   UNL     1     144.332 134.847 145.196  1.00  0.00     0.066 C 
ATOM      3  C   UNL     1     142.904 134.491 145.764  1.00  0.00     0.021 C 
ATOM      4  C   UNL     1     143.084 133.611 147.025  1.00  0.00     0.009 C 
ATOM      5  C   UNL     1     144.017 132.423 146.686  1.00  0.00     0.035 C 
ATOM      6  C   UNL     1     144.389 132.459 145.176  1.00  0.00     0.066 C 
ATOM      7  O   UNL     1     145.094 133.669 144.895  1.00  0.00    -0.369 OA
ATOM      8  C   UNL     1     143.082 132.422 144.332  1.00  0.00     0.035 C 
ATOM      9  C   UNL     1     142.169 133.609 144.726  1.00  0.00     0.009 C 
ATOM     10  C   UNL     1     145.286 131.269 144.820  1.00  0.00     0.042 C 
ATOM     11  C   UNL     1     145.132 135.686 146.215  1.00  0.00     0.042 C 
ENDROOT
TORSDOF 0
ENDMDL
MODEL 6
REMARK VINA RESULT:    -3.086     10.138     11.439
REMARK INTER + INTRA:          -3.086
REMARK INTER:                  -3.086
REMARK INTRA:                   0.000
REMARK UNBOUND:                 0.000
REMARK SMILES CC1(C)O[C@]2(C)CC[C@H]1CC2
REMARK SMILES IDX 1 1 2 2 9 3 8 4 7 5 5 6 4 7 11 8 10 9 6 10 3 11
REMARK H PARENT
REMARK Flexibility Score: inf
ROOT
ATOM      1  C   UNL     1     148.485 143.262 147.218  1.00  0.00     0.042 C 
ATOM      2  C   UNL     1     148.301 144.500 146.315  1.00  0.00     0.066 C 
ATOM      3  C   UNL     1     149.429 144.559 145.212  1.00  0.00     0.021 C 
ATOM      4  C   UNL     1     149.165 145.787 144.308  1.00  0.00     0.009 C 
ATOM      5  C   UNL     1     147.700 145.745 143.808  1.00  0.00     0.035 C 
ATOM      6  C   UNL     1     147.011 144.442 144.305  1.00  0.00     0.066 C 
ATOM      7  O   UNL     1     146.991 144.437 145.733  1.00  0.00    -0.369 OA
ATOM      8  C   UNL     1     147.825 143.215 143.802  1.00  0.00     0.035 C 
ATOM      9  C   UNL     1     149.287 143.316 144.301  1.00  0.00     0.009 C 
ATOM     10  C   UNL     1     145.570 144.372 143.790  1.00  0.00     0.042 C 
ATOM     11  C   UNL     1     148.362 145.746 147.225  1.00  0.00     0.042 C 
ENDROOT
TORSDOF 0
ENDMDL
MODEL 7
REMARK VINA RESULT:    -3.076     10.045     11.687
REMARK INTER + INTRA:          -3.076
REMARK INTER:                  -3.076
REMARK INTRA:                   0.000
REMARK UNBOUND:                 0.000
REMARK SMILES CC1(C)O[C@]2(C)CC[C@H]1CC2
REMARK SMILES IDX 1 1 2 2 9 3 8 4 7 5 5 6 4 7 11 8 10 9 6 10 3 11
REMARK H PARENT
REMARK Flexibility Score: inf
ROOT
ATOM      1  C   UNL     1     133.453 138.581 147.164  1.00  0.00     0.042 C 
ATOM      2  C   UNL     1     133.525 137.283 146.330  1.00  0.00     0.066 C 
ATOM      3  C   UNL     1     132.331 137.214 145.301  1.00  0.00     0.021 C 
ATOM      4  C   UNL     1     132.483 135.924 144.460  1.00  0.00     0.009 C 
ATOM      5  C   UNL     1     133.915 135.864 143.875  1.00  0.00     0.035 C 
ATOM      6  C   UNL     1     134.692 137.159 144.249  1.00  0.00     0.066 C 
ATOM      7  O   UNL     1     134.799 137.247 145.670  1.00  0.00    -0.369 OA
ATOM      8  C   UNL     1     133.905 138.392 143.719  1.00  0.00     0.035 C 
ATOM      9  C   UNL     1     132.473 138.393 144.307  1.00  0.00     0.009 C 
ATOM     10  C   UNL     1     136.101 137.128 143.647  1.00  0.00     0.042 C 
ATOM     11  C   UNL     1     133.464 136.098 147.318  1.00  0.00     0.042 C 
ENDROOT
TORSDOF 0
ENDMDL
MODEL 8
REMARK VINA RESULT:    -3.063     10.155     11.741
REMARK INTER + INTRA:          -3.063
REMARK INTER:                  -3.063
REMARK INTRA:                   0.000
REMARK UNBOUND:                 0.000
REMARK SMILES CC1(C)O[C@]2(C)CC[C@H]1CC2
REMARK SMILES IDX 1 1 2 2 9 3 8 4 7 5 5 6 4 7 11 8 10 9 6 10 3 11
REMARK H PARENT
REMARK Flexibility Score: inf
ROOT
ATOM      1  C   UNL     1     135.772 136.764 143.994  1.00  0.00     0.042 C 
ATOM      2  C   UNL     1     134.870 136.904 145.240  1.00  0.00     0.066 C 
ATOM      3  C   UNL     1     134.601 138.424 145.566  1.00  0.00     0.021 C 
ATOM      4  C   UNL     1     133.653 138.502 146.787  1.00  0.00     0.009 C 
ATOM      5  C   UNL     1     132.413 137.612 146.526  1.00  0.00     0.035 C 
ATOM      6  C   UNL     1     132.489 137.011 145.093  1.00  0.00     0.066 C 
ATOM      7  O   UNL     1     133.651 136.189 144.989  1.00  0.00    -0.369 OA
ATOM      8  C   UNL     1     132.591 138.172 144.062  1.00  0.00     0.035 C 
ATOM      9  C   UNL     1     133.826 139.049 144.381  1.00  0.00     0.009 C 
ATOM     10  C   UNL     1     131.250 136.155 144.808  1.00  0.00     0.042 C 
ATOM     11  C   UNL     1     135.598 136.213 146.414  1.00  0.00     0.042 C 
ENDROOT
TORSDOF 0
ENDMDL
MODEL 9
REMARK VINA RESULT:    -3.063     14.475     15.770
REMARK INTER + INTRA:          -3.063
REMARK INTER:                  -3.063
REMARK INTRA:                   0.000
REMARK UNBOUND:                 0.000
REMARK SMILES CC1(C)O[C@]2(C)CC[C@H]1CC2
REMARK SMILES IDX 1 1 2 2 9 3 8 4 7 5 5 6 4 7 11 8 10 9 6 10 3 11
REMARK H PARENT
REMARK Flexibility Score: inf
ROOT
ATOM      1  C   UNL     1     136.363 145.617 143.823  1.00  0.00     0.042 C 
ATOM      2  C   UNL     1     136.813 146.478 145.023  1.00  0.00     0.066 C 
ATOM      3  C   UNL     1     138.382 146.646 145.032  1.00  0.00     0.021 C 
ATOM      4  C   UNL     1     138.770 147.557 146.222  1.00  0.00     0.009 C 
ATOM      5  C   UNL     1     137.927 148.855 146.164  1.00  0.00     0.035 C 
ATOM      6  C   UNL     1     137.042 148.851 144.885  1.00  0.00     0.066 C 
ATOM      7  O   UNL     1     136.142 147.744 144.940  1.00  0.00    -0.369 OA
ATOM      8  C   UNL     1     137.958 148.704 143.636  1.00  0.00     0.035 C 
ATOM      9  C   UNL     1     138.800 147.410 143.753  1.00  0.00     0.009 C 
ATOM     10  C   UNL     1     136.227 150.147 144.798  1.00  0.00     0.042 C 
ATOM     11  C   UNL     1     136.332 145.765 146.305  1.00  0.00     0.042 C 
ENDROOT
TORSDOF 0
ENDMDL
