MODEL 1
REMARK VINA RESULT:    -3.724      0.000      0.000
REMARK INTER + INTRA:          -4.500
REMARK INTER:                  -4.377
REMARK INTRA:                  -0.122
REMARK UNBOUND:                -0.122
REMARK SMILES O=C([O-])CCC(=O)[O-]
REMARK SMILES IDX 4 1 2 2 1 3 3 4 5 5 6 6 7 7 8 8
REMARK H PARENT
REMARK Flexibility Score: inf
ROOT
ATOM      1  C   UNL     1     -27.594  66.664  84.940  1.00  0.00     0.059 C 
ENDROOT
BRANCH   1   2
ATOM      2  C   UNL     1     -27.536  67.989  85.639  1.00  0.00     0.042 C 
ATOM      3  O   UNL     1     -26.453  68.630  85.692  1.00  0.00    -0.550 OA
ATOM      4  O   UNL     1     -28.668  68.496  86.264  1.00  0.00    -0.550 OA
ENDBRANCH   1   2
BRANCH   1   5
ATOM      5  C   UNL     1     -28.196  66.791  83.537  1.00  0.00     0.059 C 
BRANCH   5   6
ATOM      6  C   UNL     1     -29.579  66.219  83.475  1.00  0.00     0.042 C 
ATOM      7  O   UNL     1     -30.550  66.853  83.969  1.00  0.00    -0.550 OA
ATOM      8  O   UNL     1     -29.791  64.967  82.912  1.00  0.00    -0.550 OA
ENDBRANCH   5   6
ENDBRANCH   1   5
TORSDOF 3
ENDMDL
MODEL 2
REMARK VINA RESULT:    -3.713      1.992      3.198
REMARK INTER + INTRA:          -4.487
REMARK INTER:                  -4.297
REMARK INTRA:                  -0.190
REMARK UNBOUND:                -0.122
REMARK SMILES O=C([O-])CCC(=O)[O-]
REMARK SMILES IDX 4 1 2 2 1 3 3 4 5 5 6 6 7 7 8 8
REMARK H PARENT
REMARK Flexibility Score: inf
ROOT
ATOM      1  C   UNL     1     -29.173  65.582  86.508  1.00  0.00     0.059 C 
ENDROOT
BRANCH   1   2
ATOM      2  C   UNL     1     -30.325  66.433  86.065  1.00  0.00     0.042 C 
ATOM      3  O   UNL     1     -31.180  65.974  85.263  1.00  0.00    -0.550 OA
ATOM      4  O   UNL     1     -30.430  67.746  86.506  1.00  0.00    -0.550 OA
ENDBRANCH   1   2
BRANCH   1   5
ATOM      5  C   UNL     1     -28.281  65.181  85.328  1.00  0.00     0.059 C 
BRANCH   5   6
ATOM      6  C   UNL     1     -27.701  66.381  84.642  1.00  0.00     0.042 C 
ATOM      7  O   UNL     1     -26.879  67.120  85.246  1.00  0.00    -0.550 OA
ATOM      8  O   UNL     1     -28.099  66.706  83.352  1.00  0.00    -0.550 OA
ENDBRANCH   5   6
ENDBRANCH   1   5
TORSDOF 3
ENDMDL
MODEL 3
REMARK VINA RESULT:    -3.695      2.144      2.390
REMARK INTER + INTRA:          -4.465
REMARK INTER:                  -4.354
REMARK INTRA:                  -0.111
REMARK UNBOUND:                -0.122
REMARK SMILES O=C([O-])CCC(=O)[O-]
REMARK SMILES IDX 4 1 2 2 1 3 3 4 5 5 6 6 7 7 8 8
REMARK H PARENT
REMARK Flexibility Score: inf
ROOT
ATOM      1  C   UNL     1     -28.203  66.051  86.106  1.00  0.00     0.059 C 
ENDROOT
BRANCH   1   2
ATOM      2  C   UNL     1     -28.464  67.500  85.826  1.00  0.00     0.042 C 
ATOM      3  O   UNL     1     -27.505  68.309  85.731  1.00  0.00    -0.550 OA
ATOM      4  O   UNL     1     -29.769  67.961  85.709  1.00  0.00    -0.550 OA
ENDBRANCH   1   2
BRANCH   1   5
ATOM      5  C   UNL     1     -29.483  65.315  86.515  1.00  0.00     0.059 C 
BRANCH   5   6
ATOM      6  C   UNL     1     -29.887  64.298  85.490  1.00  0.00     0.042 C 
ATOM      7  O   UNL     1     -29.740  64.543  84.263  1.00  0.00    -0.550 OA
ATOM      8  O   UNL     1     -30.464  63.099  85.887  1.00  0.00    -0.550 OA
ENDBRANCH   5   6
ENDBRANCH   1   5
TORSDOF 3
ENDMDL
MODEL 4
REMARK VINA RESULT:    -3.692      1.540      3.935
REMARK INTER + INTRA:          -4.462
REMARK INTER:                  -4.339
REMARK INTRA:                  -0.122
REMARK UNBOUND:                -0.122
REMARK SMILES O=C([O-])CCC(=O)[O-]
REMARK SMILES IDX 4 1 2 2 1 3 3 4 5 5 6 6 7 7 8 8
REMARK H PARENT
REMARK Flexibility Score: inf
ROOT
ATOM      1  C   UNL     1     -28.611  67.031  83.523  1.00  0.00     0.059 C 
ENDROOT
BRANCH   1   2
ATOM      2  C   UNL     1     -28.530  65.746  82.755  1.00  0.00     0.042 C 
ATOM      3  O   UNL     1     -28.941  64.673  83.271  1.00  0.00    -0.550 OA
ATOM      4  O   UNL     1     -27.966  65.729  81.486  1.00  0.00    -0.550 OA
ENDBRANCH   1   2
BRANCH   1   5
ATOM      5  C   UNL     1     -27.573  67.082  84.649  1.00  0.00     0.059 C 
BRANCH   5   6
ATOM      6  C   UNL     1     -28.210  66.924  85.996  1.00  0.00     0.042 C 
ATOM      7  O   UNL     1     -28.438  65.775  86.459  1.00  0.00    -0.550 OA
ATOM      8  O   UNL     1     -28.591  68.045  86.722  1.00  0.00    -0.550 OA
ENDBRANCH   5   6
ENDBRANCH   1   5
TORSDOF 3
ENDMDL
MODEL 5
REMARK VINA RESULT:    -3.686      2.187      2.852
REMARK INTER + INTRA:          -4.455
REMARK INTER:                  -4.331
REMARK INTRA:                  -0.124
REMARK UNBOUND:                -0.122
REMARK SMILES O=C([O-])CCC(=O)[O-]
REMARK SMILES IDX 4 1 2 2 1 3 3 4 5 5 6 6 7 7 8 8
REMARK H PARENT
REMARK Flexibility Score: inf
ROOT
ATOM      1  C   UNL     1     -30.911  66.247  85.093  1.00  0.00     0.059 C 
ENDROOT
BRANCH   1   2
ATOM      2  C   UNL     1     -31.007  67.276  86.179  1.00  0.00     0.042 C 
ATOM      3  O   UNL     1     -29.987  67.928  86.526  1.00  0.00    -0.550 OA
ATOM      4  O   UNL     1     -32.214  67.486  86.834  1.00  0.00    -0.550 OA
ENDBRANCH   1   2
BRANCH   1   5
ATOM      5  C   UNL     1     -30.210  66.802  83.850  1.00  0.00     0.059 C 
BRANCH   5   6
ATOM      6  C   UNL     1     -28.917  66.093  83.582  1.00  0.00     0.042 C 
ATOM      7  O   UNL     1     -27.965  66.180  84.402  1.00  0.00    -0.550 OA
ATOM      8  O   UNL     1     -28.748  65.372  82.407  1.00  0.00    -0.550 OA
ENDBRANCH   5   6
ENDBRANCH   1   5
TORSDOF 3
ENDMDL
MODEL 6
REMARK VINA RESULT:    -3.685      2.156      3.675
REMARK INTER + INTRA:          -4.454
REMARK INTER:                  -4.331
REMARK INTRA:                  -0.123
REMARK UNBOUND:                -0.122
REMARK SMILES O=C([O-])CCC(=O)[O-]
REMARK SMILES IDX 4 1 2 2 1 3 3 4 5 5 6 6 7 7 8 8
REMARK H PARENT
REMARK Flexibility Score: inf
ROOT
ATOM      1  C   UNL     1     -30.137  66.709  83.840  1.00  0.00     0.059 C 
ENDROOT
BRANCH   1   2
ATOM      2  C   UNL     1     -28.850  65.983  83.587  1.00  0.00     0.042 C 
ATOM      3  O   UNL     1     -27.910  66.051  84.423  1.00  0.00    -0.550 OA
ATOM      4  O   UNL     1     -28.675  65.266  82.411  1.00  0.00    -0.550 OA
ENDBRANCH   1   2
BRANCH   1   5
ATOM      5  C   UNL     1     -30.844  66.184  85.094  1.00  0.00     0.059 C 
BRANCH   5   6
ATOM      6  C   UNL     1     -30.894  67.222  86.175  1.00  0.00     0.042 C 
ATOM      7  O   UNL     1     -29.847  67.833  86.515  1.00  0.00    -0.550 OA
ATOM      8  O   UNL     1     -32.088  67.483  86.835  1.00  0.00    -0.550 OA
ENDBRANCH   5   6
ENDBRANCH   1   5
TORSDOF 3
ENDMDL
MODEL 7
REMARK VINA RESULT:    -3.684      1.855      2.249
REMARK INTER + INTRA:          -4.452
REMARK INTER:                  -4.262
REMARK INTRA:                  -0.190
REMARK UNBOUND:                -0.122
REMARK SMILES O=C([O-])CCC(=O)[O-]
REMARK SMILES IDX 4 1 2 2 1 3 3 4 5 5 6 6 7 7 8 8
REMARK H PARENT
REMARK Flexibility Score: inf
ROOT
ATOM      1  C   UNL     1     -29.314  67.443  84.000  1.00  0.00     0.059 C 
ENDROOT
BRANCH   1   2
ATOM      2  C   UNL     1     -28.249  67.317  85.047  1.00  0.00     0.042 C 
ATOM      3  O   UNL     1     -28.210  68.126  86.011  1.00  0.00    -0.550 OA
ATOM      4  O   UNL     1     -27.278  66.330  84.937  1.00  0.00    -0.550 OA
ENDBRANCH   1   2
BRANCH   1   5
ATOM      5  C   UNL     1     -30.161  66.171  83.900  1.00  0.00     0.059 C 
BRANCH   5   6
ATOM      6  C   UNL     1     -30.829  65.848  85.202  1.00  0.00     0.042 C 
ATOM      7  O   UNL     1     -31.700  66.625  85.677  1.00  0.00    -0.550 OA
ATOM      8  O   UNL     1     -30.461  64.713  85.912  1.00  0.00    -0.550 OA
ENDBRANCH   5   6
ENDBRANCH   1   5
TORSDOF 3
ENDMDL
MODEL 8
REMARK VINA RESULT:    -3.679      2.182      4.132
REMARK INTER + INTRA:          -4.446
REMARK INTER:                  -4.327
REMARK INTRA:                  -0.119
REMARK UNBOUND:                -0.122
REMARK SMILES O=C([O-])CCC(=O)[O-]
REMARK SMILES IDX 4 1 2 2 1 3 3 4 5 5 6 6 7 7 8 8
REMARK H PARENT
REMARK Flexibility Score: inf
ROOT
ATOM      1  C   UNL     1     -29.636  65.269  86.309  1.00  0.00     0.059 C 
ENDROOT
BRANCH   1   2
ATOM      2  C   UNL     1     -29.901  64.145  85.353  1.00  0.00     0.042 C 
ATOM      3  O   UNL     1     -30.498  63.108  85.745  1.00  0.00    -0.550 OA
ATOM      4  O   UNL     1     -29.453  64.228  84.041  1.00  0.00    -0.550 OA
ENDBRANCH   1   2
BRANCH   1   5
ATOM      5  C   UNL     1     -28.245  65.875  86.096  1.00  0.00     0.059 C 
BRANCH   5   6
ATOM      6  C   UNL     1     -28.328  67.281  85.584  1.00  0.00     0.042 C 
ATOM      7  O   UNL     1     -28.226  68.253  86.379  1.00  0.00    -0.550 OA
ATOM      8  O   UNL     1     -28.561  67.519  84.236  1.00  0.00    -0.550 OA
ENDBRANCH   5   6
ENDBRANCH   1   5
TORSDOF 3
ENDMDL
MODEL 9
REMARK VINA RESULT:    -3.676      1.844      3.595
REMARK INTER + INTRA:          -4.443
REMARK INTER:                  -4.260
REMARK INTRA:                  -0.183
REMARK UNBOUND:                -0.122
REMARK SMILES O=C([O-])CCC(=O)[O-]
REMARK SMILES IDX 4 1 2 2 1 3 3 4 5 5 6 6 7 7 8 8
REMARK H PARENT
REMARK Flexibility Score: inf
ROOT
ATOM      1  C   UNL     1     -30.160  66.168  83.838  1.00  0.00     0.059 C 
ENDROOT
BRANCH   1   2
ATOM      2  C   UNL     1     -30.847  65.855  85.133  1.00  0.00     0.042 C 
ATOM      3  O   UNL     1     -31.724  66.636  85.589  1.00  0.00    -0.550 OA
ATOM      4  O   UNL     1     -30.489  64.724  85.855  1.00  0.00    -0.550 OA
ENDBRANCH   1   2
BRANCH   1   5
ATOM      5  C   UNL     1     -29.273  67.411  83.954  1.00  0.00     0.059 C 
BRANCH   5   6
ATOM      6  C   UNL     1     -28.246  67.257  85.035  1.00  0.00     0.042 C 
ATOM      7  O   UNL     1     -28.182  68.097  85.972  1.00  0.00    -0.550 OA
ATOM      8  O   UNL     1     -27.332  66.213  84.985  1.00  0.00    -0.550 OA
ENDBRANCH   5   6
ENDBRANCH   1   5
TORSDOF 3
ENDMDL
