MODEL 1
REMARK VINA RESULT:    -4.393      0.000      0.000
REMARK INTER + INTRA:         -11.510
REMARK INTER:                  -8.245
REMARK INTRA:                  -3.264
REMARK UNBOUND:                -3.264
REMARK SMILES CCCCCCCCC=CCCCCCCCC(=O)[O-]
REMARK SMILES IDX 10 1 9 2 11 3 12 4 13 5 14 6 15 7 16 8 17 9 18 10 19 11
REMARK SMILES IDX 20 12 8 13 7 14 6 15 5 16 4 17 3 18 2 19 1 20
REMARK H PARENT
REMARK Flexibility Score: inf
ROOT
ATOM      1  C   UNL     1       0.989  15.299   9.801  1.00  0.00    -0.031 C 
ATOM      2  C   UNL     1       2.057  15.201  10.617  1.00  0.00    -0.031 C 
ENDROOT
BRANCH   1   3
ATOM      3  C   UNL     1       0.944  16.083   8.513  1.00  0.00     0.027 C 
BRANCH   3   4
ATOM      4  C   UNL     1      -0.225  17.074   8.496  1.00  0.00     0.004 C 
BRANCH   4   5
ATOM      5  C   UNL     1       0.277  18.515   8.351  1.00  0.00     0.000 C 
BRANCH   5   6
ATOM      6  C   UNL     1       1.797  18.552   8.156  1.00  0.00     0.000 C 
BRANCH   6   7
ATOM      7  C   UNL     1       2.485  19.261   9.332  1.00  0.00     0.000 C 
BRANCH   7   8
ATOM      8  C   UNL     1       1.507  19.674  10.444  1.00  0.00     0.006 C 
BRANCH   8   9
ATOM      9  C   UNL     1       1.774  18.991  11.797  1.00  0.00     0.053 C 
BRANCH   9  10
ATOM     10  C   UNL     1       0.594  18.218  12.299  1.00  0.00     0.041 C 
ATOM     11  O   UNL     1       0.748  17.299  13.145  1.00  0.00    -0.550 OA
ATOM     12  O   UNL     1      -0.677  18.490  11.805  1.00  0.00    -0.550 OA
ENDBRANCH   9  10
ENDBRANCH   8   9
ENDBRANCH   7   8
ENDBRANCH   6   7
ENDBRANCH   5   6
ENDBRANCH   4   5
ENDBRANCH   3   4
ENDBRANCH   1   3
BRANCH   2  13
ATOM     13  C   UNL     1       3.392  15.876  10.398  1.00  0.00     0.027 C 
BRANCH  13  14
ATOM     14  C   UNL     1       4.445  14.905   9.836  1.00  0.00     0.004 C 
BRANCH  14  15
ATOM     15  C   UNL     1       4.977  15.263   8.436  1.00  0.00     0.000 C 
BRANCH  15  16
ATOM     16  C   UNL     1       4.994  16.780   8.171  1.00  0.00     0.000 C 
BRANCH  16  17
ATOM     17  C   UNL     1       6.329  17.433   8.563  1.00  0.00    -0.000 C 
BRANCH  17  18
ATOM     18  C   UNL     1       6.144  18.639   9.501  1.00  0.00    -0.000 C 
BRANCH  18  19
ATOM     19  C   UNL     1       6.216  18.246  10.984  1.00  0.00    -0.003 C 
ATOM     20  C   UNL     1       5.486  19.233  11.895  1.00  0.00     0.004 C 
ENDBRANCH  18  19
ENDBRANCH  17  18
ENDBRANCH  16  17
ENDBRANCH  15  16
ENDBRANCH  14  15
ENDBRANCH  13  14
ENDBRANCH   2  13
TORSDOF 15
ENDMDL
MODEL 2
REMARK VINA RESULT:    -4.391      2.075      4.745
REMARK INTER + INTRA:         -11.505
REMARK INTER:                  -8.502
REMARK INTRA:                  -3.004
REMARK UNBOUND:                -3.264
REMARK SMILES CCCCCCCCC=CCCCCCCCC(=O)[O-]
REMARK SMILES IDX 10 1 9 2 11 3 12 4 13 5 14 6 15 7 16 8 17 9 18 10 19 11
REMARK SMILES IDX 20 12 8 13 7 14 6 15 5 16 4 17 3 18 2 19 1 20
REMARK H PARENT
REMARK Flexibility Score: inf
ROOT
ATOM      1  C   UNL     1       2.018  15.290  10.691  1.00  0.00    -0.031 C 
ATOM      2  C   UNL     1       1.013  15.315   9.795  1.00  0.00    -0.031 C 
ENDROOT
BRANCH   1   3
ATOM      3  C   UNL     1       3.334  16.013  10.545  1.00  0.00     0.027 C 
BRANCH   3   4
ATOM      4  C   UNL     1       4.421  15.095   9.975  1.00  0.00     0.004 C 
BRANCH   4   5
ATOM      5  C   UNL     1       4.637  15.359   8.480  1.00  0.00     0.000 C 
BRANCH   5   6
ATOM      6  C   UNL     1       4.890  16.847   8.214  1.00  0.00     0.000 C 
BRANCH   6   7
ATOM      7  C   UNL     1       6.375  17.111   7.929  1.00  0.00     0.000 C 
BRANCH   7   8
ATOM      8  C   UNL     1       7.009  18.116   8.905  1.00  0.00     0.006 C 
BRANCH   8   9
ATOM      9  C   UNL     1       5.986  18.995   9.648  1.00  0.00     0.053 C 
BRANCH   9  10
ATOM     10  C   UNL     1       6.210  19.017  11.129  1.00  0.00     0.041 C 
ATOM     11  O   UNL     1       6.370  20.110  11.732  1.00  0.00    -0.550 OA
ATOM     12  O   UNL     1       6.276  17.825  11.841  1.00  0.00    -0.550 OA
ENDBRANCH   9  10
ENDBRANCH   8   9
ENDBRANCH   7   8
ENDBRANCH   6   7
ENDBRANCH   5   6
ENDBRANCH   4   5
ENDBRANCH   3   4
ENDBRANCH   1   3
BRANCH   2  13
ATOM     13  C   UNL     1       1.032  16.052   8.475  1.00  0.00     0.027 C 
BRANCH  13  14
ATOM     14  C   UNL     1      -0.166  17.006   8.328  1.00  0.00     0.004 C 
BRANCH  14  15
ATOM     15  C   UNL     1       0.205  18.481   8.087  1.00  0.00     0.000 C 
BRANCH  15  16
ATOM     16  C   UNL     1       1.725  18.714   8.023  1.00  0.00     0.000 C 
BRANCH  16  17
ATOM     17  C   UNL     1       2.282  19.336   9.314  1.00  0.00    -0.000 C 
BRANCH  17  18
ATOM     18  C   UNL     1       1.176  19.691  10.323  1.00  0.00    -0.000 C 
BRANCH  18  19
ATOM     19  C   UNL     1       1.348  18.962  11.665  1.00  0.00    -0.003 C 
ATOM     20  C   UNL     1       2.703  19.233  12.318  1.00  0.00     0.004 C 
ENDBRANCH  18  19
ENDBRANCH  17  18
ENDBRANCH  16  17
ENDBRANCH  15  16
ENDBRANCH  14  15
ENDBRANCH  13  14
ENDBRANCH   2  13
TORSDOF 15
ENDMDL
MODEL 3
REMARK VINA RESULT:    -4.186      3.561      6.029
REMARK INTER + INTRA:         -11.121
REMARK INTER:                  -8.595
REMARK INTRA:                  -2.526
REMARK UNBOUND:                -3.264
REMARK SMILES CCCCCCCCC=CCCCCCCCC(=O)[O-]
REMARK SMILES IDX 10 1 9 2 11 3 12 4 13 5 14 6 15 7 16 8 17 9 18 10 19 11
REMARK SMILES IDX 20 12 8 13 7 14 6 15 5 16 4 17 3 18 2 19 1 20
REMARK H PARENT
REMARK Flexibility Score: inf
ROOT
ATOM      1  C   UNL     1       1.740  14.721  10.557  1.00  0.00    -0.031 C 
ATOM      2  C   UNL     1       0.804  15.352   9.822  1.00  0.00    -0.031 C 
ENDROOT
BRANCH   1   3
ATOM      3  C   UNL     1       3.200  14.608  10.198  1.00  0.00     0.027 C 
BRANCH   3   4
ATOM      4  C   UNL     1       4.032  15.710  10.865  1.00  0.00     0.004 C 
BRANCH   4   5
ATOM      5  C   UNL     1       4.514  16.736   9.834  1.00  0.00     0.000 C 
BRANCH   5   6
ATOM      6  C   UNL     1       4.854  16.060   8.500  1.00  0.00     0.000 C 
BRANCH   6   7
ATOM      7  C   UNL     1       6.368  15.853   8.358  1.00  0.00     0.000 C 
BRANCH   7   8
ATOM      8  C   UNL     1       6.733  14.595   7.553  1.00  0.00     0.006 C 
BRANCH   8   9
ATOM      9  C   UNL     1       5.622  13.530   7.519  1.00  0.00     0.053 C 
BRANCH   9  10
ATOM     10  C   UNL     1       5.750  12.595   6.356  1.00  0.00     0.041 C 
ATOM     11  O   UNL     1       5.540  11.363   6.504  1.00  0.00    -0.550 OA
ATOM     12  O   UNL     1       6.137  13.081   5.113  1.00  0.00    -0.550 OA
ENDBRANCH   9  10
ENDBRANCH   8   9
ENDBRANCH   7   8
ENDBRANCH   6   7
ENDBRANCH   5   6
ENDBRANCH   4   5
ENDBRANCH   3   4
ENDBRANCH   1   3
BRANCH   2  13
ATOM     13  C   UNL     1       1.045  16.038   8.497  1.00  0.00     0.027 C 
BRANCH  13  14
ATOM     14  C   UNL     1      -0.108  16.983   8.117  1.00  0.00     0.004 C 
BRANCH  14  15
ATOM     15  C   UNL     1       0.292  18.461   7.948  1.00  0.00     0.000 C 
BRANCH  15  16
ATOM     16  C   UNL     1       1.804  18.696   8.120  1.00  0.00     0.000 C 
BRANCH  16  17
ATOM     17  C   UNL     1       2.138  19.467   9.407  1.00  0.00    -0.000 C 
BRANCH  17  18
ATOM     18  C   UNL     1       0.884  19.822  10.226  1.00  0.00    -0.000 C 
BRANCH  18  19
ATOM     19  C   UNL     1       1.075  19.574  11.730  1.00  0.00    -0.003 C 
ATOM     20  C   UNL     1       1.615  18.178  12.038  1.00  0.00     0.004 C 
ENDBRANCH  18  19
ENDBRANCH  17  18
ENDBRANCH  16  17
ENDBRANCH  15  16
ENDBRANCH  14  15
ENDBRANCH  13  14
ENDBRANCH   2  13
TORSDOF 15
ENDMDL
MODEL 4
REMARK VINA RESULT:    -4.178      3.821      6.143
REMARK INTER + INTRA:         -11.106
REMARK INTER:                  -8.813
REMARK INTRA:                  -2.294
REMARK UNBOUND:                -3.264
REMARK SMILES CCCCCCCCC=CCCCCCCCC(=O)[O-]
REMARK SMILES IDX 10 1 9 2 11 3 12 4 13 5 14 6 15 7 16 8 17 9 18 10 19 11
REMARK SMILES IDX 20 12 8 13 7 14 6 15 5 16 4 17 3 18 2 19 1 20
REMARK H PARENT
REMARK Flexibility Score: inf
ROOT
ATOM      1  C   UNL     1       1.104  15.506   9.447  1.00  0.00    -0.031 C 
ATOM      2  C   UNL     1       0.342  16.117   8.519  1.00  0.00    -0.031 C 
ENDROOT
BRANCH   1   3
ATOM      3  C   UNL     1       1.502  16.097  10.775  1.00  0.00     0.027 C 
BRANCH   3   4
ATOM      4  C   UNL     1       2.841  15.532  11.265  1.00  0.00     0.004 C 
BRANCH   4   5
ATOM      5  C   UNL     1       3.437  14.562  10.240  1.00  0.00     0.000 C 
BRANCH   5   6
ATOM      6  C   UNL     1       4.796  15.061   9.734  1.00  0.00     0.000 C 
BRANCH   6   7
ATOM      7  C   UNL     1       4.898  14.926   8.208  1.00  0.00     0.000 C 
BRANCH   7   8
ATOM      8  C   UNL     1       6.101  14.081   7.756  1.00  0.00     0.006 C 
BRANCH   8   9
ATOM      9  C   UNL     1       5.714  12.772   7.044  1.00  0.00     0.053 C 
BRANCH   9  10
ATOM     10  C   UNL     1       6.540  12.512   5.822  1.00  0.00     0.041 C 
ATOM     11  O   UNL     1       6.417  13.241   4.804  1.00  0.00    -0.550 OA
ATOM     12  O   UNL     1       7.425  11.440   5.796  1.00  0.00    -0.550 OA
ENDBRANCH   9  10
ENDBRANCH   8   9
ENDBRANCH   7   8
ENDBRANCH   6   7
ENDBRANCH   5   6
ENDBRANCH   4   5
ENDBRANCH   3   4
ENDBRANCH   1   3
BRANCH   2  13
ATOM     13  C   UNL     1      -0.228  17.513   8.634  1.00  0.00     0.027 C 
BRANCH  13  14
ATOM     14  C   UNL     1       0.521  18.520   7.743  1.00  0.00     0.004 C 
BRANCH  14  15
ATOM     15  C   UNL     1       1.928  18.903   8.240  1.00  0.00     0.000 C 
BRANCH  15  16
ATOM     16  C   UNL     1       1.906  19.632   9.596  1.00  0.00     0.000 C 
BRANCH  16  17
ATOM     17  C   UNL     1       3.201  19.423  10.398  1.00  0.00    -0.000 C 
BRANCH  17  18
ATOM     18  C   UNL     1       4.242  18.588   9.633  1.00  0.00    -0.000 C 
BRANCH  18  19
ATOM     19  C   UNL     1       5.684  19.019   9.943  1.00  0.00    -0.003 C 
ATOM     20  C   UNL     1       6.722  18.248   9.127  1.00  0.00     0.004 C 
ENDBRANCH  18  19
ENDBRANCH  17  18
ENDBRANCH  16  17
ENDBRANCH  15  16
ENDBRANCH  14  15
ENDBRANCH  13  14
ENDBRANCH   2  13
TORSDOF 15
ENDMDL
MODEL 5
REMARK VINA RESULT:    -4.175      2.955      5.744
REMARK INTER + INTRA:         -11.100
REMARK INTER:                  -8.085
REMARK INTRA:                  -3.016
REMARK UNBOUND:                -3.264
REMARK SMILES CCCCCCCCC=CCCCCCCCC(=O)[O-]
REMARK SMILES IDX 10 1 9 2 11 3 12 4 13 5 14 6 15 7 16 8 17 9 18 10 19 11
REMARK SMILES IDX 20 12 8 13 7 14 6 15 5 16 4 17 3 18 2 19 1 20
REMARK H PARENT
REMARK Flexibility Score: inf
ROOT
ATOM      1  C   UNL     1      -0.012  16.992   8.525  1.00  0.00    -0.031 C 
ATOM      2  C   UNL     1       0.260  18.284   8.256  1.00  0.00    -0.031 C 
ENDROOT
BRANCH   1   3
ATOM      3  C   UNL     1       1.017  15.905   8.707  1.00  0.00     0.027 C 
BRANCH   3   4
ATOM      4  C   UNL     1       0.768  15.102   9.989  1.00  0.00     0.004 C 
BRANCH   4   5
ATOM      5  C   UNL     1       1.981  15.168  10.925  1.00  0.00     0.000 C 
BRANCH   5   6
ATOM      6  C   UNL     1       3.185  14.436  10.319  1.00  0.00     0.000 C 
BRANCH   6   7
ATOM      7  C   UNL     1       4.325  15.416  10.009  1.00  0.00     0.000 C 
BRANCH   7   8
ATOM      8  C   UNL     1       4.562  15.609   8.501  1.00  0.00     0.006 C 
BRANCH   8   9
ATOM      9  C   UNL     1       5.039  17.021   8.119  1.00  0.00     0.053 C 
BRANCH   9  10
ATOM     10  C   UNL     1       6.495  17.065   7.769  1.00  0.00     0.041 C 
ATOM     11  O   UNL     1       7.256  17.904   8.317  1.00  0.00    -0.550 OA
ATOM     12  O   UNL     1       7.006  16.200   6.808  1.00  0.00    -0.550 OA
ENDBRANCH   9  10
ENDBRANCH   8   9
ENDBRANCH   7   8
ENDBRANCH   6   7
ENDBRANCH   5   6
ENDBRANCH   4   5
ENDBRANCH   3   4
ENDBRANCH   1   3
BRANCH   2  13
ATOM     13  C   UNL     1       1.641  18.869   8.067  1.00  0.00     0.027 C 
BRANCH  13  14
ATOM     14  C   UNL     1       2.119  19.638   9.312  1.00  0.00     0.004 C 
BRANCH  14  15
ATOM     15  C   UNL     1       2.853  18.783  10.361  1.00  0.00     0.000 C 
BRANCH  15  16
ATOM     16  C   UNL     1       2.137  18.759  11.723  1.00  0.00     0.000 C 
BRANCH  16  17
ATOM     17  C   UNL     1       0.915  19.692  11.764  1.00  0.00    -0.000 C 
BRANCH  17  18
ATOM     18  C   UNL     1      -0.404  18.928  11.972  1.00  0.00    -0.000 C 
BRANCH  18  19
ATOM     19  C   UNL     1      -1.570  19.542  11.182  1.00  0.00    -0.003 C 
ATOM     20  C   UNL     1      -1.209  20.878  10.534  1.00  0.00     0.004 C 
ENDBRANCH  18  19
ENDBRANCH  17  18
ENDBRANCH  16  17
ENDBRANCH  15  16
ENDBRANCH  14  15
ENDBRANCH  13  14
ENDBRANCH   2  13
TORSDOF 15
ENDMDL
MODEL 6
REMARK VINA RESULT:    -4.115      1.225      2.609
REMARK INTER + INTRA:         -10.989
REMARK INTER:                  -8.064
REMARK INTRA:                  -2.925
REMARK UNBOUND:                -3.264
REMARK SMILES CCCCCCCCC=CCCCCCCCC(=O)[O-]
REMARK SMILES IDX 10 1 9 2 11 3 12 4 13 5 14 6 15 7 16 8 17 9 18 10 19 11
REMARK SMILES IDX 20 12 8 13 7 14 6 15 5 16 4 17 3 18 2 19 1 20
REMARK H PARENT
REMARK Flexibility Score: inf
ROOT
ATOM      1  C   UNL     1       1.823  14.635  10.400  1.00  0.00    -0.031 C 
ATOM      2  C   UNL     1       2.683  15.036  11.356  1.00  0.00    -0.031 C 
ENDROOT
BRANCH   1   3
ATOM      3  C   UNL     1       0.661  15.442   9.879  1.00  0.00     0.027 C 
BRANCH   3   4
ATOM      4  C   UNL     1       1.002  16.130   8.552  1.00  0.00     0.004 C 
BRANCH   4   5
ATOM      5  C   UNL     1      -0.128  17.069   8.112  1.00  0.00     0.000 C 
BRANCH   5   6
ATOM      6  C   UNL     1       0.395  18.494   7.891  1.00  0.00     0.000 C 
BRANCH   6   7
ATOM      7  C   UNL     1       1.784  18.674   8.520  1.00  0.00     0.000 C 
BRANCH   7   8
ATOM      8  C   UNL     1       1.802  19.711   9.655  1.00  0.00     0.006 C 
BRANCH   8   9
ATOM      9  C   UNL     1       0.461  19.851  10.397  1.00  0.00     0.053 C 
BRANCH   9  10
ATOM     10  C   UNL     1       0.512  19.310  11.793  1.00  0.00     0.041 C 
ATOM     11  O   UNL     1      -0.262  18.382  12.144  1.00  0.00    -0.550 OA
ATOM     12  O   UNL     1       1.394  19.856  12.718  1.00  0.00    -0.550 OA
ENDBRANCH   9  10
ENDBRANCH   8   9
ENDBRANCH   7   8
ENDBRANCH   6   7
ENDBRANCH   5   6
ENDBRANCH   4   5
ENDBRANCH   3   4
ENDBRANCH   1   3
BRANCH   2  13
ATOM     13  C   UNL     1       2.623  16.355  12.093  1.00  0.00     0.027 C 
BRANCH  13  14
ATOM     14  C   UNL     1       3.705  17.337  11.608  1.00  0.00     0.004 C 
BRANCH  14  15
ATOM     15  C   UNL     1       4.807  16.709  10.734  1.00  0.00     0.000 C 
BRANCH  15  16
ATOM     16  C   UNL     1       5.242  17.620   9.572  1.00  0.00     0.000 C 
BRANCH  16  17
ATOM     17  C   UNL     1       5.187  16.906   8.211  1.00  0.00    -0.000 C 
BRANCH  17  18
ATOM     18  C   UNL     1       4.465  15.550   8.284  1.00  0.00    -0.000 C 
BRANCH  18  19
ATOM     19  C   UNL     1       5.420  14.363   8.086  1.00  0.00    -0.003 C 
ATOM     20  C   UNL     1       5.240  13.274   9.143  1.00  0.00     0.004 C 
ENDBRANCH  18  19
ENDBRANCH  17  18
ENDBRANCH  16  17
ENDBRANCH  15  16
ENDBRANCH  14  15
ENDBRANCH  13  14
ENDBRANCH   2  13
TORSDOF 15
ENDMDL
MODEL 7
REMARK VINA RESULT:    -4.067      1.083      2.570
REMARK INTER + INTRA:         -10.897
REMARK INTER:                  -8.336
REMARK INTRA:                  -2.561
REMARK UNBOUND:                -3.264
REMARK SMILES CCCCCCCCC=CCCCCCCCC(=O)[O-]
REMARK SMILES IDX 10 1 9 2 11 3 12 4 13 5 14 6 15 7 16 8 17 9 18 10 19 11
REMARK SMILES IDX 20 12 8 13 7 14 6 15 5 16 4 17 3 18 2 19 1 20
REMARK H PARENT
REMARK Flexibility Score: inf
ROOT
ATOM      1  C   UNL     1       3.346  14.413  10.549  1.00  0.00    -0.031 C 
ATOM      2  C   UNL     1       4.328  14.288   9.635  1.00  0.00    -0.031 C 
ENDROOT
BRANCH   1   3
ATOM      3  C   UNL     1       2.326  15.522  10.586  1.00  0.00     0.027 C 
BRANCH   3   4
ATOM      4  C   UNL     1       1.053  15.145   9.818  1.00  0.00     0.004 C 
BRANCH   4   5
ATOM      5  C   UNL     1       0.967  15.904   8.489  1.00  0.00     0.000 C 
BRANCH   5   6
ATOM      6  C   UNL     1      -0.156  16.947   8.522  1.00  0.00     0.000 C 
BRANCH   6   7
ATOM      7  C   UNL     1       0.371  18.335   8.130  1.00  0.00     0.000 C 
BRANCH   7   8
ATOM      8  C   UNL     1       1.862  18.529   8.454  1.00  0.00     0.006 C 
BRANCH   8   9
ATOM      9  C   UNL     1       2.135  19.609   9.516  1.00  0.00     0.053 C 
BRANCH   9  10
ATOM     10  C   UNL     1       1.109  19.622  10.607  1.00  0.00     0.041 C 
ATOM     11  O   UNL     1       0.288  20.572  10.697  1.00  0.00    -0.550 OA
ATOM     12  O   UNL     1       1.080  18.599  11.547  1.00  0.00    -0.550 OA
ENDBRANCH   9  10
ENDBRANCH   8   9
ENDBRANCH   7   8
ENDBRANCH   6   7
ENDBRANCH   5   6
ENDBRANCH   4   5
ENDBRANCH   3   4
ENDBRANCH   1   3
BRANCH   2  13
ATOM     13  C   UNL     1       4.595  15.250   8.499  1.00  0.00     0.027 C 
BRANCH  13  14
ATOM     14  C   UNL     1       5.740  16.225   8.825  1.00  0.00     0.004 C 
BRANCH  14  15
ATOM     15  C   UNL     1       5.330  17.708   8.887  1.00  0.00     0.000 C 
BRANCH  15  16
ATOM     16  C   UNL     1       6.429  18.610   9.479  1.00  0.00     0.000 C 
BRANCH  16  17
ATOM     17  C   UNL     1       5.856  19.779  10.296  1.00  0.00    -0.000 C 
BRANCH  17  18
ATOM     18  C   UNL     1       5.904  19.520  11.812  1.00  0.00    -0.000 C 
BRANCH  18  19
ATOM     19  C   UNL     1       4.582  18.958  12.355  1.00  0.00    -0.003 C 
ATOM     20  C   UNL     1       4.640  17.453  12.618  1.00  0.00     0.004 C 
ENDBRANCH  18  19
ENDBRANCH  17  18
ENDBRANCH  16  17
ENDBRANCH  15  16
ENDBRANCH  14  15
ENDBRANCH  13  14
ENDBRANCH   2  13
TORSDOF 15
ENDMDL
MODEL 8
REMARK VINA RESULT:    -4.047      1.456      3.250
REMARK INTER + INTRA:         -10.861
REMARK INTER:                  -8.042
REMARK INTRA:                  -2.818
REMARK UNBOUND:                -3.264
REMARK SMILES CCCCCCCCC=CCCCCCCCC(=O)[O-]
REMARK SMILES IDX 10 1 9 2 11 3 12 4 13 5 14 6 15 7 16 8 17 9 18 10 19 11
REMARK SMILES IDX 20 12 8 13 7 14 6 15 5 16 4 17 3 18 2 19 1 20
REMARK H PARENT
REMARK Flexibility Score: inf
ROOT
ATOM      1  C   UNL     1       2.206  15.852  11.525  1.00  0.00    -0.031 C 
ATOM      2  C   UNL     1       3.434  16.375  11.704  1.00  0.00    -0.031 C 
ENDROOT
BRANCH   1   3
ATOM      3  C   UNL     1       1.853  14.775  10.530  1.00  0.00     0.027 C 
BRANCH   3   4
ATOM      4  C   UNL     1       0.608  15.145   9.715  1.00  0.00     0.004 C 
BRANCH   4   5
ATOM      5  C   UNL     1       0.980  16.000   8.498  1.00  0.00     0.000 C 
BRANCH   5   6
ATOM      6  C   UNL     1      -0.128  17.011   8.176  1.00  0.00     0.000 C 
BRANCH   6   7
ATOM      7  C   UNL     1       0.432  18.439   8.116  1.00  0.00     0.000 C 
BRANCH   7   8
ATOM      8  C   UNL     1       1.737  18.611   8.910  1.00  0.00     0.006 C 
BRANCH   8   9
ATOM      9  C   UNL     1       1.706  19.771   9.921  1.00  0.00     0.053 C 
BRANCH   9  10
ATOM     10  C   UNL     1       0.506  19.727  10.816  1.00  0.00     0.041 C 
ATOM     11  O   UNL     1      -0.146  20.775  11.058  1.00  0.00    -0.550 OA
ATOM     12  O   UNL     1       0.127  18.530  11.413  1.00  0.00    -0.550 OA
ENDBRANCH   9  10
ENDBRANCH   8   9
ENDBRANCH   7   8
ENDBRANCH   6   7
ENDBRANCH   5   6
ENDBRANCH   4   5
ENDBRANCH   3   4
ENDBRANCH   1   3
BRANCH   2  13
ATOM     13  C   UNL     1       4.672  15.992  10.926  1.00  0.00     0.027 C 
BRANCH  13  14
ATOM     14  C   UNL     1       4.990  17.004   9.810  1.00  0.00     0.004 C 
BRANCH  14  15
ATOM     15  C   UNL     1       4.679  16.515   8.383  1.00  0.00     0.000 C 
BRANCH  15  16
ATOM     16  C   UNL     1       4.588  14.982   8.281  1.00  0.00     0.000 C 
BRANCH  16  17
ATOM     17  C   UNL     1       5.950  14.327   7.996  1.00  0.00    -0.000 C 
BRANCH  17  18
ATOM     18  C   UNL     1       6.030  12.881   8.515  1.00  0.00    -0.000 C 
BRANCH  18  19
ATOM     19  C   UNL     1       4.902  12.547   9.503  1.00  0.00    -0.003 C 
ATOM     20  C   UNL     1       5.399  12.397  10.941  1.00  0.00     0.004 C 
ENDBRANCH  18  19
ENDBRANCH  17  18
ENDBRANCH  16  17
ENDBRANCH  15  16
ENDBRANCH  14  15
ENDBRANCH  13  14
ENDBRANCH   2  13
TORSDOF 15
ENDMDL
MODEL 9
REMARK VINA RESULT:    -4.031      3.301      5.439
REMARK INTER + INTRA:         -10.830
REMARK INTER:                  -8.196
REMARK INTRA:                  -2.634
REMARK UNBOUND:                -3.264
REMARK SMILES CCCCCCCCC=CCCCCCCCC(=O)[O-]
REMARK SMILES IDX 10 1 9 2 11 3 12 4 13 5 14 6 15 7 16 8 17 9 18 10 19 11
REMARK SMILES IDX 20 12 8 13 7 14 6 15 5 16 4 17 3 18 2 19 1 20
REMARK H PARENT
REMARK Flexibility Score: inf
ROOT
ATOM      1  C   UNL     1      -0.111  17.157   8.611  1.00  0.00    -0.031 C 
ATOM      2  C   UNL     1       0.322  18.419   8.425  1.00  0.00    -0.031 C 
ENDROOT
BRANCH   1   3
ATOM      3  C   UNL     1       0.736  15.917   8.474  1.00  0.00     0.027 C 
BRANCH   3   4
ATOM      4  C   UNL     1       1.201  15.398   9.840  1.00  0.00     0.004 C 
BRANCH   4   5
ATOM      5  C   UNL     1       2.720  15.537   9.994  1.00  0.00     0.000 C 
BRANCH   5   6
ATOM      6  C   UNL     1       3.410  15.588   8.625  1.00  0.00     0.000 C 
BRANCH   6   7
ATOM      7  C   UNL     1       4.806  16.217   8.735  1.00  0.00     0.000 C 
BRANCH   7   8
ATOM      8  C   UNL     1       5.943  15.188   8.621  1.00  0.00     0.006 C 
BRANCH   8   9
ATOM      9  C   UNL     1       5.470  13.774   8.238  1.00  0.00     0.053 C 
BRANCH   9  10
ATOM     10  C   UNL     1       6.074  13.288   6.956  1.00  0.00     0.041 C 
ATOM     11  O   UNL     1       6.708  14.080   6.212  1.00  0.00    -0.550 OA
ATOM     12  O   UNL     1       5.907  11.965   6.566  1.00  0.00    -0.550 OA
ENDBRANCH   9  10
ENDBRANCH   8   9
ENDBRANCH   7   8
ENDBRANCH   6   7
ENDBRANCH   5   6
ENDBRANCH   4   5
ENDBRANCH   3   4
ENDBRANCH   1   3
BRANCH   2  13
ATOM     13  C   UNL     1       1.725  18.816   8.026  1.00  0.00     0.027 C 
BRANCH  13  14
ATOM     14  C   UNL     1       2.554  19.297   9.230  1.00  0.00     0.004 C 
BRANCH  14  15
ATOM     15  C   UNL     1       1.748  19.533  10.520  1.00  0.00     0.000 C 
BRANCH  15  16
ATOM     16  C   UNL     1       2.396  18.889  11.759  1.00  0.00     0.000 C 
BRANCH  16  17
ATOM     17  C   UNL     1       3.864  18.499  11.521  1.00  0.00    -0.000 C 
BRANCH  17  18
ATOM     18  C   UNL     1       4.837  19.289  12.415  1.00  0.00    -0.000 C 
BRANCH  18  19
ATOM     19  C   UNL     1       6.149  19.635  11.694  1.00  0.00    -0.003 C 
ATOM     20  C   UNL     1       6.061  19.445  10.179  1.00  0.00     0.004 C 
ENDBRANCH  18  19
ENDBRANCH  17  18
ENDBRANCH  16  17
ENDBRANCH  15  16
ENDBRANCH  14  15
ENDBRANCH  13  14
ENDBRANCH   2  13
TORSDOF 15
ENDMDL
