MODEL 1
REMARK VINA RESULT:    -2.900      0.000      0.000
REMARK INTER + INTRA:          -5.437
REMARK INTER:                  -4.426
REMARK INTRA:                  -1.011
REMARK UNBOUND:                -1.011
REMARK SMILES O=C([O-])CCCCCCCCC(=O)[O-]
REMARK SMILES IDX 7 1 6 2 5 3 4 4 2 5 1 6 3 7 8 8 9 9 10 10 11 11 12 12 13 13
REMARK SMILES IDX 14 14
REMARK H PARENT
REMARK Flexibility Score: inf
ROOT
ATOM      1  C   UNL     1    -115.096  33.818  -9.006  1.00  0.00     0.000 C 
ENDROOT
BRANCH   1   2
ATOM      2  C   UNL     1    -116.525  33.440  -9.424  1.00  0.00     0.000 C 
BRANCH   2   3
ATOM      3  C   UNL     1    -116.825  33.921 -10.849  1.00  0.00     0.006 C 
BRANCH   3   4
ATOM      4  C   UNL     1    -115.535  34.277 -11.592  1.00  0.00     0.053 C 
BRANCH   4   5
ATOM      5  C   UNL     1    -115.331  33.362 -12.758  1.00  0.00     0.041 C 
ATOM      6  O   UNL     1    -114.471  33.634 -13.636  1.00  0.00    -0.550 OA
ATOM      7  O   UNL     1    -116.058  32.181 -12.850  1.00  0.00    -0.550 OA
ENDBRANCH   4   5
ENDBRANCH   3   4
ENDBRANCH   2   3
ENDBRANCH   1   2
BRANCH   1   8
ATOM      8  C   UNL     1    -115.052  34.623  -7.696  1.00  0.00     0.000 C 
BRANCH   8   9
ATOM      9  C   UNL     1    -116.413  35.249  -7.342  1.00  0.00     0.000 C 
BRANCH   9  10
ATOM     10  C   UNL     1    -116.432  36.772  -7.548  1.00  0.00     0.006 C 
BRANCH  10  11
ATOM     11  C   UNL     1    -116.775  37.171  -8.989  1.00  0.00     0.053 C 
BRANCH  11  12
ATOM     12  C   UNL     1    -115.572  37.743  -9.671  1.00  0.00     0.041 C 
ATOM     13  O   UNL     1    -115.513  37.779 -10.928  1.00  0.00    -0.550 OA
ATOM     14  O   UNL     1    -114.495  38.194  -8.918  1.00  0.00    -0.550 OA
ENDBRANCH  11  12
ENDBRANCH  10  11
ENDBRANCH   9  10
ENDBRANCH   8   9
ENDBRANCH   1   8
TORSDOF 9
ENDMDL
MODEL 2
REMARK VINA RESULT:    -2.791      0.329      4.635
REMARK INTER + INTRA:          -5.270
REMARK INTER:                  -4.313
REMARK INTRA:                  -0.957
REMARK UNBOUND:                -1.011
REMARK SMILES O=C([O-])CCCCCCCCC(=O)[O-]
REMARK SMILES IDX 7 1 6 2 5 3 4 4 2 5 1 6 3 7 8 8 9 9 10 10 11 11 12 12 13 13
REMARK SMILES IDX 14 14
REMARK H PARENT
REMARK Flexibility Score: inf
ROOT
ATOM      1  C   UNL     1    -115.163  34.979  -7.546  1.00  0.00     0.000 C 
ENDROOT
BRANCH   1   2
ATOM      2  C   UNL     1    -116.541  35.615  -7.309  1.00  0.00     0.000 C 
BRANCH   2   3
ATOM      3  C   UNL     1    -116.537  37.097  -7.707  1.00  0.00     0.006 C 
BRANCH   3   4
ATOM      4  C   UNL     1    -116.706  37.261  -9.220  1.00  0.00     0.053 C 
BRANCH   4   5
ATOM      5  C   UNL     1    -115.495  37.907  -9.816  1.00  0.00     0.041 C 
ATOM      6  O   UNL     1    -115.423  38.091 -11.059  1.00  0.00    -0.550 OA
ATOM      7  O   UNL     1    -114.468  38.351  -8.992  1.00  0.00    -0.550 OA
ENDBRANCH   4   5
ENDBRANCH   3   4
ENDBRANCH   2   3
ENDBRANCH   1   2
BRANCH   1   8
ATOM      8  C   UNL     1    -115.184  33.907  -8.648  1.00  0.00     0.000 C 
BRANCH   8   9
ATOM      9  C   UNL     1    -116.611  33.553  -9.101  1.00  0.00     0.000 C 
BRANCH   9  10
ATOM     10  C   UNL     1    -116.817  33.755 -10.611  1.00  0.00     0.006 C 
BRANCH  10  11
ATOM     11  C   UNL     1    -115.548  34.243 -11.322  1.00  0.00     0.053 C 
BRANCH  11  12
ATOM     12  C   UNL     1    -115.372  33.525 -12.623  1.00  0.00     0.041 C 
ATOM     13  O   UNL     1    -115.869  32.381 -12.789  1.00  0.00    -0.550 OA
ATOM     14  O   UNL     1    -114.616  34.100 -13.637  1.00  0.00    -0.550 OA
ENDBRANCH  11  12
ENDBRANCH  10  11
ENDBRANCH   9  10
ENDBRANCH   8   9
ENDBRANCH   1   8
TORSDOF 9
ENDMDL
MODEL 3
REMARK VINA RESULT:    -2.741      1.182      1.998
REMARK INTER + INTRA:          -5.195
REMARK INTER:                  -4.438
REMARK INTRA:                  -0.757
REMARK UNBOUND:                -1.011
REMARK SMILES O=C([O-])CCCCCCCCC(=O)[O-]
REMARK SMILES IDX 7 1 6 2 5 3 4 4 2 5 1 6 3 7 8 8 9 9 10 10 11 11 12 12 13 13
REMARK SMILES IDX 14 14
REMARK H PARENT
REMARK Flexibility Score: inf
ROOT
ATOM      1  C   UNL     1    -115.074  34.731  -7.661  1.00  0.00     0.000 C 
ENDROOT
BRANCH   1   2
ATOM      2  C   UNL     1    -115.057  33.768  -8.859  1.00  0.00     0.000 C 
BRANCH   2   3
ATOM      3  C   UNL     1    -116.252  34.025  -9.785  1.00  0.00     0.006 C 
BRANCH   3   4
ATOM      4  C   UNL     1    -115.789  34.550 -11.147  1.00  0.00     0.053 C 
BRANCH   4   5
ATOM      5  C   UNL     1    -115.684  33.429 -12.133  1.00  0.00     0.041 C 
ATOM      6  O   UNL     1    -116.603  32.574 -12.221  1.00  0.00    -0.550 OA
ATOM      7  O   UNL     1    -114.592  33.357 -12.990  1.00  0.00    -0.550 OA
ENDBRANCH   4   5
ENDBRANCH   3   4
ENDBRANCH   2   3
ENDBRANCH   1   2
BRANCH   1   8
ATOM      8  C   UNL     1    -116.468  35.320  -7.392  1.00  0.00     0.000 C 
BRANCH   8   9
ATOM      9  C   UNL     1    -116.451  36.856  -7.290  1.00  0.00     0.000 C 
BRANCH   9  10
ATOM     10  C   UNL     1    -116.340  37.536  -8.664  1.00  0.00     0.006 C 
BRANCH  10  11
ATOM     11  C   UNL     1    -114.920  38.036  -8.964  1.00  0.00     0.053 C 
BRANCH  11  12
ATOM     12  C   UNL     1    -114.861  39.528  -8.861  1.00  0.00     0.041 C 
ATOM     13  O   UNL     1    -114.938  40.090  -7.737  1.00  0.00    -0.550 OA
ATOM     14  O   UNL     1    -114.771  40.302 -10.011  1.00  0.00    -0.550 OA
ENDBRANCH  11  12
ENDBRANCH  10  11
ENDBRANCH   9  10
ENDBRANCH   8   9
ENDBRANCH   1   8
TORSDOF 9
ENDMDL
MODEL 4
REMARK VINA RESULT:    -2.682      1.126      1.465
REMARK INTER + INTRA:          -5.103
REMARK INTER:                  -4.321
REMARK INTRA:                  -0.782
REMARK UNBOUND:                -1.011
REMARK SMILES O=C([O-])CCCCCCCCC(=O)[O-]
REMARK SMILES IDX 7 1 6 2 5 3 4 4 2 5 1 6 3 7 8 8 9 9 10 10 11 11 12 12 13 13
REMARK SMILES IDX 14 14
REMARK H PARENT
REMARK Flexibility Score: inf
ROOT
ATOM      1  C   UNL     1    -116.610  33.508  -9.249  1.00  0.00     0.000 C 
ENDROOT
BRANCH   1   2
ATOM      2  C   UNL     1    -116.629  33.386 -10.780  1.00  0.00     0.000 C 
BRANCH   2   3
ATOM      3  C   UNL     1    -115.290  33.828 -11.382  1.00  0.00     0.006 C 
BRANCH   3   4
ATOM      4  C   UNL     1    -115.499  34.559 -12.712  1.00  0.00     0.053 C 
BRANCH   4   5
ATOM      5  C   UNL     1    -114.838  33.814 -13.829  1.00  0.00     0.041 C 
ATOM      6  O   UNL     1    -114.186  34.437 -14.708  1.00  0.00    -0.550 OA
ATOM      7  O   UNL     1    -114.900  32.426 -13.871  1.00  0.00    -0.550 OA
ENDBRANCH   4   5
ENDBRANCH   3   4
ENDBRANCH   2   3
ENDBRANCH   1   2
BRANCH   1   8
ATOM      8  C   UNL     1    -115.216  33.846  -8.696  1.00  0.00     0.000 C 
BRANCH   8   9
ATOM      9  C   UNL     1    -115.218  35.113  -7.823  1.00  0.00     0.000 C 
BRANCH   9  10
ATOM     10  C   UNL     1    -116.206  36.176  -8.328  1.00  0.00     0.006 C 
BRANCH  10  11
ATOM     11  C   UNL     1    -115.614  37.052  -9.441  1.00  0.00     0.053 C 
BRANCH  11  12
ATOM     12  C   UNL     1    -115.298  38.418  -8.915  1.00  0.00     0.041 C 
ATOM     13  O   UNL     1    -114.447  39.140  -9.497  1.00  0.00    -0.550 OA
ATOM     14  O   UNL     1    -115.908  38.874  -7.753  1.00  0.00    -0.550 OA
ENDBRANCH  11  12
ENDBRANCH  10  11
ENDBRANCH   9  10
ENDBRANCH   8   9
ENDBRANCH   1   8
TORSDOF 9
ENDMDL
MODEL 5
REMARK VINA RESULT:    -2.662      1.708      5.320
REMARK INTER + INTRA:          -5.074
REMARK INTER:                  -4.360
REMARK INTRA:                  -0.713
REMARK UNBOUND:                -1.011
REMARK SMILES O=C([O-])CCCCCCCCC(=O)[O-]
REMARK SMILES IDX 7 1 6 2 5 3 4 4 2 5 1 6 3 7 8 8 9 9 10 10 11 11 12 12 13 13
REMARK SMILES IDX 14 14
REMARK H PARENT
REMARK Flexibility Score: inf
ROOT
ATOM      1  C   UNL     1    -116.745  36.849  -7.186  1.00  0.00     0.000 C 
ENDROOT
BRANCH   1   2
ATOM      2  C   UNL     1    -116.985  37.579  -8.516  1.00  0.00     0.000 C 
BRANCH   2   3
ATOM      3  C   UNL     1    -115.686  38.200  -9.044  1.00  0.00     0.006 C 
BRANCH   3   4
ATOM      4  C   UNL     1    -115.291  39.431  -8.224  1.00  0.00     0.053 C 
BRANCH   4   5
ATOM      5  C   UNL     1    -114.461  40.365  -9.046  1.00  0.00     0.041 C 
ATOM      6  O   UNL     1    -114.070  41.459  -8.562  1.00  0.00    -0.550 OA
ATOM      7  O   UNL     1    -114.078  40.005 -10.332  1.00  0.00    -0.550 OA
ENDBRANCH   4   5
ENDBRANCH   3   4
ENDBRANCH   2   3
ENDBRANCH   1   2
BRANCH   1   8
ATOM      8  C   UNL     1    -116.599  35.329  -7.359  1.00  0.00     0.000 C 
BRANCH   8   9
ATOM      9  C   UNL     1    -115.132  34.888  -7.501  1.00  0.00     0.000 C 
BRANCH   9  10
ATOM     10  C   UNL     1    -114.935  33.846  -8.613  1.00  0.00     0.006 C 
BRANCH  10  11
ATOM     11  C   UNL     1    -116.126  33.776  -9.578  1.00  0.00     0.053 C 
BRANCH  11  12
ATOM     12  C   UNL     1    -115.737  34.301 -10.924  1.00  0.00     0.041 C 
ATOM     13  O   UNL     1    -115.897  35.519 -11.201  1.00  0.00    -0.550 OA
ATOM     14  O   UNL     1    -115.242  33.436 -11.891  1.00  0.00    -0.550 OA
ENDBRANCH  11  12
ENDBRANCH  10  11
ENDBRANCH   9  10
ENDBRANCH   8   9
ENDBRANCH   1   8
TORSDOF 9
ENDMDL
MODEL 6
REMARK VINA RESULT:    -2.554      3.363      5.118
REMARK INTER + INTRA:          -4.908
REMARK INTER:                  -4.410
REMARK INTRA:                  -0.498
REMARK UNBOUND:                -1.011
REMARK SMILES O=C([O-])CCCCCCCCC(=O)[O-]
REMARK SMILES IDX 7 1 6 2 5 3 4 4 2 5 1 6 3 7 8 8 9 9 10 10 11 11 12 12 13 13
REMARK SMILES IDX 14 14
REMARK H PARENT
REMARK Flexibility Score: inf
ROOT
ATOM      1  C   UNL     1    -114.450  39.055 -10.309  1.00  0.00     0.000 C 
ENDROOT
BRANCH   1   2
ATOM      2  C   UNL     1    -115.020  38.366 -11.558  1.00  0.00     0.000 C 
BRANCH   2   3
ATOM      3  C   UNL     1    -113.999  38.375 -12.703  1.00  0.00     0.006 C 
BRANCH   3   4
ATOM      4  C   UNL     1    -112.901  39.413 -12.453  1.00  0.00     0.053 C 
BRANCH   4   5
ATOM      5  C   UNL     1    -111.628  39.003 -13.124  1.00  0.00     0.041 C 
ATOM      6  O   UNL     1    -110.578  39.676 -12.957  1.00  0.00    -0.550 OA
ATOM      7  O   UNL     1    -111.591  37.847 -13.896  1.00  0.00    -0.550 OA
ENDBRANCH   4   5
ENDBRANCH   3   4
ENDBRANCH   2   3
ENDBRANCH   1   2
BRANCH   1   8
ATOM      8  C   UNL     1    -114.761  38.288  -9.013  1.00  0.00     0.000 C 
BRANCH   8   9
ATOM      9  C   UNL     1    -115.800  37.172  -9.222  1.00  0.00     0.000 C 
BRANCH   9  10
ATOM     10  C   UNL     1    -116.370  36.643  -7.896  1.00  0.00     0.006 C 
BRANCH  10  11
ATOM     11  C   UNL     1    -116.621  35.129  -7.923  1.00  0.00     0.053 C 
BRANCH  11  12
ATOM     12  C   UNL     1    -115.327  34.389  -8.047  1.00  0.00     0.041 C 
ATOM     13  O   UNL     1    -114.419  34.551  -7.190  1.00  0.00    -0.550 OA
ATOM     14  O   UNL     1    -115.104  33.556  -9.136  1.00  0.00    -0.550 OA
ENDBRANCH  11  12
ENDBRANCH  10  11
ENDBRANCH   9  10
ENDBRANCH   8   9
ENDBRANCH   1   8
TORSDOF 9
ENDMDL
MODEL 7
REMARK VINA RESULT:    -2.545     11.139     13.554
REMARK INTER + INTRA:          -4.895
REMARK INTER:                  -4.442
REMARK INTRA:                  -0.453
REMARK UNBOUND:                -1.011
REMARK SMILES O=C([O-])CCCCCCCCC(=O)[O-]
REMARK SMILES IDX 7 1 6 2 5 3 4 4 2 5 1 6 3 7 8 8 9 9 10 10 11 11 12 12 13 13
REMARK SMILES IDX 14 14
REMARK H PARENT
REMARK Flexibility Score: inf
ROOT
ATOM      1  C   UNL     1    -116.326  30.575  -0.694  1.00  0.00     0.000 C 
ENDROOT
BRANCH   1   2
ATOM      2  C   UNL     1    -116.972  31.884  -0.212  1.00  0.00     0.000 C 
BRANCH   2   3
ATOM      3  C   UNL     1    -116.019  32.658   0.708  1.00  0.00     0.006 C 
BRANCH   3   4
ATOM      4  C   UNL     1    -116.729  33.096   1.992  1.00  0.00     0.053 C 
BRANCH   4   5
ATOM      5  C   UNL     1    -116.484  34.548   2.258  1.00  0.00     0.041 C 
ATOM      6  O   UNL     1    -116.031  34.920   3.372  1.00  0.00    -0.550 OA
ATOM      7  O   UNL     1    -116.709  35.485   1.258  1.00  0.00    -0.550 OA
ENDBRANCH   4   5
ENDBRANCH   3   4
ENDBRANCH   2   3
ENDBRANCH   1   2
BRANCH   1   8
ATOM      8  C   UNL     1    -116.939  29.331  -0.032  1.00  0.00     0.000 C 
BRANCH   8   9
ATOM      9  C   UNL     1    -116.761  29.326   1.496  1.00  0.00     0.000 C 
BRANCH   9  10
ATOM     10  C   UNL     1    -116.346  27.948   2.037  1.00  0.00     0.006 C 
BRANCH  10  11
ATOM     11  C   UNL     1    -116.686  26.806   1.070  1.00  0.00     0.053 C 
BRANCH  11  12
ATOM     12  C   UNL     1    -115.446  26.056   0.694  1.00  0.00     0.041 C 
ATOM     13  O   UNL     1    -115.264  24.882   1.111  1.00  0.00    -0.550 OA
ATOM     14  O   UNL     1    -114.468  26.672  -0.076  1.00  0.00    -0.550 OA
ENDBRANCH  11  12
ENDBRANCH  10  11
ENDBRANCH   9  10
ENDBRANCH   8   9
ENDBRANCH   1   8
TORSDOF 9
ENDMDL
MODEL 8
REMARK VINA RESULT:    -2.490      1.572      2.363
REMARK INTER + INTRA:          -4.810
REMARK INTER:                  -4.101
REMARK INTRA:                  -0.709
REMARK UNBOUND:                -1.011
REMARK SMILES O=C([O-])CCCCCCCCC(=O)[O-]
REMARK SMILES IDX 7 1 6 2 5 3 4 4 2 5 1 6 3 7 8 8 9 9 10 10 11 11 12 12 13 13
REMARK SMILES IDX 14 14
REMARK H PARENT
REMARK Flexibility Score: inf
ROOT
ATOM      1  C   UNL     1    -116.629  33.600  -9.255  1.00  0.00     0.000 C 
ENDROOT
BRANCH   1   2
ATOM      2  C   UNL     1    -116.657  33.170 -10.729  1.00  0.00     0.000 C 
BRANCH   2   3
ATOM      3  C   UNL     1    -115.654  33.984 -11.557  1.00  0.00     0.006 C 
BRANCH   3   4
ATOM      4  C   UNL     1    -116.359  35.100 -12.333  1.00  0.00     0.053 C 
BRANCH   4   5
ATOM      5  C   UNL     1    -115.376  36.143 -12.761  1.00  0.00     0.041 C 
ATOM      6  O   UNL     1    -115.242  37.200 -12.090  1.00  0.00    -0.550 OA
ATOM      7  O   UNL     1    -114.571  35.926 -13.873  1.00  0.00    -0.550 OA
ENDBRANCH   4   5
ENDBRANCH   3   4
ENDBRANCH   2   3
ENDBRANCH   1   2
BRANCH   1   8
ATOM      8  C   UNL     1    -115.213  33.937  -8.759  1.00  0.00     0.000 C 
BRANCH   8   9
ATOM      9  C   UNL     1    -115.221  34.884  -7.547  1.00  0.00     0.000 C 
BRANCH   9  10
ATOM     10  C   UNL     1    -116.636  35.359  -7.179  1.00  0.00     0.006 C 
BRANCH  10  11
ATOM     11  C   UNL     1    -116.705  36.872  -6.928  1.00  0.00     0.053 C 
BRANCH  11  12
ATOM     12  C   UNL     1    -116.549  37.620  -8.215  1.00  0.00     0.041 C 
ATOM     13  O   UNL     1    -115.935  38.719  -8.239  1.00  0.00    -0.550 OA
ATOM     14  O   UNL     1    -117.125  37.128  -9.380  1.00  0.00    -0.550 OA
ENDBRANCH  11  12
ENDBRANCH  10  11
ENDBRANCH   9  10
ENDBRANCH   8   9
ENDBRANCH   1   8
TORSDOF 9
ENDMDL
MODEL 9
REMARK VINA RESULT:    -2.459      2.018      5.525
REMARK INTER + INTRA:          -4.764
REMARK INTER:                  -4.036
REMARK INTRA:                  -0.728
REMARK UNBOUND:                -1.011
REMARK SMILES O=C([O-])CCCCCCCCC(=O)[O-]
REMARK SMILES IDX 7 1 6 2 5 3 4 4 2 5 1 6 3 7 8 8 9 9 10 10 11 11 12 12 13 13
REMARK SMILES IDX 14 14
REMARK H PARENT
REMARK Flexibility Score: inf
ROOT
ATOM      1  C   UNL     1    -117.122  37.107 -10.717  1.00  0.00     0.000 C 
ENDROOT
BRANCH   1   2
ATOM      2  C   UNL     1    -115.932  37.091  -9.745  1.00  0.00     0.000 C 
BRANCH   2   3
ATOM      3  C   UNL     1    -116.372  36.635  -8.348  1.00  0.00     0.006 C 
BRANCH   3   4
ATOM      4  C   UNL     1    -116.602  35.122  -8.310  1.00  0.00     0.053 C 
BRANCH   4   5
ATOM      5  C   UNL     1    -115.299  34.397  -8.178  1.00  0.00     0.041 C 
ATOM      6  O   UNL     1    -114.549  34.616  -7.192  1.00  0.00    -0.550 OA
ATOM      7  O   UNL     1    -114.937  33.442  -9.120  1.00  0.00    -0.550 OA
ENDBRANCH   4   5
ENDBRANCH   3   4
ENDBRANCH   2   3
ENDBRANCH   1   2
BRANCH   1   8
ATOM      8  C   UNL     1    -116.781  36.495 -12.085  1.00  0.00     0.000 C 
BRANCH   8   9
ATOM      9  C   UNL     1    -115.614  35.493 -12.010  1.00  0.00     0.000 C 
BRANCH   9  10
ATOM     10  C   UNL     1    -116.038  34.065 -12.389  1.00  0.00     0.006 C 
BRANCH  10  11
ATOM     11  C   UNL     1    -114.866  33.215 -12.897  1.00  0.00     0.053 C 
BRANCH  11  12
ATOM     12  C   UNL     1    -115.365  32.118 -13.784  1.00  0.00     0.041 C 
ATOM     13  O   UNL     1    -115.972  31.131 -13.293  1.00  0.00    -0.550 OA
ATOM     14  O   UNL     1    -115.116  32.162 -15.151  1.00  0.00    -0.550 OA
ENDBRANCH  11  12
ENDBRANCH  10  11
ENDBRANCH   9  10
ENDBRANCH   8   9
ENDBRANCH   1   8
TORSDOF 9
ENDMDL
