MODEL 1
REMARK VINA RESULT:    -4.307      0.000      0.000
REMARK INTER + INTRA:          -6.033
REMARK INTER:                  -5.818
REMARK INTRA:                  -0.215
REMARK UNBOUND:                -0.215
REMARK SMILES CCCCCCCC(=O)[O-]
REMARK SMILES IDX 5 1 6 2 7 3 8 4 9 5 10 6 4 7 3 8 2 9 1 10
REMARK H PARENT
REMARK Flexibility Score: inf
ROOT
ATOM      1  C   UNL     1      27.361  37.955  33.534  1.00  0.00     0.000 C 
ENDROOT
BRANCH   1   2
ATOM      2  C   UNL     1      28.050  39.251  34.008  1.00  0.00     0.006 C 
BRANCH   2   3
ATOM      3  C   UNL     1      27.144  40.493  34.006  1.00  0.00     0.053 C 
BRANCH   3   4
ATOM      4  C   UNL     1      27.642  41.550  33.069  1.00  0.00     0.041 C 
ATOM      5  O   UNL     1      27.881  41.267  31.865  1.00  0.00    -0.550 OA
ATOM      6  O   UNL     1      27.873  42.838  33.532  1.00  0.00    -0.550 OA
ENDBRANCH   3   4
ENDBRANCH   2   3
ENDBRANCH   1   2
BRANCH   1   7
ATOM      7  C   UNL     1      27.519  37.643  32.034  1.00  0.00     0.000 C 
BRANCH   7   8
ATOM      8  C   UNL     1      27.032  36.235  31.662  1.00  0.00    -0.000 C 
BRANCH   8   9
ATOM      9  C   UNL     1      28.167  35.406  31.050  1.00  0.00    -0.003 C 
ATOM     10  C   UNL     1      28.386  35.768  29.584  1.00  0.00     0.004 C 
ENDBRANCH   8   9
ENDBRANCH   7   8
ENDBRANCH   1   7
TORSDOF 6
ENDMDL
MODEL 2
REMARK VINA RESULT:    -4.287      2.433      3.690
REMARK INTER + INTRA:          -6.005
REMARK INTER:                  -5.721
REMARK INTRA:                  -0.284
REMARK UNBOUND:                -0.215
REMARK SMILES CCCCCCCC(=O)[O-]
REMARK SMILES IDX 5 1 6 2 7 3 8 4 9 5 10 6 4 7 3 8 2 9 1 10
REMARK H PARENT
REMARK Flexibility Score: inf
ROOT
ATOM      1  C   UNL     1      28.654  34.592  32.328  1.00  0.00     0.000 C 
ENDROOT
BRANCH   1   2
ATOM      2  C   UNL     1      27.815  35.740  32.927  1.00  0.00     0.006 C 
BRANCH   2   3
ATOM      3  C   UNL     1      27.506  36.882  31.947  1.00  0.00     0.053 C 
BRANCH   3   4
ATOM      4  C   UNL     1      27.524  38.220  32.621  1.00  0.00     0.041 C 
ATOM      5  O   UNL     1      27.942  39.235  32.002  1.00  0.00    -0.550 OA
ATOM      6  O   UNL     1      27.114  38.340  33.941  1.00  0.00    -0.550 OA
ENDBRANCH   3   4
ENDBRANCH   2   3
ENDBRANCH   1   2
BRANCH   1   7
ATOM      7  C   UNL     1      27.842  33.389  31.814  1.00  0.00     0.000 C 
BRANCH   7   8
ATOM      8  C   UNL     1      27.410  33.541  30.349  1.00  0.00    -0.000 C 
BRANCH   8   9
ATOM      9  C   UNL     1      25.927  33.918  30.251  1.00  0.00    -0.003 C 
ATOM     10  C   UNL     1      25.133  32.845  29.512  1.00  0.00     0.004 C 
ENDBRANCH   8   9
ENDBRANCH   7   8
ENDBRANCH   1   7
TORSDOF 6
ENDMDL
MODEL 3
REMARK VINA RESULT:    -4.238      3.250      5.823
REMARK INTER + INTRA:          -5.940
REMARK INTER:                  -5.783
REMARK INTRA:                  -0.157
REMARK UNBOUND:                -0.215
REMARK SMILES CCCCCCCC(=O)[O-]
REMARK SMILES IDX 5 1 6 2 7 3 8 4 9 5 10 6 4 7 3 8 2 9 1 10
REMARK H PARENT
REMARK Flexibility Score: inf
ROOT
ATOM      1  C   UNL     1      28.243  39.725  32.153  1.00  0.00     0.000 C 
ENDROOT
BRANCH   1   2
ATOM      2  C   UNL     1      27.515  38.708  33.056  1.00  0.00     0.006 C 
BRANCH   2   3
ATOM      3  C   UNL     1      27.200  37.365  32.379  1.00  0.00     0.053 C 
BRANCH   3   4
ATOM      4  C   UNL     1      27.574  36.200  33.243  1.00  0.00     0.041 C 
ATOM      5  O   UNL     1      28.341  35.303  32.800  1.00  0.00    -0.550 OA
ATOM      6  O   UNL     1      27.051  36.086  34.524  1.00  0.00    -0.550 OA
ENDBRANCH   3   4
ENDBRANCH   2   3
ENDBRANCH   1   2
BRANCH   1   7
ATOM      7  C   UNL     1      27.802  41.190  32.332  1.00  0.00     0.000 C 
BRANCH   7   8
ATOM      8  C   UNL     1      27.440  41.531  33.785  1.00  0.00    -0.000 C 
BRANCH   8   9
ATOM      9  C   UNL     1      27.802  42.985  34.113  1.00  0.00    -0.003 C 
ATOM     10  C   UNL     1      27.174  43.427  35.431  1.00  0.00     0.004 C 
ENDBRANCH   8   9
ENDBRANCH   7   8
ENDBRANCH   1   7
TORSDOF 6
ENDMDL
MODEL 4
REMARK VINA RESULT:    -4.188      2.145      3.449
REMARK INTER + INTRA:          -5.872
REMARK INTER:                  -5.467
REMARK INTRA:                  -0.406
REMARK UNBOUND:                -0.215
REMARK SMILES CCCCCCCC(=O)[O-]
REMARK SMILES IDX 5 1 6 2 7 3 8 4 9 5 10 6 4 7 3 8 2 9 1 10
REMARK H PARENT
REMARK Flexibility Score: inf
ROOT
ATOM      1  C   UNL     1      28.642  34.556  32.218  1.00  0.00     0.000 C 
ENDROOT
BRANCH   1   2
ATOM      2  C   UNL     1      27.807  35.656  32.904  1.00  0.00     0.006 C 
BRANCH   2   3
ATOM      3  C   UNL     1      27.444  36.842  31.995  1.00  0.00     0.053 C 
BRANCH   3   4
ATOM      4  C   UNL     1      27.513  38.149  32.723  1.00  0.00     0.041 C 
ATOM      5  O   UNL     1      27.198  38.213  33.941  1.00  0.00    -0.550 OA
ATOM      6  O   UNL     1      27.890  39.302  32.049  1.00  0.00    -0.550 OA
ENDBRANCH   3   4
ENDBRANCH   2   3
ENDBRANCH   1   2
BRANCH   1   7
ATOM      7  C   UNL     1      27.828  33.522  31.417  1.00  0.00     0.000 C 
BRANCH   7   8
ATOM      8  C   UNL     1      27.712  33.877  29.928  1.00  0.00    -0.000 C 
BRANCH   8   9
ATOM      9  C   UNL     1      29.038  34.428  29.391  1.00  0.00    -0.003 C 
ATOM     10  C   UNL     1      28.845  35.792  28.735  1.00  0.00     0.004 C 
ENDBRANCH   8   9
ENDBRANCH   7   8
ENDBRANCH   1   7
TORSDOF 6
ENDMDL
MODEL 5
REMARK VINA RESULT:    -4.167      1.928      2.400
REMARK INTER + INTRA:          -5.844
REMARK INTER:                  -5.613
REMARK INTRA:                  -0.231
REMARK UNBOUND:                -0.215
REMARK SMILES CCCCCCCC(=O)[O-]
REMARK SMILES IDX 5 1 6 2 7 3 8 4 9 5 10 6 4 7 3 8 2 9 1 10
REMARK H PARENT
REMARK Flexibility Score: inf
ROOT
ATOM      1  C   UNL     1      27.952  39.552  33.772  1.00  0.00     0.000 C 
ENDROOT
BRANCH   1   2
ATOM      2  C   UNL     1      27.095  40.810  34.022  1.00  0.00     0.006 C 
BRANCH   2   3
ATOM      3  C   UNL     1      27.678  42.106  33.438  1.00  0.00     0.053 C 
BRANCH   3   4
ATOM      4  C   UNL     1      27.976  43.117  34.502  1.00  0.00     0.041 C 
ATOM      5  O   UNL     1      27.637  44.321  34.346  1.00  0.00    -0.550 OA
ATOM      6  O   UNL     1      28.658  42.739  35.651  1.00  0.00    -0.550 OA
ENDBRANCH   3   4
ENDBRANCH   2   3
ENDBRANCH   1   2
BRANCH   1   7
ATOM      7  C   UNL     1      27.933  39.027  32.325  1.00  0.00     0.000 C 
BRANCH   7   8
ATOM      8  C   UNL     1      27.188  37.692  32.184  1.00  0.00    -0.000 C 
BRANCH   8   9
ATOM      9  C   UNL     1      27.533  36.747  33.341  1.00  0.00    -0.003 C 
ATOM     10  C   UNL     1      28.039  35.403  32.824  1.00  0.00     0.004 C 
ENDBRANCH   8   9
ENDBRANCH   7   8
ENDBRANCH   1   7
TORSDOF 6
ENDMDL
MODEL 6
REMARK VINA RESULT:    -4.146      3.527      5.079
REMARK INTER + INTRA:          -5.816
REMARK INTER:                  -5.609
REMARK INTRA:                  -0.207
REMARK UNBOUND:                -0.215
REMARK SMILES CCCCCCCC(=O)[O-]
REMARK SMILES IDX 5 1 6 2 7 3 8 4 9 5 10 6 4 7 3 8 2 9 1 10
REMARK H PARENT
REMARK Flexibility Score: inf
ROOT
ATOM      1  C   UNL     1      27.541  33.515  31.207  1.00  0.00     0.000 C 
ENDROOT
BRANCH   1   2
ATOM      2  C   UNL     1      28.565  34.644  31.448  1.00  0.00     0.006 C 
BRANCH   2   3
ATOM      3  C   UNL     1      28.119  36.027  30.946  1.00  0.00     0.053 C 
BRANCH   3   4
ATOM      4  C   UNL     1      27.632  36.899  32.062  1.00  0.00     0.041 C 
ATOM      5  O   UNL     1      27.507  38.141  31.888  1.00  0.00    -0.550 OA
ATOM      6  O   UNL     1      27.349  36.347  33.304  1.00  0.00    -0.550 OA
ENDBRANCH   3   4
ENDBRANCH   2   3
ENDBRANCH   1   2
BRANCH   1   7
ATOM      7  C   UNL     1      26.857  33.538  29.828  1.00  0.00     0.000 C 
BRANCH   7   8
ATOM      8  C   UNL     1      25.331  33.398  29.915  1.00  0.00    -0.000 C 
BRANCH   8   9
ATOM      9  C   UNL     1      24.824  32.315  28.955  1.00  0.00    -0.003 C 
ATOM     10  C   UNL     1      23.301  32.331  28.858  1.00  0.00     0.004 C 
ENDBRANCH   8   9
ENDBRANCH   7   8
ENDBRANCH   1   7
TORSDOF 6
ENDMDL
MODEL 7
REMARK VINA RESULT:    -4.111      4.878      7.959
REMARK INTER + INTRA:          -5.768
REMARK INTER:                  -5.519
REMARK INTRA:                  -0.249
REMARK UNBOUND:                -0.215
REMARK SMILES CCCCCCCC(=O)[O-]
REMARK SMILES IDX 5 1 6 2 7 3 8 4 9 5 10 6 4 7 3 8 2 9 1 10
REMARK H PARENT
REMARK Flexibility Score: inf
ROOT
ATOM      1  C   UNL     1      24.536  43.885  36.207  1.00  0.00     0.000 C 
ENDROOT
BRANCH   1   2
ATOM      2  C   UNL     1      25.930  43.420  35.738  1.00  0.00     0.006 C 
BRANCH   2   3
ATOM      3  C   UNL     1      25.940  42.058  35.024  1.00  0.00     0.053 C 
BRANCH   3   4
ATOM      4  C   UNL     1      27.181  41.863  34.207  1.00  0.00     0.041 C 
ATOM      5  O   UNL     1      27.793  42.858  33.736  1.00  0.00    -0.550 OA
ATOM      6  O   UNL     1      27.643  40.581  33.939  1.00  0.00    -0.550 OA
ENDBRANCH   3   4
ENDBRANCH   2   3
ENDBRANCH   1   2
BRANCH   1   7
ATOM      7  C   UNL     1      23.380  43.562  35.242  1.00  0.00     0.000 C 
BRANCH   7   8
ATOM      8  C   UNL     1      22.198  44.531  35.379  1.00  0.00    -0.000 C 
BRANCH   8   9
ATOM      9  C   UNL     1      22.290  45.327  36.686  1.00  0.00    -0.003 C 
ATOM     10  C   UNL     1      22.221  46.829  36.425  1.00  0.00     0.004 C 
ENDBRANCH   8   9
ENDBRANCH   7   8
ENDBRANCH   1   7
TORSDOF 6
ENDMDL
MODEL 8
REMARK VINA RESULT:    -4.107      3.860      6.097
REMARK INTER + INTRA:          -5.763
REMARK INTER:                  -5.376
REMARK INTRA:                  -0.387
REMARK UNBOUND:                -0.215
REMARK SMILES CCCCCCCC(=O)[O-]
REMARK SMILES IDX 5 1 6 2 7 3 8 4 9 5 10 6 4 7 3 8 2 9 1 10
REMARK H PARENT
REMARK Flexibility Score: inf
ROOT
ATOM      1  C   UNL     1      28.264  34.761  32.137  1.00  0.00     0.000 C 
ENDROOT
BRANCH   1   2
ATOM      2  C   UNL     1      27.561  33.546  31.497  1.00  0.00     0.006 C 
BRANCH   2   3
ATOM      3  C   UNL     1      26.966  33.813  30.105  1.00  0.00     0.053 C 
BRANCH   3   4
ATOM      4  C   UNL     1      25.525  34.217  30.179  1.00  0.00     0.041 C 
ATOM      5  O   UNL     1      25.210  35.364  30.593  1.00  0.00    -0.550 OA
ATOM      6  O   UNL     1      24.531  33.316  29.824  1.00  0.00    -0.550 OA
ENDBRANCH   3   4
ENDBRANCH   2   3
ENDBRANCH   1   2
BRANCH   1   7
ATOM      7  C   UNL     1      27.648  35.248  33.461  1.00  0.00     0.000 C 
BRANCH   7   8
ATOM      8  C   UNL     1      27.499  36.775  33.525  1.00  0.00    -0.000 C 
BRANCH   8   9
ATOM      9  C   UNL     1      27.544  37.389  32.120  1.00  0.00    -0.003 C 
ATOM     10  C   UNL     1      27.812  38.890  32.182  1.00  0.00     0.004 C 
ENDBRANCH   8   9
ENDBRANCH   7   8
ENDBRANCH   1   7
TORSDOF 6
ENDMDL
MODEL 9
REMARK VINA RESULT:    -4.091      2.921      6.275
REMARK INTER + INTRA:          -5.741
REMARK INTER:                  -5.543
REMARK INTRA:                  -0.198
REMARK UNBOUND:                -0.215
REMARK SMILES CCCCCCCC(=O)[O-]
REMARK SMILES IDX 5 1 6 2 7 3 8 4 9 5 10 6 4 7 3 8 2 9 1 10
REMARK H PARENT
REMARK Flexibility Score: inf
ROOT
ATOM      1  C   UNL     1      27.084  41.368  34.053  1.00  0.00     0.000 C 
ENDROOT
BRANCH   1   2
ATOM      2  C   UNL     1      27.831  40.024  33.937  1.00  0.00     0.006 C 
BRANCH   2   3
ATOM      3  C   UNL     1      27.844  39.421  32.523  1.00  0.00     0.053 C 
BRANCH   3   4
ATOM      4  C   UNL     1      27.612  37.941  32.542  1.00  0.00     0.041 C 
ATOM      5  O   UNL     1      27.309  37.361  33.618  1.00  0.00    -0.550 OA
ATOM      6  O   UNL     1      27.763  37.198  31.379  1.00  0.00    -0.550 OA
ENDBRANCH   3   4
ENDBRANCH   2   3
ENDBRANCH   1   2
BRANCH   1   7
ATOM      7  C   UNL     1      27.942  42.552  34.537  1.00  0.00     0.000 C 
BRANCH   7   8
ATOM      8  C   UNL     1      27.109  43.803  34.855  1.00  0.00    -0.000 C 
BRANCH   8   9
ATOM      9  C   UNL     1      26.243  43.581  36.100  1.00  0.00    -0.003 C 
ATOM     10  C   UNL     1      24.759  43.725  35.773  1.00  0.00     0.004 C 
ENDBRANCH   8   9
ENDBRANCH   7   8
ENDBRANCH   1   7
TORSDOF 6
ENDMDL
