MODEL 1
REMARK VINA RESULT:    -0.887      0.000      0.000
REMARK INTER + INTRA:          -0.965
REMARK INTER:                  -0.965
REMARK INTRA:                   0.000
REMARK UNBOUND:                 0.000
REMARK SMILES Cc1cc(O)c2c(c1)C(=O)c1cc(O)cc(O)c1C2=O
REMARK SMILES IDX 1 1 2 2 8 3 7 4 6 5 4 6 3 7 19 8 20 9 18 10 11 11 9 12 10 13
REMARK SMILES IDX 12 14 13 15 15 16 16 17 5 18 17 20 14 22
REMARK H PARENT 5 19 17 21 14 23
REMARK Flexibility Score: inf
ROOT
ATOM      1  C   UNL     1      72.279  36.125  52.757  1.00  0.00     0.044 C 
ATOM      2  C   UNL     1      73.465  35.208  52.743  1.00  0.00    -0.047 A 
ATOM      3  C   UNL     1      74.613  35.552  52.020  1.00  0.00     0.016 A 
ATOM      4  C   UNL     1      75.713  34.680  51.964  1.00  0.00     0.038 A 
ATOM      5  C   UNL     1      75.654  33.431  52.622  1.00  0.00     0.076 A 
ATOM      6  C   UNL     1      74.507  33.107  53.391  1.00  0.00     0.127 A 
ATOM      7  C   UNL     1      73.417  33.982  53.415  1.00  0.00     0.050 A 
ATOM      8  C   UNL     1      76.776  32.477  52.417  1.00  0.00     0.201 C 
ATOM      9  O   UNL     1      76.560  31.235  52.462  1.00  0.00    -0.288 OA
ATOM     10  C   UNL     1      78.102  32.980  51.977  1.00  0.00     0.076 A 
ATOM     11  C   UNL     1      78.156  34.230  51.320  1.00  0.00     0.041 A 
ATOM     12  C   UNL     1      76.937  35.066  51.221  1.00  0.00     0.194 C 
ATOM     13  O   UNL     1      76.947  36.120  50.528  1.00  0.00    -0.289 OA
ATOM     14  C   UNL     1      79.368  34.677  50.766  1.00  0.00     0.059 A 
ATOM     15  C   UNL     1      80.525  33.901  50.874  1.00  0.00     0.120 A 
ATOM     16  C   UNL     1      80.484  32.686  51.557  1.00  0.00     0.093 A 
ATOM     17  C   UNL     1      79.296  32.228  52.134  1.00  0.00     0.131 A 
ENDROOT
BRANCH   6  18
ATOM     18  O   UNL     1      74.420  31.950  54.169  1.00  0.00    -0.507 OA
ATOM     19  H   UNL     1      73.551  31.586  54.534  1.00  0.00     0.293 HD
ENDBRANCH   6  18
BRANCH  17  20
ATOM     20  O   UNL     1      79.354  31.048  52.879  1.00  0.00    -0.507 OA
ATOM     21  H   UNL     1      79.803  30.203  52.553  1.00  0.00     0.293 HD
ENDBRANCH  17  20
BRANCH  15  22
ATOM     22  O   UNL     1      81.726  34.334  50.316  1.00  0.00    -0.508 OA
ATOM     23  H   UNL     1      82.293  35.045  50.764  1.00  0.00     0.293 HD
ENDBRANCH  15  22
TORSDOF 3
ENDMDL
MODEL 2
REMARK VINA RESULT:    -0.493      1.334      6.278
REMARK INTER + INTRA:          -0.536
REMARK INTER:                  -0.536
REMARK INTRA:                   0.000
REMARK UNBOUND:                 0.000
REMARK SMILES Cc1cc(O)c2c(c1)C(=O)c1cc(O)cc(O)c1C2=O
REMARK SMILES IDX 1 1 2 2 8 3 7 4 6 5 4 6 3 7 19 8 20 9 18 10 11 11 9 12 10 13
REMARK SMILES IDX 12 14 13 15 15 16 16 17 5 18 17 20 14 22
REMARK H PARENT 5 19 17 21 14 23
REMARK Flexibility Score: inf
ROOT
ATOM      1  C   UNL     1      81.658  32.050  51.244  1.00  0.00     0.044 C 
ATOM      2  C   UNL     1      80.347  32.756  51.423  1.00  0.00    -0.047 A 
ATOM      3  C   UNL     1      79.238  32.065  51.925  1.00  0.00     0.016 A 
ATOM      4  C   UNL     1      77.994  32.706  52.056  1.00  0.00     0.038 A 
ATOM      5  C   UNL     1      77.850  34.053  51.653  1.00  0.00     0.076 A 
ATOM      6  C   UNL     1      78.989  34.761  51.189  1.00  0.00     0.127 A 
ATOM      7  C   UNL     1      80.211  34.097  51.049  1.00  0.00     0.050 A 
ATOM      8  C   UNL     1      76.488  34.648  51.668  1.00  0.00     0.201 C 
ATOM      9  O   UNL     1      76.190  35.552  50.842  1.00  0.00    -0.288 OA
ATOM     10  C   UNL     1      75.432  34.052  52.524  1.00  0.00     0.076 A 
ATOM     11  C   UNL     1      75.579  32.704  52.924  1.00  0.00     0.041 A 
ATOM     12  C   UNL     1      76.832  31.975  52.617  1.00  0.00     0.194 C 
ATOM     13  O   UNL     1      76.920  30.739  52.857  1.00  0.00    -0.289 OA
ATOM     14  C   UNL     1      74.538  32.062  53.617  1.00  0.00     0.059 A 
ATOM     15  C   UNL     1      73.363  32.751  53.927  1.00  0.00     0.120 A 
ATOM     16  C   UNL     1      73.230  34.093  53.569  1.00  0.00     0.093 A 
ATOM     17  C   UNL     1      74.259  34.760  52.897  1.00  0.00     0.131 A 
ENDROOT
BRANCH   6  18
ATOM     18  O   UNL     1      78.959  36.125  50.888  1.00  0.00    -0.507 OA
ATOM     19  H   UNL     1      78.243  36.755  51.221  1.00  0.00     0.293 HD
ENDBRANCH   6  18
BRANCH  17  20
ATOM     20  O   UNL     1      74.091  36.125  52.653  1.00  0.00    -0.507 OA
ATOM     21  H   UNL     1      74.127  36.536  51.730  1.00  0.00     0.293 HD
ENDBRANCH  17  20
BRANCH  15  22
ATOM     22  O   UNL     1      72.323  32.115  54.602  1.00  0.00    -0.508 OA
ATOM     23  H   UNL     1      72.230  32.176  55.609  1.00  0.00     0.293 HD
ENDBRANCH  15  22
TORSDOF 3
ENDMDL
MODEL 3
REMARK VINA RESULT:    -0.261      1.404      3.254
REMARK INTER + INTRA:          -0.283
REMARK INTER:                  -0.283
REMARK INTRA:                   0.000
REMARK UNBOUND:                 0.000
REMARK SMILES Cc1cc(O)c2c(c1)C(=O)c1cc(O)cc(O)c1C2=O
REMARK SMILES IDX 1 1 2 2 8 3 7 4 6 5 4 6 3 7 19 8 20 9 18 10 11 11 9 12 10 13
REMARK SMILES IDX 12 14 13 15 15 16 16 17 5 18 17 20 14 22
REMARK H PARENT 5 19 17 21 14 23
REMARK Flexibility Score: inf
ROOT
ATOM      1  C   UNL     1      72.863  32.440  54.255  1.00  0.00     0.044 C 
ATOM      2  C   UNL     1      73.986  33.044  53.465  1.00  0.00    -0.047 A 
ATOM      3  C   UNL     1      75.210  32.373  53.355  1.00  0.00     0.016 A 
ATOM      4  C   UNL     1      76.282  32.951  52.654  1.00  0.00     0.038 A 
ATOM      5  C   UNL     1      76.136  34.231  52.076  1.00  0.00     0.076 A 
ATOM      6  C   UNL     1      74.879  34.885  52.151  1.00  0.00     0.127 A 
ATOM      7  C   UNL     1      73.834  34.300  52.871  1.00  0.00     0.050 A 
ATOM      8  C   UNL     1      77.336  34.869  51.472  1.00  0.00     0.201 C 
ATOM      9  O   UNL     1      77.446  36.125  51.472  1.00  0.00    -0.288 OA
ATOM     10  C   UNL     1      78.482  34.028  51.043  1.00  0.00     0.076 A 
ATOM     11  C   UNL     1      78.624  32.747  51.625  1.00  0.00     0.041 A 
ATOM     12  C   UNL     1      77.565  32.220  52.517  1.00  0.00     0.194 C 
ATOM     13  O   UNL     1      77.744  31.136  53.139  1.00  0.00    -0.289 OA
ATOM     14  C   UNL     1      79.768  31.977  51.351  1.00  0.00     0.059 A 
ATOM     15  C   UNL     1      80.760  32.463  50.495  1.00  0.00     0.120 A 
ATOM     16  C   UNL     1      80.604  33.708  49.887  1.00  0.00     0.093 A 
ATOM     17  C   UNL     1      79.466  34.485  50.128  1.00  0.00     0.131 A 
ENDROOT
BRANCH   6  18
ATOM     18  O   UNL     1      74.617  36.094  51.502  1.00  0.00    -0.507 OA
ATOM     19  H   UNL     1      75.179  36.926  51.621  1.00  0.00     0.293 HD
ENDBRANCH   6  18
BRANCH  17  20
ATOM     20  O   UNL     1      79.338  35.679  49.414  1.00  0.00    -0.507 OA
ATOM     21  H   UNL     1      80.115  36.151  48.972  1.00  0.00     0.293 HD
ENDBRANCH  17  20
BRANCH  15  22
ATOM     22  O   UNL     1      81.901  31.708  50.230  1.00  0.00    -0.508 OA
ATOM     23  H   UNL     1      82.193  30.956  50.843  1.00  0.00     0.293 HD
ENDBRANCH  15  22
TORSDOF 3
ENDMDL
MODEL 4
REMARK VINA RESULT:     0.862      2.426      5.994
REMARK INTER + INTRA:           0.938
REMARK INTER:                   0.938
REMARK INTRA:                   0.000
REMARK UNBOUND:                 0.000
REMARK SMILES Cc1cc(O)c2c(c1)C(=O)c1cc(O)cc(O)c1C2=O
REMARK SMILES IDX 1 1 2 2 8 3 7 4 6 5 4 6 3 7 19 8 20 9 18 10 11 11 9 12 10 13
REMARK SMILES IDX 12 14 13 15 15 16 16 17 5 18 17 20 14 22
REMARK H PARENT 5 19 17 21 14 23
REMARK Flexibility Score: inf
ROOT
ATOM      1  C   UNL     1      81.069  34.873  48.874  1.00  0.00     0.044 C 
ATOM      2  C   UNL     1      79.991  35.003  49.908  1.00  0.00    -0.047 A 
ATOM      3  C   UNL     1      78.689  35.350  49.528  1.00  0.00     0.016 A 
ATOM      4  C   UNL     1      77.682  35.517  50.494  1.00  0.00     0.038 A 
ATOM      5  C   UNL     1      77.989  35.361  51.864  1.00  0.00     0.076 A 
ATOM      6  C   UNL     1      79.298  34.963  52.239  1.00  0.00     0.127 A 
ATOM      7  C   UNL     1      80.288  34.823  51.262  1.00  0.00     0.050 A 
ATOM      8  C   UNL     1      76.935  35.690  52.860  1.00  0.00     0.201 C 
ATOM      9  O   UNL     1      77.262  36.121  53.999  1.00  0.00    -0.288 OA
ATOM     10  C   UNL     1      75.507  35.689  52.452  1.00  0.00     0.076 A 
ATOM     11  C   UNL     1      75.206  35.847  51.080  1.00  0.00     0.041 A 
ATOM     12  C   UNL     1      76.299  35.855  50.080  1.00  0.00     0.194 C 
ATOM     13  O   UNL     1      76.049  36.122  48.872  1.00  0.00    -0.289 OA
ATOM     14  C   UNL     1      73.869  35.991  50.670  1.00  0.00     0.059 A 
ATOM     15  C   UNL     1      72.834  35.964  51.608  1.00  0.00     0.120 A 
ATOM     16  C   UNL     1      73.125  35.768  52.958  1.00  0.00     0.093 A 
ATOM     17  C   UNL     1      74.445  35.603  53.389  1.00  0.00     0.131 A 
ENDROOT
BRANCH   6  18
ATOM     18  O   UNL     1      79.649  34.668  53.559  1.00  0.00    -0.507 OA
ATOM     19  H   UNL     1      79.104  34.956  54.360  1.00  0.00     0.293 HD
ENDBRANCH   6  18
BRANCH  17  20
ATOM     20  O   UNL     1      74.650  35.321  54.742  1.00  0.00    -0.507 OA
ATOM     21  H   UNL     1      75.417  34.758  55.084  1.00  0.00     0.293 HD
ENDBRANCH  17  20
BRANCH  15  22
ATOM     22  O   UNL     1      71.508  36.119  51.208  1.00  0.00    -0.508 OA
ATOM     23  H   UNL     1      71.252  36.165  50.228  1.00  0.00     0.293 HD
ENDBRANCH  15  22
TORSDOF 3
ENDMDL
MODEL 5
REMARK VINA RESULT:     1.535      2.104      3.368
REMARK INTER + INTRA:           1.669
REMARK INTER:                   1.669
REMARK INTRA:                   0.000
REMARK UNBOUND:                 0.000
REMARK SMILES Cc1cc(O)c2c(c1)C(=O)c1cc(O)cc(O)c1C2=O
REMARK SMILES IDX 1 1 2 2 8 3 7 4 6 5 4 6 3 7 19 8 20 9 18 10 11 11 9 12 10 13
REMARK SMILES IDX 12 14 13 15 15 16 16 17 5 18 17 20 14 22
REMARK H PARENT 5 19 17 21 14 23
REMARK Flexibility Score: inf
ROOT
ATOM      1  C   UNL     1      70.492  34.400  56.847  1.00  0.00     0.044 C 
ATOM      2  C   UNL     1      71.708  33.953  56.091  1.00  0.00    -0.047 A 
ATOM      3  C   UNL     1      72.185  34.710  55.014  1.00  0.00     0.016 A 
ATOM      4  C   UNL     1      73.298  34.277  54.272  1.00  0.00     0.038 A 
ATOM      5  C   UNL     1      73.927  33.054  54.597  1.00  0.00     0.076 A 
ATOM      6  C   UNL     1      73.467  32.316  55.718  1.00  0.00     0.127 A 
ATOM      7  C   UNL     1      72.346  32.756  56.428  1.00  0.00     0.050 A 
ATOM      8  C   UNL     1      75.004  32.560  53.699  1.00  0.00     0.201 C 
ATOM      9  O   UNL     1      75.193  31.321  53.569  1.00  0.00    -0.288 OA
ATOM     10  C   UNL     1      75.726  33.514  52.819  1.00  0.00     0.076 A 
ATOM     11  C   UNL     1      75.092  34.736  52.497  1.00  0.00     0.041 A 
ATOM     12  C   UNL     1      73.815  35.100  53.153  1.00  0.00     0.194 C 
ATOM     13  O   UNL     1      73.181  36.125  52.778  1.00  0.00    -0.289 OA
ATOM     14  C   UNL     1      75.679  35.602  51.558  1.00  0.00     0.059 A 
ATOM     15  C   UNL     1      76.894  35.272  50.952  1.00  0.00     0.120 A 
ATOM     16  C   UNL     1      77.542  34.086  51.298  1.00  0.00     0.093 A 
ATOM     17  C   UNL     1      76.989  33.216  52.242  1.00  0.00     0.131 A 
ENDROOT
BRANCH   6  18
ATOM     18  O   UNL     1      74.110  31.164  56.178  1.00  0.00    -0.507 OA
ATOM     19  H   UNL     1      74.345  31.004  57.147  1.00  0.00     0.293 HD
ENDBRANCH   6  18
BRANCH  17  20
ATOM     20  O   UNL     1      77.739  32.095  52.603  1.00  0.00    -0.507 OA
ATOM     21  H   UNL     1      78.750  32.074  52.598  1.00  0.00     0.293 HD
ENDBRANCH  17  20
BRANCH  15  22
ATOM     22  O   UNL     1      77.474  36.122  50.012  1.00  0.00    -0.508 OA
ATOM     23  H   UNL     1      78.460  36.067  49.785  1.00  0.00     0.293 HD
ENDBRANCH  15  22
TORSDOF 3
ENDMDL
