MODEL 1
REMARK VINA RESULT:    -7.772      0.000      0.000
REMARK INTER + INTRA:          -8.668
REMARK INTER:                  -8.226
REMARK INTRA:                  -0.441
REMARK UNBOUND:                -0.441
REMARK SMILES CC1=CC[C@@]23[C@H]([C@H](C(C)C)CC[C@H]2C)[C@H]13
REMARK SMILES IDX 14 1 13 2 12 3 11 4 7 5 6 6 5 7 15 8 2 9 3 10 4 11 1 12 8 13
REMARK SMILES IDX 9 14 10 15
REMARK H PARENT
REMARK Flexibility Score: inf
ROOT
ATOM      1  C   UNL     1      -5.291 -16.719   7.041  1.00  0.00     0.008 C 
ATOM      2  C   UNL     1      -4.689 -16.894   8.439  1.00  0.00    -0.007 C 
ATOM      3  C   UNL     1      -5.701 -16.449   9.541  1.00  0.00     0.004 C 
ATOM      4  C   UNL     1      -5.108 -16.443  10.984  1.00  0.00     0.004 C 
ATOM      5  C   UNL     1      -3.654 -15.877  11.067  1.00  0.00    -0.004 C 
ATOM      6  C   UNL     1      -2.860 -16.621   9.984  1.00  0.00     0.007 C 
ATOM      7  C   UNL     1      -3.397 -16.061   8.613  1.00  0.00    -0.013 C 
ATOM      8  C   UNL     1      -1.914 -16.303   8.872  1.00  0.00     0.025 C 
ATOM      9  C   UNL     1      -1.291 -14.953   8.924  1.00  0.00    -0.073 C 
ATOM     10  C   UNL     1      -2.147 -13.988   8.634  1.00  0.00    -0.027 C 
ATOM     11  C   UNL     1      -3.500 -14.531   8.340  1.00  0.00     0.035 C 
ATOM     12  C   UNL     1       0.149 -14.711   9.256  1.00  0.00     0.039 C 
ENDROOT
BRANCH   5  13
ATOM     13  C   UNL     1      -2.985 -16.032  12.466  1.00  0.00    -0.014 C 
ATOM     14  C   UNL     1      -1.782 -16.985  12.409  1.00  0.00     0.007 C 
ATOM     15  C   UNL     1      -2.570 -14.708  13.135  1.00  0.00     0.007 C 
ENDBRANCH   5  13
TORSDOF 1
ENDMDL
MODEL 2
REMARK VINA RESULT:    -7.325      1.583      3.093
REMARK INTER + INTRA:          -8.195
REMARK INTER:                  -7.878
REMARK INTRA:                  -0.317
REMARK UNBOUND:                -0.441
REMARK SMILES CC1=CC[C@@]23[C@H]([C@H](C(C)C)CC[C@H]2C)[C@H]13
REMARK SMILES IDX 14 1 13 2 12 3 11 4 7 5 6 6 5 7 15 8 2 9 3 10 4 11 1 12 8 13
REMARK SMILES IDX 9 14 10 15
REMARK H PARENT
REMARK Flexibility Score: inf
ROOT
ATOM      1  C   UNL     1      -2.838 -19.125   7.647  1.00  0.00     0.008 C 
ATOM      2  C   UNL     1      -2.475 -17.839   8.397  1.00  0.00    -0.007 C 
ATOM      3  C   UNL     1      -2.602 -18.039   9.940  1.00  0.00     0.004 C 
ATOM      4  C   UNL     1      -2.406 -16.732  10.769  1.00  0.00     0.004 C 
ATOM      5  C   UNL     1      -3.097 -15.478  10.144  1.00  0.00    -0.004 C 
ATOM      6  C   UNL     1      -2.651 -15.452   8.675  1.00  0.00     0.007 C 
ATOM      7  C   UNL     1      -3.393 -16.663   7.991  1.00  0.00    -0.013 C 
ATOM      8  C   UNL     1      -3.264 -15.299   7.321  1.00  0.00     0.025 C 
ATOM      9  C   UNL     1      -4.640 -14.733   7.298  1.00  0.00    -0.073 C 
ATOM     10  C   UNL     1      -5.546 -15.585   7.746  1.00  0.00    -0.027 C 
ATOM     11  C   UNL     1      -4.927 -16.876   8.150  1.00  0.00     0.035 C 
ATOM     12  C   UNL     1      -4.967 -13.355   6.812  1.00  0.00     0.039 C 
ENDROOT
BRANCH   5  13
ATOM     13  C   UNL     1      -2.761 -14.136  10.860  1.00  0.00    -0.014 C 
ATOM     14  C   UNL     1      -2.406 -14.362  12.338  1.00  0.00     0.007 C 
ATOM     15  C   UNL     1      -1.661 -13.298  10.182  1.00  0.00     0.007 C 
ENDBRANCH   5  13
TORSDOF 1
ENDMDL
MODEL 3
REMARK VINA RESULT:    -7.205      1.663      3.331
REMARK INTER + INTRA:          -8.068
REMARK INTER:                  -7.674
REMARK INTRA:                  -0.393
REMARK UNBOUND:                -0.441
REMARK SMILES CC1=CC[C@@]23[C@H]([C@H](C(C)C)CC[C@H]2C)[C@H]13
REMARK SMILES IDX 14 1 13 2 12 3 11 4 7 5 6 6 5 7 15 8 2 9 3 10 4 11 1 12 8 13
REMARK SMILES IDX 9 14 10 15
REMARK H PARENT
REMARK Flexibility Score: inf
ROOT
ATOM      1  C   UNL     1      -5.433 -15.735   6.028  1.00  0.00     0.008 C 
ATOM      2  C   UNL     1      -4.822 -15.283   7.359  1.00  0.00    -0.007 C 
ATOM      3  C   UNL     1      -3.550 -14.410   7.119  1.00  0.00     0.004 C 
ATOM      4  C   UNL     1      -2.776 -14.043   8.424  1.00  0.00     0.004 C 
ATOM      5  C   UNL     1      -2.661 -15.223   9.442  1.00  0.00    -0.004 C 
ATOM      6  C   UNL     1      -4.087 -15.769   9.601  1.00  0.00     0.007 C 
ATOM      7  C   UNL     1      -4.414 -16.488   8.238  1.00  0.00    -0.013 C 
ATOM      8  C   UNL     1      -4.789 -17.089   9.590  1.00  0.00     0.025 C 
ATOM      9  C   UNL     1      -3.916 -18.283   9.753  1.00  0.00    -0.073 C 
ATOM     10  C   UNL     1      -3.183 -18.525   8.680  1.00  0.00    -0.027 C 
ATOM     11  C   UNL     1      -3.439 -17.526   7.608  1.00  0.00     0.035 C 
ATOM     12  C   UNL     1      -3.878 -19.125  10.990  1.00  0.00     0.039 C 
ENDROOT
BRANCH   5  13
ATOM     13  C   UNL     1      -2.052 -14.824  10.820  1.00  0.00    -0.014 C 
ATOM     14  C   UNL     1      -1.916 -13.299  10.953  1.00  0.00     0.007 C 
ATOM     15  C   UNL     1      -2.795 -15.390  12.044  1.00  0.00     0.007 C 
ENDBRANCH   5  13
TORSDOF 1
ENDMDL
MODEL 4
REMARK VINA RESULT:    -6.903      1.254      2.014
REMARK INTER + INTRA:          -7.748
REMARK INTER:                  -7.382
REMARK INTRA:                  -0.365
REMARK UNBOUND:                -0.441
REMARK SMILES CC1=CC[C@@]23[C@H]([C@H](C(C)C)CC[C@H]2C)[C@H]13
REMARK SMILES IDX 14 1 13 2 12 3 11 4 7 5 6 6 5 7 15 8 2 9 3 10 4 11 1 12 8 13
REMARK SMILES IDX 9 14 10 15
REMARK H PARENT
REMARK Flexibility Score: inf
ROOT
ATOM      1  C   UNL     1      -4.934 -14.814   5.704  1.00  0.00     0.008 C 
ATOM      2  C   UNL     1      -4.379 -15.821   6.716  1.00  0.00    -0.007 C 
ATOM      3  C   UNL     1      -5.499 -16.304   7.691  1.00  0.00     0.004 C 
ATOM      4  C   UNL     1      -4.983 -17.208   8.854  1.00  0.00     0.004 C 
ATOM      5  C   UNL     1      -3.638 -16.721   9.482  1.00  0.00    -0.004 C 
ATOM      6  C   UNL     1      -2.689 -16.491   8.297  1.00  0.00     0.007 C 
ATOM      7  C   UNL     1      -3.240 -15.210   7.564  1.00  0.00    -0.013 C 
ATOM      8  C   UNL     1      -1.750 -15.439   7.802  1.00  0.00     0.025 C 
ATOM      9  C   UNL     1      -1.343 -14.417   8.804  1.00  0.00    -0.073 C 
ATOM     10  C   UNL     1      -2.322 -13.578   9.098  1.00  0.00    -0.027 C 
ATOM     11  C   UNL     1      -3.561 -13.899   8.341  1.00  0.00     0.035 C 
ATOM     12  C   UNL     1       0.026 -14.339   9.406  1.00  0.00     0.039 C 
ENDROOT
BRANCH   5  13
ATOM     13  C   UNL     1      -3.020 -17.708  10.518  1.00  0.00    -0.014 C 
ATOM     14  C   UNL     1      -2.481 -16.964  11.749  1.00  0.00     0.007 C 
ATOM     15  C   UNL     1      -3.954 -18.847  10.964  1.00  0.00     0.007 C 
ENDBRANCH   5  13
TORSDOF 1
ENDMDL
MODEL 5
REMARK VINA RESULT:    -6.846      1.492      4.537
REMARK INTER + INTRA:          -7.687
REMARK INTER:                  -7.180
REMARK INTRA:                  -0.507
REMARK UNBOUND:                -0.441
REMARK SMILES CC1=CC[C@@]23[C@H]([C@H](C(C)C)CC[C@H]2C)[C@H]13
REMARK SMILES IDX 14 1 13 2 12 3 11 4 7 5 6 6 5 7 15 8 2 9 3 10 4 11 1 12 8 13
REMARK SMILES IDX 9 14 10 15
REMARK H PARENT
REMARK Flexibility Score: inf
ROOT
ATOM      1  C   UNL     1      -2.740 -15.377  14.010  1.00  0.00     0.008 C 
ATOM      2  C   UNL     1      -2.185 -15.219  12.591  1.00  0.00    -0.007 C 
ATOM      3  C   UNL     1      -2.375 -13.756  12.079  1.00  0.00     0.004 C 
ATOM      4  C   UNL     1      -1.982 -13.551  10.582  1.00  0.00     0.004 C 
ATOM      5  C   UNL     1      -2.444 -14.711   9.644  1.00  0.00    -0.004 C 
ATOM      6  C   UNL     1      -1.971 -16.004  10.323  1.00  0.00     0.007 C 
ATOM      7  C   UNL     1      -2.888 -16.169  11.594  1.00  0.00    -0.013 C 
ATOM      8  C   UNL     1      -2.524 -17.343  10.691  1.00  0.00     0.025 C 
ATOM      9  C   UNL     1      -3.787 -17.728  10.005  1.00  0.00    -0.073 C 
ATOM     10  C   UNL     1      -4.829 -17.042  10.441  1.00  0.00    -0.027 C 
ATOM     11  C   UNL     1      -4.440 -16.072  11.499  1.00  0.00     0.035 C 
ATOM     12  C   UNL     1      -3.872 -18.783   8.946  1.00  0.00     0.039 C 
ENDROOT
BRANCH   5  13
ATOM     13  C   UNL     1      -1.906 -14.610   8.185  1.00  0.00    -0.014 C 
ATOM     14  C   UNL     1      -0.598 -15.397   8.014  1.00  0.00     0.007 C 
ATOM     15  C   UNL     1      -2.910 -15.023   7.094  1.00  0.00     0.007 C 
ENDBRANCH   5  13
TORSDOF 1
ENDMDL
MODEL 6
REMARK VINA RESULT:    -6.572      1.734      3.995
REMARK INTER + INTRA:          -7.398
REMARK INTER:                  -7.018
REMARK INTRA:                  -0.380
REMARK UNBOUND:                -0.441
REMARK SMILES CC1=CC[C@@]23[C@H]([C@H](C(C)C)CC[C@H]2C)[C@H]13
REMARK SMILES IDX 14 1 13 2 12 3 11 4 7 5 6 6 5 7 15 8 2 9 3 10 4 11 1 12 8 13
REMARK SMILES IDX 9 14 10 15
REMARK H PARENT
REMARK Flexibility Score: inf
ROOT
ATOM      1  C   UNL     1      -3.312 -18.740  10.747  1.00  0.00     0.008 C 
ATOM      2  C   UNL     1      -3.901 -17.721   9.766  1.00  0.00    -0.007 C 
ATOM      3  C   UNL     1      -3.872 -18.273   8.306  1.00  0.00     0.004 C 
ATOM      4  C   UNL     1      -4.305 -17.234   7.225  1.00  0.00     0.004 C 
ATOM      5  C   UNL     1      -3.738 -15.799   7.466  1.00  0.00    -0.004 C 
ATOM      6  C   UNL     1      -4.064 -15.467   8.929  1.00  0.00     0.007 C 
ATOM      7  C   UNL     1      -3.117 -16.389   9.788  1.00  0.00    -0.013 C 
ATOM      8  C   UNL     1      -3.369 -14.925  10.136  1.00  0.00     0.025 C 
ATOM      9  C   UNL     1      -2.083 -14.224   9.878  1.00  0.00    -0.073 C 
ATOM     10  C   UNL     1      -1.112 -15.055   9.542  1.00  0.00    -0.027 C 
ATOM     11  C   UNL     1      -1.585 -16.465   9.515  1.00  0.00     0.035 C 
ATOM     12  C   UNL     1      -1.903 -12.742   9.995  1.00  0.00     0.039 C 
ENDROOT
BRANCH   5  13
ATOM     13  C   UNL     1      -4.305 -14.715   6.501  1.00  0.00    -0.014 C 
ATOM     14  C   UNL     1      -5.289 -15.322   5.490  1.00  0.00     0.007 C 
ATOM     15  C   UNL     1      -4.954 -13.504   7.197  1.00  0.00     0.007 C 
ENDBRANCH   5  13
TORSDOF 1
ENDMDL
MODEL 7
REMARK VINA RESULT:    -6.455      1.134      3.960
REMARK INTER + INTRA:          -7.273
REMARK INTER:                  -6.865
REMARK INTRA:                  -0.408
REMARK UNBOUND:                -0.441
REMARK SMILES CC1=CC[C@@]23[C@H]([C@H](C(C)C)CC[C@H]2C)[C@H]13
REMARK SMILES IDX 14 1 13 2 12 3 11 4 7 5 6 6 5 7 15 8 2 9 3 10 4 11 1 12 8 13
REMARK SMILES IDX 9 14 10 15
REMARK H PARENT
REMARK Flexibility Score: inf
ROOT
ATOM      1  C   UNL     1       0.493 -14.979   8.627  1.00  0.00     0.008 C 
ATOM      2  C   UNL     1      -0.912 -15.580   8.729  1.00  0.00    -0.007 C 
ATOM      3  C   UNL     1      -1.839 -15.024   7.602  1.00  0.00     0.004 C 
ATOM      4  C   UNL     1      -3.331 -15.464   7.732  1.00  0.00     0.004 C 
ATOM      5  C   UNL     1      -3.873 -15.430   9.196  1.00  0.00    -0.004 C 
ATOM      6  C   UNL     1      -2.840 -16.195  10.036  1.00  0.00     0.007 C 
ATOM      7  C   UNL     1      -1.572 -15.262  10.090  1.00  0.00    -0.013 C 
ATOM      8  C   UNL     1      -2.083 -16.019  11.312  1.00  0.00     0.025 C 
ATOM      9  C   UNL     1      -2.611 -14.979  12.236  1.00  0.00    -0.073 C 
ATOM     10  C   UNL     1      -2.393 -13.752  11.795  1.00  0.00    -0.027 C 
ATOM     11  C   UNL     1      -1.679 -13.761  10.490  1.00  0.00     0.035 C 
ATOM     12  C   UNL     1      -3.303 -15.285  13.528  1.00  0.00     0.039 C 
ENDROOT
BRANCH   5  13
ATOM     13  C   UNL     1      -5.299 -16.035   9.366  1.00  0.00    -0.014 C 
ATOM     14  C   UNL     1      -5.660 -16.959   8.193  1.00  0.00     0.007 C 
ATOM     15  C   UNL     1      -5.537 -16.768  10.699  1.00  0.00     0.007 C 
ENDBRANCH   5  13
TORSDOF 1
ENDMDL
MODEL 8
REMARK VINA RESULT:    -6.399      1.455      3.565
REMARK INTER + INTRA:          -7.214
REMARK INTER:                  -6.991
REMARK INTRA:                  -0.223
REMARK UNBOUND:                -0.441
REMARK SMILES CC1=CC[C@@]23[C@H]([C@H](C(C)C)CC[C@H]2C)[C@H]13
REMARK SMILES IDX 14 1 13 2 12 3 11 4 7 5 6 6 5 7 15 8 2 9 3 10 4 11 1 12 8 13
REMARK SMILES IDX 9 14 10 15
REMARK H PARENT
REMARK Flexibility Score: inf
ROOT
ATOM      1  C   UNL     1      -4.209 -19.125  10.774  1.00  0.00     0.008 C 
ATOM      2  C   UNL     1      -3.255 -17.999  10.361  1.00  0.00    -0.007 C 
ATOM      3  C   UNL     1      -3.054 -16.983  11.530  1.00  0.00     0.004 C 
ATOM      4  C   UNL     1      -2.225 -15.721  11.139  1.00  0.00     0.004 C 
ATOM      5  C   UNL     1      -2.581 -15.142   9.732  1.00  0.00    -0.004 C 
ATOM      6  C   UNL     1      -2.534 -16.339   8.771  1.00  0.00     0.007 C 
ATOM      7  C   UNL     1      -3.788 -17.219   9.137  1.00  0.00    -0.013 C 
ATOM      8  C   UNL     1      -3.375 -16.944   7.695  1.00  0.00     0.025 C 
ATOM      9  C   UNL     1      -4.436 -16.064   7.135  1.00  0.00    -0.073 C 
ATOM     10  C   UNL     1      -5.435 -15.875   7.979  1.00  0.00    -0.027 C 
ATOM     11  C   UNL     1      -5.212 -16.600   9.258  1.00  0.00     0.035 C 
ATOM     12  C   UNL     1      -4.384 -15.465   5.763  1.00  0.00     0.039 C 
ENDROOT
BRANCH   5  13
ATOM     13  C   UNL     1      -1.641 -13.996   9.253  1.00  0.00    -0.014 C 
ATOM     14  C   UNL     1      -1.803 -12.738  10.120  1.00  0.00     0.007 C 
ATOM     15  C   UNL     1      -0.151 -14.376   9.160  1.00  0.00     0.007 C 
ENDBRANCH   5  13
TORSDOF 1
ENDMDL
MODEL 9
REMARK VINA RESULT:    -6.131      1.571      3.897
REMARK INTER + INTRA:          -6.930
REMARK INTER:                  -6.421
REMARK INTRA:                  -0.509
REMARK UNBOUND:                -0.441
REMARK SMILES CC1=CC[C@@]23[C@H]([C@H](C(C)C)CC[C@H]2C)[C@H]13
REMARK SMILES IDX 14 1 13 2 12 3 11 4 7 5 6 6 5 7 15 8 2 9 3 10 4 11 1 12 8 13
REMARK SMILES IDX 9 14 10 15
REMARK H PARENT
REMARK Flexibility Score: inf
ROOT
ATOM      1  C   UNL     1      -4.008 -19.125  10.315  1.00  0.00     0.008 C 
ATOM      2  C   UNL     1      -3.744 -17.686   9.861  1.00  0.00    -0.007 C 
ATOM      3  C   UNL     1      -2.641 -17.643   8.758  1.00  0.00     0.004 C 
ATOM      4  C   UNL     1      -2.199 -16.201   8.356  1.00  0.00     0.004 C 
ATOM      5  C   UNL     1      -2.048 -15.227   9.568  1.00  0.00    -0.004 C 
ATOM      6  C   UNL     1      -3.348 -15.365  10.372  1.00  0.00     0.007 C 
ATOM      7  C   UNL     1      -3.281 -16.792  11.035  1.00  0.00    -0.013 C 
ATOM      8  C   UNL     1      -3.771 -15.562  11.791  1.00  0.00     0.025 C 
ATOM      9  C   UNL     1      -2.732 -15.282  12.818  1.00  0.00    -0.073 C 
ATOM     10  C   UNL     1      -1.784 -16.204  12.844  1.00  0.00    -0.027 C 
ATOM     11  C   UNL     1      -2.028 -17.265  11.831  1.00  0.00     0.035 C 
ATOM     12  C   UNL     1      -2.758 -14.094  13.729  1.00  0.00     0.039 C 
ENDROOT
BRANCH   5  13
ATOM     13  C   UNL     1      -1.784 -13.744   9.169  1.00  0.00    -0.014 C 
ATOM     14  C   UNL     1      -3.018 -13.113   8.505  1.00  0.00     0.007 C 
ATOM     15  C   UNL     1      -1.292 -12.843  10.317  1.00  0.00     0.007 C 
ENDBRANCH   5  13
TORSDOF 1
ENDMDL
