MODEL 1
REMARK VINA RESULT:    -3.680      0.000      0.000
REMARK INTER + INTRA:          -3.680
REMARK INTER:                  -3.680
REMARK INTRA:                   0.000
REMARK UNBOUND:                 0.000
REMARK SMILES CC1(C)[C@@H]2CC[C@@]1(C)C(=O)C2
REMARK SMILES IDX 1 1 2 2 4 3 5 4 6 5 7 6 9 7 10 8 11 9 8 10 3 11
REMARK H PARENT
REMARK Flexibility Score: inf
ROOT
ATOM      1  C   UNL     1      30.448   4.263  69.310  1.00  0.00     0.012 C 
ATOM      2  C   UNL     1      29.304   4.976  70.092  1.00  0.00    -0.020 C 
ATOM      3  C   UNL     1      28.129   5.439  69.198  1.00  0.00     0.003 C 
ATOM      4  C   UNL     1      28.795   6.506  68.284  1.00  0.00     0.005 C 
ATOM      5  C   UNL     1      29.816   7.185  69.231  1.00  0.00     0.015 C 
ATOM      6  C   UNL     1      29.613   6.415  70.558  1.00  0.00     0.032 C 
ATOM      7  C   UNL     1      28.254   6.848  71.049  1.00  0.00     0.139 C 
ATOM      8  O   UNL     1      28.036   7.645  71.947  1.00  0.00    -0.299 OA
ATOM      9  C   UNL     1      27.210   6.217  70.181  1.00  0.00     0.080 C 
ATOM     10  C   UNL     1      30.750   6.575  71.573  1.00  0.00     0.020 C 
ATOM     11  C   UNL     1      28.875   4.001  71.232  1.00  0.00     0.012 C 
ENDROOT
TORSDOF 0
ENDMDL
MODEL 2
REMARK VINA RESULT:    -3.642      1.515      2.439
REMARK INTER + INTRA:          -3.642
REMARK INTER:                  -3.642
REMARK INTRA:                   0.000
REMARK UNBOUND:                 0.000
REMARK SMILES CC1(C)[C@@H]2CC[C@@]1(C)C(=O)C2
REMARK SMILES IDX 1 1 2 2 4 3 5 4 6 5 7 6 9 7 10 8 11 9 8 10 3 11
REMARK H PARENT
REMARK Flexibility Score: inf
ROOT
ATOM      1  C   UNL     1      29.843   7.869  69.117  1.00  0.00     0.012 C 
ATOM      2  C   UNL     1      29.206   6.481  69.433  1.00  0.00    -0.020 C 
ATOM      3  C   UNL     1      27.660   6.476  69.378  1.00  0.00     0.003 C 
ATOM      4  C   UNL     1      27.273   7.434  70.538  1.00  0.00     0.005 C 
ATOM      5  C   UNL     1      28.355   7.140  71.607  1.00  0.00     0.015 C 
ATOM      6  C   UNL     1      29.227   6.063  70.919  1.00  0.00     0.032 C 
ATOM      7  C   UNL     1      28.355   4.833  70.875  1.00  0.00     0.139 C 
ATOM      8  O   UNL     1      28.447   3.861  71.608  1.00  0.00    -0.299 OA
ATOM      9  C   UNL     1      27.285   5.043  69.848  1.00  0.00     0.080 C 
ATOM     10  C   UNL     1      30.608   5.855  71.551  1.00  0.00     0.020 C 
ATOM     11  C   UNL     1      29.870   5.460  68.459  1.00  0.00     0.012 C 
ENDROOT
TORSDOF 0
ENDMDL
MODEL 3
REMARK VINA RESULT:    -3.629      1.276      2.685
REMARK INTER + INTRA:          -3.629
REMARK INTER:                  -3.629
REMARK INTRA:                   0.000
REMARK UNBOUND:                 0.000
REMARK SMILES CC1(C)[C@@H]2CC[C@@]1(C)C(=O)C2
REMARK SMILES IDX 1 1 2 2 4 3 5 4 6 5 7 6 9 7 10 8 11 9 8 10 3 11
REMARK H PARENT
REMARK Flexibility Score: inf
ROOT
ATOM      1  C   UNL     1      30.244   4.607  69.186  1.00  0.00     0.012 C 
ATOM      2  C   UNL     1      29.691   5.955  69.740  1.00  0.00    -0.020 C 
ATOM      3  C   UNL     1      29.112   5.851  71.172  1.00  0.00     0.003 C 
ATOM      4  C   UNL     1      27.898   4.899  70.982  1.00  0.00     0.005 C 
ATOM      5  C   UNL     1      27.361   5.296  69.584  1.00  0.00     0.015 C 
ATOM      6  C   UNL     1      28.341   6.413  69.149  1.00  0.00     0.032 C 
ATOM      7  C   UNL     1      28.021   7.577  70.052  1.00  0.00     0.139 C 
ATOM      8  O   UNL     1      27.384   8.573  69.743  1.00  0.00    -0.299 OA
ATOM      9  C   UNL     1      28.524   7.266  71.429  1.00  0.00     0.080 C 
ATOM     10  C   UNL     1      28.324   6.733  67.650  1.00  0.00     0.020 C 
ATOM     11  C   UNL     1      30.846   6.994  69.607  1.00  0.00     0.012 C 
ENDROOT
TORSDOF 0
ENDMDL
MODEL 4
REMARK VINA RESULT:    -3.589      1.860      3.158
REMARK INTER + INTRA:          -3.589
REMARK INTER:                  -3.589
REMARK INTRA:                   0.000
REMARK UNBOUND:                 0.000
REMARK SMILES CC1(C)[C@@H]2CC[C@@]1(C)C(=O)C2
REMARK SMILES IDX 1 1 2 2 4 3 5 4 6 5 7 6 9 7 10 8 11 9 8 10 3 11
REMARK H PARENT
REMARK Flexibility Score: inf
ROOT
ATOM      1  C   UNL     1      28.467   7.495  71.750  1.00  0.00     0.012 C 
ATOM      2  C   UNL     1      29.088   6.880  70.459  1.00  0.00    -0.020 C 
ATOM      3  C   UNL     1      28.046   6.526  69.371  1.00  0.00     0.003 C 
ATOM      4  C   UNL     1      27.205   5.410  70.053  1.00  0.00     0.005 C 
ATOM      5  C   UNL     1      28.262   4.639  70.884  1.00  0.00     0.015 C 
ATOM      6  C   UNL     1      29.565   5.417  70.582  1.00  0.00     0.032 C 
ATOM      7  C   UNL     1      29.874   5.102  69.139  1.00  0.00     0.139 C 
ATOM      8  O   UNL     1      30.725   4.322  68.741  1.00  0.00    -0.299 OA
ATOM      9  C   UNL     1      28.892   5.827  68.271  1.00  0.00     0.080 C 
ATOM     10  C   UNL     1      30.713   5.152  71.562  1.00  0.00     0.020 C 
ATOM     11  C   UNL     1      30.180   7.883  69.974  1.00  0.00     0.012 C 
ENDROOT
TORSDOF 0
ENDMDL
MODEL 5
REMARK VINA RESULT:    -3.500      1.200      2.606
REMARK INTER + INTRA:          -3.500
REMARK INTER:                  -3.500
REMARK INTRA:                   0.000
REMARK UNBOUND:                 0.000
REMARK SMILES CC1(C)[C@@H]2CC[C@@]1(C)C(=O)C2
REMARK SMILES IDX 1 1 2 2 4 3 5 4 6 5 7 6 9 7 10 8 11 9 8 10 3 11
REMARK H PARENT
REMARK Flexibility Score: inf
ROOT
ATOM      1  C   UNL     1      28.398   6.605  67.524  1.00  0.00     0.012 C 
ATOM      2  C   UNL     1      29.144   6.445  68.883  1.00  0.00    -0.020 C 
ATOM      3  C   UNL     1      28.813   5.129  69.627  1.00  0.00     0.003 C 
ATOM      4  C   UNL     1      27.300   5.290  69.948  1.00  0.00     0.005 C 
ATOM      5  C   UNL     1      27.166   6.805  70.241  1.00  0.00     0.015 C 
ATOM      6  C   UNL     1      28.612   7.319  70.040  1.00  0.00     0.032 C 
ATOM      7  C   UNL     1      29.388   6.748  71.200  1.00  0.00     0.139 C 
ATOM      8  O   UNL     1      29.741   7.358  72.198  1.00  0.00    -0.299 OA
ATOM      9  C   UNL     1      29.566   5.277  70.978  1.00  0.00     0.080 C 
ATOM     10  C   UNL     1      28.735   8.836  69.863  1.00  0.00     0.020 C 
ATOM     11  C   UNL     1      30.663   6.625  68.577  1.00  0.00     0.012 C 
ENDROOT
TORSDOF 0
ENDMDL
MODEL 6
REMARK VINA RESULT:    -3.490      9.428     11.138
REMARK INTER + INTRA:          -3.490
REMARK INTER:                  -3.490
REMARK INTRA:                   0.000
REMARK UNBOUND:                 0.000
REMARK SMILES CC1(C)[C@@H]2CC[C@@]1(C)C(=O)C2
REMARK SMILES IDX 1 1 2 2 4 3 5 4 6 5 7 6 9 7 10 8 11 9 8 10 3 11
REMARK H PARENT
REMARK Flexibility Score: inf
ROOT
ATOM      1  C   UNL     1      32.881  -1.322  71.693  1.00  0.00     0.012 C 
ATOM      2  C   UNL     1      33.239  -2.752  71.185  1.00  0.00    -0.020 C 
ATOM      3  C   UNL     1      32.005  -3.644  70.906  1.00  0.00     0.003 C 
ATOM      4  C   UNL     1      31.371  -3.801  72.316  1.00  0.00     0.005 C 
ATOM      5  C   UNL     1      32.606  -3.862  73.248  1.00  0.00     0.015 C 
ATOM      6  C   UNL     1      33.787  -3.720  72.257  1.00  0.00     0.032 C 
ATOM      7  C   UNL     1      33.797  -5.015  71.484  1.00  0.00     0.139 C 
ATOM      8  O   UNL     1      34.574  -5.943  71.647  1.00  0.00    -0.299 OA
ATOM      9  C   UNL     1      32.627  -5.022  70.548  1.00  0.00     0.080 C 
ATOM     10  C   UNL     1      35.124  -3.340  72.901  1.00  0.00     0.020 C 
ATOM     11  C   UNL     1      34.166  -2.561  69.946  1.00  0.00     0.012 C 
ENDROOT
TORSDOF 0
ENDMDL
MODEL 7
REMARK VINA RESULT:    -3.403      9.054     10.556
REMARK INTER + INTRA:          -3.403
REMARK INTER:                  -3.403
REMARK INTRA:                   0.000
REMARK UNBOUND:                 0.000
REMARK SMILES CC1(C)[C@@H]2CC[C@@]1(C)C(=O)C2
REMARK SMILES IDX 1 1 2 2 4 3 5 4 6 5 7 6 9 7 10 8 11 9 8 10 3 11
REMARK H PARENT
REMARK Flexibility Score: inf
ROOT
ATOM      1  C   UNL     1      34.494  -3.214  70.105  1.00  0.00     0.012 C 
ATOM      2  C   UNL     1      33.501  -3.744  71.184  1.00  0.00    -0.020 C 
ATOM      3  C   UNL     1      32.116  -3.055  71.152  1.00  0.00     0.003 C 
ATOM      4  C   UNL     1      32.457  -1.584  71.522  1.00  0.00     0.005 C 
ATOM      5  C   UNL     1      33.603  -1.742  72.552  1.00  0.00     0.015 C 
ATOM      6  C   UNL     1      33.780  -3.278  72.630  1.00  0.00     0.032 C 
ATOM      7  C   UNL     1      32.537  -3.772  73.327  1.00  0.00     0.139 C 
ATOM      8  O   UNL     1      32.461  -4.127  74.493  1.00  0.00    -0.299 OA
ATOM      9  C   UNL     1      31.382  -3.658  72.381  1.00  0.00     0.080 C 
ATOM     10  C   UNL     1      35.101  -3.741  73.255  1.00  0.00     0.020 C 
ATOM     11  C   UNL     1      33.435  -5.291  71.001  1.00  0.00     0.012 C 
ENDROOT
TORSDOF 0
ENDMDL
MODEL 8
REMARK VINA RESULT:    -3.389      1.608      3.003
REMARK INTER + INTRA:          -3.389
REMARK INTER:                  -3.389
REMARK INTRA:                   0.000
REMARK UNBOUND:                 0.000
REMARK SMILES CC1(C)[C@@H]2CC[C@@]1(C)C(=O)C2
REMARK SMILES IDX 1 1 2 2 4 3 5 4 6 5 7 6 9 7 10 8 11 9 8 10 3 11
REMARK H PARENT
REMARK Flexibility Score: inf
ROOT
ATOM      1  C   UNL     1      27.136   5.039  69.875  1.00  0.00     0.012 C 
ATOM      2  C   UNL     1      28.413   5.925  69.985  1.00  0.00    -0.020 C 
ATOM      3  C   UNL     1      28.559   6.645  71.347  1.00  0.00     0.003 C 
ATOM      4  C   UNL     1      27.333   7.601  71.362  1.00  0.00     0.005 C 
ATOM      5  C   UNL     1      27.209   8.028  69.878  1.00  0.00     0.015 C 
ATOM      6  C   UNL     1      28.368   7.256  69.204  1.00  0.00     0.032 C 
ATOM      7  C   UNL     1      29.621   7.922  69.715  1.00  0.00     0.139 C 
ATOM      8  O   UNL     1      30.321   8.707  69.095  1.00  0.00    -0.299 OA
ATOM      9  C   UNL     1      29.812   7.542  71.151  1.00  0.00     0.080 C 
ATOM     10  C   UNL     1      28.267   7.150  67.678  1.00  0.00     0.020 C 
ATOM     11  C   UNL     1      29.621   5.004  69.633  1.00  0.00     0.012 C 
ENDROOT
TORSDOF 0
ENDMDL
MODEL 9
REMARK VINA RESULT:    -3.374      1.987      3.303
REMARK INTER + INTRA:          -3.374
REMARK INTER:                  -3.374
REMARK INTRA:                   0.000
REMARK UNBOUND:                 0.000
REMARK SMILES CC1(C)[C@@H]2CC[C@@]1(C)C(=O)C2
REMARK SMILES IDX 1 1 2 2 4 3 5 4 6 5 7 6 9 7 10 8 11 9 8 10 3 11
REMARK H PARENT
REMARK Flexibility Score: inf
ROOT
ATOM      1  C   UNL     1      29.638   6.882  71.627  1.00  0.00     0.012 C 
ATOM      2  C   UNL     1      29.290   7.287  70.163  1.00  0.00    -0.020 C 
ATOM      3  C   UNL     1      27.937   8.027  70.024  1.00  0.00     0.003 C 
ATOM      4  C   UNL     1      26.910   6.944  70.459  1.00  0.00     0.005 C 
ATOM      5  C   UNL     1      27.531   5.636  69.909  1.00  0.00     0.015 C 
ATOM      6  C   UNL     1      28.837   6.133  69.243  1.00  0.00     0.032 C 
ATOM      7  C   UNL     1      28.378   6.906  68.031  1.00  0.00     0.139 C 
ATOM      8  O   UNL     1      28.415   6.515  66.875  1.00  0.00    -0.299 OA
ATOM      9  C   UNL     1      27.772   8.197  68.489  1.00  0.00     0.080 C 
ATOM     10  C   UNL     1      29.871   5.038  68.960  1.00  0.00     0.020 C 
ATOM     11  C   UNL     1      30.506   8.105  69.630  1.00  0.00     0.012 C 
ENDROOT
TORSDOF 0
ENDMDL
