MODEL 1
REMARK VINA RESULT:    -4.943      0.000      0.000
REMARK INTER + INTRA:          -6.628
REMARK INTER:                  -6.388
REMARK INTRA:                  -0.240
REMARK UNBOUND:                -0.240
REMARK SMILES CCCCCCC(=O)[O-]
REMARK SMILES IDX 5 1 6 2 7 3 8 4 9 5 4 6 3 7 2 8 1 9
REMARK H PARENT
REMARK Flexibility Score: inf
ROOT
ATOM      1  C   UNL     1      -6.834 -13.044  -3.833  1.00  0.00     0.006 C 
ENDROOT
BRANCH   1   2
ATOM      2  C   UNL     1      -7.020 -13.710  -5.205  1.00  0.00     0.053 C 
BRANCH   2   3
ATOM      3  C   UNL     1      -8.441 -13.639  -5.674  1.00  0.00     0.041 C 
ATOM      4  O   UNL     1      -8.916 -12.549  -6.091  1.00  0.00    -0.550 OA
ATOM      5  O   UNL     1      -9.251 -14.766  -5.620  1.00  0.00    -0.550 OA
ENDBRANCH   2   3
ENDBRANCH   1   2
BRANCH   1   6
ATOM      6  C   UNL     1      -6.447 -14.012  -2.697  1.00  0.00     0.000 C 
BRANCH   6   7
ATOM      7  C   UNL     1      -6.831 -15.484  -2.936  1.00  0.00    -0.000 C 
BRANCH   7   8
ATOM      8  C   UNL     1      -5.612 -16.417  -2.996  1.00  0.00    -0.003 C 
ATOM      9  C   UNL     1      -4.648 -16.136  -1.847  1.00  0.00     0.004 C 
ENDBRANCH   7   8
ENDBRANCH   6   7
ENDBRANCH   1   6
TORSDOF 5
ENDMDL
MODEL 2
REMARK VINA RESULT:    -4.882      1.402      1.987
REMARK INTER + INTRA:          -6.549
REMARK INTER:                  -6.328
REMARK INTRA:                  -0.221
REMARK UNBOUND:                -0.240
REMARK SMILES CCCCCCC(=O)[O-]
REMARK SMILES IDX 5 1 6 2 7 3 8 4 9 5 4 6 3 7 2 8 1 9
REMARK H PARENT
REMARK Flexibility Score: inf
ROOT
ATOM      1  C   UNL     1      -8.248 -15.697  -4.876  1.00  0.00     0.006 C 
ENDROOT
BRANCH   1   2
ATOM      2  C   UNL     1      -7.281 -14.742  -5.592  1.00  0.00     0.053 C 
BRANCH   2   3
ATOM      3  C   UNL     1      -7.599 -13.305  -5.309  1.00  0.00     0.041 C 
ATOM      4  O   UNL     1      -6.834 -12.619  -4.580  1.00  0.00    -0.550 OA
ATOM      5  O   UNL     1      -8.756 -12.734  -5.821  1.00  0.00    -0.550 OA
ENDBRANCH   2   3
ENDBRANCH   1   2
BRANCH   1   6
ATOM      6  C   UNL     1      -7.593 -16.585  -3.799  1.00  0.00     0.000 C 
BRANCH   6   7
ATOM      7  C   UNL     1      -6.072 -16.408  -3.645  1.00  0.00    -0.000 C 
BRANCH   7   8
ATOM      8  C   UNL     1      -5.682 -15.708  -2.335  1.00  0.00    -0.003 C 
ATOM      9  C   UNL     1      -4.461 -16.369  -1.701  1.00  0.00     0.004 C 
ENDBRANCH   7   8
ENDBRANCH   6   7
ENDBRANCH   1   6
TORSDOF 5
ENDMDL
MODEL 3
REMARK VINA RESULT:    -4.831      1.997      3.815
REMARK INTER + INTRA:          -6.484
REMARK INTER:                  -6.153
REMARK INTRA:                  -0.330
REMARK UNBOUND:                -0.240
REMARK SMILES CCCCCCC(=O)[O-]
REMARK SMILES IDX 5 1 6 2 7 3 8 4 9 5 4 6 3 7 2 8 1 9
REMARK H PARENT
REMARK Flexibility Score: inf
ROOT
ATOM      1  C   UNL     1      -6.178 -15.794  -3.451  1.00  0.00     0.006 C 
ENDROOT
BRANCH   1   2
ATOM      2  C   UNL     1      -7.287 -16.858  -3.390  1.00  0.00     0.053 C 
BRANCH   2   3
ATOM      3  C   UNL     1      -7.634 -17.384  -4.749  1.00  0.00     0.041 C 
ATOM      4  O   UNL     1      -8.789 -17.207  -5.220  1.00  0.00    -0.550 OA
ATOM      5  O   UNL     1      -6.695 -18.099  -5.480  1.00  0.00    -0.550 OA
ENDBRANCH   2   3
ENDBRANCH   1   2
BRANCH   1   6
ATOM      6  C   UNL     1      -6.507 -14.482  -2.711  1.00  0.00     0.000 C 
BRANCH   6   7
ATOM      7  C   UNL     1      -6.840 -13.286  -3.621  1.00  0.00    -0.000 C 
BRANCH   7   8
ATOM      8  C   UNL     1      -6.914 -13.669  -5.107  1.00  0.00    -0.003 C 
ATOM      9  C   UNL     1      -8.340 -13.550  -5.635  1.00  0.00     0.004 C 
ENDBRANCH   7   8
ENDBRANCH   6   7
ENDBRANCH   1   6
TORSDOF 5
ENDMDL
MODEL 4
REMARK VINA RESULT:    -4.802      1.166      1.655
REMARK INTER + INTRA:          -6.445
REMARK INTER:                  -6.092
REMARK INTRA:                  -0.353
REMARK UNBOUND:                -0.240
REMARK SMILES CCCCCCC(=O)[O-]
REMARK SMILES IDX 5 1 6 2 7 3 8 4 9 5 4 6 3 7 2 8 1 9
REMARK H PARENT
REMARK Flexibility Score: inf
ROOT
ATOM      1  C   UNL     1      -6.822 -13.411  -3.577  1.00  0.00     0.006 C 
ENDROOT
BRANCH   1   2
ATOM      2  C   UNL     1      -6.930 -13.705  -5.081  1.00  0.00     0.053 C 
BRANCH   2   3
ATOM      3  C   UNL     1      -8.339 -13.589  -5.576  1.00  0.00     0.041 C 
ATOM      4  O   UNL     1      -8.784 -12.476  -5.964  1.00  0.00    -0.550 OA
ATOM      5  O   UNL     1      -9.171 -14.701  -5.577  1.00  0.00    -0.550 OA
ENDBRANCH   2   3
ENDBRANCH   1   2
BRANCH   1   6
ATOM      6  C   UNL     1      -6.390 -14.617  -2.717  1.00  0.00     0.000 C 
BRANCH   6   7
ATOM      7  C   UNL     1      -6.312 -15.958  -3.468  1.00  0.00    -0.000 C 
BRANCH   7   8
ATOM      8  C   UNL     1      -7.546 -16.844  -3.238  1.00  0.00    -0.003 C 
ATOM      9  C   UNL     1      -7.798 -17.756  -4.434  1.00  0.00     0.004 C 
ENDBRANCH   7   8
ENDBRANCH   6   7
ENDBRANCH   1   6
TORSDOF 5
ENDMDL
MODEL 5
REMARK VINA RESULT:    -4.772      4.376      6.039
REMARK INTER + INTRA:          -6.406
REMARK INTER:                  -6.257
REMARK INTRA:                  -0.149
REMARK UNBOUND:                -0.240
REMARK SMILES CCCCCCC(=O)[O-]
REMARK SMILES IDX 5 1 6 2 7 3 8 4 9 5 4 6 3 7 2 8 1 9
REMARK H PARENT
REMARK Flexibility Score: inf
ROOT
ATOM      1  C   UNL     1      -4.989 -16.124  -1.801  1.00  0.00     0.006 C 
ENDROOT
BRANCH   1   2
ATOM      2  C   UNL     1      -3.494 -16.480  -1.845  1.00  0.00     0.053 C 
BRANCH   2   3
ATOM      3  C   UNL     1      -3.093 -17.358  -0.700  1.00  0.00     0.041 C 
ATOM      4  O   UNL     1      -3.646 -17.226   0.424  1.00  0.00    -0.550 OA
ATOM      5  O   UNL     1      -2.084 -18.299  -0.864  1.00  0.00    -0.550 OA
ENDBRANCH   2   3
ENDBRANCH   1   2
BRANCH   1   6
ATOM      6  C   UNL     1      -5.751 -16.393  -3.115  1.00  0.00     0.000 C 
BRANCH   6   7
ATOM      7  C   UNL     1      -6.934 -15.446  -3.387  1.00  0.00    -0.000 C 
BRANCH   7   8
ATOM      8  C   UNL     1      -6.589 -13.971  -3.131  1.00  0.00    -0.003 C 
ATOM      9  C   UNL     1      -6.936 -13.108  -4.340  1.00  0.00     0.004 C 
ENDBRANCH   7   8
ENDBRANCH   6   7
ENDBRANCH   1   6
TORSDOF 5
ENDMDL
MODEL 6
REMARK VINA RESULT:    -4.652     11.779     13.512
REMARK INTER + INTRA:          -6.252
REMARK INTER:                  -6.070
REMARK INTRA:                  -0.182
REMARK UNBOUND:                -0.240
REMARK SMILES CCCCCCC(=O)[O-]
REMARK SMILES IDX 5 1 6 2 7 3 8 4 9 5 4 6 3 7 2 8 1 9
REMARK H PARENT
REMARK Flexibility Score: inf
ROOT
ATOM      1  C   UNL     1     -11.185  -2.634  -8.662  1.00  0.00     0.006 C 
ENDROOT
BRANCH   1   2
ATOM      2  C   UNL     1     -12.291  -1.569  -8.607  1.00  0.00     0.053 C 
BRANCH   2   3
ATOM      3  C   UNL     1     -13.271  -1.720  -9.730  1.00  0.00     0.041 C 
ATOM      4  O   UNL     1     -13.021  -1.221 -10.860  1.00  0.00    -0.550 OA
ATOM      5  O   UNL     1     -14.475  -2.380  -9.520  1.00  0.00    -0.550 OA
ENDBRANCH   2   3
ENDBRANCH   1   2
BRANCH   1   6
ATOM      6  C   UNL     1      -9.924  -2.210  -9.443  1.00  0.00     0.000 C 
BRANCH   6   7
ATOM      7  C   UNL     1      -8.633  -2.947  -9.047  1.00  0.00    -0.000 C 
BRANCH   7   8
ATOM      8  C   UNL     1      -8.902  -4.277  -8.327  1.00  0.00    -0.003 C 
ATOM      9  C   UNL     1      -8.209  -5.436  -9.037  1.00  0.00     0.004 C 
ENDBRANCH   7   8
ENDBRANCH   6   7
ENDBRANCH   1   6
TORSDOF 5
ENDMDL
MODEL 7
REMARK VINA RESULT:    -4.581      2.365      3.597
REMARK INTER + INTRA:          -6.160
REMARK INTER:                  -5.827
REMARK INTRA:                  -0.333
REMARK UNBOUND:                -0.240
REMARK SMILES CCCCCCC(=O)[O-]
REMARK SMILES IDX 5 1 6 2 7 3 8 4 9 5 4 6 3 7 2 8 1 9
REMARK H PARENT
REMARK Flexibility Score: inf
ROOT
ATOM      1  C   UNL     1      -8.913 -14.981  -5.656  1.00  0.00     0.006 C 
ENDROOT
BRANCH   1   2
ATOM      2  C   UNL     1      -7.974 -15.994  -6.330  1.00  0.00     0.053 C 
BRANCH   2   3
ATOM      3  C   UNL     1      -7.541 -17.073  -5.385  1.00  0.00     0.041 C 
ATOM      4  O   UNL     1      -6.469 -17.701  -5.590  1.00  0.00    -0.550 OA
ATOM      5  O   UNL     1      -8.338 -17.407  -4.297  1.00  0.00    -0.550 OA
ENDBRANCH   2   3
ENDBRANCH   1   2
BRANCH   1   6
ATOM      6  C   UNL     1      -8.401 -13.527  -5.665  1.00  0.00     0.000 C 
BRANCH   6   7
ATOM      7  C   UNL     1      -6.944 -13.347  -5.202  1.00  0.00    -0.000 C 
BRANCH   7   8
ATOM      8  C   UNL     1      -6.819 -13.149  -3.684  1.00  0.00    -0.003 C 
ATOM      9  C   UNL     1      -6.465 -14.458  -2.986  1.00  0.00     0.004 C 
ENDBRANCH   7   8
ENDBRANCH   6   7
ENDBRANCH   1   6
TORSDOF 5
ENDMDL
MODEL 8
REMARK VINA RESULT:    -4.578      2.728      4.425
REMARK INTER + INTRA:          -6.156
REMARK INTER:                  -5.807
REMARK INTRA:                  -0.349
REMARK UNBOUND:                -0.240
REMARK SMILES CCCCCCC(=O)[O-]
REMARK SMILES IDX 5 1 6 2 7 3 8 4 9 5 4 6 3 7 2 8 1 9
REMARK H PARENT
REMARK Flexibility Score: inf
ROOT
ATOM      1  C   UNL     1      -6.518 -16.851  -4.881  1.00  0.00     0.006 C 
ENDROOT
BRANCH   1   2
ATOM      2  C   UNL     1      -7.093 -16.753  -3.460  1.00  0.00     0.053 C 
BRANCH   2   3
ATOM      3  C   UNL     1      -6.223 -15.930  -2.559  1.00  0.00     0.041 C 
ATOM      4  O   UNL     1      -6.545 -14.746  -2.277  1.00  0.00    -0.550 OA
ATOM      5  O   UNL     1      -5.041 -16.460  -2.058  1.00  0.00    -0.550 OA
ENDBRANCH   2   3
ENDBRANCH   1   2
BRANCH   1   6
ATOM      6  C   UNL     1      -7.158 -15.887  -5.900  1.00  0.00     0.000 C 
BRANCH   6   7
ATOM      7  C   UNL     1      -8.404 -15.137  -5.395  1.00  0.00    -0.000 C 
BRANCH   7   8
ATOM      8  C   UNL     1      -8.298 -13.615  -5.573  1.00  0.00    -0.003 C 
ATOM      9  C   UNL     1      -6.912 -13.111  -5.184  1.00  0.00     0.004 C 
ENDBRANCH   7   8
ENDBRANCH   6   7
ENDBRANCH   1   6
TORSDOF 5
ENDMDL
MODEL 9
REMARK VINA RESULT:    -4.543      2.251      3.978
REMARK INTER + INTRA:          -6.111
REMARK INTER:                  -5.732
REMARK INTRA:                  -0.379
REMARK UNBOUND:                -0.240
REMARK SMILES CCCCCCC(=O)[O-]
REMARK SMILES IDX 5 1 6 2 7 3 8 4 9 5 4 6 3 7 2 8 1 9
REMARK H PARENT
REMARK Flexibility Score: inf
ROOT
ATOM      1  C   UNL     1      -6.816 -13.408  -3.356  1.00  0.00     0.006 C 
ENDROOT
BRANCH   1   2
ATOM      2  C   UNL     1      -6.204 -14.603  -2.609  1.00  0.00     0.053 C 
BRANCH   2   3
ATOM      3  C   UNL     1      -6.560 -15.909  -3.251  1.00  0.00     0.041 C 
ATOM      4  O   UNL     1      -7.690 -16.428  -3.047  1.00  0.00    -0.550 OA
ATOM      5  O   UNL     1      -5.634 -16.570  -4.048  1.00  0.00    -0.550 OA
ENDBRANCH   2   3
ENDBRANCH   1   2
BRANCH   1   6
ATOM      6  C   UNL     1      -6.848 -13.559  -4.891  1.00  0.00     0.000 C 
BRANCH   6   7
ATOM      7  C   UNL     1      -8.235 -13.386  -5.534  1.00  0.00    -0.000 C 
BRANCH   7   8
ATOM      8  C   UNL     1      -8.892 -14.723  -5.907  1.00  0.00    -0.003 C 
ATOM      9  C   UNL     1      -7.922 -15.617  -6.674  1.00  0.00     0.004 C 
ENDBRANCH   7   8
ENDBRANCH   6   7
ENDBRANCH   1   6
TORSDOF 5
ENDMDL
