MODEL 1
REMARK VINA RESULT:    -7.795      0.000      0.000
REMARK INTER + INTRA:         -14.738
REMARK INTER:                 -12.353
REMARK INTRA:                  -2.385
REMARK UNBOUND:                -2.385
REMARK SMILES C[C@H]1O[C@H](O[C@H]2CC[C@@]3(C)[C@@H](CC[C@@]4(C)[C@@H]3C=C[C@]35OC[C@@]6(CCC(C)(C)C[C@@H]63)[C@@H](O)C[C@@]45C)[C@@]2(C)CO)[C@H](O)[C@@H](O[C@H]2O[C@H](CO)[C@@H](O)[C@H](O)[C@H]2O)[C@@H]1O
REMARK SMILES IDX 1 1 2 2 54 3 41 4 39 5 4 6 3 7 55 8 42 10 43 11 52 12 44 13
REMARK SMILES IDX 50 14 45 15 48 16 53 17 51 19 46 21 47 22 49 24 5 26 6 27
REMARK SMILES IDX 7 28 35 29 8 30 11 31 36 32 9 33 12 34 10 35 16 36 13 37
REMARK SMILES IDX 14 38 17 39 15 40 33 41 18 42 19 43 32 44 34 45 29 46 20 47
REMARK SMILES IDX 30 48 22 49 28 50 21 51 23 52 25 53 24 54 26 55 27 56 37 57
REMARK SMILES IDX 38 58 31 60 40 62
REMARK H PARENT 55 9 53 18 51 20 47 23 49 25 38 59 31 61 40 63
REMARK Flexibility Score: inf
ROOT
ATOM      1  C   UNL     1     -11.384  38.963  -4.838  1.00  0.00     0.041 C 
ATOM      2  C   UNL     1     -11.333  37.667  -3.999  1.00  0.00     0.150 C 
ATOM      3  C   UNL     1     -11.822  37.935  -2.536  1.00  0.00     0.175 C 
ATOM      4  C   UNL     1     -11.134  37.004  -1.480  1.00  0.00     0.186 C 
ATOM      5  C   UNL     1      -9.578  36.962  -1.682  1.00  0.00     0.202 C 
ATOM      6  C   UNL     1      -9.165  37.589  -3.057  1.00  0.00     0.282 C 
ATOM      7  O   UNL     1     -10.034  37.070  -4.036  1.00  0.00    -0.344 OA
ENDROOT
BRANCH   3   8
ATOM      8  O   UNL     1     -13.242  37.843  -2.416  1.00  0.00    -0.388 OA
ATOM      9  H   UNL     1     -13.612  38.597  -2.951  1.00  0.00     0.211 HD
ENDBRANCH   3   8
BRANCH   4  10
ATOM     10  O   UNL     1     -11.753  37.025  -0.157  1.00  0.00    -0.341 OA
BRANCH  10  11
ATOM     11  C   UNL     1     -11.117  37.512   1.052  1.00  0.00     0.282 C 
ATOM     12  C   UNL     1      -9.831  36.620   1.405  1.00  0.00     0.202 C 
ATOM     13  O   UNL     1     -12.055  37.643   2.123  1.00  0.00    -0.341 OA
ATOM     14  C   UNL     1      -9.272  36.892   2.803  1.00  0.00     0.179 C 
ATOM     15  C   UNL     1     -11.750  36.924   3.317  1.00  0.00     0.178 C 
ATOM     16  C   UNL     1     -10.336  37.244   3.837  1.00  0.00     0.177 C 
BRANCH  12  17
ATOM     17  O   UNL     1     -10.220  35.250   1.375  1.00  0.00    -0.385 OA
ATOM     18  H   UNL     1      -9.377  34.745   1.453  1.00  0.00     0.211 HD
ENDBRANCH  12  17
BRANCH  14  19
ATOM     19  O   UNL     1      -8.286  37.832   2.894  1.00  0.00    -0.387 OA
ATOM     20  H   UNL     1      -7.466  37.361   3.260  1.00  0.00     0.211 HD
ENDBRANCH  14  19
BRANCH  15  21
ATOM     21  C   UNL     1     -12.753  37.382   4.406  1.00  0.00     0.191 C 
BRANCH  21  22
ATOM     22  O   UNL     1     -13.071  36.307   5.261  1.00  0.00    -0.394 OA
ATOM     23  H   UNL     1     -14.048  36.298   5.341  1.00  0.00     0.210 HD
ENDBRANCH  21  22
ENDBRANCH  15  21
BRANCH  16  24
ATOM     24  O   UNL     1     -10.144  36.424   4.959  1.00  0.00    -0.387 OA
ATOM     25  H   UNL     1      -9.568  36.931   5.590  1.00  0.00     0.211 HD
ENDBRANCH  16  24
ENDBRANCH  10  11
ENDBRANCH   4  10
BRANCH   6  26
ATOM     26  O   UNL     1      -7.816  37.287  -3.412  1.00  0.00    -0.346 OA
BRANCH  26  27
ATOM     27  C   UNL     1      -6.875  38.358  -2.976  1.00  0.00     0.130 C 
ATOM     28  C   UNL     1      -7.655  39.672  -2.535  1.00  0.00     0.033 C 
ATOM     29  C   UNL     1      -5.506  37.863  -2.096  1.00  0.00     0.020 C 
ATOM     30  C   UNL     1      -6.778  40.865  -1.978  1.00  0.00     0.010 C 
ATOM     31  C   UNL     1      -4.774  39.469  -1.844  1.00  0.00     0.006 C 
ATOM     32  C   UNL     1      -4.677  36.997  -3.058  1.00  0.00     0.017 C 
ATOM     33  C   UNL     1      -5.608  40.166  -0.795  1.00  0.00    -0.022 C 
ATOM     34  C   UNL     1      -3.302  40.318  -1.465  1.00  0.00     0.005 C 
ATOM     35  C   UNL     1      -6.580  40.606   0.383  1.00  0.00     0.012 C 
ATOM     36  C   UNL     1      -4.625  39.132   0.333  1.00  0.00     0.024 C 
ATOM     37  C   UNL     1      -2.701  40.342   0.133  1.00  0.00     0.008 C 
ATOM     38  C   UNL     1      -3.665  39.772   1.386  1.00  0.00    -0.017 C 
ATOM     39  C   UNL     1      -3.515  37.946  -0.140  1.00  0.00    -0.024 C 
ATOM     40  C   UNL     1      -3.997  41.101   2.231  1.00  0.00     0.013 C 
ATOM     41  C   UNL     1      -3.601  38.505   2.636  1.00  0.00     0.009 C 
ATOM     42  C   UNL     1      -3.490  36.805   0.625  1.00  0.00     0.005 C 
ATOM     43  C   UNL     1      -3.422  36.838   2.200  1.00  0.00     0.096 C 
ATOM     44  C   UNL     1      -2.492  38.620   3.702  1.00  0.00     0.043 C 
ATOM     45  C   UNL     1      -4.952  38.684   3.499  1.00  0.00     0.015 C 
ATOM     46  C   UNL     1      -4.111  35.765   3.525  1.00  0.00     0.037 C 
ATOM     47  O   UNL     1      -2.000  36.512   2.188  1.00  0.00    -0.369 OA
ATOM     48  C   UNL     1      -2.411  37.461   4.768  1.00  0.00     0.124 C 
ATOM     49  C   UNL     1      -2.778  35.964   4.344  1.00  0.00     0.026 C 
ATOM     50  C   UNL     1      -5.007  34.289   4.037  1.00  0.00     0.014 C 
ATOM     51  C   UNL     1      -1.783  35.582   3.210  1.00  0.00     0.171 C 
ATOM     52  C   UNL     1      -2.627  35.148   5.634  1.00  0.00     0.013 C 
ATOM     53  C   UNL     1      -4.641  33.715   5.452  1.00  0.00    -0.035 C 
ATOM     54  C   UNL     1      -3.105  33.750   5.590  1.00  0.00     0.007 C 
ATOM     55  C   UNL     1      -5.431  34.377   6.620  1.00  0.00     0.011 C 
ATOM     56  C   UNL     1      -5.002  32.199   5.571  1.00  0.00     0.011 C 
BRANCH  29  57
ATOM     57  C   UNL     1      -6.106  36.996  -0.902  1.00  0.00     0.165 C 
BRANCH  57  58
ATOM     58  O   UNL     1      -6.147  35.631  -1.173  1.00  0.00    -0.396 OA
ATOM     59  H   UNL     1      -6.733  35.608  -1.980  1.00  0.00     0.210 HD
ENDBRANCH  57  58
ENDBRANCH  29  57
BRANCH  48  60
ATOM     60  O   UNL     1      -1.081  37.493   5.254  1.00  0.00    -0.392 OA
ATOM     61  H   UNL     1      -0.462  37.662   4.514  1.00  0.00     0.210 HD
ENDBRANCH  48  60
ENDBRANCH  26  27
ENDBRANCH   6  26
BRANCH   5  62
ATOM     62  O   UNL     1      -9.121  35.623  -1.619  1.00  0.00    -0.385 OA
ATOM     63  H   UNL     1      -9.063  35.307  -2.549  1.00  0.00     0.211 HD
ENDBRANCH   5  62
TORSDOF 14
ENDMDL
MODEL 2
REMARK VINA RESULT:    -7.609      3.417      7.659
REMARK INTER + INTRA:         -14.443
REMARK INTER:                 -12.750
REMARK INTRA:                  -1.693
REMARK UNBOUND:                -2.385
REMARK SMILES C[C@H]1O[C@H](O[C@H]2CC[C@@]3(C)[C@@H](CC[C@@]4(C)[C@@H]3C=C[C@]35OC[C@@]6(CCC(C)(C)C[C@@H]63)[C@@H](O)C[C@@]45C)[C@@]2(C)CO)[C@H](O)[C@@H](O[C@H]2O[C@H](CO)[C@@H](O)[C@H](O)[C@H]2O)[C@@H]1O
REMARK SMILES IDX 1 1 2 2 54 3 41 4 39 5 4 6 3 7 55 8 42 10 43 11 52 12 44 13
REMARK SMILES IDX 50 14 45 15 48 16 53 17 51 19 46 21 47 22 49 24 5 26 6 27
REMARK SMILES IDX 7 28 35 29 8 30 11 31 36 32 9 33 12 34 10 35 16 36 13 37
REMARK SMILES IDX 14 38 17 39 15 40 33 41 18 42 19 43 32 44 34 45 29 46 20 47
REMARK SMILES IDX 30 48 22 49 28 50 21 51 23 52 25 53 24 54 26 55 27 56 37 57
REMARK SMILES IDX 38 58 31 60 40 62
REMARK H PARENT 55 9 53 18 51 20 47 23 49 25 38 59 31 61 40 63
REMARK Flexibility Score: inf
ROOT
ATOM      1  C   UNL     1     -10.212  34.811   5.517  1.00  0.00     0.041 C 
ATOM      2  C   UNL     1     -11.126  36.009   5.854  1.00  0.00     0.150 C 
ATOM      3  C   UNL     1     -12.626  35.563   5.911  1.00  0.00     0.175 C 
ATOM      4  C   UNL     1     -13.620  36.698   5.490  1.00  0.00     0.186 C 
ATOM      5  C   UNL     1     -13.166  37.390   4.156  1.00  0.00     0.202 C 
ATOM      6  C   UNL     1     -11.697  36.992   3.779  1.00  0.00     0.282 C 
ATOM      7  O   UNL     1     -10.919  37.097   4.948  1.00  0.00    -0.344 OA
ENDROOT
BRANCH   3   8
ATOM      8  O   UNL     1     -12.987  35.050   7.194  1.00  0.00    -0.388 OA
ATOM      9  H   UNL     1     -12.563  35.656   7.862  1.00  0.00     0.211 HD
ENDBRANCH   3   8
BRANCH   4  10
ATOM     10  O   UNL     1     -15.022  36.421   5.792  1.00  0.00    -0.341 OA
BRANCH  10  11
ATOM     11  C   UNL     1     -15.825  35.397   5.151  1.00  0.00     0.282 C 
ATOM     12  C   UNL     1     -16.897  36.065   4.162  1.00  0.00     0.202 C 
ATOM     13  O   UNL     1     -16.387  34.495   6.108  1.00  0.00    -0.341 OA
ATOM     14  C   UNL     1     -17.956  35.080   3.665  1.00  0.00     0.179 C 
ATOM     15  C   UNL     1     -17.808  34.364   6.088  1.00  0.00     0.178 C 
ATOM     16  C   UNL     1     -18.335  34.011   4.685  1.00  0.00     0.177 C 
BRANCH  12  17
ATOM     17  O   UNL     1     -17.586  37.085   4.879  1.00  0.00    -0.385 OA
ATOM     18  H   UNL     1     -18.343  36.625   5.311  1.00  0.00     0.211 HD
ENDBRANCH  12  17
BRANCH  14  19
ATOM     19  O   UNL     1     -17.693  34.445   2.485  1.00  0.00    -0.387 OA
ATOM     20  H   UNL     1     -17.918  35.101   1.744  1.00  0.00     0.211 HD
ENDBRANCH  14  19
BRANCH  15  21
ATOM     21  C   UNL     1     -18.181  33.188   7.026  1.00  0.00     0.191 C 
BRANCH  21  22
ATOM     22  O   UNL     1     -18.191  31.975   6.308  1.00  0.00    -0.394 OA
ATOM     23  H   UNL     1     -19.134  31.751   6.160  1.00  0.00     0.210 HD
ENDBRANCH  21  22
ENDBRANCH  15  21
BRANCH  16  24
ATOM     24  O   UNL     1     -19.733  33.985   4.793  1.00  0.00    -0.387 OA
ATOM     25  H   UNL     1     -19.953  33.348   5.523  1.00  0.00     0.211 HD
ENDBRANCH  16  24
ENDBRANCH  10  11
ENDBRANCH   4  10
BRANCH   6  26
ATOM     26  O   UNL     1     -11.147  37.832   2.766  1.00  0.00    -0.346 OA
BRANCH  26  27
ATOM     27  C   UNL     1     -10.412  37.047   1.733  1.00  0.00     0.130 C 
ATOM     28  C   UNL     1     -11.255  36.923   0.390  1.00  0.00     0.033 C 
ATOM     29  C   UNL     1      -8.730  37.280   1.647  1.00  0.00     0.020 C 
ATOM     30  C   UNL     1     -10.560  36.174  -0.818  1.00  0.00     0.010 C 
ATOM     31  C   UNL     1      -8.388  36.155   0.307  1.00  0.00     0.006 C 
ATOM     32  C   UNL     1      -8.165  36.774   2.983  1.00  0.00     0.017 C 
ATOM     33  C   UNL     1      -8.881  36.820  -0.956  1.00  0.00    -0.022 C 
ATOM     34  C   UNL     1      -7.153  35.215  -0.481  1.00  0.00     0.005 C 
ATOM     35  C   UNL     1      -9.379  37.786  -2.115  1.00  0.00     0.012 C 
ATOM     36  C   UNL     1      -7.304  37.715  -0.816  1.00  0.00     0.024 C 
ATOM     37  C   UNL     1      -5.992  35.971  -1.479  1.00  0.00     0.008 C 
ATOM     38  C   UNL     1      -6.198  37.582  -1.911  1.00  0.00    -0.017 C 
ATOM     39  C   UNL     1      -6.215  37.590   0.473  1.00  0.00    -0.024 C 
ATOM     40  C   UNL     1      -6.489  37.505  -3.493  1.00  0.00     0.013 C 
ATOM     41  C   UNL     1      -5.325  39.123  -1.736  1.00  0.00     0.009 C 
ATOM     42  C   UNL     1      -5.601  38.756   0.859  1.00  0.00     0.005 C 
ATOM     43  C   UNL     1      -4.922  39.741  -0.168  1.00  0.00     0.096 C 
ATOM     44  C   UNL     1      -3.951  39.240  -2.427  1.00  0.00     0.043 C 
ATOM     45  C   UNL     1      -6.218  40.214  -2.520  1.00  0.00     0.015 C 
ATOM     46  C   UNL     1      -4.731  41.568  -0.243  1.00  0.00     0.037 C 
ATOM     47  O   UNL     1      -3.590  39.263   0.189  1.00  0.00    -0.369 OA
ATOM     48  C   UNL     1      -3.163  40.589  -2.216  1.00  0.00     0.124 C 
ATOM     49  C   UNL     1      -3.279  41.368  -0.825  1.00  0.00     0.026 C 
ATOM     50  C   UNL     1      -4.946  43.196   0.497  1.00  0.00     0.014 C 
ATOM     51  C   UNL     1      -2.757  40.385   0.263  1.00  0.00     0.171 C 
ATOM     52  C   UNL     1      -2.426  42.628  -1.014  1.00  0.00     0.013 C 
ATOM     53  C   UNL     1      -3.915  44.296   0.058  1.00  0.00    -0.035 C 
ATOM     54  C   UNL     1      -2.514  43.650   0.051  1.00  0.00     0.007 C 
ATOM     55  C   UNL     1      -4.312  45.040  -1.252  1.00  0.00     0.011 C 
ATOM     56  C   UNL     1      -3.804  45.439   1.117  1.00  0.00     0.011 C 
BRANCH  29  57
ATOM     57  C   UNL     1      -8.565  38.858   1.504  1.00  0.00     0.165 C 
BRANCH  57  58
ATOM     58  O   UNL     1      -8.518  39.524   2.726  1.00  0.00    -0.396 OA
ATOM     59  H   UNL     1      -8.964  38.865   3.328  1.00  0.00     0.210 HD
ENDBRANCH  57  58
ENDBRANCH  29  57
BRANCH  48  60
ATOM     60  O   UNL     1      -1.804  40.270  -2.458  1.00  0.00    -0.392 OA
ATOM     61  H   UNL     1      -1.489  39.633  -1.784  1.00  0.00     0.210 HD
ENDBRANCH  48  60
ENDBRANCH  26  27
ENDBRANCH   6  26
BRANCH   5  62
ATOM     62  O   UNL     1     -13.253  38.796   4.290  1.00  0.00    -0.385 OA
ATOM     63  H   UNL     1     -14.208  39.022   4.220  1.00  0.00     0.211 HD
ENDBRANCH   5  62
TORSDOF 14
ENDMDL
MODEL 3
REMARK VINA RESULT:    -7.486      4.465      9.990
REMARK INTER + INTRA:         -14.247
REMARK INTER:                 -12.478
REMARK INTRA:                  -1.769
REMARK UNBOUND:                -2.385
REMARK SMILES C[C@H]1O[C@H](O[C@H]2CC[C@@]3(C)[C@@H](CC[C@@]4(C)[C@@H]3C=C[C@]35OC[C@@]6(CCC(C)(C)C[C@@H]63)[C@@H](O)C[C@@]45C)[C@@]2(C)CO)[C@H](O)[C@@H](O[C@H]2O[C@H](CO)[C@@H](O)[C@H](O)[C@H]2O)[C@@H]1O
REMARK SMILES IDX 1 1 2 2 54 3 41 4 39 5 4 6 3 7 55 8 42 10 43 11 52 12 44 13
REMARK SMILES IDX 50 14 45 15 48 16 53 17 51 19 46 21 47 22 49 24 5 26 6 27
REMARK SMILES IDX 7 28 35 29 8 30 11 31 36 32 9 33 12 34 10 35 16 36 13 37
REMARK SMILES IDX 14 38 17 39 15 40 33 41 18 42 19 43 32 44 34 45 29 46 20 47
REMARK SMILES IDX 30 48 22 49 28 50 21 51 23 52 25 53 24 54 26 55 27 56 37 57
REMARK SMILES IDX 38 58 31 60 40 62
REMARK H PARENT 55 9 53 18 51 20 47 23 49 25 38 59 31 61 40 63
REMARK Flexibility Score: inf
ROOT
ATOM      1  C   UNL     1     -10.068  34.111   5.271  1.00  0.00     0.041 C 
ATOM      2  C   UNL     1     -10.817  35.314   5.885  1.00  0.00     0.150 C 
ATOM      3  C   UNL     1     -12.366  35.122   5.766  1.00  0.00     0.175 C 
ATOM      4  C   UNL     1     -13.143  36.475   5.631  1.00  0.00     0.186 C 
ATOM      5  C   UNL     1     -12.487  37.405   4.549  1.00  0.00     0.202 C 
ATOM      6  C   UNL     1     -11.069  36.882   4.132  1.00  0.00     0.282 C 
ATOM      7  O   UNL     1     -10.378  36.550   5.314  1.00  0.00    -0.344 OA
ENDROOT
BRANCH   3   8
ATOM      8  O   UNL     1     -12.900  34.360   6.850  1.00  0.00    -0.388 OA
ATOM      9  H   UNL     1     -13.713  34.849   7.156  1.00  0.00     0.211 HD
ENDBRANCH   3   8
BRANCH   4  10
ATOM     10  O   UNL     1     -14.590  36.364   5.796  1.00  0.00    -0.341 OA
BRANCH  10  11
ATOM     11  C   UNL     1     -15.424  35.355   5.172  1.00  0.00     0.282 C 
ATOM     12  C   UNL     1     -16.512  36.043   4.214  1.00  0.00     0.202 C 
ATOM     13  O   UNL     1     -15.975  34.458   6.139  1.00  0.00    -0.341 OA
ATOM     14  C   UNL     1     -17.598  35.076   3.740  1.00  0.00     0.179 C 
ATOM     15  C   UNL     1     -17.398  34.348   6.155  1.00  0.00     0.178 C 
ATOM     16  C   UNL     1     -17.966  34.009   4.765  1.00  0.00     0.177 C 
BRANCH  12  17
ATOM     17  O   UNL     1     -17.166  37.071   4.952  1.00  0.00    -0.385 OA
ATOM     18  H   UNL     1     -16.478  37.763   5.090  1.00  0.00     0.211 HD
ENDBRANCH  12  17
BRANCH  14  19
ATOM     19  O   UNL     1     -17.375  34.444   2.551  1.00  0.00    -0.387 OA
ATOM     20  H   UNL     1     -17.438  33.448   2.734  1.00  0.00     0.211 HD
ENDBRANCH  14  19
BRANCH  15  21
ATOM     21  C   UNL     1     -17.764  33.173   7.098  1.00  0.00     0.191 C 
BRANCH  21  22
ATOM     22  O   UNL     1     -18.091  32.027   6.345  1.00  0.00    -0.394 OA
ATOM     23  H   UNL     1     -17.392  31.365   6.533  1.00  0.00     0.210 HD
ENDBRANCH  21  22
ENDBRANCH  15  21
BRANCH  16  24
ATOM     24  O   UNL     1     -19.361  34.003   4.909  1.00  0.00    -0.387 OA
ATOM     25  H   UNL     1     -19.613  33.099   5.235  1.00  0.00     0.211 HD
ENDBRANCH  16  24
ENDBRANCH  10  11
ENDBRANCH   4  10
BRANCH   6  26
ATOM     26  O   UNL     1     -10.322  37.854   3.402  1.00  0.00    -0.346 OA
BRANCH  26  27
ATOM     27  C   UNL     1      -9.730  37.280   2.161  1.00  0.00     0.130 C 
ATOM     28  C   UNL     1     -10.412  35.895   1.779  1.00  0.00     0.033 C 
ATOM     29  C   UNL     1      -9.321  38.379   0.929  1.00  0.00     0.020 C 
ATOM     30  C   UNL     1      -9.926  35.211   0.437  1.00  0.00     0.010 C 
ATOM     31  C   UNL     1      -8.693  37.205  -0.257  1.00  0.00     0.006 C 
ATOM     32  C   UNL     1      -8.206  39.266   1.507  1.00  0.00     0.017 C 
ATOM     33  C   UNL     1      -9.890  36.489  -0.835  1.00  0.00    -0.022 C 
ATOM     34  C   UNL     1      -7.693  37.005  -1.668  1.00  0.00     0.005 C 
ATOM     35  C   UNL     1     -11.311  35.987  -1.339  1.00  0.00     0.012 C 
ATOM     36  C   UNL     1     -10.010  38.000  -1.840  1.00  0.00     0.024 C 
ATOM     37  C   UNL     1      -8.247  37.507  -3.203  1.00  0.00     0.008 C 
ATOM     38  C   UNL     1      -9.857  37.952  -3.394  1.00  0.00    -0.017 C 
ATOM     39  C   UNL     1      -9.039  39.375  -1.665  1.00  0.00    -0.024 C 
ATOM     40  C   UNL     1     -10.453  36.786  -4.331  1.00  0.00     0.013 C 
ATOM     41  C   UNL     1     -10.785  39.386  -3.896  1.00  0.00     0.009 C 
ATOM     42  C   UNL     1      -9.670  40.583  -1.830  1.00  0.00     0.005 C 
ATOM     43  C   UNL     1     -10.615  40.891  -3.055  1.00  0.00     0.096 C 
ATOM     44  C   UNL     1     -10.603  39.873  -5.348  1.00  0.00     0.043 C 
ATOM     45  C   UNL     1     -12.332  38.931  -3.858  1.00  0.00     0.015 C 
ATOM     46  C   UNL     1     -12.134  41.905  -3.267  1.00  0.00     0.037 C 
ATOM     47  O   UNL     1      -9.575  41.674  -3.714  1.00  0.00    -0.369 OA
ATOM     48  C   UNL     1     -11.386  41.178  -5.762  1.00  0.00     0.124 C 
ATOM     49  C   UNL     1     -11.613  42.342  -4.690  1.00  0.00     0.026 C 
ATOM     50  C   UNL     1     -13.352  43.056  -2.608  1.00  0.00     0.014 C 
ATOM     51  C   UNL     1     -10.193  42.807  -4.254  1.00  0.00     0.171 C 
ATOM     52  C   UNL     1     -12.435  43.400  -5.436  1.00  0.00     0.013 C 
ATOM     53  C   UNL     1     -14.057  43.991  -3.656  1.00  0.00    -0.035 C 
ATOM     54  C   UNL     1     -12.973  44.511  -4.622  1.00  0.00     0.007 C 
ATOM     55  C   UNL     1     -15.301  43.345  -4.334  1.00  0.00     0.011 C 
ATOM     56  C   UNL     1     -14.625  45.282  -2.985  1.00  0.00     0.011 C 
BRANCH  29  57
ATOM     57  C   UNL     1     -10.659  39.208   0.689  1.00  0.00     0.165 C 
BRANCH  57  58
ATOM     58  O   UNL     1     -10.797  40.300   1.542  1.00  0.00    -0.396 OA
ATOM     59  H   UNL     1     -10.406  41.033   0.989  1.00  0.00     0.210 HD
ENDBRANCH  57  58
ENDBRANCH  29  57
BRANCH  48  60
ATOM     60  O   UNL     1     -10.681  41.700  -6.873  1.00  0.00    -0.392 OA
ATOM     61  H   UNL     1     -11.230  42.372  -7.328  1.00  0.00     0.210 HD
ENDBRANCH  48  60
ENDBRANCH  26  27
ENDBRANCH   6  26
BRANCH   5  62
ATOM     62  O   UNL     1     -12.373  38.723   5.053  1.00  0.00    -0.385 OA
ATOM     63  H   UNL     1     -13.154  39.217   4.713  1.00  0.00     0.211 HD
ENDBRANCH   5  62
TORSDOF 14
ENDMDL
MODEL 4
REMARK VINA RESULT:    -7.364      4.964     10.775
REMARK INTER + INTRA:         -14.054
REMARK INTER:                 -12.538
REMARK INTRA:                  -1.516
REMARK UNBOUND:                -2.385
REMARK SMILES C[C@H]1O[C@H](O[C@H]2CC[C@@]3(C)[C@@H](CC[C@@]4(C)[C@@H]3C=C[C@]35OC[C@@]6(CCC(C)(C)C[C@@H]63)[C@@H](O)C[C@@]45C)[C@@]2(C)CO)[C@H](O)[C@@H](O[C@H]2O[C@H](CO)[C@@H](O)[C@H](O)[C@H]2O)[C@@H]1O
REMARK SMILES IDX 1 1 2 2 54 3 41 4 39 5 4 6 3 7 55 8 42 10 43 11 52 12 44 13
REMARK SMILES IDX 50 14 45 15 48 16 53 17 51 19 46 21 47 22 49 24 5 26 6 27
REMARK SMILES IDX 7 28 35 29 8 30 11 31 36 32 9 33 12 34 10 35 16 36 13 37
REMARK SMILES IDX 14 38 17 39 15 40 33 41 18 42 19 43 32 44 34 45 29 46 20 47
REMARK SMILES IDX 30 48 22 49 28 50 21 51 23 52 25 53 24 54 26 55 27 56 37 57
REMARK SMILES IDX 38 58 31 60 40 62
REMARK H PARENT 55 9 53 18 51 20 47 23 49 25 38 59 31 61 40 63
REMARK Flexibility Score: inf
ROOT
ATOM      1  C   UNL     1     -10.143  35.248   5.491  1.00  0.00     0.041 C 
ATOM      2  C   UNL     1     -11.462  35.905   5.954  1.00  0.00     0.150 C 
ATOM      3  C   UNL     1     -12.662  34.914   5.786  1.00  0.00     0.175 C 
ATOM      4  C   UNL     1     -14.018  35.640   5.488  1.00  0.00     0.186 C 
ATOM      5  C   UNL     1     -13.855  36.712   4.353  1.00  0.00     0.202 C 
ATOM      6  C   UNL     1     -12.344  36.997   4.051  1.00  0.00     0.282 C 
ATOM      7  O   UNL     1     -11.688  37.150   5.288  1.00  0.00    -0.344 OA
ENDROOT
BRANCH   3   8
ATOM      8  O   UNL     1     -12.810  34.049   6.912  1.00  0.00    -0.388 OA
ATOM      9  H   UNL     1     -13.204  33.204   6.559  1.00  0.00     0.211 HD
ENDBRANCH   3   8
BRANCH   4  10
ATOM     10  O   UNL     1     -15.200  34.789   5.598  1.00  0.00    -0.341 OA
BRANCH  10  11
ATOM     11  C   UNL     1     -16.539  35.164   5.184  1.00  0.00     0.282 C 
ATOM     12  C   UNL     1     -17.196  36.163   6.254  1.00  0.00     0.202 C 
ATOM     13  O   UNL     1     -17.336  34.016   4.881  1.00  0.00    -0.341 OA
ATOM     14  C   UNL     1     -18.694  36.382   6.035  1.00  0.00     0.179 C 
ATOM     15  C   UNL     1     -18.558  33.892   5.607  1.00  0.00     0.178 C 
ATOM     16  C   UNL     1     -19.427  35.158   5.496  1.00  0.00     0.177 C 
BRANCH  12  17
ATOM     17  O   UNL     1     -17.048  35.585   7.548  1.00  0.00    -0.385 OA
ATOM     18  H   UNL     1     -16.987  34.614   7.388  1.00  0.00     0.211 HD
ENDBRANCH  12  17
BRANCH  14  19
ATOM     19  O   UNL     1     -19.047  37.447   5.257  1.00  0.00    -0.387 OA
ATOM     20  H   UNL     1     -18.320  38.146   5.371  1.00  0.00     0.211 HD
ENDBRANCH  14  19
BRANCH  15  21
ATOM     21  C   UNL     1     -19.361  32.729   4.971  1.00  0.00     0.191 C 
BRANCH  21  22
ATOM     22  O   UNL     1     -18.518  31.625   4.734  1.00  0.00    -0.394 OA
ATOM     23  H   UNL     1     -18.832  31.211   3.902  1.00  0.00     0.210 HD
ENDBRANCH  21  22
ENDBRANCH  15  21
BRANCH  16  24
ATOM     24  O   UNL     1     -20.548  34.929   6.306  1.00  0.00    -0.387 OA
ATOM     25  H   UNL     1     -20.207  34.674   7.204  1.00  0.00     0.211 HD
ENDBRANCH  16  24
ENDBRANCH  10  11
ENDBRANCH   4  10
BRANCH   6  26
ATOM     26  O   UNL     1     -12.157  38.175   3.266  1.00  0.00    -0.346 OA
BRANCH  26  27
ATOM     27  C   UNL     1     -11.055  38.010   2.275  1.00  0.00     0.130 C 
ATOM     28  C   UNL     1     -10.714  36.475   2.035  1.00  0.00     0.033 C 
ATOM     29  C   UNL     1     -11.043  39.086   0.958  1.00  0.00     0.020 C 
ATOM     30  C   UNL     1      -9.610  36.155   0.948  1.00  0.00     0.010 C 
ATOM     31  C   UNL     1      -9.589  38.462   0.136  1.00  0.00     0.006 C 
ATOM     32  C   UNL     1     -10.812  40.483   1.556  1.00  0.00     0.017 C 
ATOM     33  C   UNL     1      -9.982  37.153  -0.507  1.00  0.00    -0.022 C 
ATOM     34  C   UNL     1      -8.335  38.833  -1.013  1.00  0.00     0.005 C 
ATOM     35  C   UNL     1     -10.691  35.889  -1.158  1.00  0.00     0.012 C 
ATOM     36  C   UNL     1     -10.676  38.259  -1.775  1.00  0.00     0.024 C 
ATOM     37  C   UNL     1      -8.669  38.847  -2.687  1.00  0.00     0.008 C 
ATOM     38  C   UNL     1     -10.138  38.246  -3.241  1.00  0.00    -0.017 C 
ATOM     39  C   UNL     1     -10.731  39.947  -1.680  1.00  0.00    -0.024 C 
ATOM     40  C   UNL     1      -9.714  36.916  -4.043  1.00  0.00     0.013 C 
ATOM     41  C   UNL     1     -11.551  38.832  -4.152  1.00  0.00     0.009 C 
ATOM     42  C   UNL     1     -11.868  40.541  -2.171  1.00  0.00     0.005 C 
ATOM     43  C   UNL     1     -12.477  40.181  -3.581  1.00  0.00     0.096 C 
ATOM     44  C   UNL     1     -11.318  39.272  -5.612  1.00  0.00     0.043 C 
ATOM     45  C   UNL     1     -12.521  37.554  -4.310  1.00  0.00     0.015 C 
ATOM     46  C   UNL     1     -14.190  40.091  -4.242  1.00  0.00     0.037 C 
ATOM     47  O   UNL     1     -11.935  41.399  -4.173  1.00  0.00    -0.369 OA
ATOM     48  C   UNL     1     -12.565  39.844  -6.388  1.00  0.00     0.124 C 
ATOM     49  C   UNL     1     -13.669  40.692  -5.603  1.00  0.00     0.026 C 
ATOM     50  C   UNL     1     -15.964  40.327  -4.031  1.00  0.00     0.014 C 
ATOM     51  C   UNL     1     -12.924  41.924  -5.011  1.00  0.00     0.171 C 
ATOM     52  C   UNL     1     -14.726  41.028  -6.664  1.00  0.00     0.013 C 
ATOM     53  C   UNL     1     -16.782  40.620  -5.339  1.00  0.00    -0.035 C 
ATOM     54  C   UNL     1     -15.980  41.640  -6.174  1.00  0.00     0.007 C 
ATOM     55  C   UNL     1     -17.226  39.337  -6.102  1.00  0.00     0.011 C 
ATOM     56  C   UNL     1     -18.125  41.353  -5.027  1.00  0.00     0.011 C 
BRANCH  29  57
ATOM     57  C   UNL     1     -12.503  38.953   0.336  1.00  0.00     0.165 C 
BRANCH  57  58
ATOM     58  O   UNL     1     -13.432  39.817   0.911  1.00  0.00    -0.396 OA
ATOM     59  H   UNL     1     -13.653  40.411   0.140  1.00  0.00     0.210 HD
ENDBRANCH  57  58
ENDBRANCH  29  57
BRANCH  48  60
ATOM     60  O   UNL     1     -12.026  40.635  -7.432  1.00  0.00    -0.392 OA
ATOM     61  H   UNL     1     -12.160  40.186  -8.291  1.00  0.00     0.210 HD
ENDBRANCH  48  60
ENDBRANCH  26  27
ENDBRANCH   6  26
BRANCH   5  62
ATOM     62  O   UNL     1     -14.495  37.917   4.734  1.00  0.00    -0.385 OA
ATOM     63  H   UNL     1     -14.683  37.837   5.697  1.00  0.00     0.211 HD
ENDBRANCH   5  62
TORSDOF 14
ENDMDL
MODEL 5
REMARK VINA RESULT:    -7.270      3.720     10.513
REMARK INTER + INTRA:         -13.905
REMARK INTER:                 -12.401
REMARK INTRA:                  -1.504
REMARK UNBOUND:                -2.385
REMARK SMILES C[C@H]1O[C@H](O[C@H]2CC[C@@]3(C)[C@@H](CC[C@@]4(C)[C@@H]3C=C[C@]35OC[C@@]6(CCC(C)(C)C[C@@H]63)[C@@H](O)C[C@@]45C)[C@@]2(C)CO)[C@H](O)[C@@H](O[C@H]2O[C@H](CO)[C@@H](O)[C@H](O)[C@H]2O)[C@@H]1O
REMARK SMILES IDX 1 1 2 2 54 3 41 4 39 5 4 6 3 7 55 8 42 10 43 11 52 12 44 13
REMARK SMILES IDX 50 14 45 15 48 16 53 17 51 19 46 21 47 22 49 24 5 26 6 27
REMARK SMILES IDX 7 28 35 29 8 30 11 31 36 32 9 33 12 34 10 35 16 36 13 37
REMARK SMILES IDX 14 38 17 39 15 40 33 41 18 42 19 43 32 44 34 45 29 46 20 47
REMARK SMILES IDX 30 48 22 49 28 50 21 51 23 52 25 53 24 54 26 55 27 56 37 57
REMARK SMILES IDX 38 58 31 60 40 62
REMARK H PARENT 55 9 53 18 51 20 47 23 49 25 38 59 31 61 40 63
REMARK Flexibility Score: inf
ROOT
ATOM      1  C   UNL     1      -3.922  39.698   1.683  1.00  0.00     0.041 C 
ATOM      2  C   UNL     1      -4.601  38.855   2.785  1.00  0.00     0.150 C 
ATOM      3  C   UNL     1      -4.021  37.402   2.808  1.00  0.00     0.175 C 
ATOM      4  C   UNL     1      -5.065  36.333   3.277  1.00  0.00     0.186 C 
ATOM      5  C   UNL     1      -6.435  36.506   2.532  1.00  0.00     0.202 C 
ATOM      6  C   UNL     1      -6.501  37.876   1.772  1.00  0.00     0.282 C 
ATOM      7  O   UNL     1      -6.025  38.869   2.650  1.00  0.00    -0.344 OA
ENDROOT
BRANCH   3   8
ATOM      8  O   UNL     1      -2.836  37.306   3.600  1.00  0.00    -0.388 OA
ATOM      9  H   UNL     1      -2.989  37.889   4.395  1.00  0.00     0.211 HD
ENDBRANCH   3   8
BRANCH   4  10
ATOM     10  O   UNL     1      -4.498  35.021   3.579  1.00  0.00    -0.341 OA
BRANCH  10  11
ATOM     11  C   UNL     1      -5.038  34.081   4.543  1.00  0.00     0.282 C 
ATOM     12  C   UNL     1      -4.100  34.013   5.843  1.00  0.00     0.202 C 
ATOM     13  O   UNL     1      -5.307  32.811   3.944  1.00  0.00    -0.341 OA
ATOM     14  C   UNL     1      -4.445  32.852   6.777  1.00  0.00     0.179 C 
ATOM     15  C   UNL     1      -4.666  31.685   4.542  1.00  0.00     0.178 C 
ATOM     16  C   UNL     1      -4.939  31.603   6.055  1.00  0.00     0.177 C 
BRANCH  12  17
ATOM     17  O   UNL     1      -2.758  33.811   5.411  1.00  0.00    -0.385 OA
ATOM     18  H   UNL     1      -2.287  33.455   6.201  1.00  0.00     0.211 HD
ENDBRANCH  12  17
BRANCH  14  19
ATOM     19  O   UNL     1      -5.328  33.120   7.783  1.00  0.00    -0.387 OA
ATOM     20  H   UNL     1      -4.860  32.887   8.652  1.00  0.00     0.211 HD
ENDBRANCH  14  19
BRANCH  15  21
ATOM     21  C   UNL     1      -5.267  30.410   3.898  1.00  0.00     0.191 C 
BRANCH  21  22
ATOM     22  O   UNL     1      -6.450  30.035   4.569  1.00  0.00    -0.394 OA
ATOM     23  H   UNL     1      -6.336  29.095   4.822  1.00  0.00     0.210 HD
ENDBRANCH  21  22
ENDBRANCH  15  21
BRANCH  16  24
ATOM     24  O   UNL     1      -4.199  30.507   6.521  1.00  0.00    -0.387 OA
ATOM     25  H   UNL     1      -3.998  29.939   5.731  1.00  0.00     0.211 HD
ENDBRANCH  16  24
ENDBRANCH  10  11
ENDBRANCH   4  10
BRANCH   6  26
ATOM     26  O   UNL     1      -7.825  38.206   1.355  1.00  0.00    -0.346 OA
BRANCH  26  27
ATOM     27  C   UNL     1      -8.163  37.586   0.042  1.00  0.00     0.130 C 
ATOM     28  C   UNL     1      -8.976  36.232   0.231  1.00  0.00     0.033 C 
ATOM     29  C   UNL     1      -8.586  38.647  -1.219  1.00  0.00     0.020 C 
ATOM     30  C   UNL     1      -9.463  35.506  -1.088  1.00  0.00     0.010 C 
ATOM     31  C   UNL     1      -8.879  37.427  -2.486  1.00  0.00     0.006 C 
ATOM     32  C   UNL     1      -7.329  39.483  -1.505  1.00  0.00     0.017 C 
ATOM     33  C   UNL     1     -10.196  36.764  -2.154  1.00  0.00    -0.022 C 
ATOM     34  C   UNL     1      -8.995  37.158  -4.202  1.00  0.00     0.005 C 
ATOM     35  C   UNL     1     -11.632  36.329  -1.633  1.00  0.00     0.012 C 
ATOM     36  C   UNL     1     -10.874  38.266  -2.924  1.00  0.00     0.024 C 
ATOM     37  C   UNL     1     -10.375  37.667  -5.069  1.00  0.00     0.008 C 
ATOM     38  C   UNL     1     -11.733  38.190  -4.226  1.00  0.00    -0.017 C 
ATOM     39  C   UNL     1      -9.967  39.592  -3.455  1.00  0.00    -0.024 C 
ATOM     40  C   UNL     1     -12.821  37.044  -4.532  1.00  0.00     0.013 C 
ATOM     41  C   UNL     1     -12.725  39.662  -4.095  1.00  0.00     0.009 C 
ATOM     42  C   UNL     1     -10.523  40.829  -3.237  1.00  0.00     0.005 C 
ATOM     43  C   UNL     1     -12.018  41.168  -3.611  1.00  0.00     0.096 C 
ATOM     44  C   UNL     1     -13.481  40.120  -5.358  1.00  0.00     0.043 C 
ATOM     45  C   UNL     1     -13.918  39.287  -3.075  1.00  0.00     0.015 C 
ATOM     46  C   UNL     1     -13.300  42.254  -2.865  1.00  0.00     0.037 C 
ATOM     47  O   UNL     1     -11.599  41.889  -4.808  1.00  0.00    -0.369 OA
ATOM     48  C   UNL     1     -14.310  41.457  -5.243  1.00  0.00     0.124 C 
ATOM     49  C   UNL     1     -13.776  42.645  -4.317  1.00  0.00     0.026 C 
ATOM     50  C   UNL     1     -13.797  43.474  -1.637  1.00  0.00     0.014 C 
ATOM     51  C   UNL     1     -12.384  43.044  -4.888  1.00  0.00     0.171 C 
ATOM     52  C   UNL     1     -14.851  43.734  -4.426  1.00  0.00     0.013 C 
ATOM     53  C   UNL     1     -14.974  44.429  -2.049  1.00  0.00    -0.035 C 
ATOM     54  C   UNL     1     -14.723  44.882  -3.502  1.00  0.00     0.007 C 
ATOM     55  C   UNL     1     -16.388  43.838  -1.769  1.00  0.00     0.011 C 
ATOM     56  C   UNL     1     -14.954  45.757  -1.226  1.00  0.00     0.011 C 
BRANCH  29  57
ATOM     57  C   UNL     1      -9.751  39.538  -0.601  1.00  0.00     0.165 C 
BRANCH  57  58
ATOM     58  O   UNL     1      -9.289  40.660   0.083  1.00  0.00    -0.396 OA
ATOM     59  H   UNL     1      -9.512  40.423   1.025  1.00  0.00     0.210 HD
ENDBRANCH  57  58
ENDBRANCH  29  57
BRANCH  48  60
ATOM     60  O   UNL     1     -14.444  41.929  -6.572  1.00  0.00    -0.392 OA
ATOM     61  H   UNL     1     -14.863  42.814  -6.569  1.00  0.00     0.210 HD
ENDBRANCH  48  60
ENDBRANCH  26  27
ENDBRANCH   6  26
BRANCH   5  62
ATOM     62  O   UNL     1      -7.501  36.433   3.462  1.00  0.00    -0.385 OA
ATOM     63  H   UNL     1      -7.698  35.476   3.581  1.00  0.00     0.211 HD
ENDBRANCH   5  62
TORSDOF 14
ENDMDL
MODEL 6
REMARK VINA RESULT:    -7.148      4.874     11.994
REMARK INTER + INTRA:         -13.713
REMARK INTER:                 -11.900
REMARK INTRA:                  -1.813
REMARK UNBOUND:                -2.385
REMARK SMILES C[C@H]1O[C@H](O[C@H]2CC[C@@]3(C)[C@@H](CC[C@@]4(C)[C@@H]3C=C[C@]35OC[C@@]6(CCC(C)(C)C[C@@H]63)[C@@H](O)C[C@@]45C)[C@@]2(C)CO)[C@H](O)[C@@H](O[C@H]2O[C@H](CO)[C@@H](O)[C@H](O)[C@H]2O)[C@@H]1O
REMARK SMILES IDX 1 1 2 2 54 3 41 4 39 5 4 6 3 7 55 8 42 10 43 11 52 12 44 13
REMARK SMILES IDX 50 14 45 15 48 16 53 17 51 19 46 21 47 22 49 24 5 26 6 27
REMARK SMILES IDX 7 28 35 29 8 30 11 31 36 32 9 33 12 34 10 35 16 36 13 37
REMARK SMILES IDX 14 38 17 39 15 40 33 41 18 42 19 43 32 44 34 45 29 46 20 47
REMARK SMILES IDX 30 48 22 49 28 50 21 51 23 52 25 53 24 54 26 55 27 56 37 57
REMARK SMILES IDX 38 58 31 60 40 62
REMARK H PARENT 55 9 53 18 51 20 47 23 49 25 38 59 31 61 40 63
REMARK Flexibility Score: inf
ROOT
ATOM      1  C   UNL     1      -9.159  40.313   3.909  1.00  0.00     0.041 C 
ATOM      2  C   UNL     1      -9.101  39.184   2.856  1.00  0.00     0.150 C 
ATOM      3  C   UNL     1     -10.219  39.375   1.777  1.00  0.00     0.175 C 
ATOM      4  C   UNL     1     -10.733  38.021   1.180  1.00  0.00     0.186 C 
ATOM      5  C   UNL     1     -11.050  36.981   2.312  1.00  0.00     0.202 C 
ATOM      6  C   UNL     1     -10.473  37.448   3.693  1.00  0.00     0.282 C 
ATOM      7  O   UNL     1      -9.155  37.893   3.470  1.00  0.00    -0.344 OA
ENDROOT
BRANCH   3   8
ATOM      8  O   UNL     1      -9.808  40.247   0.723  1.00  0.00    -0.388 OA
ATOM      9  H   UNL     1      -8.862  40.006   0.520  1.00  0.00     0.211 HD
ENDBRANCH   3   8
BRANCH   4  10
ATOM     10  O   UNL     1     -11.564  38.159  -0.012  1.00  0.00    -0.341 OA
BRANCH  10  11
ATOM     11  C   UNL     1     -11.308  37.514  -1.286  1.00  0.00     0.282 C 
ATOM     12  C   UNL     1     -10.256  38.370  -2.145  1.00  0.00     0.202 C 
ATOM     13  O   UNL     1     -12.523  37.211  -1.976  1.00  0.00    -0.341 OA
ATOM     14  C   UNL     1     -10.146  37.908  -3.599  1.00  0.00     0.179 C 
ATOM     15  C   UNL     1     -12.653  37.754  -3.288  1.00  0.00     0.178 C 
ATOM     16  C   UNL     1     -11.455  37.390  -4.185  1.00  0.00     0.177 C 
BRANCH  12  17
ATOM     17  O   UNL     1     -10.704  39.722  -2.173  1.00  0.00    -0.385 OA
ATOM     18  H   UNL     1     -11.616  39.680  -2.544  1.00  0.00     0.211 HD
ENDBRANCH  12  17
BRANCH  14  19
ATOM     19  O   UNL     1      -9.179  36.984  -3.874  1.00  0.00    -0.387 OA
ATOM     20  H   UNL     1      -8.484  37.451  -4.446  1.00  0.00     0.211 HD
ENDBRANCH  14  19
BRANCH  15  21
ATOM     21  C   UNL     1     -13.914  37.124  -3.932  1.00  0.00     0.191 C 
BRANCH  21  22
ATOM     22  O   UNL     1     -13.599  35.872  -4.499  1.00  0.00    -0.394 OA
ATOM     23  H   UNL     1     -12.984  36.053  -5.241  1.00  0.00     0.210 HD
ENDBRANCH  21  22
ENDBRANCH  15  21
BRANCH  16  24
ATOM     24  O   UNL     1     -11.675  38.042  -5.407  1.00  0.00    -0.387 OA
ATOM     25  H   UNL     1     -11.563  37.360  -6.121  1.00  0.00     0.211 HD
ENDBRANCH  16  24
ENDBRANCH  10  11
ENDBRANCH   4  10
BRANCH   6  26
ATOM     26  O   UNL     1     -10.463  36.401   4.663  1.00  0.00    -0.346 OA
BRANCH  26  27
ATOM     27  C   UNL     1     -11.117  36.818   5.936  1.00  0.00     0.130 C 
ATOM     28  C   UNL     1     -10.926  38.374   6.203  1.00  0.00     0.033 C 
ATOM     29  C   UNL     1     -12.602  36.080   6.311  1.00  0.00     0.020 C 
ATOM     30  C   UNL     1     -11.635  38.966   7.488  1.00  0.00     0.010 C 
ATOM     31  C   UNL     1     -12.914  36.913   7.856  1.00  0.00     0.006 C 
ATOM     32  C   UNL     1     -12.293  34.588   6.514  1.00  0.00     0.017 C 
ATOM     33  C   UNL     1     -13.322  38.326   7.513  1.00  0.00    -0.022 C 
ATOM     34  C   UNL     1     -13.802  36.851   9.352  1.00  0.00     0.005 C 
ATOM     35  C   UNL     1     -13.819  39.690   6.867  1.00  0.00     0.012 C 
ATOM     36  C   UNL     1     -14.926  37.531   7.194  1.00  0.00     0.024 C 
ATOM     37  C   UNL     1     -15.468  37.221   9.388  1.00  0.00     0.008 C 
ATOM     38  C   UNL     1     -16.192  37.899   8.031  1.00  0.00    -0.017 C 
ATOM     39  C   UNL     1     -15.225  35.866   7.247  1.00  0.00    -0.024 C 
ATOM     40  C   UNL     1     -16.561  39.389   8.516  1.00  0.00     0.013 C 
ATOM     41  C   UNL     1     -17.506  37.508   6.896  1.00  0.00     0.009 C 
ATOM     42  C   UNL     1     -16.080  35.377   6.290  1.00  0.00     0.005 C 
ATOM     43  C   UNL     1     -17.474  36.042   5.973  1.00  0.00     0.096 C 
ATOM     44  C   UNL     1     -18.936  37.427   7.469  1.00  0.00     0.043 C 
ATOM     45  C   UNL     1     -17.592  38.764   5.888  1.00  0.00     0.015 C 
ATOM     46  C   UNL     1     -18.469  36.242   4.440  1.00  0.00     0.037 C 
ATOM     47  O   UNL     1     -18.184  35.009   6.720  1.00  0.00    -0.369 OA
ATOM     48  C   UNL     1     -20.082  37.023   6.464  1.00  0.00     0.124 C 
ATOM     49  C   UNL     1     -19.776  35.988   5.285  1.00  0.00     0.026 C 
ATOM     50  C   UNL     1     -18.723  35.922   2.685  1.00  0.00     0.014 C 
ATOM     51  C   UNL     1     -19.320  34.671   5.976  1.00  0.00     0.171 C 
ATOM     52  C   UNL     1     -21.095  35.884   4.509  1.00  0.00     0.013 C 
ATOM     53  C   UNL     1     -20.214  35.922   2.192  1.00  0.00    -0.035 C 
ATOM     54  C   UNL     1     -21.051  35.145   3.229  1.00  0.00     0.007 C 
ATOM     55  C   UNL     1     -20.752  37.337   1.826  1.00  0.00     0.011 C 
ATOM     56  C   UNL     1     -20.385  35.105   0.872  1.00  0.00     0.011 C 
BRANCH  29  57
ATOM     57  C   UNL     1     -13.493  36.319   5.013  1.00  0.00     0.165 C 
BRANCH  57  58
ATOM     58  O   UNL     1     -13.509  35.233   4.143  1.00  0.00    -0.396 OA
ATOM     59  H   UNL     1     -12.551  34.956   4.154  1.00  0.00     0.210 HD
ENDBRANCH  57  58
ENDBRANCH  29  57
BRANCH  48  60
ATOM     60  O   UNL     1     -21.125  36.510   7.273  1.00  0.00    -0.392 OA
ATOM     61  H   UNL     1     -21.699  35.922   6.740  1.00  0.00     0.210 HD
ENDBRANCH  48  60
ENDBRANCH  26  27
ENDBRANCH   6  26
BRANCH   5  62
ATOM     62  O   UNL     1     -10.502  35.720   1.975  1.00  0.00    -0.385 OA
ATOM     63  H   UNL     1     -10.821  35.514   1.067  1.00  0.00     0.211 HD
ENDBRANCH   5  62
TORSDOF 14
ENDMDL
MODEL 7
REMARK VINA RESULT:    -7.108      4.092     10.844
REMARK INTER + INTRA:         -13.649
REMARK INTER:                 -11.546
REMARK INTRA:                  -2.103
REMARK UNBOUND:                -2.385
REMARK SMILES C[C@H]1O[C@H](O[C@H]2CC[C@@]3(C)[C@@H](CC[C@@]4(C)[C@@H]3C=C[C@]35OC[C@@]6(CCC(C)(C)C[C@@H]63)[C@@H](O)C[C@@]45C)[C@@]2(C)CO)[C@H](O)[C@@H](O[C@H]2O[C@H](CO)[C@@H](O)[C@H](O)[C@H]2O)[C@@H]1O
REMARK SMILES IDX 1 1 2 2 54 3 41 4 39 5 4 6 3 7 55 8 42 10 43 11 52 12 44 13
REMARK SMILES IDX 50 14 45 15 48 16 53 17 51 19 46 21 47 22 49 24 5 26 6 27
REMARK SMILES IDX 7 28 35 29 8 30 11 31 36 32 9 33 12 34 10 35 16 36 13 37
REMARK SMILES IDX 14 38 17 39 15 40 33 41 18 42 19 43 32 44 34 45 29 46 20 47
REMARK SMILES IDX 30 48 22 49 28 50 21 51 23 52 25 53 24 54 26 55 27 56 37 57
REMARK SMILES IDX 38 58 31 60 40 62
REMARK H PARENT 55 9 53 18 51 20 47 23 49 25 38 59 31 61 40 63
REMARK Flexibility Score: inf
ROOT
ATOM      1  C   UNL     1      -6.681  39.518   1.301  1.00  0.00     0.041 C 
ATOM      2  C   UNL     1      -6.663  38.544   2.499  1.00  0.00     0.150 C 
ATOM      3  C   UNL     1      -5.767  37.299   2.189  1.00  0.00     0.175 C 
ATOM      4  C   UNL     1      -6.252  35.998   2.913  1.00  0.00     0.186 C 
ATOM      5  C   UNL     1      -7.797  35.787   2.734  1.00  0.00     0.202 C 
ATOM      6  C   UNL     1      -8.487  37.075   2.167  1.00  0.00     0.282 C 
ATOM      7  O   UNL     1      -7.988  38.175   2.892  1.00  0.00    -0.344 OA
ENDROOT
BRANCH   3   8
ATOM      8  O   UNL     1      -4.390  37.538   2.486  1.00  0.00    -0.388 OA
ATOM      9  H   UNL     1      -3.903  37.452   1.620  1.00  0.00     0.211 HD
ENDBRANCH   3   8
BRANCH   4  10
ATOM     10  O   UNL     1      -5.300  34.891   2.877  1.00  0.00    -0.341 OA
BRANCH  10  11
ATOM     11  C   UNL     1      -4.485  34.456   3.995  1.00  0.00     0.282 C 
ATOM     12  C   UNL     1      -5.157  33.191   4.718  1.00  0.00     0.202 C 
ATOM     13  O   UNL     1      -4.177  35.542   4.874  1.00  0.00    -0.341 OA
ATOM     14  C   UNL     1      -4.510  32.849   6.061  1.00  0.00     0.179 C 
ATOM     15  C   UNL     1      -4.559  35.373   6.238  1.00  0.00     0.178 C 
ATOM     16  C   UNL     1      -4.007  34.064   6.834  1.00  0.00     0.177 C 
BRANCH  12  17
ATOM     17  O   UNL     1      -6.520  33.504   4.984  1.00  0.00    -0.385 OA
ATOM     18  H   UNL     1      -6.561  33.658   5.956  1.00  0.00     0.211 HD
ENDBRANCH  12  17
BRANCH  14  19
ATOM     19  O   UNL     1      -3.498  31.933   6.035  1.00  0.00    -0.387 OA
ATOM     20  H   UNL     1      -3.651  31.351   5.218  1.00  0.00     0.211 HD
ENDBRANCH  14  19
BRANCH  15  21
ATOM     21  C   UNL     1      -3.935  36.540   7.045  1.00  0.00     0.191 C 
BRANCH  21  22
ATOM     22  O   UNL     1      -2.662  36.174   7.529  1.00  0.00    -0.394 OA
ATOM     23  H   UNL     1      -2.198  35.738   6.783  1.00  0.00     0.210 HD
ENDBRANCH  21  22
ENDBRANCH  15  21
BRANCH  16  24
ATOM     24  O   UNL     1      -4.513  33.991   8.139  1.00  0.00    -0.387 OA
ATOM     25  H   UNL     1      -4.300  33.083   8.481  1.00  0.00     0.211 HD
ENDBRANCH  16  24
ENDBRANCH  10  11
ENDBRANCH   4  10
BRANCH   6  26
ATOM     26  O   UNL     1      -9.908  37.032   2.288  1.00  0.00    -0.346 OA
BRANCH  26  27
ATOM     27  C   UNL     1     -10.449  38.274   2.911  1.00  0.00     0.130 C 
ATOM     28  C   UNL     1     -10.807  39.366   1.812  1.00  0.00     0.033 C 
ATOM     29  C   UNL     1     -11.470  38.073   4.256  1.00  0.00     0.020 C 
ATOM     30  C   UNL     1     -11.461  40.710   2.333  1.00  0.00     0.010 C 
ATOM     31  C   UNL     1     -11.807  39.795   4.575  1.00  0.00     0.006 C 
ATOM     32  C   UNL     1     -10.602  37.443   5.356  1.00  0.00     0.017 C 
ATOM     33  C   UNL     1     -12.761  40.258   3.499  1.00  0.00    -0.022 C 
ATOM     34  C   UNL     1     -12.348  40.941   5.768  1.00  0.00     0.005 C 
ATOM     35  C   UNL     1     -13.828  40.435   2.334  1.00  0.00     0.012 C 
ATOM     36  C   UNL     1     -13.986  39.439   4.566  1.00  0.00     0.024 C 
ATOM     37  C   UNL     1     -14.002  41.055   6.176  1.00  0.00     0.008 C 
ATOM     38  C   UNL     1     -15.140  40.247   5.240  1.00  0.00    -0.017 C 
ATOM     39  C   UNL     1     -13.633  38.545   5.959  1.00  0.00    -0.024 C 
ATOM     40  C   UNL     1     -15.949  41.443   4.528  1.00  0.00     0.013 C 
ATOM     41  C   UNL     1     -16.385  38.993   5.456  1.00  0.00     0.009 C 
ATOM     42  C   UNL     1     -14.392  37.419   6.160  1.00  0.00     0.005 C 
ATOM     43  C   UNL     1     -15.966  37.420   6.052  1.00  0.00     0.096 C 
ATOM     44  C   UNL     1     -17.566  39.322   6.391  1.00  0.00     0.043 C 
ATOM     45  C   UNL     1     -17.096  38.840   4.016  1.00  0.00     0.015 C 
ATOM     46  C   UNL     1     -17.203  36.184   5.487  1.00  0.00     0.037 C 
ATOM     47  O   UNL     1     -16.108  37.423   7.504  1.00  0.00    -0.369 OA
ATOM     48  C   UNL     1     -18.631  38.182   6.619  1.00  0.00     0.124 C 
ATOM     49  C   UNL     1     -18.163  36.653   6.646  1.00  0.00     0.026 C 
ATOM     50  C   UNL     1     -17.608  34.530   4.899  1.00  0.00     0.014 C 
ATOM     51  C   UNL     1     -17.144  36.536   7.816  1.00  0.00     0.171 C 
ATOM     52  C   UNL     1     -19.460  35.856   6.841  1.00  0.00     0.013 C 
ATOM     53  C   UNL     1     -19.053  34.013   5.233  1.00  0.00    -0.035 C 
ATOM     54  C   UNL     1     -19.358  34.388   6.698  1.00  0.00     0.007 C 
ATOM     55  C   UNL     1     -20.130  34.448   4.196  1.00  0.00     0.011 C 
ATOM     56  C   UNL     1     -19.126  32.452   5.214  1.00  0.00     0.011 C 
BRANCH  29  57
ATOM     57  C   UNL     1     -12.589  37.061   3.745  1.00  0.00     0.165 C 
BRANCH  57  58
ATOM     58  O   UNL     1     -12.312  35.730   4.045  1.00  0.00    -0.396 OA
ATOM     59  H   UNL     1     -12.408  35.727   5.037  1.00  0.00     0.210 HD
ENDBRANCH  57  58
ENDBRANCH  29  57
BRANCH  48  60
ATOM     60  O   UNL     1     -19.259  38.497   7.848  1.00  0.00    -0.392 OA
ATOM     61  H   UNL     1     -20.226  38.360   7.770  1.00  0.00     0.210 HD
ENDBRANCH  48  60
ENDBRANCH  26  27
ENDBRANCH   6  26
BRANCH   5  62
ATOM     62  O   UNL     1      -8.384  35.447   3.977  1.00  0.00    -0.385 OA
ATOM     63  H   UNL     1      -7.845  35.895   4.668  1.00  0.00     0.211 HD
ENDBRANCH   5  62
TORSDOF 14
ENDMDL
MODEL 8
REMARK VINA RESULT:    -7.100      4.446      9.884
REMARK INTER + INTRA:         -13.636
REMARK INTER:                 -11.608
REMARK INTRA:                  -2.027
REMARK UNBOUND:                -2.385
REMARK SMILES C[C@H]1O[C@H](O[C@H]2CC[C@@]3(C)[C@@H](CC[C@@]4(C)[C@@H]3C=C[C@]35OC[C@@]6(CCC(C)(C)C[C@@H]63)[C@@H](O)C[C@@]45C)[C@@]2(C)CO)[C@H](O)[C@@H](O[C@H]2O[C@H](CO)[C@@H](O)[C@H](O)[C@H]2O)[C@@H]1O
REMARK SMILES IDX 1 1 2 2 54 3 41 4 39 5 4 6 3 7 55 8 42 10 43 11 52 12 44 13
REMARK SMILES IDX 50 14 45 15 48 16 53 17 51 19 46 21 47 22 49 24 5 26 6 27
REMARK SMILES IDX 7 28 35 29 8 30 11 31 36 32 9 33 12 34 10 35 16 36 13 37
REMARK SMILES IDX 14 38 17 39 15 40 33 41 18 42 19 43 32 44 34 45 29 46 20 47
REMARK SMILES IDX 30 48 22 49 28 50 21 51 23 52 25 53 24 54 26 55 27 56 37 57
REMARK SMILES IDX 38 58 31 60 40 62
REMARK H PARENT 55 9 53 18 51 20 47 23 49 25 38 59 31 61 40 63
REMARK Flexibility Score: inf
ROOT
ATOM      1  C   UNL     1     -12.161  37.372   8.655  1.00  0.00     0.041 C 
ATOM      2  C   UNL     1     -13.318  38.261   8.148  1.00  0.00     0.150 C 
ATOM      3  C   UNL     1     -14.453  37.387   7.516  1.00  0.00     0.175 C 
ATOM      4  C   UNL     1     -15.224  38.121   6.367  1.00  0.00     0.186 C 
ATOM      5  C   UNL     1     -14.233  38.789   5.350  1.00  0.00     0.202 C 
ATOM      6  C   UNL     1     -12.772  38.824   5.916  1.00  0.00     0.282 C 
ATOM      7  O   UNL     1     -12.848  39.270   7.250  1.00  0.00    -0.344 OA
ENDROOT
BRANCH   3   8
ATOM      8  O   UNL     1     -15.376  36.911   8.496  1.00  0.00    -0.388 OA
ATOM      9  H   UNL     1     -15.062  37.274   9.369  1.00  0.00     0.211 HD
ENDBRANCH   3   8
BRANCH   4  10
ATOM     10  O   UNL     1     -16.454  37.459   5.942  1.00  0.00    -0.341 OA
BRANCH  10  11
ATOM     11  C   UNL     1     -16.542  36.097   5.451  1.00  0.00     0.282 C 
ATOM     12  C   UNL     1     -17.409  36.043   4.102  1.00  0.00     0.202 C 
ATOM     13  O   UNL     1     -16.983  35.198   6.472  1.00  0.00    -0.341 OA
ATOM     14  C   UNL     1     -17.778  34.621   3.677  1.00  0.00     0.179 C 
ATOM     15  C   UNL     1     -18.151  34.434   6.174  1.00  0.00     0.178 C 
ATOM     16  C   UNL     1     -18.016  33.669   4.844  1.00  0.00     0.177 C 
BRANCH  12  17
ATOM     17  O   UNL     1     -18.632  36.736   4.334  1.00  0.00    -0.385 OA
ATOM     18  H   UNL     1     -18.405  37.442   4.984  1.00  0.00     0.211 HD
ENDBRANCH  12  17
BRANCH  14  19
ATOM     19  O   UNL     1     -16.924  34.002   2.811  1.00  0.00    -0.387 OA
ATOM     20  H   UNL     1     -16.208  33.557   3.375  1.00  0.00     0.211 HD
ENDBRANCH  14  19
BRANCH  15  21
ATOM     21  C   UNL     1     -18.316  33.378   7.295  1.00  0.00     0.191 C 
BRANCH  21  22
ATOM     22  O   UNL     1     -17.634  32.192   6.954  1.00  0.00    -0.394 OA
ATOM     23  H   UNL     1     -16.843  32.467   6.442  1.00  0.00     0.210 HD
ENDBRANCH  21  22
ENDBRANCH  15  21
BRANCH  16  24
ATOM     24  O   UNL     1     -19.247  33.028   4.642  1.00  0.00    -0.387 OA
ATOM     25  H   UNL     1     -19.097  32.059   4.806  1.00  0.00     0.211 HD
ENDBRANCH  16  24
ENDBRANCH  10  11
ENDBRANCH   4  10
BRANCH   6  26
ATOM     26  O   UNL     1     -11.918  39.693   5.173  1.00  0.00    -0.346 OA
BRANCH  26  27
ATOM     27  C   UNL     1     -10.767  38.960   4.573  1.00  0.00     0.130 C 
ATOM     28  C   UNL     1     -10.841  37.403   4.893  1.00  0.00     0.033 C 
ATOM     29  C   UNL     1     -10.247  39.475   3.038  1.00  0.00     0.020 C 
ATOM     30  C   UNL     1      -9.716  36.493   4.253  1.00  0.00     0.010 C 
ATOM     31  C   UNL     1      -8.919  38.307   2.817  1.00  0.00     0.006 C 
ATOM     32  C   UNL     1      -9.727  40.909   3.228  1.00  0.00     0.017 C 
ATOM     33  C   UNL     1      -9.560  36.971   2.520  1.00  0.00    -0.022 C 
ATOM     34  C   UNL     1      -7.448  37.972   1.948  1.00  0.00     0.005 C 
ATOM     35  C   UNL     1     -10.486  35.742   2.127  1.00  0.00     0.012 C 
ATOM     36  C   UNL     1      -9.707  37.682   0.852  1.00  0.00     0.024 C 
ATOM     37  C   UNL     1      -7.499  37.467   0.318  1.00  0.00     0.008 C 
ATOM     38  C   UNL     1      -8.973  37.040  -0.368  1.00  0.00    -0.017 C 
ATOM     39  C   UNL     1      -9.298  39.266   0.420  1.00  0.00    -0.024 C 
ATOM     40  C   UNL     1      -8.822  35.455  -0.608  1.00  0.00     0.013 C 
ATOM     41  C   UNL     1     -10.002  37.556  -1.725  1.00  0.00     0.009 C 
ATOM     42  C   UNL     1     -10.130  39.878  -0.485  1.00  0.00     0.005 C 
ATOM     43  C   UNL     1     -10.588  39.184  -1.825  1.00  0.00     0.096 C 
ATOM     44  C   UNL     1      -9.430  37.394  -3.148  1.00  0.00     0.043 C 
ATOM     45  C   UNL     1     -11.258  36.543  -1.723  1.00  0.00     0.015 C 
ATOM     46  C   UNL     1     -12.132  39.236  -2.822  1.00  0.00     0.037 C 
ATOM     47  O   UNL     1      -9.638  39.970  -2.606  1.00  0.00    -0.369 OA
ATOM     48  C   UNL     1     -10.329  37.908  -4.338  1.00  0.00     0.124 C 
ATOM     49  C   UNL     1     -11.257  39.194  -4.133  1.00  0.00     0.026 C 
ATOM     50  C   UNL     1     -13.777  39.904  -3.126  1.00  0.00     0.014 C 
ATOM     51  C   UNL     1     -10.296  40.365  -3.776  1.00  0.00     0.171 C 
ATOM     52  C   UNL     1     -11.997  39.353  -5.468  1.00  0.00     0.013 C 
ATOM     53  C   UNL     1     -14.265  39.886  -4.619  1.00  0.00    -0.035 C 
ATOM     54  C   UNL     1     -13.088  40.351  -5.501  1.00  0.00     0.007 C 
ATOM     55  C   UNL     1     -14.928  38.544  -5.046  1.00  0.00     0.011 C 
ATOM     56  C   UNL     1     -15.378  40.952  -4.874  1.00  0.00     0.011 C 
BRANCH  29  57
ATOM     57  C   UNL     1     -11.570  39.447   2.152  1.00  0.00     0.165 C 
BRANCH  57  58
ATOM     58  O   UNL     1     -12.337  40.604   2.264  1.00  0.00    -0.396 OA
ATOM     59  H   UNL     1     -11.768  41.162   2.863  1.00  0.00     0.210 HD
ENDBRANCH  57  58
ENDBRANCH  29  57
BRANCH  48  60
ATOM     60  O   UNL     1      -9.432  38.148  -5.407  1.00  0.00    -0.392 OA
ATOM     61  H   UNL     1      -9.934  38.395  -6.211  1.00  0.00     0.210 HD
ENDBRANCH  48  60
ENDBRANCH  26  27
ENDBRANCH   6  26
BRANCH   5  62
ATOM     62  O   UNL     1     -14.657  40.109   5.061  1.00  0.00    -0.385 OA
ATOM     63  H   UNL     1     -14.199  40.694   5.706  1.00  0.00     0.211 HD
ENDBRANCH   5  62
TORSDOF 14
ENDMDL
MODEL 9
REMARK VINA RESULT:    -7.001      3.851     10.696
REMARK INTER + INTRA:         -13.479
REMARK INTER:                 -12.180
REMARK INTRA:                  -1.299
REMARK UNBOUND:                -2.385
REMARK SMILES C[C@H]1O[C@H](O[C@H]2CC[C@@]3(C)[C@@H](CC[C@@]4(C)[C@@H]3C=C[C@]35OC[C@@]6(CCC(C)(C)C[C@@H]63)[C@@H](O)C[C@@]45C)[C@@]2(C)CO)[C@H](O)[C@@H](O[C@H]2O[C@H](CO)[C@@H](O)[C@H](O)[C@H]2O)[C@@H]1O
REMARK SMILES IDX 1 1 2 2 54 3 41 4 39 5 4 6 3 7 55 8 42 10 43 11 52 12 44 13
REMARK SMILES IDX 50 14 45 15 48 16 53 17 51 19 46 21 47 22 49 24 5 26 6 27
REMARK SMILES IDX 7 28 35 29 8 30 11 31 36 32 9 33 12 34 10 35 16 36 13 37
REMARK SMILES IDX 14 38 17 39 15 40 33 41 18 42 19 43 32 44 34 45 29 46 20 47
REMARK SMILES IDX 30 48 22 49 28 50 21 51 23 52 25 53 24 54 26 55 27 56 37 57
REMARK SMILES IDX 38 58 31 60 40 62
REMARK H PARENT 55 9 53 18 51 20 47 23 49 25 38 59 31 61 40 63
REMARK Flexibility Score: inf
ROOT
ATOM      1  C   UNL     1      -5.603  37.039   2.517  1.00  0.00     0.041 C 
ATOM      2  C   UNL     1      -6.436  36.034   1.691  1.00  0.00     0.150 C 
ATOM      3  C   UNL     1      -6.741  36.606   0.266  1.00  0.00     0.175 C 
ATOM      4  C   UNL     1      -8.103  36.100  -0.319  1.00  0.00     0.186 C 
ATOM      5  C   UNL     1      -9.262  36.234   0.731  1.00  0.00     0.202 C 
ATOM      6  C   UNL     1      -8.700  36.527   2.165  1.00  0.00     0.282 C 
ATOM      7  O   UNL     1      -7.625  35.645   2.385  1.00  0.00    -0.344 OA
ENDROOT
BRANCH   3   8
ATOM      8  O   UNL     1      -5.685  36.343  -0.658  1.00  0.00    -0.388 OA
ATOM      9  H   UNL     1      -4.848  36.655  -0.216  1.00  0.00     0.211 HD
ENDBRANCH   3   8
BRANCH   4  10
ATOM     10  O   UNL     1      -8.296  36.380  -1.739  1.00  0.00    -0.341 OA
BRANCH  10  11
ATOM     11  C   UNL     1      -9.578  36.403  -2.417  1.00  0.00     0.282 C 
ATOM     12  C   UNL     1      -9.428  37.058  -3.874  1.00  0.00     0.202 C 
ATOM     13  O   UNL     1     -10.592  37.001  -1.604  1.00  0.00    -0.341 OA
ATOM     14  C   UNL     1     -10.771  37.370  -4.538  1.00  0.00     0.179 C 
ATOM     15  C   UNL     1     -11.276  38.116  -2.173  1.00  0.00     0.178 C 
ATOM     16  C   UNL     1     -11.862  37.788  -3.558  1.00  0.00     0.177 C 
BRANCH  12  17
ATOM     17  O   UNL     1      -8.738  38.296  -3.735  1.00  0.00    -0.385 OA
ATOM     18  H   UNL     1      -8.205  38.198  -2.912  1.00  0.00     0.211 HD
ENDBRANCH  12  17
BRANCH  14  19
ATOM     19  O   UNL     1     -11.293  36.400  -5.344  1.00  0.00    -0.387 OA
ATOM     20  H   UNL     1     -12.292  36.378  -5.165  1.00  0.00     0.211 HD
ENDBRANCH  14  19
BRANCH  15  21
ATOM     21  C   UNL     1     -12.467  38.457  -1.241  1.00  0.00     0.191 C 
BRANCH  21  22
ATOM     22  O   UNL     1     -12.717  39.844  -1.256  1.00  0.00    -0.394 OA
ATOM     23  H   UNL     1     -13.171  40.033  -2.105  1.00  0.00     0.210 HD
ENDBRANCH  21  22
ENDBRANCH  15  21
BRANCH  16  24
ATOM     24  O   UNL     1     -12.436  38.980  -4.026  1.00  0.00    -0.387 OA
ATOM     25  H   UNL     1     -13.331  39.054  -3.602  1.00  0.00     0.211 HD
ENDBRANCH  16  24
ENDBRANCH  10  11
ENDBRANCH   4  10
BRANCH   6  26
ATOM     26  O   UNL     1      -9.682  36.343   3.184  1.00  0.00    -0.346 OA
BRANCH  26  27
ATOM     27  C   UNL     1     -10.243  37.641   3.656  1.00  0.00     0.130 C 
ATOM     28  C   UNL     1     -10.393  38.677   2.458  1.00  0.00     0.033 C 
ATOM     29  C   UNL     1     -11.448  37.565   4.853  1.00  0.00     0.020 C 
ATOM     30  C   UNL     1     -11.047  40.075   2.807  1.00  0.00     0.010 C 
ATOM     31  C   UNL     1     -11.742  39.315   5.026  1.00  0.00     0.006 C 
ATOM     32  C   UNL     1     -10.770  36.970   6.097  1.00  0.00     0.017 C 
ATOM     33  C   UNL     1     -12.515  39.749   3.802  1.00  0.00    -0.022 C 
ATOM     34  C   UNL     1     -12.385  40.554   6.066  1.00  0.00     0.005 C 
ATOM     35  C   UNL     1     -13.401  39.897   2.492  1.00  0.00     0.012 C 
ATOM     36  C   UNL     1     -13.913  39.047   4.731  1.00  0.00     0.024 C 
ATOM     37  C   UNL     1     -14.072  40.759   6.231  1.00  0.00     0.008 C 
ATOM     38  C   UNL     1     -15.109  39.941   5.191  1.00  0.00    -0.017 C 
ATOM     39  C   UNL     1     -13.799  38.228   6.207  1.00  0.00    -0.024 C 
ATOM     40  C   UNL     1     -15.753  41.123   4.308  1.00  0.00     0.013 C 
ATOM     41  C   UNL     1     -16.430  38.753   5.300  1.00  0.00     0.009 C 
ATOM     42  C   UNL     1     -14.632  37.147   6.362  1.00  0.00     0.005 C 
ATOM     43  C   UNL     1     -16.173  37.205   6.035  1.00  0.00     0.096 C 
ATOM     44  C   UNL     1     -17.712  39.187   6.041  1.00  0.00     0.043 C 
ATOM     45  C   UNL     1     -16.943  38.540   3.785  1.00  0.00     0.015 C 
ATOM     46  C   UNL     1     -17.380  35.987   5.372  1.00  0.00     0.037 C 
ATOM     47  O   UNL     1     -16.514  37.303   7.450  1.00  0.00    -0.369 OA
ATOM     48  C   UNL     1     -18.851  38.107   6.180  1.00  0.00     0.124 C 
ATOM     49  C   UNL     1     -18.467  36.565   6.357  1.00  0.00     0.026 C 
ATOM     50  C   UNL     1     -17.780  34.318   4.826  1.00  0.00     0.014 C 
ATOM     51  C   UNL     1     -17.624  36.480   7.663  1.00  0.00     0.171 C 
ATOM     52  C   UNL     1     -19.814  35.834   6.412  1.00  0.00     0.013 C 
ATOM     53  C   UNL     1     -19.280  33.880   4.982  1.00  0.00    -0.035 C 
ATOM     54  C   UNL     1     -19.765  34.357   6.367  1.00  0.00     0.007 C 
ATOM     55  C   UNL     1     -20.182  34.294   3.782  1.00  0.00     0.011 C 
ATOM     56  C   UNL     1     -19.425  32.326   5.040  1.00  0.00     0.011 C 
BRANCH  29  57
ATOM     57  C   UNL     1     -12.533  36.569   4.247  1.00  0.00     0.165 C 
BRANCH  57  58
ATOM     58  O   UNL     1     -12.359  35.247   4.649  1.00  0.00    -0.396 OA
ATOM     59  H   UNL     1     -11.393  35.243   4.898  1.00  0.00     0.210 HD
ENDBRANCH  57  58
ENDBRANCH  29  57
BRANCH  48  60
ATOM     60  O   UNL     1     -19.627  38.523   7.290  1.00  0.00    -0.392 OA
ATOM     61  H   UNL     1     -19.625  37.824   7.976  1.00  0.00     0.210 HD
ENDBRANCH  48  60
ENDBRANCH  26  27
ENDBRANCH   6  26
BRANCH   5  62
ATOM     62  O   UNL     1     -10.026  35.042   0.760  1.00  0.00    -0.385 OA
ATOM     63  H   UNL     1     -10.249  34.834  -0.176  1.00  0.00     0.211 HD
ENDBRANCH   5  62
TORSDOF 14
ENDMDL
