MODEL 1
REMARK VINA RESULT:    -5.170      0.000      0.000
REMARK INTER + INTRA:          -6.210
REMARK INTER:                  -6.077
REMARK INTRA:                  -0.133
REMARK UNBOUND:                -0.133
REMARK SMILES O=C([O-])C=Cc1ccc(O)c(O)c1
REMARK SMILES IDX 6 1 13 2 7 3 11 4 8 5 9 6 5 7 4 8 2 9 1 10 3 11 12 12 10 14
REMARK H PARENT 12 13 10 15
REMARK Flexibility Score: inf
ROOT
ATOM      1  C   UNL     1       9.552  -7.141  -8.152  1.00  0.00    -0.022 A 
ATOM      2  C   UNL     1      10.312  -6.273  -7.351  1.00  0.00     0.058 A 
ATOM      3  C   UNL     1       8.188  -7.313  -7.859  1.00  0.00     0.012 A 
ATOM      4  C   UNL     1       9.729  -5.567  -6.291  1.00  0.00     0.157 A 
ATOM      5  C   UNL     1       7.598  -6.613  -6.804  1.00  0.00     0.051 A 
ATOM      6  C   UNL     1       8.352  -5.737  -6.017  1.00  0.00     0.157 A 
ENDROOT
BRANCH   1   7
ATOM      7  C   UNL     1      10.231  -7.868  -9.253  1.00  0.00     0.010 C 
ATOM      8  C   UNL     1      11.403  -7.491  -9.785  1.00  0.00     0.025 C 
BRANCH   8   9
ATOM      9  C   UNL     1      12.052  -8.244 -10.871  1.00  0.00     0.064 C 
ATOM     10  O   UNL     1      13.039  -7.768 -11.495  1.00  0.00    -0.545 OA
ATOM     11  O   UNL     1      11.570  -9.499 -11.213  1.00  0.00    -0.545 OA
ENDBRANCH   8   9
ENDBRANCH   1   7
BRANCH   4  12
ATOM     12  O   UNL     1      10.547  -4.716  -5.545  1.00  0.00    -0.504 OA
ATOM     13  H   UNL     1      10.463  -3.711  -5.544  1.00  0.00     0.293 HD
ENDBRANCH   4  12
BRANCH   6  14
ATOM     14  O   UNL     1       7.700  -5.065  -4.981  1.00  0.00    -0.504 OA
ATOM     15  H   UNL     1       8.017  -4.191  -4.587  1.00  0.00     0.293 HD
ENDBRANCH   6  14
TORSDOF 4
ENDMDL
MODEL 2
REMARK VINA RESULT:    -5.141      2.401      3.466
REMARK INTER + INTRA:          -6.176
REMARK INTER:                  -6.036
REMARK INTRA:                  -0.140
REMARK UNBOUND:                -0.133
REMARK SMILES O=C([O-])C=Cc1ccc(O)c(O)c1
REMARK SMILES IDX 6 1 13 2 7 3 11 4 8 5 9 6 5 7 4 8 2 9 1 10 3 11 12 12 10 14
REMARK H PARENT 12 13 10 15
REMARK Flexibility Score: inf
ROOT
ATOM      1  C   UNL     1       8.410  -7.217  -8.283  1.00  0.00    -0.022 A 
ATOM      2  C   UNL     1       7.710  -6.586  -7.243  1.00  0.00     0.058 A 
ATOM      3  C   UNL     1       9.795  -6.998  -8.399  1.00  0.00     0.012 A 
ATOM      4  C   UNL     1       8.371  -5.771  -6.314  1.00  0.00     0.157 A 
ATOM      5  C   UNL     1      10.461  -6.188  -7.478  1.00  0.00     0.051 A 
ATOM      6  C   UNL     1       9.766  -5.572  -6.432  1.00  0.00     0.157 A 
ENDROOT
BRANCH   1   7
ATOM      7  C   UNL     1       7.652  -8.060  -9.241  1.00  0.00     0.010 C 
ATOM      8  C   UNL     1       7.910  -8.111 -10.556  1.00  0.00     0.025 C 
BRANCH   8   9
ATOM      9  C   UNL     1       7.143  -8.968 -11.475  1.00  0.00     0.064 C 
ATOM     10  O   UNL     1       6.108  -9.575 -11.089  1.00  0.00    -0.545 OA
ATOM     11  O   UNL     1       7.566  -9.109 -12.789  1.00  0.00    -0.545 OA
ENDBRANCH   8   9
ENDBRANCH   1   7
BRANCH   4  12
ATOM     12  O   UNL     1       7.609  -5.185  -5.302  1.00  0.00    -0.504 OA
ATOM     13  H   UNL     1       7.618  -4.199  -5.087  1.00  0.00     0.293 HD
ENDBRANCH   4  12
BRANCH   6  14
ATOM     14  O   UNL     1      10.494  -4.778  -5.543  1.00  0.00    -0.504 OA
ATOM     15  H   UNL     1      11.461  -4.522  -5.677  1.00  0.00     0.293 HD
ENDBRANCH   6  14
TORSDOF 4
ENDMDL
MODEL 3
REMARK VINA RESULT:    -4.995      2.558      2.952
REMARK INTER + INTRA:          -6.004
REMARK INTER:                  -5.870
REMARK INTRA:                  -0.134
REMARK UNBOUND:                -0.133
REMARK SMILES O=C([O-])C=Cc1ccc(O)c(O)c1
REMARK SMILES IDX 6 1 13 2 7 3 11 4 8 5 9 6 5 7 4 8 2 9 1 10 3 11 12 12 10 14
REMARK H PARENT 12 13 10 15
REMARK Flexibility Score: inf
ROOT
ATOM      1  C   UNL     1       7.992  -6.923  -7.753  1.00  0.00    -0.022 A 
ATOM      2  C   UNL     1       8.384  -5.753  -7.083  1.00  0.00     0.058 A 
ATOM      3  C   UNL     1       7.596  -8.039  -6.994  1.00  0.00     0.012 A 
ATOM      4  C   UNL     1       8.361  -5.676  -5.684  1.00  0.00     0.157 A 
ATOM      5  C   UNL     1       7.571  -7.971  -5.599  1.00  0.00     0.051 A 
ATOM      6  C   UNL     1       7.946  -6.800  -4.933  1.00  0.00     0.157 A 
ENDROOT
BRANCH   1   7
ATOM      7  C   UNL     1       8.047  -6.945  -9.236  1.00  0.00     0.010 C 
ATOM      8  C   UNL     1       8.389  -5.886  -9.985  1.00  0.00     0.025 C 
BRANCH   8   9
ATOM      9  C   UNL     1       8.443  -5.948 -11.455  1.00  0.00     0.064 C 
ATOM     10  O   UNL     1       9.109  -6.841 -12.046  1.00  0.00    -0.545 OA
ATOM     11  O   UNL     1       7.749  -5.008 -12.204  1.00  0.00    -0.545 OA
ENDBRANCH   8   9
ENDBRANCH   1   7
BRANCH   4  12
ATOM     12  O   UNL     1       8.757  -4.476  -5.091  1.00  0.00    -0.504 OA
ATOM     13  H   UNL     1       9.661  -4.326  -4.668  1.00  0.00     0.293 HD
ENDBRANCH   4  12
BRANCH   6  14
ATOM     14  O   UNL     1       7.894  -6.798  -3.537  1.00  0.00    -0.504 OA
ATOM     15  H   UNL     1       7.754  -7.625  -2.976  1.00  0.00     0.293 HD
ENDBRANCH   6  14
TORSDOF 4
ENDMDL
MODEL 4
REMARK VINA RESULT:    -4.950     14.222     17.428
REMARK INTER + INTRA:          -5.951
REMARK INTER:                  -5.819
REMARK INTRA:                  -0.132
REMARK UNBOUND:                -0.133
REMARK SMILES O=C([O-])C=Cc1ccc(O)c(O)c1
REMARK SMILES IDX 6 1 13 2 7 3 11 4 8 5 9 6 5 7 4 8 2 9 1 10 3 11 12 12 10 14
REMARK H PARENT 12 13 10 15
REMARK Flexibility Score: inf
ROOT
ATOM      1  C   UNL     1      19.928  -0.700 -19.903  1.00  0.00    -0.022 A 
ATOM      2  C   UNL     1      20.407   0.620 -19.913  1.00  0.00     0.058 A 
ATOM      3  C   UNL     1      20.235  -1.539 -20.989  1.00  0.00     0.012 A 
ATOM      4  C   UNL     1      21.199   1.097 -20.965  1.00  0.00     0.157 A 
ATOM      5  C   UNL     1      21.024  -1.072 -22.042  1.00  0.00     0.051 A 
ATOM      6  C   UNL     1      21.514   0.238 -22.043  1.00  0.00     0.157 A 
ENDROOT
BRANCH   1   7
ATOM      7  C   UNL     1      19.086  -1.142 -18.765  1.00  0.00     0.010 C 
ATOM      8  C   UNL     1      19.086  -0.548 -17.562  1.00  0.00     0.025 C 
BRANCH   8   9
ATOM      9  C   UNL     1      18.228  -1.009 -16.458  1.00  0.00     0.064 C 
ATOM     10  O   UNL     1      17.638  -0.188 -15.705  1.00  0.00    -0.545 OA
ATOM     11  O   UNL     1      18.064  -2.370 -16.244  1.00  0.00    -0.545 OA
ENDBRANCH   8   9
ENDBRANCH   1   7
BRANCH   4  12
ATOM     12  O   UNL     1      21.645   2.418 -20.899  1.00  0.00    -0.504 OA
ATOM     13  H   UNL     1      22.276   2.835 -21.567  1.00  0.00     0.293 HD
ENDBRANCH   4  12
BRANCH   6  14
ATOM     14  O   UNL     1      22.300   0.640 -23.125  1.00  0.00    -0.504 OA
ATOM     15  H   UNL     1      22.178   1.513 -23.618  1.00  0.00     0.293 HD
ENDBRANCH   6  14
TORSDOF 4
ENDMDL
MODEL 5
REMARK VINA RESULT:    -4.815      4.426      4.915
REMARK INTER + INTRA:          -5.793
REMARK INTER:                  -5.664
REMARK INTRA:                  -0.129
REMARK UNBOUND:                -0.133
REMARK SMILES O=C([O-])C=Cc1ccc(O)c(O)c1
REMARK SMILES IDX 6 1 13 2 7 3 11 4 8 5 9 6 5 7 4 8 2 9 1 10 3 11 12 12 10 14
REMARK H PARENT 12 13 10 15
REMARK Flexibility Score: inf
ROOT
ATOM      1  C   UNL     1       8.796  -5.479 -10.531  1.00  0.00    -0.022 A 
ATOM      2  C   UNL     1       8.042  -5.279  -9.364  1.00  0.00     0.058 A 
ATOM      3  C   UNL     1      10.143  -5.865 -10.410  1.00  0.00     0.012 A 
ATOM      4  C   UNL     1       8.601  -5.482  -8.095  1.00  0.00     0.157 A 
ATOM      5  C   UNL     1      10.709  -6.068  -9.149  1.00  0.00     0.051 A 
ATOM      6  C   UNL     1       9.952  -5.885  -7.987  1.00  0.00     0.157 A 
ENDROOT
BRANCH   1   7
ATOM      7  C   UNL     1       8.149  -5.239 -11.844  1.00  0.00     0.010 C 
ATOM      8  C   UNL     1       7.763  -4.028 -12.275  1.00  0.00     0.025 C 
BRANCH   8   9
ATOM      9  C   UNL     1       7.133  -3.826 -13.590  1.00  0.00     0.064 C 
ATOM     10  O   UNL     1       7.110  -4.747 -14.450  1.00  0.00    -0.545 OA
ATOM     11  O   UNL     1       6.555  -2.600 -13.889  1.00  0.00    -0.545 OA
ENDBRANCH   8   9
ENDBRANCH   1   7
BRANCH   4  12
ATOM     12  O   UNL     1       7.786  -5.272  -6.981  1.00  0.00    -0.504 OA
ATOM     13  H   UNL     1       6.778  -5.238  -7.018  1.00  0.00     0.293 HD
ENDBRANCH   4  12
BRANCH   6  14
ATOM     14  O   UNL     1      10.578  -6.110  -6.759  1.00  0.00    -0.504 OA
ATOM     15  H   UNL     1      11.558  -6.327  -6.656  1.00  0.00     0.293 HD
ENDBRANCH   6  14
TORSDOF 4
ENDMDL
MODEL 6
REMARK VINA RESULT:    -4.749      4.458      4.872
REMARK INTER + INTRA:          -5.716
REMARK INTER:                  -5.588
REMARK INTRA:                  -0.128
REMARK UNBOUND:                -0.133
REMARK SMILES O=C([O-])C=Cc1ccc(O)c(O)c1
REMARK SMILES IDX 6 1 13 2 7 3 11 4 8 5 9 6 5 7 4 8 2 9 1 10 3 11 12 12 10 14
REMARK H PARENT 12 13 10 15
REMARK Flexibility Score: inf
ROOT
ATOM      1  C   UNL     1       8.713  -5.455 -10.513  1.00  0.00    -0.022 A 
ATOM      2  C   UNL     1      10.063  -5.835 -10.437  1.00  0.00     0.058 A 
ATOM      3  C   UNL     1       7.972  -5.348  -9.323  1.00  0.00     0.012 A 
ATOM      4  C   UNL     1      10.680  -6.079  -9.203  1.00  0.00     0.157 A 
ATOM      5  C   UNL     1       8.578  -5.590  -8.089  1.00  0.00     0.051 A 
ATOM      6  C   UNL     1       9.927  -5.952  -8.012  1.00  0.00     0.157 A 
ENDROOT
BRANCH   1   7
ATOM      7  C   UNL     1       8.116  -5.220 -11.850  1.00  0.00     0.010 C 
ATOM      8  C   UNL     1       7.780  -4.006 -12.314  1.00  0.00     0.025 C 
BRANCH   8   9
ATOM      9  C   UNL     1       7.199  -3.809 -13.652  1.00  0.00     0.064 C 
ATOM     10  O   UNL     1       7.147  -4.753 -14.486  1.00  0.00    -0.545 OA
ATOM     11  O   UNL     1       6.697  -2.563 -14.001  1.00  0.00    -0.545 OA
ENDBRANCH   8   9
ENDBRANCH   1   7
BRANCH   4  12
ATOM     12  O   UNL     1      12.027  -6.443  -9.208  1.00  0.00    -0.504 OA
ATOM     13  H   UNL     1      12.469  -6.964  -9.951  1.00  0.00     0.293 HD
ENDBRANCH   4  12
BRANCH   6  14
ATOM     14  O   UNL     1      10.472  -6.176  -6.747  1.00  0.00    -0.504 OA
ATOM     15  H   UNL     1      10.392  -5.530  -5.975  1.00  0.00     0.293 HD
ENDBRANCH   6  14
TORSDOF 4
ENDMDL
MODEL 7
REMARK VINA RESULT:    -4.745      2.694      3.342
REMARK INTER + INTRA:          -5.710
REMARK INTER:                  -5.575
REMARK INTRA:                  -0.135
REMARK UNBOUND:                -0.133
REMARK SMILES O=C([O-])C=Cc1ccc(O)c(O)c1
REMARK SMILES IDX 6 1 13 2 7 3 11 4 8 5 9 6 5 7 4 8 2 9 1 10 3 11 12 12 10 14
REMARK H PARENT 12 13 10 15
REMARK Flexibility Score: inf
ROOT
ATOM      1  C   UNL     1       8.414  -7.305  -9.075  1.00  0.00    -0.022 A 
ATOM      2  C   UNL     1       9.798  -7.106  -9.193  1.00  0.00     0.058 A 
ATOM      3  C   UNL     1       7.750  -6.799  -7.943  1.00  0.00     0.012 A 
ATOM      4  C   UNL     1      10.514  -6.394  -8.222  1.00  0.00     0.157 A 
ATOM      5  C   UNL     1       8.456  -6.089  -6.970  1.00  0.00     0.051 A 
ATOM      6  C   UNL     1       9.832  -5.876  -7.096  1.00  0.00     0.157 A 
ENDROOT
BRANCH   1   7
ATOM      7  C   UNL     1       7.714  -8.075 -10.133  1.00  0.00     0.010 C 
ATOM      8  C   UNL     1       8.299  -8.482 -11.270  1.00  0.00     0.025 C 
BRANCH   8   9
ATOM      9  C   UNL     1       7.575  -9.255 -12.293  1.00  0.00     0.064 C 
ATOM     10  O   UNL     1       6.371  -9.590 -12.127  1.00  0.00    -0.545 OA
ATOM     11  O   UNL     1       8.229  -9.620 -13.461  1.00  0.00    -0.545 OA
ENDBRANCH   8   9
ENDBRANCH   1   7
BRANCH   4  12
ATOM     12  O   UNL     1      11.887  -6.230  -8.413  1.00  0.00    -0.504 OA
ATOM     13  H   UNL     1      12.592  -6.792  -7.960  1.00  0.00     0.293 HD
ENDBRANCH   4  12
BRANCH   6  14
ATOM     14  O   UNL     1      10.477  -5.155  -6.089  1.00  0.00    -0.504 OA
ATOM     15  H   UNL     1      11.396  -4.749  -6.185  1.00  0.00     0.293 HD
ENDBRANCH   6  14
TORSDOF 4
ENDMDL
MODEL 8
REMARK VINA RESULT:    -4.710      1.908      2.321
REMARK INTER + INTRA:          -5.670
REMARK INTER:                  -5.541
REMARK INTRA:                  -0.129
REMARK UNBOUND:                -0.133
REMARK SMILES O=C([O-])C=Cc1ccc(O)c(O)c1
REMARK SMILES IDX 6 1 13 2 7 3 11 4 8 5 9 6 5 7 4 8 2 9 1 10 3 11 12 12 10 14
REMARK H PARENT 12 13 10 15
REMARK Flexibility Score: inf
ROOT
ATOM      1  C   UNL     1       9.046  -6.662  -7.407  1.00  0.00    -0.022 A 
ATOM      2  C   UNL     1       8.849  -5.642  -6.463  1.00  0.00     0.058 A 
ATOM      3  C   UNL     1       8.646  -7.971  -7.083  1.00  0.00     0.012 A 
ATOM      4  C   UNL     1       8.244  -5.903  -5.227  1.00  0.00     0.157 A 
ATOM      5  C   UNL     1       8.042  -8.241  -5.854  1.00  0.00     0.051 A 
ATOM      6  C   UNL     1       7.832  -7.221  -4.920  1.00  0.00     0.157 A 
ENDROOT
BRANCH   1   7
ATOM      7  C   UNL     1       9.701  -6.323  -8.694  1.00  0.00     0.010 C 
ATOM      8  C   UNL     1      11.030  -6.233  -8.853  1.00  0.00     0.025 C 
BRANCH   8   9
ATOM      9  C   UNL     1      11.646  -5.904 -10.149  1.00  0.00     0.064 C 
ATOM     10  O   UNL     1      10.968  -5.903 -11.212  1.00  0.00    -0.545 OA
ATOM     11  O   UNL     1      12.997  -5.590 -10.203  1.00  0.00    -0.545 OA
ENDBRANCH   8   9
ENDBRANCH   1   7
BRANCH   4  12
ATOM     12  O   UNL     1       8.075  -4.835  -4.345  1.00  0.00    -0.504 OA
ATOM     13  H   UNL     1       8.224  -3.869  -4.593  1.00  0.00     0.293 HD
ENDBRANCH   4  12
BRANCH   6  14
ATOM     14  O   UNL     1       7.219  -7.558  -3.711  1.00  0.00    -0.504 OA
ATOM     15  H   UNL     1       6.513  -6.995  -3.260  1.00  0.00     0.293 HD
ENDBRANCH   6  14
TORSDOF 4
ENDMDL
MODEL 9
REMARK VINA RESULT:    -4.618     12.746     15.933
REMARK INTER + INTRA:          -5.561
REMARK INTER:                  -5.433
REMARK INTRA:                  -0.128
REMARK UNBOUND:                -0.133
REMARK SMILES O=C([O-])C=Cc1ccc(O)c(O)c1
REMARK SMILES IDX 6 1 13 2 7 3 11 4 8 5 9 6 5 7 4 8 2 9 1 10 3 11 12 12 10 14
REMARK H PARENT 12 13 10 15
REMARK Flexibility Score: inf
ROOT
ATOM      1  C   UNL     1      19.309  -1.231 -18.529  1.00  0.00    -0.022 A 
ATOM      2  C   UNL     1      20.492  -0.532 -18.242  1.00  0.00     0.058 A 
ATOM      3  C   UNL     1      18.880  -1.317 -19.866  1.00  0.00     0.012 A 
ATOM      4  C   UNL     1      21.256   0.052 -19.261  1.00  0.00     0.157 A 
ATOM      5  C   UNL     1      19.634  -0.738 -20.888  1.00  0.00     0.051 A 
ATOM      6  C   UNL     1      20.822  -0.056 -20.603  1.00  0.00     0.157 A 
ENDROOT
BRANCH   1   7
ATOM      7  C   UNL     1      18.540  -1.819 -17.404  1.00  0.00     0.010 C 
ATOM      8  C   UNL     1      18.133  -1.120 -16.334  1.00  0.00     0.025 C 
BRANCH   8   9
ATOM      9  C   UNL     1      17.361  -1.735 -15.241  1.00  0.00     0.064 C 
ATOM     10  O   UNL     1      17.753  -2.795 -14.683  1.00  0.00    -0.545 OA
ATOM     11  O   UNL     1      16.182  -1.137 -14.818  1.00  0.00    -0.545 OA
ENDBRANCH   8   9
ENDBRANCH   1   7
BRANCH   4  12
ATOM     12  O   UNL     1      22.425   0.723 -18.899  1.00  0.00    -0.504 OA
ATOM     13  H   UNL     1      23.177   0.303 -18.373  1.00  0.00     0.293 HD
ENDBRANCH   4  12
BRANCH   6  14
ATOM     14  O   UNL     1      21.530   0.496 -21.673  1.00  0.00    -0.504 OA
ATOM     15  H   UNL     1      22.495   0.787 -21.620  1.00  0.00     0.293 HD
ENDBRANCH   6  14
TORSDOF 4
ENDMDL
