MODEL 1
REMARK VINA RESULT:    -3.873      0.000      0.000
REMARK INTER + INTRA:          -6.021
REMARK INTER:                  -5.459
REMARK INTRA:                  -0.562
REMARK UNBOUND:                -0.562
REMARK SMILES CCCCCCCCC(=O)[O-]
REMARK SMILES IDX 6 1 7 2 8 3 9 4 10 5 11 6 5 7 4 8 3 9 2 10 1 11
REMARK H PARENT
REMARK Flexibility Score: inf
ROOT
ATOM      1  C   UNL     1      19.699  11.758  16.732  1.00  0.00     0.000 C 
ENDROOT
BRANCH   1   2
ATOM      2  C   UNL     1      19.111  11.527  18.135  1.00  0.00     0.006 C 
BRANCH   2   3
ATOM      3  C   UNL     1      18.060  12.584  18.504  1.00  0.00     0.053 C 
BRANCH   3   4
ATOM      4  C   UNL     1      16.888  11.978  19.212  1.00  0.00     0.041 C 
ATOM      5  O   UNL     1      15.737  12.046  18.707  1.00  0.00    -0.550 OA
ATOM      6  O   UNL     1      17.063  11.362  20.446  1.00  0.00    -0.550 OA
ENDBRANCH   3   4
ENDBRANCH   2   3
ENDBRANCH   1   2
BRANCH   1   7
ATOM      7  C   UNL     1      18.907  12.794  15.914  1.00  0.00     0.000 C 
BRANCH   7   8
ATOM      8  C   UNL     1      18.667  12.413  14.442  1.00  0.00    -0.000 C 
BRANCH   8   9
ATOM      9  C   UNL     1      17.365  11.622  14.234  1.00  0.00    -0.000 C 
BRANCH   9  10
ATOM     10  C   UNL     1      16.303  11.946  15.296  1.00  0.00    -0.003 C 
ATOM     11  C   UNL     1      14.897  11.514  14.875  1.00  0.00     0.004 C 
ENDBRANCH   9  10
ENDBRANCH   8   9
ENDBRANCH   7   8
ENDBRANCH   1   7
TORSDOF 7
ENDMDL
MODEL 2
REMARK VINA RESULT:    -3.817      1.314      1.695
REMARK INTER + INTRA:          -5.942
REMARK INTER:                  -5.600
REMARK INTRA:                  -0.341
REMARK UNBOUND:                -0.562
REMARK SMILES CCCCCCCCC(=O)[O-]
REMARK SMILES IDX 6 1 7 2 8 3 9 4 10 5 11 6 5 7 4 8 3 9 2 10 1 11
REMARK H PARENT
REMARK Flexibility Score: inf
ROOT
ATOM      1  C   UNL     1      20.004  11.509  17.497  1.00  0.00     0.000 C 
ENDROOT
BRANCH   1   2
ATOM      2  C   UNL     1      18.950  11.295  18.598  1.00  0.00     0.006 C 
BRANCH   2   3
ATOM      3  C   UNL     1      17.927  12.438  18.649  1.00  0.00     0.053 C 
BRANCH   3   4
ATOM      4  C   UNL     1      16.564  11.947  19.028  1.00  0.00     0.041 C 
ATOM      5  O   UNL     1      15.584  12.136  18.260  1.00  0.00    -0.550 OA
ATOM      6  O   UNL     1      16.370  11.302  20.244  1.00  0.00    -0.550 OA
ENDBRANCH   3   4
ENDBRANCH   2   3
ENDBRANCH   1   2
BRANCH   1   7
ATOM      7  C   UNL     1      19.984  12.934  16.916  1.00  0.00     0.000 C 
BRANCH   7   8
ATOM      8  C   UNL     1      19.407  13.048  15.494  1.00  0.00    -0.000 C 
BRANCH   8   9
ATOM      9  C   UNL     1      18.777  11.736  14.997  1.00  0.00    -0.000 C 
BRANCH   9  10
ATOM     10  C   UNL     1      17.880  11.943  13.766  1.00  0.00    -0.003 C 
ATOM     11  C   UNL     1      18.288  13.163  12.939  1.00  0.00     0.004 C 
ENDBRANCH   9  10
ENDBRANCH   8   9
ENDBRANCH   7   8
ENDBRANCH   1   7
TORSDOF 7
ENDMDL
MODEL 3
REMARK VINA RESULT:    -3.797      2.423      4.565
REMARK INTER + INTRA:          -5.914
REMARK INTER:                  -5.595
REMARK INTRA:                  -0.319
REMARK UNBOUND:                -0.562
REMARK SMILES CCCCCCCCC(=O)[O-]
REMARK SMILES IDX 6 1 7 2 8 3 9 4 10 5 11 6 5 7 4 8 3 9 2 10 1 11
REMARK H PARENT
REMARK Flexibility Score: inf
ROOT
ATOM      1  C   UNL     1      19.980  12.083  17.301  1.00  0.00     0.000 C 
ENDROOT
BRANCH   1   2
ATOM      2  C   UNL     1      19.519  12.755  15.995  1.00  0.00     0.006 C 
BRANCH   2   3
ATOM      3  C   UNL     1      18.935  11.745  14.999  1.00  0.00     0.053 C 
BRANCH   3   4
ATOM      4  C   UNL     1      17.710  12.277  14.321  1.00  0.00     0.041 C 
ATOM      5  O   UNL     1      16.566  12.004  14.771  1.00  0.00    -0.550 OA
ATOM      6  O   UNL     1      17.831  13.054  13.175  1.00  0.00    -0.550 OA
ENDBRANCH   3   4
ENDBRANCH   2   3
ENDBRANCH   1   2
BRANCH   1   7
ATOM      7  C   UNL     1      18.813  11.506  18.122  1.00  0.00     0.000 C 
BRANCH   7   8
ATOM      8  C   UNL     1      17.526  12.350  18.105  1.00  0.00    -0.000 C 
BRANCH   8   9
ATOM      9  C   UNL     1      17.098  12.817  19.506  1.00  0.00    -0.000 C 
BRANCH   9  10
ATOM     10  C   UNL     1      17.162  11.689  20.548  1.00  0.00    -0.003 C 
ATOM     11  C   UNL     1      16.004  10.698  20.413  1.00  0.00     0.004 C 
ENDBRANCH   9  10
ENDBRANCH   8   9
ENDBRANCH   7   8
ENDBRANCH   1   7
TORSDOF 7
ENDMDL
MODEL 4
REMARK VINA RESULT:    -3.780      2.512      4.091
REMARK INTER + INTRA:          -5.889
REMARK INTER:                  -5.417
REMARK INTRA:                  -0.472
REMARK UNBOUND:                -0.562
REMARK SMILES CCCCCCCCC(=O)[O-]
REMARK SMILES IDX 6 1 7 2 8 3 9 4 10 5 11 6 5 7 4 8 3 9 2 10 1 11
REMARK H PARENT
REMARK Flexibility Score: inf
ROOT
ATOM      1  C   UNL     1      19.495  11.466  17.776  1.00  0.00     0.000 C 
ENDROOT
BRANCH   1   2
ATOM      2  C   UNL     1      19.633  11.460  16.243  1.00  0.00     0.006 C 
BRANCH   2   3
ATOM      3  C   UNL     1      18.902  12.642  15.591  1.00  0.00     0.053 C 
BRANCH   3   4
ATOM      4  C   UNL     1      18.053  12.204  14.439  1.00  0.00     0.041 C 
ATOM      5  O   UNL     1      18.525  12.188  13.272  1.00  0.00    -0.550 OA
ATOM      6  O   UNL     1      16.729  11.837  14.650  1.00  0.00    -0.550 OA
ENDBRANCH   3   4
ENDBRANCH   2   3
ENDBRANCH   1   2
BRANCH   1   7
ATOM      7  C   UNL     1      18.361  12.380  18.272  1.00  0.00     0.000 C 
BRANCH   7   8
ATOM      8  C   UNL     1      17.484  11.781  19.386  1.00  0.00    -0.000 C 
BRANCH   8   9
ATOM      9  C   UNL     1      15.997  12.143  19.236  1.00  0.00    -0.000 C 
BRANCH   9  10
ATOM     10  C   UNL     1      15.597  12.395  17.773  1.00  0.00    -0.003 C 
ATOM     11  C   UNL     1      14.104  12.175  17.525  1.00  0.00     0.004 C 
ENDBRANCH   9  10
ENDBRANCH   8   9
ENDBRANCH   7   8
ENDBRANCH   1   7
TORSDOF 7
ENDMDL
MODEL 5
REMARK VINA RESULT:    -3.753      1.965      3.250
REMARK INTER + INTRA:          -5.851
REMARK INTER:                  -5.443
REMARK INTRA:                  -0.408
REMARK UNBOUND:                -0.562
REMARK SMILES CCCCCCCCC(=O)[O-]
REMARK SMILES IDX 6 1 7 2 8 3 9 4 10 5 11 6 5 7 4 8 3 9 2 10 1 11
REMARK H PARENT
REMARK Flexibility Score: inf
ROOT
ATOM      1  C   UNL     1      17.532  12.409  19.123  1.00  0.00     0.000 C 
ENDROOT
BRANCH   1   2
ATOM      2  C   UNL     1      16.118  11.998  18.677  1.00  0.00     0.006 C 
BRANCH   2   3
ATOM      3  C   UNL     1      15.842  12.369  17.213  1.00  0.00     0.053 C 
BRANCH   3   4
ATOM      4  C   UNL     1      14.435  12.046  16.813  1.00  0.00     0.041 C 
ATOM      5  O   UNL     1      14.176  11.686  15.635  1.00  0.00    -0.550 OA
ATOM      6  O   UNL     1      13.404  12.170  17.737  1.00  0.00    -0.550 OA
ENDBRANCH   3   4
ENDBRANCH   2   3
ENDBRANCH   1   2
BRANCH   1   7
ATOM      7  C   UNL     1      18.618  12.029  18.100  1.00  0.00     0.000 C 
BRANCH   7   8
ATOM      8  C   UNL     1      19.253  13.218  17.357  1.00  0.00    -0.000 C 
BRANCH   8   9
ATOM      9  C   UNL     1      19.744  12.848  15.947  1.00  0.00    -0.000 C 
BRANCH   9  10
ATOM     10  C   UNL     1      18.781  11.896  15.219  1.00  0.00    -0.003 C 
ATOM     11  C   UNL     1      18.220  12.499  13.930  1.00  0.00     0.004 C 
ENDBRANCH   9  10
ENDBRANCH   8   9
ENDBRANCH   7   8
ENDBRANCH   1   7
TORSDOF 7
ENDMDL
MODEL 6
REMARK VINA RESULT:    -3.741      1.744      4.003
REMARK INTER + INTRA:          -5.834
REMARK INTER:                  -5.400
REMARK INTRA:                  -0.434
REMARK UNBOUND:                -0.562
REMARK SMILES CCCCCCCCC(=O)[O-]
REMARK SMILES IDX 6 1 7 2 8 3 9 4 10 5 11 6 5 7 4 8 3 9 2 10 1 11
REMARK H PARENT
REMARK Flexibility Score: inf
ROOT
ATOM      1  C   UNL     1      18.951  11.818  15.380  1.00  0.00     0.000 C 
ENDROOT
BRANCH   1   2
ATOM      2  C   UNL     1      17.698  12.490  14.790  1.00  0.00     0.006 C 
BRANCH   2   3
ATOM      3  C   UNL     1      16.610  11.470  14.427  1.00  0.00     0.053 C 
BRANCH   3   4
ATOM      4  C   UNL     1      15.321  11.758  15.133  1.00  0.00     0.041 C 
ATOM      5  O   UNL     1      14.234  11.753  14.497  1.00  0.00    -0.550 OA
ATOM      6  O   UNL     1      15.323  12.058  16.490  1.00  0.00    -0.550 OA
ENDBRANCH   3   4
ENDBRANCH   2   3
ENDBRANCH   1   2
BRANCH   1   7
ATOM      7  C   UNL     1      19.672  12.699  16.416  1.00  0.00     0.000 C 
BRANCH   7   8
ATOM      8  C   UNL     1      18.799  13.162  17.595  1.00  0.00    -0.000 C 
BRANCH   8   9
ATOM      9  C   UNL     1      18.246  11.991  18.426  1.00  0.00    -0.000 C 
BRANCH   9  10
ATOM     10  C   UNL     1      17.177  12.439  19.435  1.00  0.00    -0.003 C 
ATOM     11  C   UNL     1      16.728  11.305  20.358  1.00  0.00     0.004 C 
ENDBRANCH   9  10
ENDBRANCH   8   9
ENDBRANCH   7   8
ENDBRANCH   1   7
TORSDOF 7
ENDMDL
MODEL 7
REMARK VINA RESULT:    -3.395      6.756      8.274
REMARK INTER + INTRA:          -5.347
REMARK INTER:                  -4.681
REMARK INTRA:                  -0.665
REMARK UNBOUND:                -0.562
REMARK SMILES CCCCCCCCC(=O)[O-]
REMARK SMILES IDX 6 1 7 2 8 3 9 4 10 5 11 6 5 7 4 8 3 9 2 10 1 11
REMARK H PARENT
REMARK Flexibility Score: inf
ROOT
ATOM      1  C   UNL     1      13.010  12.995  11.110  1.00  0.00     0.000 C 
ENDROOT
BRANCH   1   2
ATOM      2  C   UNL     1      12.109  11.788  10.797  1.00  0.00     0.006 C 
BRANCH   2   3
ATOM      3  C   UNL     1      12.283  10.655  11.819  1.00  0.00     0.053 C 
BRANCH   3   4
ATOM      4  C   UNL     1      12.268  11.168  13.225  1.00  0.00     0.041 C 
ATOM      5  O   UNL     1      13.328  11.188  13.905  1.00  0.00    -0.550 OA
ATOM      6  O   UNL     1      11.077  11.600  13.795  1.00  0.00    -0.550 OA
ENDBRANCH   3   4
ENDBRANCH   2   3
ENDBRANCH   1   2
BRANCH   1   7
ATOM      7  C   UNL     1      12.605  14.262  10.336  1.00  0.00     0.000 C 
BRANCH   7   8
ATOM      8  C   UNL     1      11.129  14.671  10.486  1.00  0.00    -0.000 C 
BRANCH   8   9
ATOM      9  C   UNL     1      10.801  15.227  11.882  1.00  0.00    -0.000 C 
BRANCH   9  10
ATOM     10  C   UNL     1       9.577  14.545  12.515  1.00  0.00    -0.003 C 
ATOM     11  C   UNL     1       8.906  13.547  11.570  1.00  0.00     0.004 C 
ENDBRANCH   9  10
ENDBRANCH   8   9
ENDBRANCH   7   8
ENDBRANCH   1   7
TORSDOF 7
ENDMDL
MODEL 8
REMARK VINA RESULT:    -3.352      7.632      8.722
REMARK INTER + INTRA:          -5.287
REMARK INTER:                  -4.594
REMARK INTRA:                  -0.693
REMARK UNBOUND:                -0.562
REMARK SMILES CCCCCCCCC(=O)[O-]
REMARK SMILES IDX 6 1 7 2 8 3 9 4 10 5 11 6 5 7 4 8 3 9 2 10 1 11
REMARK H PARENT
REMARK Flexibility Score: inf
ROOT
ATOM      1  C   UNL     1      10.715  15.086  12.086  1.00  0.00     0.000 C 
ENDROOT
BRANCH   1   2
ATOM      2  C   UNL     1       9.407  14.366  12.460  1.00  0.00     0.006 C 
BRANCH   2   3
ATOM      3  C   UNL     1       9.534  12.840  12.347  1.00  0.00     0.053 C 
BRANCH   3   4
ATOM      4  C   UNL     1       9.980  12.223  13.636  1.00  0.00     0.041 C 
ATOM      5  O   UNL     1       9.290  12.363  14.680  1.00  0.00    -0.550 OA
ATOM      6  O   UNL     1      11.174  11.514  13.690  1.00  0.00    -0.550 OA
ENDBRANCH   3   4
ENDBRANCH   2   3
ENDBRANCH   1   2
BRANCH   1   7
ATOM      7  C   UNL     1      11.021  15.028  10.578  1.00  0.00     0.000 C 
BRANCH   7   8
ATOM      8  C   UNL     1      12.463  14.627  10.223  1.00  0.00    -0.000 C 
BRANCH   8   9
ATOM      9  C   UNL     1      13.023  13.530  11.144  1.00  0.00    -0.000 C 
BRANCH   9  10
ATOM     10  C   UNL     1      12.795  12.117  10.584  1.00  0.00    -0.003 C 
ATOM     11  C   UNL     1      12.970  12.051   9.066  1.00  0.00     0.004 C 
ENDBRANCH   9  10
ENDBRANCH   8   9
ENDBRANCH   7   8
ENDBRANCH   1   7
TORSDOF 7
ENDMDL
MODEL 9
REMARK VINA RESULT:    -3.331      7.626      9.171
REMARK INTER + INTRA:          -5.256
REMARK INTER:                  -4.503
REMARK INTRA:                  -0.753
REMARK UNBOUND:                -0.562
REMARK SMILES CCCCCCCCC(=O)[O-]
REMARK SMILES IDX 6 1 7 2 8 3 9 4 10 5 11 6 5 7 4 8 3 9 2 10 1 11
REMARK H PARENT
REMARK Flexibility Score: inf
ROOT
ATOM      1  C   UNL     1      10.052  14.686  12.199  1.00  0.00     0.000 C 
ENDROOT
BRANCH   1   2
ATOM      2  C   UNL     1      10.429  14.456  10.725  1.00  0.00     0.006 C 
BRANCH   2   3
ATOM      3  C   UNL     1      11.865  14.904  10.418  1.00  0.00     0.053 C 
BRANCH   3   4
ATOM      4  C   UNL     1      12.815  13.747  10.392  1.00  0.00     0.041 C 
ATOM      5  O   UNL     1      12.784  12.921   9.443  1.00  0.00    -0.550 OA
ATOM      6  O   UNL     1      13.719  13.566  11.432  1.00  0.00    -0.550 OA
ENDBRANCH   3   4
ENDBRANCH   2   3
ENDBRANCH   1   2
BRANCH   1   7
ATOM      7  C   UNL     1       9.561  13.405  12.899  1.00  0.00     0.000 C 
BRANCH   7   8
ATOM      8  C   UNL     1      10.168  12.098  12.361  1.00  0.00    -0.000 C 
BRANCH   8   9
ATOM      9  C   UNL     1      11.365  11.606  13.193  1.00  0.00    -0.000 C 
BRANCH   9  10
ATOM     10  C   UNL     1      12.172  10.513  12.475  1.00  0.00    -0.003 C 
ATOM     11  C   UNL     1      11.547  10.100  11.141  1.00  0.00     0.004 C 
ENDBRANCH   9  10
ENDBRANCH   8   9
ENDBRANCH   7   8
ENDBRANCH   1   7
TORSDOF 7
ENDMDL
