MODEL 1
REMARK VINA RESULT:    -8.446      0.000      0.000
REMARK INTER + INTRA:         -12.711
REMARK INTER:                 -11.655
REMARK INTRA:                  -1.055
REMARK UNBOUND:                -1.055
REMARK SMILES O=C([O-])[C@H]1O[C@H](Oc2cc3oc(-c4ccccc4)cc(=O)c3c(O)c2O)[C@H](O)[C@@H](O)[C@H]1O
REMARK SMILES IDX 7 1 6 2 4 3 31 4 5 5 29 6 27 7 2 8 1 9 3 10 32 11 30 13
REMARK SMILES IDX 28 15 8 17 25 18 9 19 23 20 10 21 22 22 11 23 20 24 12 25
REMARK SMILES IDX 19 26 21 27 26 28 24 30 13 32 14 33 18 34 15 35 17 36 16 37
REMARK H PARENT 32 12 30 14 28 16 26 29 24 31
REMARK Flexibility Score: inf
ROOT
ATOM      1  O   UNL     1     -14.450  -6.076  18.084  1.00  0.00    -0.458 OA
ENDROOT
BRANCH   1   2
ATOM      2  C   UNL     1     -14.669  -7.097  17.104  1.00  0.00     0.339 C 
ATOM      3  C   UNL     1     -13.138  -6.493  15.431  1.00  0.00     0.199 C 
ATOM      4  C   UNL     1     -12.617  -7.928  15.133  1.00  0.00     0.180 C 
ATOM      5  O   UNL     1     -14.501  -6.534  15.807  1.00  0.00    -0.328 OA
ATOM      6  C   UNL     1     -13.352  -8.976  16.008  1.00  0.00     0.181 C 
ATOM      7  C   UNL     1     -13.770  -8.352  17.354  1.00  0.00     0.214 C 
BRANCH   3   8
ATOM      8  C   UNL     1     -12.974  -5.581  14.249  1.00  0.00     0.073 C 
ATOM      9  O   UNL     1     -13.797  -4.649  14.050  1.00  0.00    -0.547 OA
ATOM     10  O   UNL     1     -11.878  -5.720  13.405  1.00  0.00    -0.547 OA
ENDBRANCH   3   8
BRANCH   4  11
ATOM     11  O   UNL     1     -12.765  -8.245  13.770  1.00  0.00    -0.387 OA
ATOM     12  H   UNL     1     -13.568  -7.757  13.448  1.00  0.00     0.211 HD
ENDBRANCH   4  11
BRANCH   6  13
ATOM     13  O   UNL     1     -14.493  -9.449  15.335  1.00  0.00    -0.387 OA
ATOM     14  H   UNL     1     -15.282  -9.115  15.839  1.00  0.00     0.211 HD
ENDBRANCH   6  13
BRANCH   7  15
ATOM     15  O   UNL     1     -12.623  -7.995  18.086  1.00  0.00    -0.384 OA
ATOM     16  H   UNL     1     -12.930  -7.746  18.997  1.00  0.00     0.211 HD
ENDBRANCH   7  15
ENDBRANCH   1   2
BRANCH   1  17
ATOM     17  C   UNL     1     -14.436  -4.680  17.895  1.00  0.00     0.172 A 
ATOM     18  C   UNL     1     -13.264  -3.902  17.754  1.00  0.00     0.201 A 
ATOM     19  C   UNL     1     -15.678  -4.047  17.875  1.00  0.00     0.098 A 
ATOM     20  C   UNL     1     -13.356  -2.508  17.556  1.00  0.00     0.176 A 
ATOM     21  C   UNL     1     -15.790  -2.677  17.646  1.00  0.00     0.146 A 
ATOM     22  C   UNL     1     -14.634  -1.887  17.446  1.00  0.00     0.111 A 
ATOM     23  O   UNL     1     -17.003  -2.136  17.611  1.00  0.00    -0.456 OA
ATOM     24  C   UNL     1     -14.840  -0.524  17.123  1.00  0.00     0.197 A 
ATOM     25  C   UNL     1     -17.224  -0.850  17.361  1.00  0.00     0.138 A 
ATOM     26  C   UNL     1     -16.136  -0.005  17.104  1.00  0.00     0.100 A 
ATOM     27  O   UNL     1     -13.890   0.241  16.818  1.00  0.00    -0.289 OA
BRANCH  18  28
ATOM     28  O   UNL     1     -12.007  -4.498  17.854  1.00  0.00    -0.502 OA
ATOM     29  H   UNL     1     -11.843  -5.477  17.652  1.00  0.00     0.293 HD
ENDBRANCH  18  28
BRANCH  20  30
ATOM     30  O   UNL     1     -12.157  -1.786  17.517  1.00  0.00    -0.504 OA
ATOM     31  H   UNL     1     -11.780  -1.347  16.690  1.00  0.00     0.293 HD
ENDBRANCH  20  30
BRANCH  25  32
ATOM     32  C   UNL     1     -18.622  -0.351  17.365  1.00  0.00     0.017 A 
ATOM     33  C   UNL     1     -19.098   0.360  18.483  1.00  0.00     0.012 A 
ATOM     34  C   UNL     1     -19.501  -0.594  16.291  1.00  0.00     0.012 A 
ATOM     35  C   UNL     1     -20.413   0.836  18.515  1.00  0.00     0.001 A 
ATOM     36  C   UNL     1     -20.815  -0.116  16.329  1.00  0.00     0.001 A 
ATOM     37  C   UNL     1     -21.269   0.601  17.438  1.00  0.00     0.000 A 
ENDBRANCH  25  32
ENDBRANCH   1  17
TORSDOF 9
ENDMDL
MODEL 2
REMARK VINA RESULT:    -7.799      2.098      3.591
REMARK INTER + INTRA:         -11.818
REMARK INTER:                 -10.616
REMARK INTRA:                  -1.203
REMARK UNBOUND:                -1.055
REMARK SMILES O=C([O-])[C@H]1O[C@H](Oc2cc3oc(-c4ccccc4)cc(=O)c3c(O)c2O)[C@H](O)[C@@H](O)[C@H]1O
REMARK SMILES IDX 7 1 6 2 4 3 31 4 5 5 29 6 27 7 2 8 1 9 3 10 32 11 30 13
REMARK SMILES IDX 28 15 8 17 25 18 9 19 23 20 10 21 22 22 11 23 20 24 12 25
REMARK SMILES IDX 19 26 21 27 26 28 24 30 13 32 14 33 18 34 15 35 17 36 16 37
REMARK H PARENT 32 12 30 14 28 16 26 29 24 31
REMARK Flexibility Score: inf
ROOT
ATOM      1  O   UNL     1     -14.793  -4.695  14.551  1.00  0.00    -0.458 OA
ENDROOT
BRANCH   1   2
ATOM      2  C   UNL     1     -13.814  -5.381  15.337  1.00  0.00     0.339 C 
ATOM      3  C   UNL     1     -14.946  -5.669  17.373  1.00  0.00     0.199 C 
ATOM      4  C   UNL     1     -14.502  -7.137  17.624  1.00  0.00     0.180 C 
ATOM      5  O   UNL     1     -13.930  -4.958  16.692  1.00  0.00    -0.328 OA
ATOM      6  C   UNL     1     -13.562  -7.632  16.495  1.00  0.00     0.181 C 
ATOM      7  C   UNL     1     -13.907  -6.933  15.165  1.00  0.00     0.214 C 
BRANCH   3   8
ATOM      8  C   UNL     1     -15.281  -4.958  18.654  1.00  0.00     0.073 C 
ATOM      9  O   UNL     1     -16.218  -5.376  19.383  1.00  0.00    -0.547 OA
ATOM     10  O   UNL     1     -14.518  -3.874  19.071  1.00  0.00    -0.547 OA
ENDBRANCH   3   8
BRANCH   4  11
ATOM     11  O   UNL     1     -13.869  -7.267  18.874  1.00  0.00    -0.387 OA
ATOM     12  H   UNL     1     -13.211  -8.007  18.786  1.00  0.00     0.211 HD
ENDBRANCH   4  11
BRANCH   6  13
ATOM     13  O   UNL     1     -12.223  -7.363  16.832  1.00  0.00    -0.387 OA
ATOM     14  H   UNL     1     -11.914  -8.118  17.399  1.00  0.00     0.211 HD
ENDBRANCH   6  13
BRANCH   7  15
ATOM     15  O   UNL     1     -15.202  -7.304  14.759  1.00  0.00    -0.384 OA
ATOM     16  H   UNL     1     -15.825  -6.988  15.465  1.00  0.00     0.211 HD
ENDBRANCH   7  15
ENDBRANCH   1   2
BRANCH   1  17
ATOM     17  C   UNL     1     -15.041  -3.309  14.491  1.00  0.00     0.172 A 
ATOM     18  C   UNL     1     -14.274  -2.389  13.740  1.00  0.00     0.201 A 
ATOM     19  C   UNL     1     -16.108  -2.839  15.255  1.00  0.00     0.098 A 
ATOM     20  C   UNL     1     -14.612  -1.019  13.734  1.00  0.00     0.176 A 
ATOM     21  C   UNL     1     -16.477  -1.495  15.235  1.00  0.00     0.146 A 
ATOM     22  C   UNL     1     -15.760  -0.566  14.446  1.00  0.00     0.111 A 
ATOM     23  O   UNL     1     -17.521  -1.112  15.964  1.00  0.00    -0.456 OA
ATOM     24  C   UNL     1     -16.260   0.758  14.407  1.00  0.00     0.197 A 
ATOM     25  C   UNL     1     -17.981   0.134  15.985  1.00  0.00     0.138 A 
ATOM     26  C   UNL     1     -17.357   1.109  15.195  1.00  0.00     0.100 A 
ATOM     27  O   UNL     1     -15.765   1.636  13.653  1.00  0.00    -0.289 OA
BRANCH  18  28
ATOM     28  O   UNL     1     -13.152  -2.820  13.034  1.00  0.00    -0.502 OA
ATOM     29  H   UNL     1     -12.542  -3.558  13.364  1.00  0.00     0.293 HD
ENDBRANCH  18  28
BRANCH  20  30
ATOM     30  O   UNL     1     -13.756  -0.152  13.045  1.00  0.00    -0.504 OA
ATOM     31  H   UNL     1     -12.784  -0.007  13.272  1.00  0.00     0.293 HD
ENDBRANCH  20  30
BRANCH  25  32
ATOM     32  C   UNL     1     -19.143   0.452  16.851  1.00  0.00     0.017 A 
ATOM     33  C   UNL     1     -20.442   0.402  16.312  1.00  0.00     0.012 A 
ATOM     34  C   UNL     1     -18.983   0.833  18.199  1.00  0.00     0.012 A 
ATOM     35  C   UNL     1     -21.554   0.703  17.105  1.00  0.00     0.001 A 
ATOM     36  C   UNL     1     -20.099   1.134  18.987  1.00  0.00     0.001 A 
ATOM     37  C   UNL     1     -21.382   1.065  18.442  1.00  0.00     0.000 A 
ENDBRANCH  25  32
ENDBRANCH   1  17
TORSDOF 9
ENDMDL
MODEL 3
REMARK VINA RESULT:    -7.675      2.955      8.690
REMARK INTER + INTRA:         -11.647
REMARK INTER:                 -10.327
REMARK INTRA:                  -1.320
REMARK UNBOUND:                -1.055
REMARK SMILES O=C([O-])[C@H]1O[C@H](Oc2cc3oc(-c4ccccc4)cc(=O)c3c(O)c2O)[C@H](O)[C@@H](O)[C@H]1O
REMARK SMILES IDX 7 1 6 2 4 3 31 4 5 5 29 6 27 7 2 8 1 9 3 10 32 11 30 13
REMARK SMILES IDX 28 15 8 17 25 18 9 19 23 20 10 21 22 22 11 23 20 24 12 25
REMARK SMILES IDX 19 26 21 27 26 28 24 30 13 32 14 33 18 34 15 35 17 36 16 37
REMARK H PARENT 32 12 30 14 28 16 26 29 24 31
REMARK Flexibility Score: inf
ROOT
ATOM      1  O   UNL     1     -18.502  -1.160  15.518  1.00  0.00    -0.458 OA
ENDROOT
BRANCH   1   2
ATOM      2  C   UNL     1     -18.938  -0.444  16.678  1.00  0.00     0.339 C 
ATOM      3  C   UNL     1     -18.661   1.786  15.999  1.00  0.00     0.199 C 
ATOM      4  C   UNL     1     -20.000   2.322  16.579  1.00  0.00     0.180 C 
ATOM      5  O   UNL     1     -18.159   0.740  16.809  1.00  0.00    -0.328 OA
ATOM      6  C   UNL     1     -20.780   1.194  17.303  1.00  0.00     0.181 C 
ATOM      7  C   UNL     1     -20.478  -0.170  16.652  1.00  0.00     0.214 C 
BRANCH   3   8
ATOM      8  C   UNL     1     -17.626   2.869  15.884  1.00  0.00     0.073 C 
ATOM      9  O   UNL     1     -17.115   3.367  16.921  1.00  0.00    -0.547 OA
ATOM     10  O   UNL     1     -17.182   3.282  14.634  1.00  0.00    -0.547 OA
ENDBRANCH   3   8
BRANCH   4  11
ATOM     11  O   UNL     1     -19.775   3.397  17.458  1.00  0.00    -0.387 OA
ATOM     12  H   UNL     1     -19.681   3.008  18.367  1.00  0.00     0.211 HD
ENDBRANCH   4  11
BRANCH   6  13
ATOM     13  O   UNL     1     -20.420   1.156  18.662  1.00  0.00    -0.387 OA
ATOM     14  H   UNL     1     -19.694   1.824  18.784  1.00  0.00     0.211 HD
ENDBRANCH   6  13
BRANCH   7  15
ATOM     15  O   UNL     1     -20.955  -0.178  15.329  1.00  0.00    -0.384 OA
ATOM     16  H   UNL     1     -21.713  -0.819  15.301  1.00  0.00     0.211 HD
ENDBRANCH   7  15
ENDBRANCH   1   2
BRANCH   1  17
ATOM     17  C   UNL     1     -17.200  -1.602  15.209  1.00  0.00     0.172 A 
ATOM     18  C   UNL     1     -16.305  -0.923  14.351  1.00  0.00     0.201 A 
ATOM     19  C   UNL     1     -16.805  -2.809  15.785  1.00  0.00     0.098 A 
ATOM     20  C   UNL     1     -15.015  -1.442  14.115  1.00  0.00     0.176 A 
ATOM     21  C   UNL     1     -15.523  -3.319  15.590  1.00  0.00     0.146 A 
ATOM     22  C   UNL     1     -14.591  -2.628  14.782  1.00  0.00     0.111 A 
ATOM     23  O   UNL     1     -15.196  -4.461  16.188  1.00  0.00    -0.456 OA
ATOM     24  C   UNL     1     -13.282  -3.164  14.715  1.00  0.00     0.197 A 
ATOM     25  C   UNL     1     -13.991  -5.013  16.102  1.00  0.00     0.138 A 
ATOM     26  C   UNL     1     -12.993  -4.368  15.359  1.00  0.00     0.100 A 
ATOM     27  O   UNL     1     -12.348  -2.572  14.117  1.00  0.00    -0.289 OA
BRANCH  18  28
ATOM     28  O   UNL     1     -16.705   0.242  13.697  1.00  0.00    -0.502 OA
ATOM     29  H   UNL     1     -16.457   1.169  14.020  1.00  0.00     0.293 HD
ENDBRANCH  18  28
BRANCH  20  30
ATOM     30  O   UNL     1     -14.214  -0.769  13.184  1.00  0.00    -0.504 OA
ATOM     31  H   UNL     1     -13.290  -1.063  12.905  1.00  0.00     0.293 HD
ENDBRANCH  20  30
BRANCH  25  32
ATOM     32  C   UNL     1     -13.744  -6.301  16.797  1.00  0.00     0.017 A 
ATOM     33  C   UNL     1     -13.246  -7.396  16.066  1.00  0.00     0.012 A 
ATOM     34  C   UNL     1     -14.023  -6.470  18.168  1.00  0.00     0.012 A 
ATOM     35  C   UNL     1     -13.010  -8.622  16.696  1.00  0.00     0.001 A 
ATOM     36  C   UNL     1     -13.785  -7.700  18.792  1.00  0.00     0.001 A 
ATOM     37  C   UNL     1     -13.276  -8.773  18.058  1.00  0.00     0.000 A 
ENDBRANCH  25  32
ENDBRANCH   1  17
TORSDOF 9
ENDMDL
MODEL 4
REMARK VINA RESULT:    -7.633      1.338      2.627
REMARK INTER + INTRA:         -11.588
REMARK INTER:                 -10.632
REMARK INTRA:                  -0.956
REMARK UNBOUND:                -1.055
REMARK SMILES O=C([O-])[C@H]1O[C@H](Oc2cc3oc(-c4ccccc4)cc(=O)c3c(O)c2O)[C@H](O)[C@@H](O)[C@H]1O
REMARK SMILES IDX 7 1 6 2 4 3 31 4 5 5 29 6 27 7 2 8 1 9 3 10 32 11 30 13
REMARK SMILES IDX 28 15 8 17 25 18 9 19 23 20 10 21 22 22 11 23 20 24 12 25
REMARK SMILES IDX 19 26 21 27 26 28 24 30 13 32 14 33 18 34 15 35 17 36 16 37
REMARK H PARENT 32 12 30 14 28 16 26 29 24 31
REMARK Flexibility Score: inf
ROOT
ATOM      1  O   UNL     1     -14.325  -4.671  17.067  1.00  0.00    -0.458 OA
ENDROOT
BRANCH   1   2
ATOM      2  C   UNL     1     -13.340  -5.042  16.096  1.00  0.00     0.339 C 
ATOM      3  C   UNL     1     -13.830  -7.312  15.756  1.00  0.00     0.199 C 
ATOM      4  C   UNL     1     -13.685  -7.301  14.208  1.00  0.00     0.180 C 
ATOM      5  O   UNL     1     -12.935  -6.385  16.340  1.00  0.00    -0.328 OA
ATOM      6  C   UNL     1     -13.277  -5.893  13.701  1.00  0.00     0.181 C 
ATOM      7  C   UNL     1     -13.840  -4.803  14.634  1.00  0.00     0.214 C 
BRANCH   3   8
ATOM      8  C   UNL     1     -13.582  -8.677  16.332  1.00  0.00     0.073 C 
ATOM      9  O   UNL     1     -12.996  -8.798  17.440  1.00  0.00    -0.547 OA
ATOM     10  O   UNL     1     -14.052  -9.808  15.677  1.00  0.00    -0.547 OA
ENDBRANCH   3   8
BRANCH   4  11
ATOM     11  O   UNL     1     -12.749  -8.260  13.782  1.00  0.00    -0.387 OA
ATOM     12  H   UNL     1     -13.029  -8.549  12.873  1.00  0.00     0.211 HD
ENDBRANCH   4  11
BRANCH   6  13
ATOM     13  O   UNL     1     -11.875  -5.789  13.648  1.00  0.00    -0.387 OA
ATOM     14  H   UNL     1     -11.616  -5.085  14.299  1.00  0.00     0.211 HD
ENDBRANCH   6  13
BRANCH   7  15
ATOM     15  O   UNL     1     -15.246  -4.821  14.587  1.00  0.00    -0.384 OA
ATOM     16  H   UNL     1     -15.532  -5.715  14.913  1.00  0.00     0.211 HD
ENDBRANCH   7  15
ENDBRANCH   1   2
BRANCH   1  17
ATOM     17  C   UNL     1     -14.583  -3.392  17.596  1.00  0.00     0.172 A 
ATOM     18  C   UNL     1     -13.625  -2.589  18.257  1.00  0.00     0.201 A 
ATOM     19  C   UNL     1     -15.889  -2.922  17.466  1.00  0.00     0.098 A 
ATOM     20  C   UNL     1     -13.981  -1.312  18.742  1.00  0.00     0.176 A 
ATOM     21  C   UNL     1     -16.250  -1.651  17.908  1.00  0.00     0.146 A 
ATOM     22  C   UNL     1     -15.294  -0.807  18.521  1.00  0.00     0.111 A 
ATOM     23  O   UNL     1     -17.504  -1.248  17.731  1.00  0.00    -0.456 OA
ATOM     24  C   UNL     1     -15.718   0.503  18.852  1.00  0.00     0.197 A 
ATOM     25  C   UNL     1     -17.942  -0.043  18.078  1.00  0.00     0.138 A 
ATOM     26  C   UNL     1     -17.049   0.873  18.650  1.00  0.00     0.100 A 
ATOM     27  O   UNL     1     -14.923   1.369  19.299  1.00  0.00    -0.289 OA
BRANCH  18  28
ATOM     28  O   UNL     1     -12.334  -3.069  18.475  1.00  0.00    -0.502 OA
ATOM     29  H   UNL     1     -11.515  -2.672  18.030  1.00  0.00     0.293 HD
ENDBRANCH  18  28
BRANCH  20  30
ATOM     30  O   UNL     1     -13.010  -0.610  19.467  1.00  0.00    -0.504 OA
ATOM     31  H   UNL     1     -12.678  -0.874  20.383  1.00  0.00     0.293 HD
ENDBRANCH  20  30
BRANCH  25  32
ATOM     32  C   UNL     1     -19.370   0.291  17.850  1.00  0.00     0.017 A 
ATOM     33  C   UNL     1     -20.078   1.008  18.834  1.00  0.00     0.012 A 
ATOM     34  C   UNL     1     -20.051  -0.114  16.685  1.00  0.00     0.012 A 
ATOM     35  C   UNL     1     -21.425   1.331  18.646  1.00  0.00     0.001 A 
ATOM     36  C   UNL     1     -21.400   0.211  16.504  1.00  0.00     0.001 A 
ATOM     37  C   UNL     1     -22.084   0.935  17.481  1.00  0.00     0.000 A 
ENDBRANCH  25  32
ENDBRANCH   1  17
TORSDOF 9
ENDMDL
MODEL 5
REMARK VINA RESULT:    -7.191      1.995      3.282
REMARK INTER + INTRA:         -10.979
REMARK INTER:                 -10.278
REMARK INTRA:                  -0.700
REMARK UNBOUND:                -1.055
REMARK SMILES O=C([O-])[C@H]1O[C@H](Oc2cc3oc(-c4ccccc4)cc(=O)c3c(O)c2O)[C@H](O)[C@@H](O)[C@H]1O
REMARK SMILES IDX 7 1 6 2 4 3 31 4 5 5 29 6 27 7 2 8 1 9 3 10 32 11 30 13
REMARK SMILES IDX 28 15 8 17 25 18 9 19 23 20 10 21 22 22 11 23 20 24 12 25
REMARK SMILES IDX 19 26 21 27 26 28 24 30 13 32 14 33 18 34 15 35 17 36 16 37
REMARK H PARENT 32 12 30 14 28 16 26 29 24 31
REMARK Flexibility Score: inf
ROOT
ATOM      1  O   UNL     1     -15.473  -4.359  14.910  1.00  0.00    -0.458 OA
ENDROOT
BRANCH   1   2
ATOM      2  C   UNL     1     -15.349  -5.177  16.079  1.00  0.00     0.339 C 
ATOM      3  C   UNL     1     -13.683  -6.697  15.426  1.00  0.00     0.199 C 
ATOM      4  C   UNL     1     -12.884  -6.677  16.759  1.00  0.00     0.180 C 
ATOM      5  O   UNL     1     -15.063  -6.513  15.678  1.00  0.00    -0.328 OA
ATOM      6  C   UNL     1     -13.566  -5.751  17.799  1.00  0.00     0.181 C 
ATOM      7  C   UNL     1     -14.304  -4.599  17.089  1.00  0.00     0.214 C 
BRANCH   3   8
ATOM      8  C   UNL     1     -13.480  -7.979  14.670  1.00  0.00     0.073 C 
ATOM      9  O   UNL     1     -12.684  -8.019  13.695  1.00  0.00    -0.547 OA
ATOM     10  O   UNL     1     -14.121  -9.141  15.081  1.00  0.00    -0.547 OA
ENDBRANCH   3   8
BRANCH   4  11
ATOM     11  O   UNL     1     -12.744  -7.975  17.284  1.00  0.00    -0.387 OA
ATOM     12  H   UNL     1     -13.068  -8.602  16.584  1.00  0.00     0.211 HD
ENDBRANCH   4  11
BRANCH   6  13
ATOM     13  O   UNL     1     -14.481  -6.488  18.573  1.00  0.00    -0.387 OA
ATOM     14  H   UNL     1     -13.957  -6.928  19.293  1.00  0.00     0.211 HD
ENDBRANCH   6  13
BRANCH   7  15
ATOM     15  O   UNL     1     -13.374  -3.784  16.420  1.00  0.00    -0.384 OA
ATOM     16  H   UNL     1     -13.880  -3.272  15.736  1.00  0.00     0.211 HD
ENDBRANCH   7  15
ENDBRANCH   1   2
BRANCH   1  17
ATOM     17  C   UNL     1     -15.712  -2.972  14.843  1.00  0.00     0.172 A 
ATOM     18  C   UNL     1     -14.934  -2.059  14.094  1.00  0.00     0.201 A 
ATOM     19  C   UNL     1     -16.781  -2.492  15.599  1.00  0.00     0.098 A 
ATOM     20  C   UNL     1     -15.263  -0.687  14.082  1.00  0.00     0.176 A 
ATOM     21  C   UNL     1     -17.142  -1.147  15.572  1.00  0.00     0.146 A 
ATOM     22  C   UNL     1     -16.413  -0.225  14.784  1.00  0.00     0.111 A 
ATOM     23  O   UNL     1     -18.188  -0.755  16.292  1.00  0.00    -0.456 OA
ATOM     24  C   UNL     1     -16.904   1.102  14.737  1.00  0.00     0.197 A 
ATOM     25  C   UNL     1     -18.640   0.494  16.306  1.00  0.00     0.138 A 
ATOM     26  C   UNL     1     -18.005   1.463  15.517  1.00  0.00     0.100 A 
ATOM     27  O   UNL     1     -16.400   1.974  13.984  1.00  0.00    -0.289 OA
BRANCH  18  28
ATOM     28  O   UNL     1     -13.810  -2.500  13.397  1.00  0.00    -0.502 OA
ATOM     29  H   UNL     1     -13.457  -2.037  12.569  1.00  0.00     0.293 HD
ENDBRANCH  18  28
BRANCH  20  30
ATOM     30  O   UNL     1     -14.398   0.172  13.395  1.00  0.00    -0.504 OA
ATOM     31  H   UNL     1     -14.664   1.069  13.016  1.00  0.00     0.293 HD
ENDBRANCH  20  30
BRANCH  25  32
ATOM     32  C   UNL     1     -19.806   0.823  17.164  1.00  0.00     0.017 A 
ATOM     33  C   UNL     1     -19.590   1.301  18.470  1.00  0.00     0.012 A 
ATOM     34  C   UNL     1     -21.131   0.642  16.717  1.00  0.00     0.012 A 
ATOM     35  C   UNL     1     -20.672   1.612  19.300  1.00  0.00     0.001 A 
ATOM     36  C   UNL     1     -22.208   0.954  17.553  1.00  0.00     0.001 A 
ATOM     37  C   UNL     1     -21.979   1.442  18.841  1.00  0.00     0.000 A 
ENDBRANCH  25  32
ENDBRANCH   1  17
TORSDOF 9
ENDMDL
MODEL 6
REMARK VINA RESULT:    -7.169      2.458      8.169
REMARK INTER + INTRA:         -10.949
REMARK INTER:                  -9.858
REMARK INTRA:                  -1.091
REMARK UNBOUND:                -1.055
REMARK SMILES O=C([O-])[C@H]1O[C@H](Oc2cc3oc(-c4ccccc4)cc(=O)c3c(O)c2O)[C@H](O)[C@@H](O)[C@H]1O
REMARK SMILES IDX 7 1 6 2 4 3 31 4 5 5 29 6 27 7 2 8 1 9 3 10 32 11 30 13
REMARK SMILES IDX 28 15 8 17 25 18 9 19 23 20 10 21 22 22 11 23 20 24 12 25
REMARK SMILES IDX 19 26 21 27 26 28 24 30 13 32 14 33 18 34 15 35 17 36 16 37
REMARK H PARENT 32 12 30 14 28 16 26 29 24 31
REMARK Flexibility Score: inf
ROOT
ATOM      1  O   UNL     1     -18.475  -1.254  15.580  1.00  0.00    -0.458 OA
ENDROOT
BRANCH   1   2
ATOM      2  C   UNL     1     -18.898  -0.673  16.818  1.00  0.00     0.339 C 
ATOM      3  C   UNL     1     -16.896   0.249  17.624  1.00  0.00     0.199 C 
ATOM      4  C   UNL     1     -17.498   1.597  18.111  1.00  0.00     0.180 C 
ATOM      5  O   UNL     1     -17.843  -0.792  17.767  1.00  0.00    -0.328 OA
ATOM      6  C   UNL     1     -19.029   1.638  17.871  1.00  0.00     0.181 C 
ATOM      7  C   UNL     1     -19.400   0.797  16.634  1.00  0.00     0.214 C 
BRANCH   3   8
ATOM      8  C   UNL     1     -15.644  -0.109  18.374  1.00  0.00     0.073 C 
ATOM      9  O   UNL     1     -15.408  -1.309  18.673  1.00  0.00    -0.547 OA
ATOM     10  O   UNL     1     -14.711   0.872  18.685  1.00  0.00    -0.547 OA
ENDBRANCH   3   8
BRANCH   4  11
ATOM     11  O   UNL     1     -17.215   1.814  19.472  1.00  0.00    -0.387 OA
ATOM     12  H   UNL     1     -17.777   1.175  19.986  1.00  0.00     0.211 HD
ENDBRANCH   4  11
BRANCH   6  13
ATOM     13  O   UNL     1     -19.707   1.140  18.998  1.00  0.00    -0.387 OA
ATOM     14  H   UNL     1     -19.126   1.320  19.784  1.00  0.00     0.211 HD
ENDBRANCH   6  13
BRANCH   7  15
ATOM     15  O   UNL     1     -18.828   1.370  15.484  1.00  0.00    -0.384 OA
ATOM     16  H   UNL     1     -18.636   2.319  15.701  1.00  0.00     0.211 HD
ENDBRANCH   7  15
ENDBRANCH   1   2
BRANCH   1  17
ATOM     17  C   UNL     1     -17.184  -1.689  15.222  1.00  0.00     0.172 A 
ATOM     18  C   UNL     1     -16.316  -0.994  14.350  1.00  0.00     0.201 A 
ATOM     19  C   UNL     1     -16.772  -2.908  15.760  1.00  0.00     0.098 A 
ATOM     20  C   UNL     1     -15.034  -1.508  14.063  1.00  0.00     0.176 A 
ATOM     21  C   UNL     1     -15.498  -3.415  15.515  1.00  0.00     0.146 A 
ATOM     22  C   UNL     1     -14.591  -2.707  14.692  1.00  0.00     0.111 A 
ATOM     23  O   UNL     1     -15.153  -4.568  16.079  1.00  0.00    -0.456 OA
ATOM     24  C   UNL     1     -13.285  -3.242  14.574  1.00  0.00     0.197 A 
ATOM     25  C   UNL     1     -13.952  -5.118  15.944  1.00  0.00     0.138 A 
ATOM     26  C   UNL     1     -12.976  -4.459  15.183  1.00  0.00     0.100 A 
ATOM     27  O   UNL     1     -12.370  -2.638  13.958  1.00  0.00    -0.289 OA
BRANCH  18  28
ATOM     28  O   UNL     1     -16.735   0.185  13.732  1.00  0.00    -0.502 OA
ATOM     29  H   UNL     1     -17.707   0.388  13.533  1.00  0.00     0.293 HD
ENDBRANCH  18  28
BRANCH  20  30
ATOM     30  O   UNL     1     -14.263  -0.816  13.121  1.00  0.00    -0.504 OA
ATOM     31  H   UNL     1     -14.619  -0.441  12.254  1.00  0.00     0.293 HD
ENDBRANCH  20  30
BRANCH  25  32
ATOM     32  C   UNL     1     -13.684  -6.420  16.605  1.00  0.00     0.017 A 
ATOM     33  C   UNL     1     -13.787  -6.519  18.005  1.00  0.00     0.012 A 
ATOM     34  C   UNL     1     -13.298  -7.560  15.871  1.00  0.00     0.012 A 
ATOM     35  C   UNL     1     -13.534  -7.733  18.652  1.00  0.00     0.001 A 
ATOM     36  C   UNL     1     -13.046  -8.771  16.524  1.00  0.00     0.001 A 
ATOM     37  C   UNL     1     -13.167  -8.858  17.912  1.00  0.00     0.000 A 
ENDBRANCH  25  32
ENDBRANCH   1  17
TORSDOF 9
ENDMDL
MODEL 7
REMARK VINA RESULT:    -7.072      2.748      8.753
REMARK INTER + INTRA:         -10.815
REMARK INTER:                  -9.403
REMARK INTRA:                  -1.412
REMARK UNBOUND:                -1.055
REMARK SMILES O=C([O-])[C@H]1O[C@H](Oc2cc3oc(-c4ccccc4)cc(=O)c3c(O)c2O)[C@H](O)[C@@H](O)[C@H]1O
REMARK SMILES IDX 7 1 6 2 4 3 31 4 5 5 29 6 27 7 2 8 1 9 3 10 32 11 30 13
REMARK SMILES IDX 28 15 8 17 25 18 9 19 23 20 10 21 22 22 11 23 20 24 12 25
REMARK SMILES IDX 19 26 21 27 26 28 24 30 13 32 14 33 18 34 15 35 17 36 16 37
REMARK H PARENT 32 12 30 14 28 16 26 29 24 31
REMARK Flexibility Score: inf
ROOT
ATOM      1  O   UNL     1     -17.864  -0.574  16.462  1.00  0.00    -0.458 OA
ENDROOT
BRANCH   1   2
ATOM      2  C   UNL     1     -18.924  -0.024  17.250  1.00  0.00     0.339 C 
ATOM      3  C   UNL     1     -19.073   2.159  16.400  1.00  0.00     0.199 C 
ATOM      4  C   UNL     1     -20.625   2.228  16.344  1.00  0.00     0.180 C 
ATOM      5  O   UNL     1     -18.656   1.354  17.487  1.00  0.00    -0.328 OA
ATOM      6  C   UNL     1     -21.257   0.918  16.881  1.00  0.00     0.181 C 
ATOM      7  C   UNL     1     -20.326  -0.279  16.606  1.00  0.00     0.214 C 
BRANCH   3   8
ATOM      8  C   UNL     1     -18.455   3.522  16.522  1.00  0.00     0.073 C 
ATOM      9  O   UNL     1     -17.519   3.721  17.341  1.00  0.00    -0.547 OA
ATOM     10  O   UNL     1     -18.869   4.554  15.690  1.00  0.00    -0.547 OA
ENDBRANCH   3   8
BRANCH   4  11
ATOM     11  O   UNL     1     -21.107   3.332  17.071  1.00  0.00    -0.387 OA
ATOM     12  H   UNL     1     -21.238   3.024  18.007  1.00  0.00     0.211 HD
ENDBRANCH   4  11
BRANCH   6  13
ATOM     13  O   UNL     1     -21.486   1.026  18.265  1.00  0.00    -0.387 OA
ATOM     14  H   UNL     1     -20.889   0.366  18.706  1.00  0.00     0.211 HD
ENDBRANCH   6  13
BRANCH   7  15
ATOM     15  O   UNL     1     -20.200  -0.469  15.218  1.00  0.00    -0.384 OA
ATOM     16  H   UNL     1     -21.055  -0.863  14.903  1.00  0.00     0.211 HD
ENDBRANCH   7  15
ENDBRANCH   1   2
BRANCH   1  17
ATOM     17  C   UNL     1     -16.614  -1.052  16.902  1.00  0.00     0.172 A 
ATOM     18  C   UNL     1     -15.650  -0.272  17.582  1.00  0.00     0.201 A 
ATOM     19  C   UNL     1     -16.324  -2.384  16.609  1.00  0.00     0.098 A 
ATOM     20  C   UNL     1     -14.430  -0.848  17.993  1.00  0.00     0.176 A 
ATOM     21  C   UNL     1     -15.139  -2.979  17.037  1.00  0.00     0.146 A 
ATOM     22  C   UNL     1     -14.185  -2.233  17.769  1.00  0.00     0.111 A 
ATOM     23  O   UNL     1     -14.932  -4.261  16.751  1.00  0.00    -0.456 OA
ATOM     24  C   UNL     1     -13.055  -2.938  18.249  1.00  0.00     0.197 A 
ATOM     25  C   UNL     1     -13.857  -4.934  17.146  1.00  0.00     0.138 A 
ATOM     26  C   UNL     1     -12.884  -4.283  17.916  1.00  0.00     0.100 A 
ATOM     27  O   UNL     1     -12.203  -2.400  19.001  1.00  0.00    -0.289 OA
BRANCH  18  28
ATOM     28  O   UNL     1     -15.880   1.085  17.813  1.00  0.00    -0.502 OA
ATOM     29  H   UNL     1     -16.026   1.470  18.738  1.00  0.00     0.293 HD
ENDBRANCH  18  28
BRANCH  20  30
ATOM     30  O   UNL     1     -13.485   0.004  18.577  1.00  0.00    -0.504 OA
ATOM     31  H   UNL     1     -13.358   0.121  19.572  1.00  0.00     0.293 HD
ENDBRANCH  20  30
BRANCH  25  32
ATOM     32  C   UNL     1     -13.722  -6.359  16.752  1.00  0.00     0.017 A 
ATOM     33  C   UNL     1     -13.440  -7.324  17.737  1.00  0.00     0.012 A 
ATOM     34  C   UNL     1     -13.839  -6.773  15.410  1.00  0.00     0.012 A 
ATOM     35  C   UNL     1     -13.302  -8.673  17.391  1.00  0.00     0.001 A 
ATOM     36  C   UNL     1     -13.699  -8.123  15.070  1.00  0.00     0.001 A 
ATOM     37  C   UNL     1     -13.434  -9.071  16.060  1.00  0.00     0.000 A 
ENDBRANCH  25  32
ENDBRANCH   1  17
TORSDOF 9
ENDMDL
MODEL 8
REMARK VINA RESULT:    -6.988      2.371      8.046
REMARK INTER + INTRA:         -10.699
REMARK INTER:                  -9.651
REMARK INTRA:                  -1.047
REMARK UNBOUND:                -1.055
REMARK SMILES O=C([O-])[C@H]1O[C@H](Oc2cc3oc(-c4ccccc4)cc(=O)c3c(O)c2O)[C@H](O)[C@@H](O)[C@H]1O
REMARK SMILES IDX 7 1 6 2 4 3 31 4 5 5 29 6 27 7 2 8 1 9 3 10 32 11 30 13
REMARK SMILES IDX 28 15 8 17 25 18 9 19 23 20 10 21 22 22 11 23 20 24 12 25
REMARK SMILES IDX 19 26 21 27 26 28 24 30 13 32 14 33 18 34 15 35 17 36 16 37
REMARK H PARENT 32 12 30 14 28 16 26 29 24 31
REMARK Flexibility Score: inf
ROOT
ATOM      1  O   UNL     1     -14.901   0.618  16.661  1.00  0.00    -0.458 OA
ENDROOT
BRANCH   1   2
ATOM      2  C   UNL     1     -16.201   1.193  16.832  1.00  0.00     0.339 C 
ATOM      3  C   UNL     1     -17.536  -0.715  17.124  1.00  0.00     0.199 C 
ATOM      4  C   UNL     1     -18.399  -0.158  18.291  1.00  0.00     0.180 C 
ATOM      5  O   UNL     1     -17.168   0.330  16.244  1.00  0.00    -0.328 OA
ATOM      6  C   UNL     1     -17.996   1.301  18.630  1.00  0.00     0.181 C 
ATOM      7  C   UNL     1     -16.501   1.527  18.330  1.00  0.00     0.214 C 
BRANCH   3   8
ATOM      8  C   UNL     1     -18.258  -1.785  16.355  1.00  0.00     0.073 C 
ATOM      9  O   UNL     1     -19.265  -1.492  15.658  1.00  0.00    -0.547 OA
ATOM     10  O   UNL     1     -17.781  -3.090  16.358  1.00  0.00    -0.547 OA
ENDBRANCH   3   8
BRANCH   4  11
ATOM     11  O   UNL     1     -19.770  -0.222  17.981  1.00  0.00    -0.387 OA
ATOM     12  H   UNL     1     -20.087   0.715  17.888  1.00  0.00     0.211 HD
ENDBRANCH   4  11
BRANCH   6  13
ATOM     13  O   UNL     1     -18.769   2.201  17.873  1.00  0.00    -0.387 OA
ATOM     14  H   UNL     1     -18.966   2.975  18.463  1.00  0.00     0.211 HD
ENDBRANCH   6  13
BRANCH   7  15
ATOM     15  O   UNL     1     -15.722   0.720  19.178  1.00  0.00    -0.384 OA
ATOM     16  H   UNL     1     -15.902  -0.222  18.923  1.00  0.00     0.211 HD
ENDBRANCH   7  15
ENDBRANCH   1   2
BRANCH   1  17
ATOM     17  C   UNL     1     -14.531  -0.460  15.833  1.00  0.00     0.172 A 
ATOM     18  C   UNL     1     -14.315  -0.364  14.440  1.00  0.00     0.201 A 
ATOM     19  C   UNL     1     -14.403  -1.702  16.456  1.00  0.00     0.098 A 
ATOM     20  C   UNL     1     -13.934  -1.503  13.699  1.00  0.00     0.176 A 
ATOM     21  C   UNL     1     -13.994  -2.829  15.747  1.00  0.00     0.146 A 
ATOM     22  C   UNL     1     -13.716  -2.744  14.363  1.00  0.00     0.111 A 
ATOM     23  O   UNL     1     -13.863  -3.979  16.402  1.00  0.00    -0.456 OA
ATOM     24  C   UNL     1     -13.214  -3.912  13.740  1.00  0.00     0.197 A 
ATOM     25  C   UNL     1     -13.442  -5.102  15.832  1.00  0.00     0.138 A 
ATOM     26  C   UNL     1     -13.099  -5.095  14.473  1.00  0.00     0.100 A 
ATOM     27  O   UNL     1     -12.831  -3.917  12.542  1.00  0.00    -0.289 OA
BRANCH  18  28
ATOM     28  O   UNL     1     -14.518   0.847  13.778  1.00  0.00    -0.502 OA
ATOM     29  H   UNL     1     -15.349   1.046  13.235  1.00  0.00     0.293 HD
ENDBRANCH  18  28
BRANCH  20  30
ATOM     30  O   UNL     1     -13.826  -1.357  12.311  1.00  0.00    -0.504 OA
ATOM     31  H   UNL     1     -13.459  -0.538  11.848  1.00  0.00     0.293 HD
ENDBRANCH  20  30
BRANCH  25  32
ATOM     32  C   UNL     1     -13.351  -6.332  16.657  1.00  0.00     0.017 A 
ATOM     33  C   UNL     1     -12.945  -7.539  16.057  1.00  0.00     0.012 A 
ATOM     34  C   UNL     1     -13.690  -6.335  18.025  1.00  0.00     0.012 A 
ATOM     35  C   UNL     1     -12.857  -8.713  16.812  1.00  0.00     0.001 A 
ATOM     36  C   UNL     1     -13.601  -7.513  18.774  1.00  0.00     0.001 A 
ATOM     37  C   UNL     1     -13.182  -8.700  18.169  1.00  0.00     0.000 A 
ENDBRANCH  25  32
ENDBRANCH   1  17
TORSDOF 9
ENDMDL
