MODEL 1
REMARK VINA RESULT:    -3.960      0.000      0.000
REMARK INTER + INTRA:          -4.319
REMARK INTER:                  -4.308
REMARK INTRA:                  -0.012
REMARK UNBOUND:                -0.012
REMARK SMILES CC(=O)[C@H]1CC[C@@H]2[C@H]3CC=C4C[C@@H](O)CC[C@@]4(C)[C@H]3CC[C@]12C
REMARK SMILES IDX 4 1 5 2 6 3 7 4 22 5 21 6 20 7 19 8 8 9 9 10 10 11 11 12
REMARK SMILES IDX 17 13 16 14 15 15 13 16 12 17 18 18 23 19 2 20 1 21 3 22
REMARK SMILES IDX 14 23
REMARK H PARENT 14 24
REMARK Flexibility Score: inf
ROOT
ATOM      1  C   UNL     1     208.753 206.227 184.849  1.00  0.00     0.062 C 
ATOM      2  C   UNL     1     209.433 205.896 186.176  1.00  0.00     0.012 C 
ATOM      3  C   UNL     1     208.453 206.305 187.258  1.00  0.00     0.005 C 
ATOM      4  C   UNL     1     207.040 206.136 186.673  1.00  0.00    -0.001 C 
ATOM      5  C   UNL     1     207.206 206.146 185.117  1.00  0.00    -0.020 C 
ATOM      6  C   UNL     1     206.622 204.863 184.456  1.00  0.00     0.008 C 
ATOM      7  C   UNL     1     207.007 203.550 185.150  1.00  0.00     0.005 C 
ATOM      8  C   UNL     1     206.923 203.556 186.713  1.00  0.00     0.003 C 
ATOM      9  C   UNL     1     206.320 204.879 187.253  1.00  0.00     0.000 C 
ATOM     10  C   UNL     1     204.775 204.951 187.089  1.00  0.00     0.031 C 
ATOM     11  C   UNL     1     204.075 203.623 186.875  1.00  0.00    -0.027 C 
ATOM     12  C   UNL     1     204.688 202.418 186.920  1.00  0.00    -0.065 C 
ATOM     13  C   UNL     1     206.162 202.314 187.307  1.00  0.00    -0.008 C 
ATOM     14  C   UNL     1     206.824 200.984 186.801  1.00  0.00     0.014 C 
ATOM     15  C   UNL     1     205.912 199.755 186.913  1.00  0.00     0.033 C 
ATOM     16  C   UNL     1     204.572 199.995 186.207  1.00  0.00     0.118 C 
ATOM     17  C   UNL     1     203.832 201.170 186.851  1.00  0.00     0.063 C 
ATOM     18  C   UNL     1     206.244 202.310 188.859  1.00  0.00     0.016 C 
ATOM     19  C   UNL     1     206.432 207.351 184.516  1.00  0.00     0.012 C 
ENDROOT
BRANCH   1  20
ATOM     20  C   UNL     1     209.252 207.568 184.322  1.00  0.00     0.133 C 
ATOM     21  C   UNL     1     209.607 207.748 182.875  1.00  0.00     0.088 C 
ATOM     22  O   UNL     1     209.376 208.518 185.081  1.00  0.00    -0.300 OA
ENDBRANCH   1  20
BRANCH  16  23
ATOM     23  O   UNL     1     204.769 200.254 184.840  1.00  0.00    -0.393 OA
ATOM     24  H   UNL     1     204.229 199.586 184.341  1.00  0.00     0.210 HD
ENDBRANCH  16  23
TORSDOF 2
ENDMDL
MODEL 2
REMARK VINA RESULT:    -3.924      4.231      6.356
REMARK INTER + INTRA:          -4.280
REMARK INTER:                  -4.263
REMARK INTRA:                  -0.017
REMARK UNBOUND:                -0.012
REMARK SMILES CC(=O)[C@H]1CC[C@@H]2[C@H]3CC=C4C[C@@H](O)CC[C@@]4(C)[C@H]3CC[C@]12C
REMARK SMILES IDX 4 1 5 2 6 3 7 4 22 5 21 6 20 7 19 8 8 9 9 10 10 11 11 12
REMARK SMILES IDX 17 13 16 14 15 15 13 16 12 17 18 18 23 19 2 20 1 21 3 22
REMARK SMILES IDX 14 23
REMARK H PARENT 14 24
REMARK Flexibility Score: inf
ROOT
ATOM      1  C   UNL     1     208.522 208.756 184.841  1.00  0.00     0.062 C 
ATOM      2  C   UNL     1     208.855 209.407 186.182  1.00  0.00     0.012 C 
ATOM      3  C   UNL     1     208.440 208.408 187.244  1.00  0.00     0.005 C 
ATOM      4  C   UNL     1     208.601 207.006 186.631  1.00  0.00    -0.001 C 
ATOM      5  C   UNL     1     208.593 207.203 185.077  1.00  0.00    -0.020 C 
ATOM      6  C   UNL     1     209.874 206.625 184.407  1.00  0.00     0.008 C 
ATOM      7  C   UNL     1     211.189 206.989 185.109  1.00  0.00     0.005 C 
ATOM      8  C   UNL     1     211.181 206.873 186.670  1.00  0.00     0.003 C 
ATOM      9  C   UNL     1     209.854 206.268 187.196  1.00  0.00     0.000 C 
ATOM     10  C   UNL     1     209.773 204.726 187.001  1.00  0.00     0.031 C 
ATOM     11  C   UNL     1     211.096 204.023 186.775  1.00  0.00    -0.027 C 
ATOM     12  C   UNL     1     212.305 204.628 186.833  1.00  0.00    -0.065 C 
ATOM     13  C   UNL     1     212.417 206.093 187.249  1.00  0.00    -0.008 C 
ATOM     14  C   UNL     1     213.752 206.758 186.758  1.00  0.00     0.014 C 
ATOM     15  C   UNL     1     214.975 205.836 186.853  1.00  0.00     0.033 C 
ATOM     16  C   UNL     1     214.728 204.512 186.119  1.00  0.00     0.118 C 
ATOM     17  C   UNL     1     213.549 203.766 186.748  1.00  0.00     0.063 C 
ATOM     18  C   UNL     1     212.420 206.145 188.803  1.00  0.00     0.016 C 
ATOM     19  C   UNL     1     207.385 206.448 184.461  1.00  0.00     0.012 C 
ENDROOT
BRANCH   1  20
ATOM     20  C   UNL     1     207.184 209.273 184.323  1.00  0.00     0.133 C 
ATOM     21  C   UNL     1     206.996 209.618 182.875  1.00  0.00     0.088 C 
ATOM     22  O   UNL     1     206.244 209.420 185.090  1.00  0.00    -0.300 OA
ENDBRANCH   1  20
BRANCH  16  23
ATOM     23  O   UNL     1     214.471 204.738 184.756  1.00  0.00    -0.393 OA
ATOM     24  H   UNL     1     213.541 205.079 184.693  1.00  0.00     0.210 HD
ENDBRANCH  16  23
TORSDOF 2
ENDMDL
MODEL 3
REMARK VINA RESULT:    -3.920      4.635      9.030
REMARK INTER + INTRA:          -4.276
REMARK INTER:                  -4.255
REMARK INTRA:                  -0.021
REMARK UNBOUND:                -0.012
REMARK SMILES CC(=O)[C@H]1CC[C@@H]2[C@H]3CC=C4C[C@@H](O)CC[C@@]4(C)[C@H]3CC[C@]12C
REMARK SMILES IDX 4 1 5 2 6 3 7 4 22 5 21 6 20 7 19 8 8 9 9 10 10 11 11 12
REMARK SMILES IDX 17 13 16 14 15 15 13 16 12 17 18 18 23 19 2 20 1 21 3 22
REMARK SMILES IDX 14 23
REMARK H PARENT 14 24
REMARK Flexibility Score: inf
ROOT
ATOM      1  C   UNL     1     205.973 208.533 184.848  1.00  0.00     0.062 C 
ATOM      2  C   UNL     1     205.323 208.868 186.189  1.00  0.00     0.012 C 
ATOM      3  C   UNL     1     206.320 208.445 187.251  1.00  0.00     0.005 C 
ATOM      4  C   UNL     1     207.723 208.600 186.638  1.00  0.00    -0.001 C 
ATOM      5  C   UNL     1     207.526 208.595 185.085  1.00  0.00    -0.020 C 
ATOM      6  C   UNL     1     208.111 209.874 184.417  1.00  0.00     0.008 C 
ATOM      7  C   UNL     1     207.755 211.190 185.121  1.00  0.00     0.005 C 
ATOM      8  C   UNL     1     207.870 211.178 186.682  1.00  0.00     0.003 C 
ATOM      9  C   UNL     1     208.468 209.847 187.206  1.00  0.00     0.000 C 
ATOM     10  C   UNL     1     210.009 209.757 187.011  1.00  0.00     0.031 C 
ATOM     11  C   UNL     1     210.719 211.077 186.788  1.00  0.00    -0.027 C 
ATOM     12  C   UNL     1     210.121 212.290 186.847  1.00  0.00    -0.065 C 
ATOM     13  C   UNL     1     208.657 212.409 187.264  1.00  0.00    -0.008 C 
ATOM     14  C   UNL     1     208.000 213.748 186.775  1.00  0.00     0.014 C 
ATOM     15  C   UNL     1     208.929 214.966 186.872  1.00  0.00     0.033 C 
ATOM     16  C   UNL     1     210.251 214.713 186.138  1.00  0.00     0.118 C 
ATOM     17  C   UNL     1     210.990 213.528 186.765  1.00  0.00     0.063 C 
ATOM     18  C   UNL     1     208.605 212.410 188.817  1.00  0.00     0.016 C 
ATOM     19  C   UNL     1     208.274 207.383 184.467  1.00  0.00     0.012 C 
ENDROOT
BRANCH   1  20
ATOM     20  C   UNL     1     205.448 207.200 184.328  1.00  0.00     0.133 C 
ATOM     21  C   UNL     1     205.126 207.008 182.875  1.00  0.00     0.088 C 
ATOM     22  O   UNL     1     205.276 206.265 185.097  1.00  0.00    -0.300 OA
ENDBRANCH   1  20
BRANCH  16  23
ATOM     23  O   UNL     1     210.024 214.460 184.775  1.00  0.00    -0.393 OA
ATOM     24  H   UNL     1     210.750 214.917 184.274  1.00  0.00     0.210 HD
ENDBRANCH  16  23
TORSDOF 2
ENDMDL
MODEL 4
REMARK VINA RESULT:    -3.862      4.235      6.414
REMARK INTER + INTRA:          -4.213
REMARK INTER:                  -4.191
REMARK INTRA:                  -0.022
REMARK UNBOUND:                -0.012
REMARK SMILES CC(=O)[C@H]1CC[C@@H]2[C@H]3CC=C4C[C@@H](O)CC[C@@]4(C)[C@H]3CC[C@]12C
REMARK SMILES IDX 4 1 5 2 6 3 7 4 22 5 21 6 20 7 19 8 8 9 9 10 10 11 11 12
REMARK SMILES IDX 17 13 16 14 15 15 13 16 12 17 18 18 23 19 2 20 1 21 3 22
REMARK SMILES IDX 14 23
REMARK H PARENT 14 24
REMARK Flexibility Score: inf
ROOT
ATOM      1  C   UNL     1     206.216 205.946 184.855  1.00  0.00     0.062 C 
ATOM      2  C   UNL     1     205.882 205.303 186.199  1.00  0.00     0.012 C 
ATOM      3  C   UNL     1     206.309 206.303 187.256  1.00  0.00     0.005 C 
ATOM      4  C   UNL     1     206.156 207.704 186.638  1.00  0.00    -0.001 C 
ATOM      5  C   UNL     1     206.157 207.501 185.085  1.00  0.00    -0.020 C 
ATOM      6  C   UNL     1     204.879 208.086 184.417  1.00  0.00     0.008 C 
ATOM      7  C   UNL     1     203.564 207.735 185.125  1.00  0.00     0.005 C 
ATOM      8  C   UNL     1     203.578 207.857 186.686  1.00  0.00     0.003 C 
ATOM      9  C   UNL     1     204.912 208.454 187.205  1.00  0.00     0.000 C 
ATOM     10  C   UNL     1     205.005 209.994 187.004  1.00  0.00     0.031 C 
ATOM     11  C   UNL     1     203.685 210.706 186.780  1.00  0.00    -0.027 C 
ATOM     12  C   UNL     1     202.472 210.111 186.844  1.00  0.00    -0.065 C 
ATOM     13  C   UNL     1     202.350 208.649 187.266  1.00  0.00    -0.008 C 
ATOM     14  C   UNL     1     201.009 207.993 186.782  1.00  0.00     0.014 C 
ATOM     15  C   UNL     1     199.793 208.925 186.878  1.00  0.00     0.033 C 
ATOM     16  C   UNL     1     200.048 210.244 186.138  1.00  0.00     0.118 C 
ATOM     17  C   UNL     1     201.235 210.983 186.759  1.00  0.00     0.063 C 
ATOM     18  C   UNL     1     202.352 208.604 188.820  1.00  0.00     0.016 C 
ATOM     19  C   UNL     1     207.370 208.243 184.462  1.00  0.00     0.012 C 
ENDROOT
BRANCH   1  20
ATOM     20  C   UNL     1     207.547 205.416 184.334  1.00  0.00     0.133 C 
ATOM     21  C   UNL     1     207.751 205.132 182.875  1.00  0.00     0.088 C 
ATOM     22  O   UNL     1     208.471 205.209 185.108  1.00  0.00    -0.300 OA
ENDBRANCH   1  20
BRANCH  16  23
ATOM     23  O   UNL     1     200.298 210.011 184.775  1.00  0.00    -0.393 OA
ATOM     24  H   UNL     1     199.771 210.683 184.268  1.00  0.00     0.210 HD
ENDBRANCH  16  23
TORSDOF 2
ENDMDL
MODEL 5
REMARK VINA RESULT:    -3.748      8.420     11.075
REMARK INTER + INTRA:          -4.088
REMARK INTER:                  -4.151
REMARK INTRA:                   0.063
REMARK UNBOUND:                -0.012
REMARK SMILES CC(=O)[C@H]1CC[C@@H]2[C@H]3CC=C4C[C@@H](O)CC[C@@]4(C)[C@H]3CC[C@]12C
REMARK SMILES IDX 4 1 5 2 6 3 7 4 22 5 21 6 20 7 19 8 8 9 9 10 10 11 11 12
REMARK SMILES IDX 17 13 16 14 15 15 13 16 12 17 18 18 23 19 2 20 1 21 3 22
REMARK SMILES IDX 14 23
REMARK H PARENT 14 24
REMARK Flexibility Score: inf
ROOT
ATOM      1  C   UNL     1     214.235 214.533 184.689  1.00  0.00     0.062 C 
ATOM      2  C   UNL     1     214.344 213.020 184.503  1.00  0.00     0.012 C 
ATOM      3  C   UNL     1     214.555 212.445 185.891  1.00  0.00     0.005 C 
ATOM      4  C   UNL     1     213.843 213.384 186.880  1.00  0.00    -0.001 C 
ATOM      5  C   UNL     1     213.684 214.757 186.145  1.00  0.00    -0.020 C 
ATOM      6  C   UNL     1     212.199 215.220 186.081  1.00  0.00     0.008 C 
ATOM      7  C   UNL     1     211.203 214.130 185.663  1.00  0.00     0.005 C 
ATOM      8  C   UNL     1     211.406 212.730 186.333  1.00  0.00     0.003 C 
ATOM      9  C   UNL     1     212.516 212.764 187.415  1.00  0.00     0.000 C 
ATOM     10  C   UNL     1     212.046 213.421 188.744  1.00  0.00     0.031 C 
ATOM     11  C   UNL     1     210.546 213.500 188.942  1.00  0.00    -0.027 C 
ATOM     12  C   UNL     1     209.632 212.959 188.103  1.00  0.00    -0.065 C 
ATOM     13  C   UNL     1     210.081 212.112 186.914  1.00  0.00    -0.008 C 
ATOM     14  C   UNL     1     208.988 212.027 185.790  1.00  0.00     0.014 C 
ATOM     15  C   UNL     1     207.556 211.901 186.327  1.00  0.00     0.033 C 
ATOM     16  C   UNL     1     207.233 213.032 187.311  1.00  0.00     0.118 C 
ATOM     17  C   UNL     1     208.174 212.976 188.516  1.00  0.00     0.063 C 
ATOM     18  C   UNL     1     210.328 210.667 187.429  1.00  0.00     0.016 C 
ATOM     19  C   UNL     1     214.464 215.857 186.916  1.00  0.00     0.012 C 
ENDROOT
BRANCH   1  20
ATOM     20  C   UNL     1     215.575 215.197 184.392  1.00  0.00     0.133 C 
ATOM     21  C   UNL     1     216.868 214.484 184.655  1.00  0.00     0.088 C 
ATOM     22  O   UNL     1     215.611 216.331 183.937  1.00  0.00    -0.300 OA
ENDBRANCH   1  20
BRANCH  16  23
ATOM     23  O   UNL     1     207.342 214.285 186.684  1.00  0.00    -0.393 OA
ATOM     24  H   UNL     1     208.065 214.204 186.008  1.00  0.00     0.210 HD
ENDBRANCH  16  23
TORSDOF 2
ENDMDL
MODEL 6
REMARK VINA RESULT:    -3.703      3.493      6.687
REMARK INTER + INTRA:          -4.039
REMARK INTER:                  -4.014
REMARK INTRA:                  -0.025
REMARK UNBOUND:                -0.012
REMARK SMILES CC(=O)[C@H]1CC[C@@H]2[C@H]3CC=C4C[C@@H](O)CC[C@@]4(C)[C@H]3CC[C@]12C
REMARK SMILES IDX 4 1 5 2 6 3 7 4 22 5 21 6 20 7 19 8 8 9 9 10 10 11 11 12
REMARK SMILES IDX 17 13 16 14 15 15 13 16 12 17 18 18 23 19 2 20 1 21 3 22
REMARK SMILES IDX 14 23
REMARK H PARENT 14 24
REMARK Flexibility Score: inf
ROOT
ATOM      1  C   UNL     1     203.334 205.728 188.459  1.00  0.00     0.062 C 
ATOM      2  C   UNL     1     202.495 205.475 187.208  1.00  0.00     0.012 C 
ATOM      3  C   UNL     1     202.257 206.837 186.586  1.00  0.00     0.005 C 
ATOM      4  C   UNL     1     203.474 207.712 186.937  1.00  0.00    -0.001 C 
ATOM      5  C   UNL     1     204.147 207.046 188.184  1.00  0.00    -0.020 C 
ATOM      6  C   UNL     1     205.643 206.700 187.928  1.00  0.00     0.008 C 
ATOM      7  C   UNL     1     205.925 206.015 186.584  1.00  0.00     0.005 C 
ATOM      8  C   UNL     1     205.191 206.624 185.343  1.00  0.00     0.003 C 
ATOM      9  C   UNL     1     204.414 207.915 185.709  1.00  0.00     0.000 C 
ATOM     10  C   UNL     1     205.341 209.154 185.870  1.00  0.00     0.031 C 
ATOM     11  C   UNL     1     206.710 209.036 185.230  1.00  0.00    -0.027 C 
ATOM     12  C   UNL     1     207.114 207.992 184.470  1.00  0.00    -0.065 C 
ATOM     13  C   UNL     1     206.138 206.874 184.112  1.00  0.00    -0.008 C 
ATOM     14  C   UNL     1     206.868 205.542 183.716  1.00  0.00     0.014 C 
ATOM     15  C   UNL     1     208.134 205.756 182.875  1.00  0.00     0.033 C 
ATOM     16  C   UNL     1     209.104 206.719 183.571  1.00  0.00     0.118 C 
ATOM     17  C   UNL     1     208.450 208.089 183.763  1.00  0.00     0.063 C 
ATOM     18  C   UNL     1     205.319 207.338 182.875  1.00  0.00     0.016 C 
ATOM     19  C   UNL     1     204.113 208.030 189.384  1.00  0.00     0.012 C 
ENDROOT
BRANCH   1  20
ATOM     20  C   UNL     1     202.441 205.761 189.694  1.00  0.00     0.133 C 
ATOM     21  C   UNL     1     202.892 205.159 190.992  1.00  0.00     0.088 C 
ATOM     22  O   UNL     1     201.335 206.278 189.639  1.00  0.00    -0.300 OA
ENDBRANCH   1  20
BRANCH  16  23
ATOM     23  O   UNL     1     209.504 206.208 184.818  1.00  0.00    -0.393 OA
ATOM     24  H   UNL     1     208.710 206.252 185.413  1.00  0.00     0.210 HD
ENDBRANCH  16  23
TORSDOF 2
ENDMDL
MODEL 7
REMARK VINA RESULT:    -3.683      4.145      6.583
REMARK INTER + INTRA:          -4.017
REMARK INTER:                  -3.995
REMARK INTRA:                  -0.022
REMARK UNBOUND:                -0.012
REMARK SMILES CC(=O)[C@H]1CC[C@@H]2[C@H]3CC=C4C[C@@H](O)CC[C@@]4(C)[C@H]3CC[C@]12C
REMARK SMILES IDX 4 1 5 2 6 3 7 4 22 5 21 6 20 7 19 8 8 9 9 10 10 11 11 12
REMARK SMILES IDX 17 13 16 14 15 15 13 16 12 17 18 18 23 19 2 20 1 21 3 22
REMARK SMILES IDX 14 23
REMARK H PARENT 14 24
REMARK Flexibility Score: inf
ROOT
ATOM      1  C   UNL     1     211.428 208.938 188.530  1.00  0.00     0.062 C 
ATOM      2  C   UNL     1     212.281 209.232 187.297  1.00  0.00     0.012 C 
ATOM      3  C   UNL     1     212.527 207.891 186.633  1.00  0.00     0.005 C 
ATOM      4  C   UNL     1     211.307 207.005 186.943  1.00  0.00    -0.001 C 
ATOM      5  C   UNL     1     210.620 207.630 188.203  1.00  0.00    -0.020 C 
ATOM      6  C   UNL     1     209.126 207.983 187.942  1.00  0.00     0.008 C 
ATOM      7  C   UNL     1     208.859 208.711 186.618  1.00  0.00     0.005 C 
ATOM      8  C   UNL     1     209.607 208.143 185.366  1.00  0.00     0.003 C 
ATOM      9  C   UNL     1     210.381 206.841 185.698  1.00  0.00     0.000 C 
ATOM     10  C   UNL     1     209.453 205.596 185.809  1.00  0.00     0.031 C 
ATOM     11  C   UNL     1     208.091 205.734 185.158  1.00  0.00    -0.027 C 
ATOM     12  C   UNL     1     207.694 206.803 184.428  1.00  0.00    -0.065 C 
ATOM     13  C   UNL     1     208.674 207.932 184.117  1.00  0.00    -0.008 C 
ATOM     14  C   UNL     1     207.947 209.276 183.756  1.00  0.00     0.014 C 
ATOM     15  C   UNL     1     206.690 209.088 182.895  1.00  0.00     0.033 C 
ATOM     16  C   UNL     1     205.713 208.104 183.549  1.00  0.00     0.118 C 
ATOM     17  C   UNL     1     206.366 206.728 183.703  1.00  0.00     0.063 C 
ATOM     18  C   UNL     1     209.506 207.509 182.875  1.00  0.00     0.016 C 
ATOM     19  C   UNL     1     210.641 206.607 189.371  1.00  0.00     0.012 C 
ENDROOT
BRANCH   1  20
ATOM     20  C   UNL     1     212.307 208.866 189.773  1.00  0.00     0.133 C 
ATOM     21  C   UNL     1     211.840 209.422 191.086  1.00  0.00     0.088 C 
ATOM     22  O   UNL     1     213.416 208.355 189.712  1.00  0.00    -0.300 OA
ENDBRANCH   1  20
BRANCH  16  23
ATOM     23  O   UNL     1     205.299 208.574 184.807  1.00  0.00    -0.393 OA
ATOM     24  H   UNL     1     205.087 207.774 185.356  1.00  0.00     0.210 HD
ENDBRANCH  16  23
TORSDOF 2
ENDMDL
MODEL 8
REMARK VINA RESULT:    -3.654      4.186      6.860
REMARK INTER + INTRA:          -3.987
REMARK INTER:                  -3.964
REMARK INTRA:                  -0.022
REMARK UNBOUND:                -0.012
REMARK SMILES CC(=O)[C@H]1CC[C@@H]2[C@H]3CC=C4C[C@@H](O)CC[C@@]4(C)[C@H]3CC[C@]12C
REMARK SMILES IDX 4 1 5 2 6 3 7 4 22 5 21 6 20 7 19 8 8 9 9 10 10 11 11 12
REMARK SMILES IDX 17 13 16 14 15 15 13 16 12 17 18 18 23 19 2 20 1 21 3 22
REMARK SMILES IDX 14 23
REMARK H PARENT 14 24
REMARK Flexibility Score: inf
ROOT
ATOM      1  C   UNL     1     205.712 211.127 188.545  1.00  0.00     0.062 C 
ATOM      2  C   UNL     1     205.363 211.968 187.319  1.00  0.00     0.012 C 
ATOM      3  C   UNL     1     206.685 212.305 186.657  1.00  0.00     0.005 C 
ATOM      4  C   UNL     1     207.648 211.143 186.957  1.00  0.00    -0.001 C 
ATOM      5  C   UNL     1     207.070 210.408 188.212  1.00  0.00    -0.020 C 
ATOM      6  C   UNL     1     206.815 208.896 187.940  1.00  0.00     0.008 C 
ATOM      7  C   UNL     1     206.105 208.592 186.614  1.00  0.00     0.005 C 
ATOM      8  C   UNL     1     206.623 209.385 185.368  1.00  0.00     0.003 C 
ATOM      9  C   UNL     1     207.872 210.239 185.706  1.00  0.00     0.000 C 
ATOM     10  C   UNL     1     209.174 209.393 185.810  1.00  0.00     0.031 C 
ATOM     11  C   UNL     1     209.124 208.030 185.149  1.00  0.00    -0.027 C 
ATOM     12  C   UNL     1     208.084 207.570 184.416  1.00  0.00    -0.065 C 
ATOM     13  C   UNL     1     206.893 208.476 184.112  1.00  0.00    -0.008 C 
ATOM     14  C   UNL     1     205.600 207.666 183.746  1.00  0.00     0.014 C 
ATOM     15  C   UNL     1     205.868 206.431 182.875  1.00  0.00     0.033 C 
ATOM     16  C   UNL     1     206.914 205.516 183.522  1.00  0.00     0.118 C 
ATOM     17  C   UNL     1     208.244 206.255 183.681  1.00  0.00     0.063 C 
ATOM     18  C   UNL     1     207.261 209.344 182.876  1.00  0.00     0.016 C 
ATOM     19  C   UNL     1     208.090 210.487 189.381  1.00  0.00     0.012 C 
ENDROOT
BRANCH   1  20
ATOM     20  C   UNL     1     205.728 212.000 189.795  1.00  0.00     0.133 C 
ATOM     21  C   UNL     1     205.204 211.487 191.104  1.00  0.00     0.088 C 
ATOM     22  O   UNL     1     206.165 213.140 189.742  1.00  0.00    -0.300 OA
ENDBRANCH   1  20
BRANCH  16  23
ATOM     23  O   UNL     1     206.473 205.063 184.777  1.00  0.00    -0.393 OA
ATOM     24  H   UNL     1     207.122 204.374 185.077  1.00  0.00     0.210 HD
ENDBRANCH  16  23
TORSDOF 2
ENDMDL
