MODEL 1
REMARK VINA RESULT:    -3.250      0.000      0.000
REMARK INTER + INTRA:         -12.028
REMARK INTER:                  -8.190
REMARK INTRA:                  -3.837
REMARK UNBOUND:                -3.837
REMARK SMILES CCCCCCCCCCCCCCCCCCCCCCCCCCCC(=O)[O-]
REMARK SMILES IDX 15 1 16 2 17 3 18 4 19 5 20 6 21 7 22 8 23 9 24 10 25 11
REMARK SMILES IDX 26 12 27 13 28 14 29 15 30 16 14 17 13 18 12 19 11 20 10 21
REMARK SMILES IDX 9 22 8 23 7 24 6 25 5 26 4 27 3 28 2 29 1 30
REMARK H PARENT
REMARK Flexibility Score: inf
ROOT
ATOM      1  C   UNL     1     -13.835 -17.512   1.103  1.00  0.00     0.000 C 
ENDROOT
BRANCH   1   2
ATOM      2  C   UNL     1     -13.966 -16.160   1.828  1.00  0.00     0.000 C 
BRANCH   2   3
ATOM      3  C   UNL     1     -15.385 -15.813   2.316  1.00  0.00     0.000 C 
BRANCH   3   4
ATOM      4  C   UNL     1     -15.468 -14.428   2.975  1.00  0.00     0.000 C 
BRANCH   4   5
ATOM      5  C   UNL     1     -15.449 -14.541   4.505  1.00  0.00     0.000 C 
BRANCH   5   6
ATOM      6  C   UNL     1     -14.033 -14.306   5.053  1.00  0.00     0.000 C 
BRANCH   6   7
ATOM      7  C   UNL     1     -13.796 -12.859   5.527  1.00  0.00     0.000 C 
BRANCH   7   8
ATOM      8  C   UNL     1     -12.769 -12.052   4.704  1.00  0.00     0.000 C 
BRANCH   8   9
ATOM      9  C   UNL     1     -13.350 -10.827   3.961  1.00  0.00     0.000 C 
BRANCH   9  10
ATOM     10  C   UNL     1     -13.848 -11.138   2.537  1.00  0.00     0.000 C 
BRANCH  10  11
ATOM     11  C   UNL     1     -14.375  -9.924   1.750  1.00  0.00     0.000 C 
BRANCH  11  12
ATOM     12  C   UNL     1     -14.066  -8.550   2.383  1.00  0.00     0.006 C 
BRANCH  12  13
ATOM     13  C   UNL     1     -13.453  -7.524   1.416  1.00  0.00     0.053 C 
BRANCH  13  14
ATOM     14  C   UNL     1     -13.069  -6.255   2.113  1.00  0.00     0.041 C 
ATOM     15  O   UNL     1     -12.305  -5.428   1.548  1.00  0.00    -0.550 OA
ATOM     16  O   UNL     1     -13.582  -5.969   3.373  1.00  0.00    -0.550 OA
ENDBRANCH  13  14
ENDBRANCH  12  13
ENDBRANCH  11  12
ENDBRANCH  10  11
ENDBRANCH   9  10
ENDBRANCH   8   9
ENDBRANCH   7   8
ENDBRANCH   6   7
ENDBRANCH   5   6
ENDBRANCH   4   5
ENDBRANCH   3   4
ENDBRANCH   2   3
ENDBRANCH   1   2
BRANCH   1  17
ATOM     17  C   UNL     1     -12.381 -18.003   1.013  1.00  0.00     0.000 C 
BRANCH  17  18
ATOM     18  C   UNL     1     -12.242 -19.514   1.273  1.00  0.00     0.000 C 
BRANCH  18  19
ATOM     19  C   UNL     1     -13.565 -20.306   1.283  1.00  0.00     0.000 C 
BRANCH  19  20
ATOM     20  C   UNL     1     -13.469 -21.735   1.854  1.00  0.00     0.000 C 
BRANCH  20  21
ATOM     21  C   UNL     1     -12.900 -21.821   3.282  1.00  0.00     0.000 C 
BRANCH  21  22
ATOM     22  C   UNL     1     -13.599 -22.893   4.136  1.00  0.00    -0.000 C 
BRANCH  22  23
ATOM     23  C   UNL     1     -14.365 -22.290   5.325  1.00  0.00    -0.000 C 
BRANCH  23  24
ATOM     24  C   UNL     1     -15.710 -21.669   4.904  1.00  0.00    -0.000 C 
BRANCH  24  25
ATOM     25  C   UNL     1     -15.844 -20.203   5.342  1.00  0.00    -0.000 C 
BRANCH  25  26
ATOM     26  C   UNL     1     -15.210 -19.227   4.339  1.00  0.00    -0.000 C 
BRANCH  26  27
ATOM     27  C   UNL     1     -14.263 -18.248   5.048  1.00  0.00    -0.000 C 
BRANCH  27  28
ATOM     28  C   UNL     1     -12.933 -18.899   5.458  1.00  0.00    -0.000 C 
BRANCH  28  29
ATOM     29  C   UNL     1     -11.747 -18.397   4.621  1.00  0.00    -0.003 C 
ATOM     30  C   UNL     1     -10.436 -18.529   5.393  1.00  0.00     0.004 C 
ENDBRANCH  28  29
ENDBRANCH  27  28
ENDBRANCH  26  27
ENDBRANCH  25  26
ENDBRANCH  24  25
ENDBRANCH  23  24
ENDBRANCH  22  23
ENDBRANCH  21  22
ENDBRANCH  20  21
ENDBRANCH  19  20
ENDBRANCH  18  19
ENDBRANCH  17  18
ENDBRANCH   1  17
TORSDOF 26
ENDMDL
MODEL 2
REMARK VINA RESULT:    -2.813      2.106      4.102
REMARK INTER + INTRA:         -10.925
REMARK INTER:                  -6.810
REMARK INTRA:                  -4.115
REMARK UNBOUND:                -3.837
REMARK SMILES CCCCCCCCCCCCCCCCCCCCCCCCCCCC(=O)[O-]
REMARK SMILES IDX 15 1 16 2 17 3 18 4 19 5 20 6 21 7 22 8 23 9 24 10 25 11
REMARK SMILES IDX 26 12 27 13 28 14 29 15 30 16 14 17 13 18 12 19 11 20 10 21
REMARK SMILES IDX 9 22 8 23 7 24 6 25 5 26 4 27 3 28 2 29 1 30
REMARK H PARENT
REMARK Flexibility Score: inf
ROOT
ATOM      1  C   UNL     1     -12.059 -18.741   5.004  1.00  0.00     0.000 C 
ENDROOT
BRANCH   1   2
ATOM      2  C   UNL     1     -13.380 -17.998   5.273  1.00  0.00     0.000 C 
BRANCH   2   3
ATOM      3  C   UNL     1     -14.130 -18.434   6.545  1.00  0.00     0.000 C 
BRANCH   3   4
ATOM      4  C   UNL     1     -15.493 -17.743   6.702  1.00  0.00     0.000 C 
BRANCH   4   5
ATOM      5  C   UNL     1     -15.838 -16.909   5.462  1.00  0.00     0.000 C 
BRANCH   5   6
ATOM      6  C   UNL     1     -15.965 -15.421   5.822  1.00  0.00     0.000 C 
BRANCH   6   7
ATOM      7  C   UNL     1     -14.762 -14.577   5.359  1.00  0.00     0.000 C 
BRANCH   7   8
ATOM      8  C   UNL     1     -14.144 -14.989   4.006  1.00  0.00     0.000 C 
BRANCH   8   9
ATOM      9  C   UNL     1     -14.800 -14.340   2.766  1.00  0.00     0.000 C 
BRANCH   9  10
ATOM     10  C   UNL     1     -14.832 -12.801   2.809  1.00  0.00     0.000 C 
BRANCH  10  11
ATOM     11  C   UNL     1     -13.490 -12.111   2.501  1.00  0.00     0.000 C 
BRANCH  11  12
ATOM     12  C   UNL     1     -13.002 -11.119   3.579  1.00  0.00     0.006 C 
BRANCH  12  13
ATOM     13  C   UNL     1     -13.927 -10.995   4.800  1.00  0.00     0.053 C 
BRANCH  13  14
ATOM     14  C   UNL     1     -14.771  -9.760   4.742  1.00  0.00     0.041 C 
ATOM     15  O   UNL     1     -14.470  -8.823   3.956  1.00  0.00    -0.550 OA
ATOM     16  O   UNL     1     -15.911  -9.657   5.530  1.00  0.00    -0.550 OA
ENDBRANCH  13  14
ENDBRANCH  12  13
ENDBRANCH  11  12
ENDBRANCH  10  11
ENDBRANCH   9  10
ENDBRANCH   8   9
ENDBRANCH   7   8
ENDBRANCH   6   7
ENDBRANCH   5   6
ENDBRANCH   4   5
ENDBRANCH   3   4
ENDBRANCH   2   3
ENDBRANCH   1   2
BRANCH   1  17
ATOM     17  C   UNL     1     -11.975 -19.315   3.580  1.00  0.00     0.000 C 
BRANCH  17  18
ATOM     18  C   UNL     1     -13.003 -18.688   2.620  1.00  0.00     0.000 C 
BRANCH  18  19
ATOM     19  C   UNL     1     -13.818 -19.691   1.779  1.00  0.00     0.000 C 
BRANCH  19  20
ATOM     20  C   UNL     1     -15.347 -19.495   1.826  1.00  0.00     0.000 C 
BRANCH  20  21
ATOM     21  C   UNL     1     -15.990 -19.773   3.196  1.00  0.00     0.000 C 
BRANCH  21  22
ATOM     22  C   UNL     1     -15.787 -21.226   3.663  1.00  0.00    -0.000 C 
BRANCH  22  23
ATOM     23  C   UNL     1     -14.859 -21.327   4.884  1.00  0.00    -0.000 C 
BRANCH  23  24
ATOM     24  C   UNL     1     -13.800 -22.433   4.727  1.00  0.00    -0.000 C 
BRANCH  24  25
ATOM     25  C   UNL     1     -14.423 -23.829   4.578  1.00  0.00    -0.000 C 
BRANCH  25  26
ATOM     26  C   UNL     1     -13.839 -24.613   3.392  1.00  0.00    -0.000 C 
BRANCH  26  27
ATOM     27  C   UNL     1     -14.309 -24.019   2.056  1.00  0.00    -0.000 C 
BRANCH  27  28
ATOM     28  C   UNL     1     -13.342 -24.317   0.900  1.00  0.00    -0.000 C 
BRANCH  28  29
ATOM     29  C   UNL     1     -11.877 -24.044   1.271  1.00  0.00    -0.003 C 
ATOM     30  C   UNL     1     -11.619 -22.547   1.425  1.00  0.00     0.004 C 
ENDBRANCH  28  29
ENDBRANCH  27  28
ENDBRANCH  26  27
ENDBRANCH  25  26
ENDBRANCH  24  25
ENDBRANCH  23  24
ENDBRANCH  22  23
ENDBRANCH  21  22
ENDBRANCH  20  21
ENDBRANCH  19  20
ENDBRANCH  18  19
ENDBRANCH  17  18
ENDBRANCH   1  17
TORSDOF 26
ENDMDL
MODEL 3
REMARK VINA RESULT:    -2.763      1.767      3.651
REMARK INTER + INTRA:         -10.800
REMARK INTER:                  -6.675
REMARK INTRA:                  -4.125
REMARK UNBOUND:                -3.837
REMARK SMILES CCCCCCCCCCCCCCCCCCCCCCCCCCCC(=O)[O-]
REMARK SMILES IDX 15 1 16 2 17 3 18 4 19 5 20 6 21 7 22 8 23 9 24 10 25 11
REMARK SMILES IDX 26 12 27 13 28 14 29 15 30 16 14 17 13 18 12 19 11 20 10 21
REMARK SMILES IDX 9 22 8 23 7 24 6 25 5 26 4 27 3 28 2 29 1 30
REMARK H PARENT
REMARK Flexibility Score: inf
ROOT
ATOM      1  C   UNL     1     -12.710 -18.739   5.007  1.00  0.00     0.000 C 
ENDROOT
BRANCH   1   2
ATOM      2  C   UNL     1     -13.112 -17.298   4.646  1.00  0.00     0.000 C 
BRANCH   2   3
ATOM      3  C   UNL     1     -14.587 -16.942   4.911  1.00  0.00     0.000 C 
BRANCH   3   4
ATOM      4  C   UNL     1     -14.806 -15.442   5.156  1.00  0.00     0.000 C 
BRANCH   4   5
ATOM      5  C   UNL     1     -15.372 -14.754   3.907  1.00  0.00     0.000 C 
BRANCH   5   6
ATOM      6  C   UNL     1     -14.765 -15.352   2.630  1.00  0.00     0.000 C 
BRANCH   6   7
ATOM      7  C   UNL     1     -13.524 -14.588   2.129  1.00  0.00     0.000 C 
BRANCH   7   8
ATOM      8  C   UNL     1     -13.648 -13.050   2.128  1.00  0.00     0.000 C 
BRANCH   8   9
ATOM      9  C   UNL     1     -12.481 -12.302   2.814  1.00  0.00     0.000 C 
BRANCH   9  10
ATOM     10  C   UNL     1     -12.789 -11.850   4.254  1.00  0.00     0.000 C 
BRANCH  10  11
ATOM     11  C   UNL     1     -14.189 -11.244   4.463  1.00  0.00     0.000 C 
BRANCH  11  12
ATOM     12  C   UNL     1     -14.220  -9.707   4.611  1.00  0.00     0.006 C 
BRANCH  12  13
ATOM     13  C   UNL     1     -13.538  -8.941   3.466  1.00  0.00     0.053 C 
BRANCH  13  14
ATOM     14  C   UNL     1     -14.379  -8.916   2.227  1.00  0.00     0.041 C 
ATOM     15  O   UNL     1     -15.503  -8.348   2.235  1.00  0.00    -0.550 OA
ATOM     16  O   UNL     1     -13.908  -9.491   1.053  1.00  0.00    -0.550 OA
ENDBRANCH  13  14
ENDBRANCH  12  13
ENDBRANCH  11  12
ENDBRANCH  10  11
ENDBRANCH   9  10
ENDBRANCH   8   9
ENDBRANCH   7   8
ENDBRANCH   6   7
ENDBRANCH   5   6
ENDBRANCH   4   5
ENDBRANCH   3   4
ENDBRANCH   2   3
ENDBRANCH   1   2
BRANCH   1  17
ATOM     17  C   UNL     1     -12.160 -19.525   3.805  1.00  0.00     0.000 C 
BRANCH  17  18
ATOM     18  C   UNL     1     -12.359 -18.790   2.467  1.00  0.00     0.000 C 
BRANCH  18  19
ATOM     19  C   UNL     1     -13.306 -19.483   1.468  1.00  0.00     0.000 C 
BRANCH  19  20
ATOM     20  C   UNL     1     -14.590 -18.700   1.131  1.00  0.00     0.000 C 
BRANCH  20  21
ATOM     21  C   UNL     1     -15.777 -18.973   2.072  1.00  0.00     0.000 C 
BRANCH  21  22
ATOM     22  C   UNL     1     -15.716 -20.370   2.714  1.00  0.00    -0.000 C 
BRANCH  22  23
ATOM     23  C   UNL     1     -16.025 -20.340   4.220  1.00  0.00    -0.000 C 
BRANCH  23  24
ATOM     24  C   UNL     1     -15.238 -21.405   5.003  1.00  0.00    -0.000 C 
BRANCH  24  25
ATOM     25  C   UNL     1     -16.060 -22.678   5.256  1.00  0.00    -0.000 C 
BRANCH  25  26
ATOM     26  C   UNL     1     -15.320 -23.954   4.827  1.00  0.00    -0.000 C 
BRANCH  26  27
ATOM     27  C   UNL     1     -15.145 -24.001   3.302  1.00  0.00    -0.000 C 
BRANCH  27  28
ATOM     28  C   UNL     1     -14.123 -25.057   2.853  1.00  0.00    -0.000 C 
BRANCH  28  29
ATOM     29  C   UNL     1     -12.832 -24.434   2.303  1.00  0.00    -0.003 C 
ATOM     30  C   UNL     1     -12.723 -22.962   2.693  1.00  0.00     0.004 C 
ENDBRANCH  28  29
ENDBRANCH  27  28
ENDBRANCH  26  27
ENDBRANCH  25  26
ENDBRANCH  24  25
ENDBRANCH  23  24
ENDBRANCH  22  23
ENDBRANCH  21  22
ENDBRANCH  20  21
ENDBRANCH  19  20
ENDBRANCH  18  19
ENDBRANCH  17  18
ENDBRANCH   1  17
TORSDOF 26
ENDMDL
MODEL 4
REMARK VINA RESULT:    -2.613      3.810     11.080
REMARK INTER + INTRA:         -10.423
REMARK INTER:                  -7.095
REMARK INTRA:                  -3.328
REMARK UNBOUND:                -3.837
REMARK SMILES CCCCCCCCCCCCCCCCCCCCCCCCCCCC(=O)[O-]
REMARK SMILES IDX 15 1 16 2 17 3 18 4 19 5 20 6 21 7 22 8 23 9 24 10 25 11
REMARK SMILES IDX 26 12 27 13 28 14 29 15 30 16 14 17 13 18 12 19 11 20 10 21
REMARK SMILES IDX 9 22 8 23 7 24 6 25 5 26 4 27 3 28 2 29 1 30
REMARK H PARENT
REMARK Flexibility Score: inf
ROOT
ATOM      1  C   UNL     1     -14.563 -14.031   5.405  1.00  0.00     0.000 C 
ENDROOT
BRANCH   1   2
ATOM      2  C   UNL     1     -15.005 -15.363   4.773  1.00  0.00     0.000 C 
BRANCH   2   3
ATOM      3  C   UNL     1     -13.887 -16.158   4.073  1.00  0.00     0.000 C 
BRANCH   3   4
ATOM      4  C   UNL     1     -14.408 -17.042   2.930  1.00  0.00     0.000 C 
BRANCH   4   5
ATOM      5  C   UNL     1     -13.252 -17.614   2.100  1.00  0.00     0.000 C 
BRANCH   5   6
ATOM      6  C   UNL     1     -13.614 -18.997   1.537  1.00  0.00     0.000 C 
BRANCH   6   7
ATOM      7  C   UNL     1     -12.394 -19.778   1.009  1.00  0.00     0.000 C 
BRANCH   7   8
ATOM      8  C   UNL     1     -12.043 -21.064   1.786  1.00  0.00     0.000 C 
BRANCH   8   9
ATOM      9  C   UNL     1     -13.033 -22.235   1.587  1.00  0.00     0.000 C 
BRANCH   9  10
ATOM     10  C   UNL     1     -13.924 -22.516   2.812  1.00  0.00     0.000 C 
BRANCH  10  11
ATOM     11  C   UNL     1     -13.168 -22.700   4.141  1.00  0.00     0.000 C 
BRANCH  11  12
ATOM     12  C   UNL     1     -13.789 -21.973   5.353  1.00  0.00     0.006 C 
BRANCH  12  13
ATOM     13  C   UNL     1     -14.362 -20.582   5.040  1.00  0.00     0.053 C 
BRANCH  13  14
ATOM     14  C   UNL     1     -13.478 -19.484   5.546  1.00  0.00     0.041 C 
ATOM     15  O   UNL     1     -13.847 -18.768   6.513  1.00  0.00    -0.550 OA
ATOM     16  O   UNL     1     -12.230 -19.273   4.971  1.00  0.00    -0.550 OA
ENDBRANCH  13  14
ENDBRANCH  12  13
ENDBRANCH  11  12
ENDBRANCH  10  11
ENDBRANCH   9  10
ENDBRANCH   8   9
ENDBRANCH   7   8
ENDBRANCH   6   7
ENDBRANCH   5   6
ENDBRANCH   4   5
ENDBRANCH   3   4
ENDBRANCH   2   3
ENDBRANCH   1   2
BRANCH   1  17
ATOM     17  C   UNL     1     -15.313 -12.819   4.827  1.00  0.00     0.000 C 
BRANCH  17  18
ATOM     18  C   UNL     1     -15.202 -12.721   3.294  1.00  0.00     0.000 C 
BRANCH  18  19
ATOM     19  C   UNL     1     -13.802 -12.363   2.756  1.00  0.00     0.000 C 
BRANCH  19  20
ATOM     20  C   UNL     1     -13.772 -11.229   1.711  1.00  0.00     0.000 C 
BRANCH  20  21
ATOM     21  C   UNL     1     -14.220  -9.854   2.240  1.00  0.00     0.000 C 
BRANCH  21  22
ATOM     22  C   UNL     1     -13.402  -9.393   3.459  1.00  0.00    -0.000 C 
BRANCH  22  23
ATOM     23  C   UNL     1     -14.257  -9.276   4.731  1.00  0.00    -0.000 C 
BRANCH  23  24
ATOM     24  C   UNL     1     -15.156  -8.026   4.722  1.00  0.00    -0.000 C 
BRANCH  24  25
ATOM     25  C   UNL     1     -14.375  -6.736   5.016  1.00  0.00    -0.000 C 
BRANCH  25  26
ATOM     26  C   UNL     1     -14.589  -5.659   3.942  1.00  0.00    -0.000 C 
BRANCH  26  27
ATOM     27  C   UNL     1     -15.258  -6.253   2.693  1.00  0.00    -0.000 C 
BRANCH  27  28
ATOM     28  C   UNL     1     -14.563  -5.832   1.390  1.00  0.00    -0.000 C 
BRANCH  28  29
ATOM     29  C   UNL     1     -13.152  -6.423   1.255  1.00  0.00    -0.003 C 
ATOM     30  C   UNL     1     -12.103  -5.319   1.141  1.00  0.00     0.004 C 
ENDBRANCH  28  29
ENDBRANCH  27  28
ENDBRANCH  26  27
ENDBRANCH  25  26
ENDBRANCH  24  25
ENDBRANCH  23  24
ENDBRANCH  22  23
ENDBRANCH  21  22
ENDBRANCH  20  21
ENDBRANCH  19  20
ENDBRANCH  18  19
ENDBRANCH  17  18
ENDBRANCH   1  17
TORSDOF 26
ENDMDL
MODEL 5
REMARK VINA RESULT:    -2.610      4.558     10.578
REMARK INTER + INTRA:         -10.415
REMARK INTER:                  -7.178
REMARK INTRA:                  -3.237
REMARK UNBOUND:                -3.837
REMARK SMILES CCCCCCCCCCCCCCCCCCCCCCCCCCCC(=O)[O-]
REMARK SMILES IDX 15 1 16 2 17 3 18 4 19 5 20 6 21 7 22 8 23 9 24 10 25 11
REMARK SMILES IDX 26 12 27 13 28 14 29 15 30 16 14 17 13 18 12 19 11 20 10 21
REMARK SMILES IDX 9 22 8 23 7 24 6 25 5 26 4 27 3 28 2 29 1 30
REMARK H PARENT
REMARK Flexibility Score: inf
ROOT
ATOM      1  C   UNL     1     -12.891 -18.985   5.757  1.00  0.00     0.000 C 
ENDROOT
BRANCH   1   2
ATOM      2  C   UNL     1     -12.345 -18.637   4.361  1.00  0.00     0.000 C 
BRANCH   2   3
ATOM      3  C   UNL     1     -12.757 -19.604   3.236  1.00  0.00     0.000 C 
BRANCH   3   4
ATOM      4  C   UNL     1     -13.155 -18.881   1.941  1.00  0.00     0.000 C 
BRANCH   4   5
ATOM      5  C   UNL     1     -14.623 -19.146   1.586  1.00  0.00     0.000 C 
BRANCH   5   6
ATOM      6  C   UNL     1     -15.372 -19.762   2.778  1.00  0.00     0.000 C 
BRANCH   6   7
ATOM      7  C   UNL     1     -16.099 -21.075   2.427  1.00  0.00     0.000 C 
BRANCH   7   8
ATOM      8  C   UNL     1     -16.112 -22.144   3.540  1.00  0.00     0.000 C 
BRANCH   8   9
ATOM      9  C   UNL     1     -15.522 -21.682   4.892  1.00  0.00     0.000 C 
BRANCH   9  10
ATOM     10  C   UNL     1     -14.335 -22.534   5.380  1.00  0.00     0.000 C 
BRANCH  10  11
ATOM     11  C   UNL     1     -13.235 -22.783   4.332  1.00  0.00     0.000 C 
BRANCH  11  12
ATOM     12  C   UNL     1     -13.413 -24.065   3.490  1.00  0.00     0.006 C 
BRANCH  12  13
ATOM     13  C   UNL     1     -12.422 -24.208   2.324  1.00  0.00     0.053 C 
BRANCH  13  14
ATOM     14  C   UNL     1     -12.405 -22.992   1.449  1.00  0.00     0.041 C 
ATOM     15  O   UNL     1     -13.470 -22.581   0.917  1.00  0.00    -0.550 OA
ATOM     16  O   UNL     1     -11.221 -22.294   1.248  1.00  0.00    -0.550 OA
ENDBRANCH  13  14
ENDBRANCH  12  13
ENDBRANCH  11  12
ENDBRANCH  10  11
ENDBRANCH   9  10
ENDBRANCH   8   9
ENDBRANCH   7   8
ENDBRANCH   6   7
ENDBRANCH   5   6
ENDBRANCH   4   5
ENDBRANCH   3   4
ENDBRANCH   2   3
ENDBRANCH   1   2
BRANCH   1  17
ATOM     17  C   UNL     1     -14.301 -18.423   6.005  1.00  0.00     0.000 C 
BRANCH  17  18
ATOM     18  C   UNL     1     -14.565 -17.110   5.244  1.00  0.00     0.000 C 
BRANCH  18  19
ATOM     19  C   UNL     1     -15.804 -16.318   5.706  1.00  0.00     0.000 C 
BRANCH  19  20
ATOM     20  C   UNL     1     -16.000 -14.951   5.020  1.00  0.00     0.000 C 
BRANCH  20  21
ATOM     21  C   UNL     1     -15.400 -13.756   5.782  1.00  0.00     0.000 C 
BRANCH  21  22
ATOM     22  C   UNL     1     -13.980 -13.400   5.305  1.00  0.00    -0.000 C 
BRANCH  22  23
ATOM     23  C   UNL     1     -13.832 -13.494   3.778  1.00  0.00    -0.000 C 
BRANCH  23  24
ATOM     24  C   UNL     1     -13.379 -12.165   3.148  1.00  0.00    -0.000 C 
BRANCH  24  25
ATOM     25  C   UNL     1     -13.005 -11.111   4.201  1.00  0.00    -0.000 C 
BRANCH  25  26
ATOM     26  C   UNL     1     -13.361  -9.683   3.760  1.00  0.00    -0.000 C 
BRANCH  26  27
ATOM     27  C   UNL     1     -13.841  -9.662   2.301  1.00  0.00    -0.000 C 
BRANCH  27  28
ATOM     28  C   UNL     1     -14.429  -8.305   1.888  1.00  0.00    -0.000 C 
BRANCH  28  29
ATOM     29  C   UNL     1     -15.773  -8.011   2.571  1.00  0.00    -0.003 C 
ATOM     30  C   UNL     1     -15.608  -6.985   3.690  1.00  0.00     0.004 C 
ENDBRANCH  28  29
ENDBRANCH  27  28
ENDBRANCH  26  27
ENDBRANCH  25  26
ENDBRANCH  24  25
ENDBRANCH  23  24
ENDBRANCH  22  23
ENDBRANCH  21  22
ENDBRANCH  20  21
ENDBRANCH  19  20
ENDBRANCH  18  19
ENDBRANCH  17  18
ENDBRANCH   1  17
TORSDOF 26
ENDMDL
MODEL 6
REMARK VINA RESULT:    -2.549      4.460     10.694
REMARK INTER + INTRA:         -10.260
REMARK INTER:                  -6.910
REMARK INTRA:                  -3.350
REMARK UNBOUND:                -3.837
REMARK SMILES CCCCCCCCCCCCCCCCCCCCCCCCCCCC(=O)[O-]
REMARK SMILES IDX 15 1 16 2 17 3 18 4 19 5 20 6 21 7 22 8 23 9 24 10 25 11
REMARK SMILES IDX 26 12 27 13 28 14 29 15 30 16 14 17 13 18 12 19 11 20 10 21
REMARK SMILES IDX 9 22 8 23 7 24 6 25 5 26 4 27 3 28 2 29 1 30
REMARK H PARENT
REMARK Flexibility Score: inf
ROOT
ATOM      1  C   UNL     1     -15.093 -16.493   1.931  1.00  0.00     0.000 C 
ENDROOT
BRANCH   1   2
ATOM      2  C   UNL     1     -13.553 -16.516   1.940  1.00  0.00     0.000 C 
BRANCH   2   3
ATOM      3  C   UNL     1     -12.916 -17.876   1.597  1.00  0.00     0.000 C 
BRANCH   3   4
ATOM      4  C   UNL     1     -12.373 -18.610   2.832  1.00  0.00     0.000 C 
BRANCH   4   5
ATOM      5  C   UNL     1     -12.699 -17.844   4.120  1.00  0.00     0.000 C 
BRANCH   5   6
ATOM      6  C   UNL     1     -12.739 -18.794   5.327  1.00  0.00     0.000 C 
BRANCH   6   7
ATOM      7  C   UNL     1     -12.835 -20.280   4.929  1.00  0.00     0.000 C 
BRANCH   7   8
ATOM      8  C   UNL     1     -13.868 -21.113   5.716  1.00  0.00     0.000 C 
BRANCH   8   9
ATOM      9  C   UNL     1     -15.086 -21.588   4.890  1.00  0.00     0.000 C 
BRANCH   9  10
ATOM     10  C   UNL     1     -15.858 -20.448   4.200  1.00  0.00     0.000 C 
BRANCH  10  11
ATOM     11  C   UNL     1     -15.557 -20.269   2.701  1.00  0.00     0.000 C 
BRANCH  11  12
ATOM     12  C   UNL     1     -15.228 -21.571   1.940  1.00  0.00     0.006 C 
BRANCH  12  13
ATOM     13  C   UNL     1     -14.030 -21.466   0.982  1.00  0.00     0.053 C 
BRANCH  13  14
ATOM     14  C   UNL     1     -12.777 -22.020   1.587  1.00  0.00     0.041 C 
ATOM     15  O   UNL     1     -11.652 -21.608   1.200  1.00  0.00    -0.550 OA
ATOM     16  O   UNL     1     -12.852 -22.966   2.602  1.00  0.00    -0.550 OA
ENDBRANCH  13  14
ENDBRANCH  12  13
ENDBRANCH  11  12
ENDBRANCH  10  11
ENDBRANCH   9  10
ENDBRANCH   8   9
ENDBRANCH   7   8
ENDBRANCH   6   7
ENDBRANCH   5   6
ENDBRANCH   4   5
ENDBRANCH   3   4
ENDBRANCH   2   3
ENDBRANCH   1   2
BRANCH   1  17
ATOM     17  C   UNL     1     -15.676 -15.259   2.638  1.00  0.00     0.000 C 
BRANCH  17  18
ATOM     18  C   UNL     1     -14.616 -14.458   3.417  1.00  0.00     0.000 C 
BRANCH  18  19
ATOM     19  C   UNL     1     -14.646 -14.640   4.947  1.00  0.00     0.000 C 
BRANCH  19  20
ATOM     20  C   UNL     1     -14.358 -13.365   5.765  1.00  0.00     0.000 C 
BRANCH  20  21
ATOM     21  C   UNL     1     -13.368 -12.387   5.105  1.00  0.00     0.000 C 
BRANCH  21  22
ATOM     22  C   UNL     1     -14.044 -11.088   4.631  1.00  0.00    -0.000 C 
BRANCH  22  23
ATOM     23  C   UNL     1     -13.084 -10.176   3.851  1.00  0.00    -0.000 C 
BRANCH  23  24
ATOM     24  C   UNL     1     -13.484  -8.692   3.936  1.00  0.00    -0.000 C 
BRANCH  24  25
ATOM     25  C   UNL     1     -14.710  -8.462   4.833  1.00  0.00    -0.000 C 
BRANCH  25  26
ATOM     26  C   UNL     1     -15.579  -7.288   4.356  1.00  0.00    -0.000 C 
BRANCH  26  27
ATOM     27  C   UNL     1     -15.154  -6.824   2.955  1.00  0.00    -0.000 C 
BRANCH  27  28
ATOM     28  C   UNL     1     -14.765  -5.338   2.914  1.00  0.00    -0.000 C 
BRANCH  28  29
ATOM     29  C   UNL     1     -13.253  -5.129   2.744  1.00  0.00    -0.003 C 
ATOM     30  C   UNL     1     -12.713  -5.949   1.575  1.00  0.00     0.004 C 
ENDBRANCH  28  29
ENDBRANCH  27  28
ENDBRANCH  26  27
ENDBRANCH  25  26
ENDBRANCH  24  25
ENDBRANCH  23  24
ENDBRANCH  22  23
ENDBRANCH  21  22
ENDBRANCH  20  21
ENDBRANCH  19  20
ENDBRANCH  18  19
ENDBRANCH  17  18
ENDBRANCH   1  17
TORSDOF 26
ENDMDL
MODEL 7
REMARK VINA RESULT:    -2.264      4.602     11.155
REMARK INTER + INTRA:          -9.541
REMARK INTER:                  -6.341
REMARK INTRA:                  -3.200
REMARK UNBOUND:                -3.837
REMARK SMILES CCCCCCCCCCCCCCCCCCCCCCCCCCCC(=O)[O-]
REMARK SMILES IDX 15 1 16 2 17 3 18 4 19 5 20 6 21 7 22 8 23 9 24 10 25 11
REMARK SMILES IDX 26 12 27 13 28 14 29 15 30 16 14 17 13 18 12 19 11 20 10 21
REMARK SMILES IDX 9 22 8 23 7 24 6 25 5 26 4 27 3 28 2 29 1 30
REMARK H PARENT
REMARK Flexibility Score: inf
ROOT
ATOM      1  C   UNL     1     -13.774 -13.263   4.721  1.00  0.00     0.000 C 
ENDROOT
BRANCH   1   2
ATOM      2  C   UNL     1     -14.256 -14.306   3.696  1.00  0.00     0.000 C 
BRANCH   2   3
ATOM      3  C   UNL     1     -13.403 -14.412   2.419  1.00  0.00     0.000 C 
BRANCH   3   4
ATOM      4  C   UNL     1     -14.249 -14.522   1.142  1.00  0.00     0.000 C 
BRANCH   4   5
ATOM      5  C   UNL     1     -15.465 -15.432   1.359  1.00  0.00     0.000 C 
BRANCH   5   6
ATOM      6  C   UNL     1     -15.173 -16.860   0.876  1.00  0.00     0.000 C 
BRANCH   6   7
ATOM      7  C   UNL     1     -14.905 -17.850   2.027  1.00  0.00     0.000 C 
BRANCH   7   8
ATOM      8  C   UNL     1     -13.424 -18.020   2.424  1.00  0.00     0.000 C 
BRANCH   8   9
ATOM      9  C   UNL     1     -13.078 -17.562   3.860  1.00  0.00     0.000 C 
BRANCH   9  10
ATOM     10  C   UNL     1     -12.012 -18.430   4.554  1.00  0.00     0.000 C 
BRANCH  10  11
ATOM     11  C   UNL     1     -12.548 -19.379   5.641  1.00  0.00     0.000 C 
BRANCH  11  12
ATOM     12  C   UNL     1     -13.846 -20.129   5.272  1.00  0.00     0.006 C 
BRANCH  12  13
ATOM     13  C   UNL     1     -13.742 -21.661   5.342  1.00  0.00     0.053 C 
BRANCH  13  14
ATOM     14  C   UNL     1     -13.406 -22.263   4.013  1.00  0.00     0.041 C 
ATOM     15  O   UNL     1     -12.915 -21.548   3.100  1.00  0.00    -0.550 OA
ATOM     16  O   UNL     1     -13.603 -23.622   3.793  1.00  0.00    -0.550 OA
ENDBRANCH  13  14
ENDBRANCH  12  13
ENDBRANCH  11  12
ENDBRANCH  10  11
ENDBRANCH   9  10
ENDBRANCH   8   9
ENDBRANCH   7   8
ENDBRANCH   6   7
ENDBRANCH   5   6
ENDBRANCH   4   5
ENDBRANCH   3   4
ENDBRANCH   2   3
ENDBRANCH   1   2
BRANCH   1  17
ATOM     17  C   UNL     1     -14.930 -12.476   5.360  1.00  0.00     0.000 C 
BRANCH  17  18
ATOM     18  C   UNL     1     -16.120 -12.276   4.403  1.00  0.00     0.000 C 
BRANCH  18  19
ATOM     19  C   UNL     1     -15.969 -11.117   3.397  1.00  0.00     0.000 C 
BRANCH  19  20
ATOM     20  C   UNL     1     -16.003 -11.530   1.912  1.00  0.00     0.000 C 
BRANCH  20  21
ATOM     21  C   UNL     1     -15.356 -10.521   0.948  1.00  0.00     0.000 C 
BRANCH  21  22
ATOM     22  C   UNL     1     -15.263  -9.105   1.544  1.00  0.00    -0.000 C 
BRANCH  22  23
ATOM     23  C   UNL     1     -13.880  -8.468   1.337  1.00  0.00    -0.000 C 
BRANCH  23  24
ATOM     24  C   UNL     1     -13.960  -6.948   1.109  1.00  0.00    -0.000 C 
BRANCH  24  25
ATOM     25  C   UNL     1     -12.706  -6.211   1.601  1.00  0.00    -0.000 C 
BRANCH  25  26
ATOM     26  C   UNL     1     -13.021  -5.166   2.682  1.00  0.00    -0.000 C 
BRANCH  26  27
ATOM     27  C   UNL     1     -14.451  -5.339   3.214  1.00  0.00    -0.000 C 
BRANCH  27  28
ATOM     28  C   UNL     1     -14.490  -5.709   4.704  1.00  0.00    -0.000 C 
BRANCH  28  29
ATOM     29  C   UNL     1     -14.315  -7.216   4.944  1.00  0.00    -0.003 C 
ATOM     30  C   UNL     1     -15.667  -7.924   4.996  1.00  0.00     0.004 C 
ENDBRANCH  28  29
ENDBRANCH  27  28
ENDBRANCH  26  27
ENDBRANCH  25  26
ENDBRANCH  24  25
ENDBRANCH  23  24
ENDBRANCH  22  23
ENDBRANCH  21  22
ENDBRANCH  20  21
ENDBRANCH  19  20
ENDBRANCH  18  19
ENDBRANCH  17  18
ENDBRANCH   1  17
TORSDOF 26
ENDMDL
MODEL 8
REMARK VINA RESULT:    -2.156      1.667      3.452
REMARK INTER + INTRA:          -9.271
REMARK INTER:                  -6.143
REMARK INTRA:                  -3.128
REMARK UNBOUND:                -3.837
REMARK SMILES CCCCCCCCCCCCCCCCCCCCCCCCCCCC(=O)[O-]
REMARK SMILES IDX 15 1 16 2 17 3 18 4 19 5 20 6 21 7 22 8 23 9 24 10 25 11
REMARK SMILES IDX 26 12 27 13 28 14 29 15 30 16 14 17 13 18 12 19 11 20 10 21
REMARK SMILES IDX 9 22 8 23 7 24 6 25 5 26 4 27 3 28 2 29 1 30
REMARK H PARENT
REMARK Flexibility Score: inf
ROOT
ATOM      1  C   UNL     1     -13.587 -17.585   4.830  1.00  0.00     0.000 C 
ENDROOT
BRANCH   1   2
ATOM      2  C   UNL     1     -13.835 -16.236   4.132  1.00  0.00     0.000 C 
BRANCH   2   3
ATOM      3  C   UNL     1     -14.921 -16.253   3.039  1.00  0.00     0.000 C 
BRANCH   3   4
ATOM      4  C   UNL     1     -15.576 -14.881   2.825  1.00  0.00     0.000 C 
BRANCH   4   5
ATOM      5  C   UNL     1     -14.524 -13.805   2.526  1.00  0.00     0.000 C 
BRANCH   5   6
ATOM      6  C   UNL     1     -14.869 -13.047   1.235  1.00  0.00     0.000 C 
BRANCH   6   7
ATOM      7  C   UNL     1     -15.454 -11.645   1.489  1.00  0.00     0.000 C 
BRANCH   7   8
ATOM      8  C   UNL     1     -15.317 -11.121   2.934  1.00  0.00     0.000 C 
BRANCH   8   9
ATOM      9  C   UNL     1     -14.063 -10.255   3.196  1.00  0.00     0.000 C 
BRANCH   9  10
ATOM     10  C   UNL     1     -14.039  -9.593   4.587  1.00  0.00     0.000 C 
BRANCH  10  11
ATOM     11  C   UNL     1     -15.306  -8.797   4.953  1.00  0.00     0.000 C 
BRANCH  11  12
ATOM     12  C   UNL     1     -15.340  -7.345   4.430  1.00  0.00     0.006 C 
BRANCH  12  13
ATOM     13  C   UNL     1     -13.963  -6.755   4.091  1.00  0.00     0.053 C 
BRANCH  13  14
ATOM     14  C   UNL     1     -13.823  -6.458   2.630  1.00  0.00     0.041 C 
ATOM     15  O   UNL     1     -14.627  -5.670   2.064  1.00  0.00    -0.550 OA
ATOM     16  O   UNL     1     -12.785  -7.024   1.899  1.00  0.00    -0.550 OA
ENDBRANCH  13  14
ENDBRANCH  12  13
ENDBRANCH  11  12
ENDBRANCH  10  11
ENDBRANCH   9  10
ENDBRANCH   8   9
ENDBRANCH   7   8
ENDBRANCH   6   7
ENDBRANCH   5   6
ENDBRANCH   4   5
ENDBRANCH   3   4
ENDBRANCH   2   3
ENDBRANCH   1   2
BRANCH   1  17
ATOM     17  C   UNL     1     -12.156 -18.109   4.627  1.00  0.00     0.000 C 
BRANCH  17  18
ATOM     18  C   UNL     1     -12.092 -19.333   3.695  1.00  0.00     0.000 C 
BRANCH  18  19
ATOM     19  C   UNL     1     -13.093 -19.321   2.522  1.00  0.00     0.000 C 
BRANCH  19  20
ATOM     20  C   UNL     1     -13.863 -20.639   2.305  1.00  0.00     0.000 C 
BRANCH  20  21
ATOM     21  C   UNL     1     -15.396 -20.494   2.297  1.00  0.00     0.000 C 
BRANCH  21  22
ATOM     22  C   UNL     1     -15.942 -19.889   3.602  1.00  0.00    -0.000 C 
BRANCH  22  23
ATOM     23  C   UNL     1     -15.435 -20.629   4.851  1.00  0.00    -0.000 C 
BRANCH  23  24
ATOM     24  C   UNL     1     -16.125 -21.991   5.048  1.00  0.00    -0.000 C 
BRANCH  24  25
ATOM     25  C   UNL     1     -15.130 -23.111   5.387  1.00  0.00    -0.000 C 
BRANCH  25  26
ATOM     26  C   UNL     1     -13.673 -22.711   5.108  1.00  0.00    -0.000 C 
BRANCH  26  27
ATOM     27  C   UNL     1     -13.010 -23.695   4.132  1.00  0.00    -0.000 C 
BRANCH  27  28
ATOM     28  C   UNL     1     -14.013 -24.337   3.162  1.00  0.00    -0.000 C 
BRANCH  28  29
ATOM     29  C   UNL     1     -13.420 -24.561   1.763  1.00  0.00    -0.003 C 
ATOM     30  C   UNL     1     -12.101 -23.811   1.599  1.00  0.00     0.004 C 
ENDBRANCH  28  29
ENDBRANCH  27  28
ENDBRANCH  26  27
ENDBRANCH  25  26
ENDBRANCH  24  25
ENDBRANCH  23  24
ENDBRANCH  22  23
ENDBRANCH  21  22
ENDBRANCH  20  21
ENDBRANCH  19  20
ENDBRANCH  18  19
ENDBRANCH  17  18
ENDBRANCH   1  17
TORSDOF 26
ENDMDL
MODEL 9
REMARK VINA RESULT:    -2.015      3.568     10.313
REMARK INTER + INTRA:          -8.916
REMARK INTER:                  -5.981
REMARK INTRA:                  -2.935
REMARK UNBOUND:                -3.837
REMARK SMILES CCCCCCCCCCCCCCCCCCCCCCCCCCCC(=O)[O-]
REMARK SMILES IDX 15 1 16 2 17 3 18 4 19 5 20 6 21 7 22 8 23 9 24 10 25 11
REMARK SMILES IDX 26 12 27 13 28 14 29 15 30 16 14 17 13 18 12 19 11 20 10 21
REMARK SMILES IDX 9 22 8 23 7 24 6 25 5 26 4 27 3 28 2 29 1 30
REMARK H PARENT
REMARK Flexibility Score: inf
ROOT
ATOM      1  C   UNL     1     -15.769 -16.724   4.296  1.00  0.00     0.000 C 
ENDROOT
BRANCH   1   2
ATOM      2  C   UNL     1     -16.064 -16.504   2.802  1.00  0.00     0.000 C 
BRANCH   2   3
ATOM      3  C   UNL     1     -15.428 -17.534   1.850  1.00  0.00     0.000 C 
BRANCH   3   4
ATOM      4  C   UNL     1     -15.447 -18.962   2.415  1.00  0.00     0.000 C 
BRANCH   4   5
ATOM      5  C   UNL     1     -14.892 -19.968   1.398  1.00  0.00     0.000 C 
BRANCH   5   6
ATOM      6  C   UNL     1     -15.197 -21.410   1.832  1.00  0.00     0.000 C 
BRANCH   6   7
ATOM      7  C   UNL     1     -13.933 -22.276   1.998  1.00  0.00     0.000 C 
BRANCH   7   8
ATOM      8  C   UNL     1     -14.029 -23.392   3.059  1.00  0.00     0.000 C 
BRANCH   8   9
ATOM      9  C   UNL     1     -15.254 -23.295   3.997  1.00  0.00     0.000 C 
BRANCH   9  10
ATOM     10  C   UNL     1     -14.940 -22.680   5.373  1.00  0.00     0.000 C 
BRANCH  10  11
ATOM     11  C   UNL     1     -14.793 -21.147   5.385  1.00  0.00     0.000 C 
BRANCH  11  12
ATOM     12  C   UNL     1     -13.339 -20.629   5.322  1.00  0.00     0.006 C 
BRANCH  12  13
ATOM     13  C   UNL     1     -13.183 -19.127   5.606  1.00  0.00     0.053 C 
BRANCH  13  14
ATOM     14  C   UNL     1     -12.084 -18.513   4.794  1.00  0.00     0.041 C 
ATOM     15  O   UNL     1     -12.318 -18.083   3.634  1.00  0.00    -0.550 OA
ATOM     16  O   UNL     1     -10.808 -18.386   5.331  1.00  0.00    -0.550 OA
ENDBRANCH  13  14
ENDBRANCH  12  13
ENDBRANCH  11  12
ENDBRANCH  10  11
ENDBRANCH   9  10
ENDBRANCH   8   9
ENDBRANCH   7   8
ENDBRANCH   6   7
ENDBRANCH   5   6
ENDBRANCH   4   5
ENDBRANCH   3   4
ENDBRANCH   2   3
ENDBRANCH   1   2
BRANCH   1  17
ATOM     17  C   UNL     1     -14.711 -15.753   4.846  1.00  0.00     0.000 C 
BRANCH  17  18
ATOM     18  C   UNL     1     -15.313 -14.660   5.748  1.00  0.00     0.000 C 
BRANCH  18  19
ATOM     19  C   UNL     1     -15.274 -13.232   5.168  1.00  0.00     0.000 C 
BRANCH  19  20
ATOM     20  C   UNL     1     -13.905 -12.527   5.253  1.00  0.00     0.000 C 
BRANCH  20  21
ATOM     21  C   UNL     1     -13.129 -12.467   3.925  1.00  0.00     0.000 C 
BRANCH  21  22
ATOM     22  C   UNL     1     -14.051 -12.291   2.706  1.00  0.00    -0.000 C 
BRANCH  22  23
ATOM     23  C   UNL     1     -13.540 -11.219   1.730  1.00  0.00    -0.000 C 
BRANCH  23  24
ATOM     24  C   UNL     1     -14.668 -10.615   0.875  1.00  0.00    -0.000 C 
BRANCH  24  25
ATOM     25  C   UNL     1     -15.039  -9.190   1.310  1.00  0.00    -0.000 C 
BRANCH  25  26
ATOM     26  C   UNL     1     -15.813  -9.160   2.637  1.00  0.00    -0.000 C 
BRANCH  26  27
ATOM     27  C   UNL     1     -15.876  -7.734   3.204  1.00  0.00    -0.000 C 
BRANCH  27  28
ATOM     28  C   UNL     1     -15.053  -6.730   2.383  1.00  0.00    -0.000 C 
BRANCH  28  29
ATOM     29  C   UNL     1     -13.957  -6.045   3.213  1.00  0.00    -0.003 C 
ATOM     30  C   UNL     1     -14.333  -6.007   4.692  1.00  0.00     0.004 C 
ENDBRANCH  28  29
ENDBRANCH  27  28
ENDBRANCH  26  27
ENDBRANCH  25  26
ENDBRANCH  24  25
ENDBRANCH  23  24
ENDBRANCH  22  23
ENDBRANCH  21  22
ENDBRANCH  20  21
ENDBRANCH  19  20
ENDBRANCH  18  19
ENDBRANCH  17  18
ENDBRANCH   1  17
TORSDOF 26
ENDMDL
