MODEL 1
REMARK VINA RESULT:    -4.484      0.000      0.000
REMARK INTER + INTRA:          -5.479
REMARK INTER:                  -5.402
REMARK INTRA:                  -0.077
REMARK UNBOUND:                -0.077
REMARK SMILES NC(=O)C[C@@H]([NH3+])C(=O)[O-]
REMARK SMILES IDX 4 1 5 2 6 3 7 7 8 8 9 9 2 10 3 11 1 12
REMARK H PARENT 6 4 6 5 6 6 1 13 1 14
REMARK Flexibility Score: inf
ROOT
ATOM      1  C   UNL     1     -15.497 -28.089 -13.577  1.00  0.00     0.171 C 
ENDROOT
BRANCH   1   2
ATOM      2  C   UNL     1     -14.186 -27.666 -14.269  1.00  0.00     0.237 C 
BRANCH   2   3
ATOM      3  N   UNL     1     -14.037 -28.316 -15.578  1.00  0.00    -0.350 N 
ATOM      4  H   UNL     1     -13.719 -27.615 -16.288  1.00  0.00     0.345 HD
ATOM      5  H   UNL     1     -14.943 -28.733 -15.891  1.00  0.00     0.345 HD
ATOM      6  H   UNL     1     -13.312 -29.068 -15.524  1.00  0.00     0.345 HD
ENDBRANCH   2   3
BRANCH   2   7
ATOM      7  C   UNL     1     -14.160 -26.169 -14.429  1.00  0.00     0.100 C 
ATOM      8  O   UNL     1     -15.237 -25.521 -14.495  1.00  0.00    -0.544 OA
ATOM      9  O   UNL     1     -12.947 -25.495 -14.520  1.00  0.00    -0.544 OA
ENDBRANCH   2   7
ENDBRANCH   1   2
BRANCH   1  10
ATOM     10  C   UNL     1     -15.392 -29.463 -12.980  1.00  0.00     0.223 C 
ATOM     11  O   UNL     1     -14.845 -29.619 -11.857  1.00  0.00    -0.275 OA
ATOM     12  N   UNL     1     -15.936 -30.590 -13.666  1.00  0.00    -0.369 N 
ATOM     13  H   UNL     1     -16.403 -30.475 -14.594  1.00  0.00     0.159 HD
ATOM     14  H   UNL     1     -15.873 -31.543 -13.245  1.00  0.00     0.159 HD
ENDBRANCH   1  10
TORSDOF 4
ENDMDL
MODEL 2
REMARK VINA RESULT:    -4.410      1.849      3.717
REMARK INTER + INTRA:          -5.389
REMARK INTER:                  -5.048
REMARK INTRA:                  -0.340
REMARK UNBOUND:                -0.077
REMARK SMILES NC(=O)C[C@@H]([NH3+])C(=O)[O-]
REMARK SMILES IDX 4 1 5 2 6 3 7 7 8 8 9 9 2 10 3 11 1 12
REMARK H PARENT 6 4 6 5 6 6 1 13 1 14
REMARK Flexibility Score: inf
ROOT
ATOM      1  C   UNL     1     -14.413 -26.247 -14.482  1.00  0.00     0.171 C 
ENDROOT
BRANCH   1   2
ATOM      2  C   UNL     1     -14.930 -27.662 -14.811  1.00  0.00     0.237 C 
BRANCH   2   3
ATOM      3  N   UNL     1     -13.843 -28.534 -15.276  1.00  0.00    -0.350 N 
ATOM      4  H   UNL     1     -13.857 -28.591 -16.322  1.00  0.00     0.345 HD
ATOM      5  H   UNL     1     -13.945 -29.497 -14.880  1.00  0.00     0.345 HD
ATOM      6  H   UNL     1     -12.919 -28.139 -14.989  1.00  0.00     0.345 HD
ENDBRANCH   2   3
BRANCH   2   7
ATOM      7  C   UNL     1     -15.585 -28.256 -13.593  1.00  0.00     0.100 C 
ATOM      8  O   UNL     1     -16.667 -28.890 -13.702  1.00  0.00    -0.544 OA
ATOM      9  O   UNL     1     -15.009 -28.095 -12.338  1.00  0.00    -0.544 OA
ENDBRANCH   2   7
ENDBRANCH   1   2
BRANCH   1  10
ATOM     10  C   UNL     1     -12.915 -26.172 -14.554  1.00  0.00     0.223 C 
ATOM     11  O   UNL     1     -12.216 -26.703 -13.650  1.00  0.00    -0.275 OA
ATOM     12  N   UNL     1     -12.277 -25.529 -15.656  1.00  0.00    -0.369 N 
ATOM     13  H   UNL     1     -12.843 -25.094 -16.419  1.00  0.00     0.159 HD
ATOM     14  H   UNL     1     -11.236 -25.488 -15.712  1.00  0.00     0.159 HD
ENDBRANCH   1  10
TORSDOF 4
ENDMDL
MODEL 3
REMARK VINA RESULT:    -4.385      1.450      3.861
REMARK INTER + INTRA:          -5.359
REMARK INTER:                  -5.218
REMARK INTRA:                  -0.141
REMARK UNBOUND:                -0.077
REMARK SMILES NC(=O)C[C@@H]([NH3+])C(=O)[O-]
REMARK SMILES IDX 4 1 5 2 6 3 7 7 8 8 9 9 2 10 3 11 1 12
REMARK H PARENT 6 4 6 5 6 6 1 13 1 14
REMARK Flexibility Score: inf
ROOT
ATOM      1  C   UNL     1     -14.350 -27.781 -14.493  1.00  0.00     0.171 C 
ENDROOT
BRANCH   1   2
ATOM      2  C   UNL     1     -15.485 -28.022 -13.477  1.00  0.00     0.237 C 
BRANCH   2   3
ATOM      3  N   UNL     1     -16.275 -29.209 -13.828  1.00  0.00    -0.350 N 
ATOM      4  H   UNL     1     -16.663 -29.647 -12.959  1.00  0.00     0.345 HD
ATOM      5  H   UNL     1     -15.686 -29.912 -14.331  1.00  0.00     0.345 HD
ATOM      6  H   UNL     1     -17.081 -28.936 -14.436  1.00  0.00     0.345 HD
ENDBRANCH   2   3
BRANCH   2   7
ATOM      7  C   UNL     1     -14.902 -28.178 -12.097  1.00  0.00     0.100 C 
ATOM      8  O   UNL     1     -14.794 -29.321 -11.581  1.00  0.00    -0.544 OA
ATOM      9  O   UNL     1     -14.494 -27.060 -11.378  1.00  0.00    -0.544 OA
ENDBRANCH   2   7
ENDBRANCH   1   2
BRANCH   1  10
ATOM     10  C   UNL     1     -14.234 -26.330 -14.861  1.00  0.00     0.223 C 
ATOM     11  O   UNL     1     -15.132 -25.520 -14.511  1.00  0.00    -0.275 OA
ATOM     12  N   UNL     1     -13.095 -25.857 -15.580  1.00  0.00    -0.369 N 
ATOM     13  H   UNL     1     -12.336 -26.515 -15.867  1.00  0.00     0.159 HD
ATOM     14  H   UNL     1     -13.009 -24.846 -15.824  1.00  0.00     0.159 HD
ENDBRANCH   1  10
TORSDOF 4
ENDMDL
MODEL 4
REMARK VINA RESULT:    -4.364      1.821      3.815
REMARK INTER + INTRA:          -5.334
REMARK INTER:                  -5.016
REMARK INTRA:                  -0.318
REMARK UNBOUND:                -0.077
REMARK SMILES NC(=O)C[C@@H]([NH3+])C(=O)[O-]
REMARK SMILES IDX 4 1 5 2 6 3 7 7 8 8 9 9 2 10 3 11 1 12
REMARK H PARENT 6 4 6 5 6 6 1 13 1 14
REMARK Flexibility Score: inf
ROOT
ATOM      1  C   UNL     1     -14.524 -26.434 -14.132  1.00  0.00     0.171 C 
ENDROOT
BRANCH   1   2
ATOM      2  C   UNL     1     -15.034 -27.838 -14.516  1.00  0.00     0.237 C 
BRANCH   2   3
ATOM      3  N   UNL     1     -14.024 -28.586 -15.277  1.00  0.00    -0.350 N 
ATOM      4  H   UNL     1     -14.315 -28.653 -16.281  1.00  0.00     0.345 HD
ATOM      5  H   UNL     1     -13.907 -29.550 -14.890  1.00  0.00     0.345 HD
ATOM      6  H   UNL     1     -13.107 -28.086 -15.242  1.00  0.00     0.345 HD
ENDBRANCH   2   3
BRANCH   2   7
ATOM      7  C   UNL     1     -15.411 -28.596 -13.271  1.00  0.00     0.100 C 
ATOM      8  O   UNL     1     -15.166 -28.110 -12.136  1.00  0.00    -0.544 OA
ATOM      9  O   UNL     1     -16.017 -29.843 -13.367  1.00  0.00    -0.544 OA
ENDBRANCH   2   7
ENDBRANCH   1   2
BRANCH   1  10
ATOM     10  C   UNL     1     -13.054 -26.286 -14.398  1.00  0.00     0.223 C 
ATOM     11  O   UNL     1     -12.218 -26.818 -13.620  1.00  0.00    -0.275 OA
ATOM     12  N   UNL     1     -12.597 -25.571 -15.546  1.00  0.00    -0.369 N 
ATOM     13  H   UNL     1     -13.278 -25.135 -16.207  1.00  0.00     0.159 HD
ATOM     14  H   UNL     1     -11.575 -25.480 -15.737  1.00  0.00     0.159 HD
ENDBRANCH   1  10
TORSDOF 4
ENDMDL
MODEL 5
REMARK VINA RESULT:    -4.242      2.186      4.500
REMARK INTER + INTRA:          -5.187
REMARK INTER:                  -4.714
REMARK INTRA:                  -0.473
REMARK UNBOUND:                -0.077
REMARK SMILES NC(=O)C[C@@H]([NH3+])C(=O)[O-]
REMARK SMILES IDX 4 1 5 2 6 3 7 7 8 8 9 9 2 10 3 11 1 12
REMARK H PARENT 6 4 6 5 6 6 1 13 1 14
REMARK Flexibility Score: inf
ROOT
ATOM      1  C   UNL     1     -14.870 -29.571 -12.851  1.00  0.00     0.171 C 
ENDROOT
BRANCH   1   2
ATOM      2  C   UNL     1     -15.960 -30.646 -13.037  1.00  0.00     0.237 C 
BRANCH   2   3
ATOM      3  N   UNL     1     -17.123 -30.110 -13.758  1.00  0.00    -0.350 N 
ATOM      4  H   UNL     1     -17.605 -29.390 -13.169  1.00  0.00     0.345 HD
ATOM      5  H   UNL     1     -17.801 -30.872 -13.988  1.00  0.00     0.345 HD
ATOM      6  H   UNL     1     -16.814 -29.645 -14.642  1.00  0.00     0.345 HD
ENDBRANCH   2   3
BRANCH   2   7
ATOM      7  C   UNL     1     -15.388 -31.822 -13.781  1.00  0.00     0.100 C 
ATOM      8  O   UNL     1     -16.015 -32.913 -13.819  1.00  0.00    -0.544 OA
ATOM      9  O   UNL     1     -14.156 -31.718 -14.417  1.00  0.00    -0.544 OA
ENDBRANCH   2   7
ENDBRANCH   1   2
BRANCH   1  10
ATOM     10  C   UNL     1     -14.909 -28.545 -13.946  1.00  0.00     0.223 C 
ATOM     11  O   UNL     1     -15.606 -27.505 -13.808  1.00  0.00    -0.275 OA
ATOM     12  N   UNL     1     -14.137 -28.727 -15.133  1.00  0.00    -0.369 N 
ATOM     13  H   UNL     1     -13.545 -29.579 -15.257  1.00  0.00     0.159 HD
ATOM     14  H   UNL     1     -14.155 -28.007 -15.888  1.00  0.00     0.159 HD
ENDBRANCH   1  10
TORSDOF 4
ENDMDL
MODEL 6
REMARK VINA RESULT:    -4.237      1.942      4.095
REMARK INTER + INTRA:          -5.181
REMARK INTER:                  -4.865
REMARK INTRA:                  -0.316
REMARK UNBOUND:                -0.077
REMARK SMILES NC(=O)C[C@@H]([NH3+])C(=O)[O-]
REMARK SMILES IDX 4 1 5 2 6 3 7 7 8 8 9 9 2 10 3 11 1 12
REMARK H PARENT 6 4 6 5 6 6 1 13 1 14
REMARK Flexibility Score: inf
ROOT
ATOM      1  C   UNL     1     -14.060 -27.684 -14.954  1.00  0.00     0.171 C 
ENDROOT
BRANCH   1   2
ATOM      2  C   UNL     1     -14.179 -28.143 -13.487  1.00  0.00     0.237 C 
BRANCH   2   3
ATOM      3  N   UNL     1     -14.198 -26.998 -12.567  1.00  0.00    -0.350 N 
ATOM      4  H   UNL     1     -14.378 -27.331 -11.590  1.00  0.00     0.345 HD
ATOM      5  H   UNL     1     -14.943 -26.316 -12.838  1.00  0.00     0.345 HD
ATOM      6  H   UNL     1     -13.270 -26.517 -12.575  1.00  0.00     0.345 HD
ENDBRANCH   2   3
BRANCH   2   7
ATOM      7  C   UNL     1     -15.428 -28.966 -13.315  1.00  0.00     0.100 C 
ATOM      8  O   UNL     1     -16.540 -28.514 -13.693  1.00  0.00    -0.544 OA
ATOM      9  O   UNL     1     -15.364 -30.223 -12.725  1.00  0.00    -0.544 OA
ENDBRANCH   2   7
ENDBRANCH   1   2
BRANCH   1  10
ATOM     10  C   UNL     1     -13.917 -26.193 -15.059  1.00  0.00     0.223 C 
ATOM     11  O   UNL     1     -14.897 -25.448 -14.791  1.00  0.00    -0.275 OA
ATOM     12  N   UNL     1     -12.668 -25.612 -15.432  1.00  0.00    -0.369 N 
ATOM     13  H   UNL     1     -11.843 -26.216 -15.647  1.00  0.00     0.159 HD
ATOM     14  H   UNL     1     -12.566 -24.575 -15.492  1.00  0.00     0.159 HD
ENDBRANCH   1  10
TORSDOF 4
ENDMDL
MODEL 7
REMARK VINA RESULT:    -4.082      2.871      3.060
REMARK INTER + INTRA:          -4.994
REMARK INTER:                  -4.862
REMARK INTRA:                  -0.132
REMARK UNBOUND:                -0.077
REMARK SMILES NC(=O)C[C@@H]([NH3+])C(=O)[O-]
REMARK SMILES IDX 4 1 5 2 6 3 7 7 8 8 9 9 2 10 3 11 1 12
REMARK H PARENT 6 4 6 5 6 6 1 13 1 14
REMARK Flexibility Score: inf
ROOT
ATOM      1  C   UNL     1     -13.853 -27.382 -11.898  1.00  0.00     0.171 C 
ENDROOT
BRANCH   1   2
ATOM      2  C   UNL     1     -14.808 -26.893 -13.005  1.00  0.00     0.237 C 
BRANCH   2   3
ATOM      3  N   UNL     1     -14.237 -25.757 -13.741  1.00  0.00    -0.350 N 
ATOM      4  H   UNL     1     -13.357 -25.437 -13.272  1.00  0.00     0.345 HD
ATOM      5  H   UNL     1     -14.914 -24.960 -13.777  1.00  0.00     0.345 HD
ATOM      6  H   UNL     1     -13.994 -26.047 -14.716  1.00  0.00     0.345 HD
ENDBRANCH   2   3
BRANCH   2   7
ATOM      7  C   UNL     1     -15.106 -28.025 -13.952  1.00  0.00     0.100 C 
ATOM      8  O   UNL     1     -16.178 -28.676 -13.842  1.00  0.00    -0.544 OA
ATOM      9  O   UNL     1     -14.194 -28.368 -14.943  1.00  0.00    -0.544 OA
ENDBRANCH   2   7
ENDBRANCH   1   2
BRANCH   1  10
ATOM     10  C   UNL     1     -14.605 -27.893 -10.703  1.00  0.00     0.223 C 
ATOM     11  O   UNL     1     -14.857 -29.122 -10.597  1.00  0.00    -0.275 OA
ATOM     12  N   UNL     1     -15.011 -26.995  -9.669  1.00  0.00    -0.369 N 
ATOM     13  H   UNL     1     -14.799 -25.975  -9.737  1.00  0.00     0.159 HD
ATOM     14  H   UNL     1     -15.522 -27.353  -8.832  1.00  0.00     0.159 HD
ENDBRANCH   1  10
TORSDOF 4
ENDMDL
MODEL 8
REMARK VINA RESULT:    -4.052      2.902      3.800
REMARK INTER + INTRA:          -4.958
REMARK INTER:                  -4.709
REMARK INTRA:                  -0.249
REMARK UNBOUND:                -0.077
REMARK SMILES NC(=O)C[C@@H]([NH3+])C(=O)[O-]
REMARK SMILES IDX 4 1 5 2 6 3 7 7 8 8 9 9 2 10 3 11 1 12
REMARK H PARENT 6 4 6 5 6 6 1 13 1 14
REMARK Flexibility Score: inf
ROOT
ATOM      1  C   UNL     1     -16.201 -30.978 -13.012  1.00  0.00     0.171 C 
ENDROOT
BRANCH   1   2
ATOM      2  C   UNL     1     -15.299 -29.729 -13.088  1.00  0.00     0.237 C 
BRANCH   2   3
ATOM      3  N   UNL     1     -15.986 -28.612 -13.750  1.00  0.00    -0.350 N 
ATOM      4  H   UNL     1     -16.164 -27.846 -13.058  1.00  0.00     0.345 HD
ATOM      5  H   UNL     1     -16.897 -28.925 -14.156  1.00  0.00     0.345 HD
ATOM      6  H   UNL     1     -15.385 -28.222 -14.511  1.00  0.00     0.345 HD
ENDBRANCH   2   3
BRANCH   2   7
ATOM      7  C   UNL     1     -14.875 -29.328 -11.701  1.00  0.00     0.100 C 
ATOM      8  O   UNL     1     -14.876 -28.114 -11.365  1.00  0.00    -0.544 OA
ATOM      9  O   UNL     1     -14.466 -30.291 -10.786  1.00  0.00    -0.544 OA
ENDBRANCH   2   7
ENDBRANCH   1   2
BRANCH   1  10
ATOM     10  C   UNL     1     -15.434 -32.235 -13.307  1.00  0.00     0.223 C 
ATOM     11  O   UNL     1     -15.260 -32.599 -14.500  1.00  0.00    -0.275 OA
ATOM     12  N   UNL     1     -14.875 -33.005 -12.243  1.00  0.00    -0.369 N 
ATOM     13  H   UNL     1     -15.001 -32.711 -11.249  1.00  0.00     0.159 HD
ATOM     14  H   UNL     1     -14.332 -33.872 -12.450  1.00  0.00     0.159 HD
ENDBRANCH   1  10
TORSDOF 4
ENDMDL
MODEL 9
REMARK VINA RESULT:    -4.003      2.550      3.852
REMARK INTER + INTRA:          -4.898
REMARK INTER:                  -4.607
REMARK INTRA:                  -0.291
REMARK UNBOUND:                -0.077
REMARK SMILES NC(=O)C[C@@H]([NH3+])C(=O)[O-]
REMARK SMILES IDX 4 1 5 2 6 3 7 7 8 8 9 9 2 10 3 11 1 12
REMARK H PARENT 6 4 6 5 6 6 1 13 1 14
REMARK Flexibility Score: inf
ROOT
ATOM      1  C   UNL     1     -14.379 -27.640 -12.660  1.00  0.00     0.171 C 
ENDROOT
BRANCH   1   2
ATOM      2  C   UNL     1     -14.773 -28.234 -11.292  1.00  0.00     0.237 C 
BRANCH   2   3
ATOM      3  N   UNL     1     -14.872 -29.698 -11.352  1.00  0.00    -0.350 N 
ATOM      4  H   UNL     1     -15.638 -30.028 -10.719  1.00  0.00     0.345 HD
ATOM      5  H   UNL     1     -13.972 -30.144 -11.059  1.00  0.00     0.345 HD
ATOM      6  H   UNL     1     -15.106 -30.002 -12.324  1.00  0.00     0.345 HD
ENDBRANCH   2   3
BRANCH   2   7
ATOM      7  C   UNL     1     -13.762 -27.825 -10.254  1.00  0.00     0.100 C 
ATOM      8  O   UNL     1     -12.538 -27.789 -10.544  1.00  0.00    -0.544 OA
ATOM      9  O   UNL     1     -14.172 -27.501  -8.966  1.00  0.00    -0.544 OA
ENDBRANCH   2   7
ENDBRANCH   1   2
BRANCH   1  10
ATOM     10  C   UNL     1     -15.094 -28.324 -13.789  1.00  0.00     0.223 C 
ATOM     11  O   UNL     1     -16.333 -28.536 -13.710  1.00  0.00    -0.275 OA
ATOM     12  N   UNL     1     -14.384 -28.709 -14.965  1.00  0.00    -0.369 N 
ATOM     13  H   UNL     1     -13.358 -28.530 -15.050  1.00  0.00     0.159 HD
ATOM     14  H   UNL     1     -14.884 -29.173 -15.755  1.00  0.00     0.159 HD
ENDBRANCH   1  10
TORSDOF 4
ENDMDL
