MODEL 1
REMARK VINA RESULT:    -4.936      0.000      0.000
REMARK INTER + INTRA:          -5.619
REMARK INTER:                  -5.369
REMARK INTRA:                  -0.250
REMARK UNBOUND:                -0.250
REMARK SMILES O=C([O-])c1ccccc1O
REMARK SMILES IDX 4 1 9 2 5 3 8 4 6 5 7 6 2 7 1 8 3 9 10 10
REMARK H PARENT 10 11
REMARK Flexibility Score: inf
ROOT
ATOM      1  C   UNL     1      80.316 -19.938  43.347  1.00  0.00     0.039 A 
ATOM      2  C   UNL     1      79.941 -21.246  43.736  1.00  0.00     0.124 A 
ATOM      3  C   UNL     1      80.154 -18.882  44.267  1.00  0.00     0.014 A 
ATOM      4  C   UNL     1      79.417 -21.470  45.018  1.00  0.00     0.047 A 
ATOM      5  C   UNL     1      79.631 -19.121  45.540  1.00  0.00     0.001 A 
ATOM      6  C   UNL     1      79.264 -20.413  45.916  1.00  0.00     0.004 A 
ENDROOT
BRANCH   1   7
ATOM      7  C   UNL     1      80.876 -19.654  41.999  1.00  0.00     0.075 C 
ATOM      8  O   UNL     1      81.859 -20.312  41.567  1.00  0.00    -0.545 OA
ATOM      9  O   UNL     1      80.332 -18.663  41.191  1.00  0.00    -0.545 OA
ENDBRANCH   1   7
BRANCH   2  10
ATOM     10  O   UNL     1      80.084 -22.320  42.858  1.00  0.00    -0.507 OA
ATOM     11  H   UNL     1      80.290 -23.255  43.191  1.00  0.00     0.293 HD
ENDBRANCH   2  10
TORSDOF 2
ENDMDL
MODEL 2
REMARK VINA RESULT:    -4.768      0.983      2.884
REMARK INTER + INTRA:          -5.436
REMARK INTER:                  -5.234
REMARK INTRA:                  -0.202
REMARK UNBOUND:                -0.250
REMARK SMILES O=C([O-])c1ccccc1O
REMARK SMILES IDX 4 1 9 2 5 3 8 4 6 5 7 6 2 7 1 8 3 9 10 10
REMARK H PARENT 10 11
REMARK Flexibility Score: inf
ROOT
ATOM      1  C   UNL     1      79.790 -20.953  44.213  1.00  0.00     0.039 A 
ATOM      2  C   UNL     1      80.259 -19.850  43.461  1.00  0.00     0.124 A 
ATOM      3  C   UNL     1      79.324 -20.732  45.525  1.00  0.00     0.014 A 
ATOM      4  C   UNL     1      80.255 -18.566  44.027  1.00  0.00     0.047 A 
ATOM      5  C   UNL     1      79.326 -19.448  46.075  1.00  0.00     0.001 A 
ATOM      6  C   UNL     1      79.791 -18.366  45.327  1.00  0.00     0.004 A 
ENDROOT
BRANCH   1   7
ATOM      7  C   UNL     1      79.775 -22.330  43.655  1.00  0.00     0.075 C 
ATOM      8  O   UNL     1      80.572 -22.652  42.733  1.00  0.00    -0.545 OA
ATOM      9  O   UNL     1      78.888 -23.289  44.131  1.00  0.00    -0.545 OA
ENDBRANCH   1   7
BRANCH   2  10
ATOM     10  O   UNL     1      80.729 -20.022  42.159  1.00  0.00    -0.507 OA
ATOM     11  H   UNL     1      81.715 -19.950  41.935  1.00  0.00     0.293 HD
ENDBRANCH   2  10
TORSDOF 2
ENDMDL
MODEL 3
REMARK VINA RESULT:    -4.615      2.258      3.509
REMARK INTER + INTRA:          -5.270
REMARK INTER:                  -5.015
REMARK INTRA:                  -0.255
REMARK UNBOUND:                -0.250
REMARK SMILES O=C([O-])c1ccccc1O
REMARK SMILES IDX 4 1 9 2 5 3 8 4 6 5 7 6 2 7 1 8 3 9 10 10
REMARK H PARENT 10 11
REMARK Flexibility Score: inf
ROOT
ATOM      1  C   UNL     1      79.768 -20.872  44.011  1.00  0.00     0.039 A 
ATOM      2  C   UNL     1      79.714 -19.908  45.045  1.00  0.00     0.124 A 
ATOM      3  C   UNL     1      80.188 -20.468  42.727  1.00  0.00     0.014 A 
ATOM      4  C   UNL     1      80.075 -18.578  44.781  1.00  0.00     0.047 A 
ATOM      5  C   UNL     1      80.544 -19.141  42.479  1.00  0.00     0.001 A 
ATOM      6  C   UNL     1      80.489 -18.197  43.503  1.00  0.00     0.004 A 
ENDROOT
BRANCH   1   7
ATOM      7  C   UNL     1      79.395 -22.291  44.245  1.00  0.00     0.075 C 
ATOM      8  O   UNL     1      80.113 -23.221  43.790  1.00  0.00    -0.545 OA
ATOM      9  O   UNL     1      78.254 -22.624  44.966  1.00  0.00    -0.545 OA
ENDBRANCH   1   7
BRANCH   2  10
ATOM     10  O   UNL     1      79.304 -20.262  46.330  1.00  0.00    -0.507 OA
ATOM     11  H   UNL     1      78.358 -20.093  46.653  1.00  0.00     0.293 HD
ENDBRANCH   2  10
TORSDOF 2
ENDMDL
MODEL 4
REMARK VINA RESULT:    -4.573      1.144      2.182
REMARK INTER + INTRA:          -5.224
REMARK INTER:                  -4.973
REMARK INTRA:                  -0.251
REMARK UNBOUND:                -0.250
REMARK SMILES O=C([O-])c1ccccc1O
REMARK SMILES IDX 4 1 9 2 5 3 8 4 6 5 7 6 2 7 1 8 3 9 10 10
REMARK H PARENT 10 11
REMARK Flexibility Score: inf
ROOT
ATOM      1  C   UNL     1      80.462 -20.011  43.012  1.00  0.00     0.039 A 
ATOM      2  C   UNL     1      80.263 -19.097  44.074  1.00  0.00     0.124 A 
ATOM      3  C   UNL     1      80.107 -21.362  43.203  1.00  0.00     0.014 A 
ATOM      4  C   UNL     1      79.721 -19.544  45.288  1.00  0.00     0.047 A 
ATOM      5  C   UNL     1      79.569 -21.792  44.418  1.00  0.00     0.001 A 
ATOM      6  C   UNL     1      79.376 -20.886  45.459  1.00  0.00     0.004 A 
ENDROOT
BRANCH   1   7
ATOM      7  C   UNL     1      81.032 -19.582  41.708  1.00  0.00     0.075 C 
ATOM      8  O   UNL     1      82.020 -20.189  41.215  1.00  0.00    -0.545 OA
ATOM      9  O   UNL     1      80.495 -18.507  41.009  1.00  0.00    -0.545 OA
ENDBRANCH   1   7
BRANCH   2  10
ATOM     10  O   UNL     1      80.599 -17.751  43.930  1.00  0.00    -0.507 OA
ATOM     11  H   UNL     1      81.057 -17.235  44.672  1.00  0.00     0.293 HD
ENDBRANCH   2  10
TORSDOF 2
ENDMDL
MODEL 5
REMARK VINA RESULT:    -4.357      2.325      3.492
REMARK INTER + INTRA:          -4.989
REMARK INTER:                  -4.740
REMARK INTRA:                  -0.249
REMARK UNBOUND:                -0.250
REMARK SMILES O=C([O-])c1ccccc1O
REMARK SMILES IDX 4 1 9 2 5 3 8 4 6 5 7 6 2 7 1 8 3 9 10 10
REMARK H PARENT 10 11
REMARK Flexibility Score: inf
ROOT
ATOM      1  C   UNL     1      79.970 -19.503  44.495  1.00  0.00     0.039 A 
ATOM      2  C   UNL     1      80.148 -20.681  43.730  1.00  0.00     0.124 A 
ATOM      3  C   UNL     1      80.384 -18.271  43.950  1.00  0.00     0.014 A 
ATOM      4  C   UNL     1      80.729 -20.605  42.456  1.00  0.00     0.047 A 
ATOM      5  C   UNL     1      80.962 -18.212  42.679  1.00  0.00     0.001 A 
ATOM      6  C   UNL     1      81.134 -19.376  41.933  1.00  0.00     0.004 A 
ENDROOT
BRANCH   1   7
ATOM      7  C   UNL     1      79.358 -19.536  45.849  1.00  0.00     0.075 C 
ATOM      8  O   UNL     1      79.721 -20.401  46.690  1.00  0.00    -0.545 OA
ATOM      9  O   UNL     1      78.379 -18.621  46.216  1.00  0.00    -0.545 OA
ENDBRANCH   1   7
BRANCH   2  10
ATOM     10  O   UNL     1      79.753 -21.922  44.229  1.00  0.00    -0.507 OA
ATOM     11  H   UNL     1      78.783 -22.218  44.211  1.00  0.00     0.293 HD
ENDBRANCH   2  10
TORSDOF 2
ENDMDL
MODEL 6
REMARK VINA RESULT:    -4.297      5.959      6.958
REMARK INTER + INTRA:          -4.924
REMARK INTER:                  -4.722
REMARK INTRA:                  -0.202
REMARK UNBOUND:                -0.250
REMARK SMILES O=C([O-])c1ccccc1O
REMARK SMILES IDX 4 1 9 2 5 3 8 4 6 5 7 6 2 7 1 8 3 9 10 10
REMARK H PARENT 10 11
REMARK Flexibility Score: inf
ROOT
ATOM      1  C   UNL     1      82.834 -21.653  37.106  1.00  0.00     0.039 A 
ATOM      2  C   UNL     1      82.671 -22.896  37.763  1.00  0.00     0.124 A 
ATOM      3  C   UNL     1      83.021 -20.492  37.884  1.00  0.00     0.014 A 
ATOM      4  C   UNL     1      82.697 -22.954  39.164  1.00  0.00     0.047 A 
ATOM      5  C   UNL     1      83.044 -20.566  39.279  1.00  0.00     0.001 A 
ATOM      6  C   UNL     1      82.883 -21.794  39.919  1.00  0.00     0.004 A 
ENDROOT
BRANCH   1   7
ATOM      7  C   UNL     1      82.815 -21.544  35.624  1.00  0.00     0.075 C 
ATOM      8  O   UNL     1      83.124 -22.535  34.909  1.00  0.00    -0.545 OA
ATOM      9  O   UNL     1      82.459 -20.356  34.996  1.00  0.00    -0.545 OA
ENDBRANCH   1   7
BRANCH   2  10
ATOM     10  O   UNL     1      82.484 -24.069  37.033  1.00  0.00    -0.507 OA
ATOM     11  H   UNL     1      83.025 -24.269  36.199  1.00  0.00     0.293 HD
ENDBRANCH   2  10
TORSDOF 2
ENDMDL
MODEL 7
REMARK VINA RESULT:    -4.227      1.041      1.224
REMARK INTER + INTRA:          -4.847
REMARK INTER:                  -4.640
REMARK INTRA:                  -0.207
REMARK UNBOUND:                -0.250
REMARK SMILES O=C([O-])c1ccccc1O
REMARK SMILES IDX 4 1 9 2 5 3 8 4 6 5 7 6 2 7 1 8 3 9 10 10
REMARK H PARENT 10 11
REMARK Flexibility Score: inf
ROOT
ATOM      1  C   UNL     1      80.120 -19.352  43.751  1.00  0.00     0.039 A 
ATOM      2  C   UNL     1      80.097 -20.762  43.638  1.00  0.00     0.124 A 
ATOM      3  C   UNL     1      79.714 -18.762  44.966  1.00  0.00     0.014 A 
ATOM      4  C   UNL     1      79.674 -21.544  44.723  1.00  0.00     0.047 A 
ATOM      5  C   UNL     1      79.294 -19.553  46.037  1.00  0.00     0.001 A 
ATOM      6  C   UNL     1      79.274 -20.942  45.917  1.00  0.00     0.004 A 
ENDROOT
BRANCH   1   7
ATOM      7  C   UNL     1      80.562 -18.484  42.628  1.00  0.00     0.075 C 
ATOM      8  O   UNL     1      80.466 -18.887  41.438  1.00  0.00    -0.545 OA
ATOM      9  O   UNL     1      81.088 -17.219  42.862  1.00  0.00    -0.545 OA
ENDBRANCH   1   7
BRANCH   2  10
ATOM     10  O   UNL     1      80.491 -21.389  42.456  1.00  0.00    -0.507 OA
ATOM     11  H   UNL     1      81.366 -21.898  42.390  1.00  0.00     0.293 HD
ENDBRANCH   2  10
TORSDOF 2
ENDMDL
MODEL 8
REMARK VINA RESULT:    -4.066     17.410     18.268
REMARK INTER + INTRA:          -4.672
REMARK INTER:                  -4.429
REMARK INTRA:                  -0.243
REMARK UNBOUND:                -0.250
REMARK SMILES O=C([O-])c1ccccc1O
REMARK SMILES IDX 4 1 9 2 5 3 8 4 6 5 7 6 2 7 1 8 3 9 10 10
REMARK H PARENT 10 11
REMARK Flexibility Score: inf
ROOT
ATOM      1  C   UNL     1      66.891 -13.389  33.840  1.00  0.00     0.039 A 
ATOM      2  C   UNL     1      66.510 -12.040  33.644  1.00  0.00     0.124 A 
ATOM      3  C   UNL     1      65.984 -14.266  34.470  1.00  0.00     0.014 A 
ATOM      4  C   UNL     1      65.250 -11.600  34.076  1.00  0.00     0.047 A 
ATOM      5  C   UNL     1      64.733 -13.813  34.895  1.00  0.00     0.001 A 
ATOM      6  C   UNL     1      64.366 -12.483  34.698  1.00  0.00     0.004 A 
ENDROOT
BRANCH   1   7
ATOM      7  C   UNL     1      68.215 -13.899  33.399  1.00  0.00     0.075 C 
ATOM      8  O   UNL     1      68.290 -14.887  32.621  1.00  0.00    -0.545 OA
ATOM      9  O   UNL     1      69.394 -13.304  33.833  1.00  0.00    -0.545 OA
ENDBRANCH   1   7
BRANCH   2  10
ATOM     10  O   UNL     1      67.374 -11.138  33.025  1.00  0.00    -0.507 OA
ATOM     11  H   UNL     1      67.612 -11.217  32.043  1.00  0.00     0.293 HD
ENDBRANCH   2  10
TORSDOF 2
ENDMDL
MODEL 9
REMARK VINA RESULT:    -4.000      5.681      7.173
REMARK INTER + INTRA:          -4.601
REMARK INTER:                  -4.367
REMARK INTRA:                  -0.233
REMARK UNBOUND:                -0.250
REMARK SMILES O=C([O-])c1ccccc1O
REMARK SMILES IDX 4 1 9 2 5 3 8 4 6 5 7 6 2 7 1 8 3 9 10 10
REMARK H PARENT 10 11
REMARK Flexibility Score: inf
ROOT
ATOM      1  C   UNL     1      82.730 -21.758  37.190  1.00  0.00     0.039 A 
ATOM      2  C   UNL     1      82.972 -20.637  38.019  1.00  0.00     0.124 A 
ATOM      3  C   UNL     1      82.583 -23.026  37.788  1.00  0.00     0.014 A 
ATOM      4  C   UNL     1      83.064 -20.803  39.410  1.00  0.00     0.047 A 
ATOM      5  C   UNL     1      82.677 -23.175  39.174  1.00  0.00     0.001 A 
ATOM      6  C   UNL     1      82.917 -22.066  39.984  1.00  0.00     0.004 A 
ENDROOT
BRANCH   1   7
ATOM      7  C   UNL     1      82.625 -21.629  35.713  1.00  0.00     0.075 C 
ATOM      8  O   UNL     1      82.094 -20.608  35.200  1.00  0.00    -0.545 OA
ATOM      9  O   UNL     1      83.104 -22.625  34.870  1.00  0.00    -0.545 OA
ENDBRANCH   1   7
BRANCH   2  10
ATOM     10  O   UNL     1      83.123 -19.363  37.471  1.00  0.00    -0.507 OA
ATOM     11  H   UNL     1      83.566 -19.221  36.571  1.00  0.00     0.293 HD
ENDBRANCH   2  10
TORSDOF 2
ENDMDL
