MODEL 1
REMARK VINA RESULT:    -4.115      0.000      0.000
REMARK INTER + INTRA:          -4.366
REMARK INTER:                  -4.355
REMARK INTRA:                  -0.011
REMARK UNBOUND:                -0.011
REMARK SMILES O=Cc1ccccc1
REMARK SMILES IDX 6 1 5 2 4 3 3 4 8 5 7 6 2 7 1 8
REMARK H PARENT
REMARK Flexibility Score: inf
ROOT
ATOM      1  C   UNL     1     -11.505  -4.187 -10.405  1.00  0.00     0.000 A 
ATOM      2  C   UNL     1     -11.231  -5.546 -10.226  1.00  0.00     0.001 A 
ATOM      3  C   UNL     1     -10.778  -6.013  -8.988  1.00  0.00     0.011 A 
ATOM      4  C   UNL     1     -10.597  -5.121  -7.917  1.00  0.00     0.014 A 
ATOM      5  C   UNL     1     -10.875  -3.755  -8.106  1.00  0.00     0.011 A 
ATOM      6  C   UNL     1     -11.327  -3.293  -9.346  1.00  0.00     0.001 A 
ENDROOT
BRANCH   4   7
ATOM      7  C   UNL     1     -10.118  -5.630  -6.619  1.00  0.00     0.260 C 
ATOM      8  O   UNL     1      -9.091  -6.353  -6.542  1.00  0.00    -0.298 OA
ENDBRANCH   4   7
TORSDOF 1
ENDMDL
MODEL 2
REMARK VINA RESULT:    -4.094      2.642      3.589
REMARK INTER + INTRA:          -4.345
REMARK INTER:                  -4.334
REMARK INTRA:                  -0.010
REMARK UNBOUND:                -0.011
REMARK SMILES O=Cc1ccccc1
REMARK SMILES IDX 6 1 5 2 4 3 3 4 8 5 7 6 2 7 1 8
REMARK H PARENT
REMARK Flexibility Score: inf
ROOT
ATOM      1  C   UNL     1     -10.625  -4.581  -7.762  1.00  0.00     0.000 A 
ATOM      2  C   UNL     1     -11.829  -3.952  -7.432  1.00  0.00     0.001 A 
ATOM      3  C   UNL     1     -12.594  -4.420  -6.359  1.00  0.00     0.011 A 
ATOM      4  C   UNL     1     -12.158  -5.523  -5.605  1.00  0.00     0.014 A 
ATOM      5  C   UNL     1     -10.945  -6.150  -5.944  1.00  0.00     0.011 A 
ATOM      6  C   UNL     1     -10.184  -5.678  -7.018  1.00  0.00     0.001 A 
ENDROOT
BRANCH   4   7
ATOM      7  C   UNL     1     -12.977  -6.004  -4.478  1.00  0.00     0.260 C 
ATOM      8  O   UNL     1     -13.296  -5.237  -3.532  1.00  0.00    -0.298 OA
ENDBRANCH   4   7
TORSDOF 1
ENDMDL
MODEL 3
REMARK VINA RESULT:    -4.085      2.663      3.329
REMARK INTER + INTRA:          -4.335
REMARK INTER:                  -4.325
REMARK INTRA:                  -0.010
REMARK UNBOUND:                -0.011
REMARK SMILES O=Cc1ccccc1
REMARK SMILES IDX 6 1 5 2 4 3 3 4 8 5 7 6 2 7 1 8
REMARK H PARENT
REMARK Flexibility Score: inf
ROOT
ATOM      1  C   UNL     1     -10.658  -4.631  -7.771  1.00  0.00     0.000 A 
ATOM      2  C   UNL     1     -10.251  -5.745  -7.031  1.00  0.00     0.001 A 
ATOM      3  C   UNL     1     -11.024  -6.191  -5.954  1.00  0.00     0.011 A 
ATOM      4  C   UNL     1     -12.212  -5.525  -5.610  1.00  0.00     0.014 A 
ATOM      5  C   UNL     1     -12.613  -4.405  -6.360  1.00  0.00     0.011 A 
ATOM      6  C   UNL     1     -11.837  -3.962  -7.435  1.00  0.00     0.001 A 
ENDROOT
BRANCH   4   7
ATOM      7  C   UNL     1     -13.014  -6.009  -4.471  1.00  0.00     0.260 C 
ATOM      8  O   UNL     1     -13.315  -5.244  -3.516  1.00  0.00    -0.298 OA
ENDBRANCH   4   7
TORSDOF 1
ENDMDL
MODEL 4
REMARK VINA RESULT:    -4.002      1.247      2.205
REMARK INTER + INTRA:          -4.247
REMARK INTER:                  -4.236
REMARK INTRA:                  -0.010
REMARK UNBOUND:                -0.011
REMARK SMILES O=Cc1ccccc1
REMARK SMILES IDX 6 1 5 2 4 3 3 4 8 5 7 6 2 7 1 8
REMARK H PARENT
REMARK Flexibility Score: inf
ROOT
ATOM      1  C   UNL     1     -11.259  -4.000  -8.825  1.00  0.00     0.000 A 
ATOM      2  C   UNL     1     -11.835  -3.722  -7.582  1.00  0.00     0.001 A 
ATOM      3  C   UNL     1     -11.625  -4.586  -6.503  1.00  0.00     0.011 A 
ATOM      4  C   UNL     1     -10.834  -5.736  -6.659  1.00  0.00     0.014 A 
ATOM      5  C   UNL     1     -10.258  -6.009  -7.914  1.00  0.00     0.011 A 
ATOM      6  C   UNL     1     -10.471  -5.142  -8.990  1.00  0.00     0.001 A 
ENDROOT
BRANCH   4   7
ATOM      7  C   UNL     1     -10.623  -6.637  -5.511  1.00  0.00     0.260 C 
ATOM      8  O   UNL     1      -9.473  -7.056  -5.216  1.00  0.00    -0.298 OA
ENDBRANCH   4   7
TORSDOF 1
ENDMDL
MODEL 5
REMARK VINA RESULT:    -3.920      2.162      3.806
REMARK INTER + INTRA:          -4.160
REMARK INTER:                  -4.147
REMARK INTRA:                  -0.013
REMARK UNBOUND:                -0.011
REMARK SMILES O=Cc1ccccc1
REMARK SMILES IDX 6 1 5 2 4 3 3 4 8 5 7 6 2 7 1 8
REMARK H PARENT
REMARK Flexibility Score: inf
ROOT
ATOM      1  C   UNL     1     -11.180  -5.229  -5.144  1.00  0.00     0.000 A 
ATOM      2  C   UNL     1     -12.023  -4.360  -5.843  1.00  0.00     0.001 A 
ATOM      3  C   UNL     1     -11.852  -4.172  -7.218  1.00  0.00     0.011 A 
ATOM      4  C   UNL     1     -10.834  -4.853  -7.906  1.00  0.00     0.014 A 
ATOM      5  C   UNL     1      -9.990  -5.726  -7.195  1.00  0.00     0.011 A 
ATOM      6  C   UNL     1     -10.165  -5.911  -5.820  1.00  0.00     0.001 A 
ENDROOT
BRANCH   4   7
ATOM      7  C   UNL     1     -10.667  -4.643  -9.356  1.00  0.00     0.260 C 
ATOM      8  O   UNL     1     -11.135  -3.620  -9.922  1.00  0.00    -0.298 OA
ENDBRANCH   4   7
TORSDOF 1
ENDMDL
MODEL 6
REMARK VINA RESULT:    -3.892      2.099      3.606
REMARK INTER + INTRA:          -4.130
REMARK INTER:                  -4.117
REMARK INTRA:                  -0.012
REMARK UNBOUND:                -0.011
REMARK SMILES O=Cc1ccccc1
REMARK SMILES IDX 6 1 5 2 4 3 3 4 8 5 7 6 2 7 1 8
REMARK H PARENT
REMARK Flexibility Score: inf
ROOT
ATOM      1  C   UNL     1     -10.716  -5.644  -5.129  1.00  0.00     0.000 A 
ATOM      2  C   UNL     1      -9.842  -6.245  -6.040  1.00  0.00     0.001 A 
ATOM      3  C   UNL     1      -9.859  -5.864  -7.385  1.00  0.00     0.011 A 
ATOM      4  C   UNL     1     -10.752  -4.876  -7.830  1.00  0.00     0.014 A 
ATOM      5  C   UNL     1     -11.628  -4.275  -6.908  1.00  0.00     0.011 A 
ATOM      6  C   UNL     1     -11.608  -4.660  -5.564  1.00  0.00     0.001 A 
ENDROOT
BRANCH   4   7
ATOM      7  C   UNL     1     -10.757  -4.486  -9.253  1.00  0.00     0.260 C 
ATOM      8  O   UNL     1     -11.180  -3.357  -9.616  1.00  0.00    -0.298 OA
ENDBRANCH   4   7
TORSDOF 1
ENDMDL
MODEL 7
REMARK VINA RESULT:    -3.718     11.752     13.575
REMARK INTER + INTRA:          -3.946
REMARK INTER:                  -3.938
REMARK INTRA:                  -0.009
REMARK UNBOUND:                -0.011
REMARK SMILES O=Cc1ccccc1
REMARK SMILES IDX 6 1 5 2 4 3 3 4 8 5 7 6 2 7 1 8
REMARK H PARENT
REMARK Flexibility Score: inf
ROOT
ATOM      1  C   UNL     1      -0.252 -13.859  -2.172  1.00  0.00     0.000 A 
ATOM      2  C   UNL     1      -1.649 -13.832  -2.114  1.00  0.00     0.001 A 
ATOM      3  C   UNL     1      -2.386 -13.336  -3.194  1.00  0.00     0.011 A 
ATOM      4  C   UNL     1      -1.730 -12.863  -4.343  1.00  0.00     0.014 A 
ATOM      5  C   UNL     1      -0.324 -12.894  -4.392  1.00  0.00     0.011 A 
ATOM      6  C   UNL     1       0.408 -13.390  -3.310  1.00  0.00     0.001 A 
ENDROOT
BRANCH   4   7
ATOM      7  C   UNL     1      -2.522 -12.343  -5.472  1.00  0.00     0.260 C 
ATOM      8  O   UNL     1      -2.918 -11.148  -5.493  1.00  0.00    -0.298 OA
ENDBRANCH   4   7
TORSDOF 1
ENDMDL
MODEL 8
REMARK VINA RESULT:    -3.541      2.202      3.816
REMARK INTER + INTRA:          -3.759
REMARK INTER:                  -3.747
REMARK INTRA:                  -0.012
REMARK UNBOUND:                -0.011
REMARK SMILES O=Cc1ccccc1
REMARK SMILES IDX 6 1 5 2 4 3 3 4 8 5 7 6 2 7 1 8
REMARK H PARENT
REMARK Flexibility Score: inf
ROOT
ATOM      1  C   UNL     1     -10.428  -7.070  -5.447  1.00  0.00     0.000 A 
ATOM      2  C   UNL     1      -9.482  -6.593  -6.359  1.00  0.00     0.001 A 
ATOM      3  C   UNL     1      -9.802  -5.530  -7.209  1.00  0.00     0.011 A 
ATOM      4  C   UNL     1     -11.074  -4.935  -7.153  1.00  0.00     0.014 A 
ATOM      5  C   UNL     1     -12.020  -5.422  -6.232  1.00  0.00     0.011 A 
ATOM      6  C   UNL     1     -11.695  -6.485  -5.385  1.00  0.00     0.001 A 
ENDROOT
BRANCH   4   7
ATOM      7  C   UNL     1     -11.395  -3.816  -8.058  1.00  0.00     0.260 C 
ATOM      8  O   UNL     1     -11.035  -3.831  -9.264  1.00  0.00    -0.298 OA
ENDBRANCH   4   7
TORSDOF 1
ENDMDL
