MODEL 1
REMARK VINA RESULT:    -6.167      0.000      0.000
REMARK INTER + INTRA:         -10.643
REMARK INTER:                  -9.231
REMARK INTRA:                  -1.412
REMARK UNBOUND:                -1.412
REMARK SMILES COC(=O)C1=CO[C@@H](O[C@@H]2O[C@@H](CO)[C@H](O)[C@@H](O)[C@H]2O)[C@H]2C(CO)=CC[C@H]12
REMARK SMILES IDX 9 1 8 2 5 3 6 4 27 5 7 6 21 7 26 8 22 9 25 10 3 11 4 12 2 13
REMARK SMILES IDX 1 14 23 15 24 16 10 18 19 19 11 20 17 21 12 22 15 23 20 24
REMARK SMILES IDX 18 26 13 28 14 29 16 31
REMARK H PARENT 24 17 20 25 18 27 14 30 16 32
REMARK Flexibility Score: inf
ROOT
ATOM      1  O   UNL     1       8.625  13.635 -18.605  1.00  0.00    -0.310 OA
ENDROOT
BRANCH   1   2
ATOM      2  C   UNL     1       7.480  13.940 -19.382  1.00  0.00     0.316 C 
ATOM      3  C   UNL     1       8.461  15.598 -21.593  1.00  0.00     0.076 C 
ATOM      4  C   UNL     1       8.135  14.301 -21.796  1.00  0.00     0.202 C 
ATOM      5  C   UNL     1       8.454  16.077 -20.162  1.00  0.00     0.047 C 
ATOM      6  O   UNL     1       7.666  13.482 -20.739  1.00  0.00    -0.471 OA
ATOM      7  C   UNL     1       7.269  15.455 -19.435  1.00  0.00     0.094 C 
ATOM      8  C   UNL     1       8.320  17.558 -19.812  1.00  0.00     0.037 C 
ATOM      9  C   UNL     1       7.195  16.277 -18.195  1.00  0.00    -0.039 C 
ATOM     10  C   UNL     1       7.730  17.479 -18.432  1.00  0.00    -0.024 C 
BRANCH   3  11
ATOM     11  C   UNL     1       8.992  16.424 -22.702  1.00  0.00     0.337 C 
ATOM     12  O   UNL     1       8.326  17.401 -23.140  1.00  0.00    -0.246 OA
BRANCH  11  13
ATOM     13  O   UNL     1      10.240  16.123 -23.260  1.00  0.00    -0.466 OA
ATOM     14  C   UNL     1      10.401  15.751 -24.623  1.00  0.00     0.282 C 
ENDBRANCH  11  13
ENDBRANCH   3  11
BRANCH   9  15
ATOM     15  C   UNL     1       6.404  15.932 -16.964  1.00  0.00     0.187 C 
BRANCH  15  16
ATOM     16  O   UNL     1       7.254  15.798 -15.858  1.00  0.00    -0.392 OA
ATOM     17  H   UNL     1       6.731  16.066 -15.058  1.00  0.00     0.211 HD
ENDBRANCH  15  16
ENDBRANCH   9  15
ENDBRANCH   1   2
BRANCH   1  18
ATOM     18  C   UNL     1       8.278  12.827 -17.490  1.00  0.00     0.286 C 
ATOM     19  C   UNL     1       8.835  11.401 -17.686  1.00  0.00     0.202 C 
ATOM     20  O   UNL     1       8.744  13.398 -16.275  1.00  0.00    -0.341 OA
ATOM     21  C   UNL     1      10.370  11.388 -17.579  1.00  0.00     0.179 C 
ATOM     22  C   UNL     1      10.159  13.529 -16.260  1.00  0.00     0.178 C 
ATOM     23  C   UNL     1      10.843  12.142 -16.324  1.00  0.00     0.177 C 
BRANCH  19  24
ATOM     24  O   UNL     1       8.248  10.496 -16.780  1.00  0.00    -0.385 OA
ATOM     25  H   UNL     1       8.183  10.940 -15.896  1.00  0.00     0.211 HD
ENDBRANCH  19  24
BRANCH  21  26
ATOM     26  O   UNL     1      10.827  10.059 -17.551  1.00  0.00    -0.387 OA
ATOM     27  H   UNL     1      10.614   9.698 -16.652  1.00  0.00     0.211 HD
ENDBRANCH  21  26
BRANCH  22  28
ATOM     28  C   UNL     1      10.559  14.275 -14.982  1.00  0.00     0.191 C 
BRANCH  28  29
ATOM     29  O   UNL     1       9.470  15.017 -14.506  1.00  0.00    -0.394 OA
ATOM     30  H   UNL     1       9.664  15.212 -13.554  1.00  0.00     0.210 HD
ENDBRANCH  28  29
ENDBRANCH  22  28
BRANCH  23  31
ATOM     31  O   UNL     1      12.239  12.296 -16.388  1.00  0.00    -0.387 OA
ATOM     32  H   UNL     1      12.468  12.507 -17.331  1.00  0.00     0.211 HD
ENDBRANCH  23  31
ENDBRANCH   1  18
TORSDOF 11
ENDMDL
MODEL 2
REMARK VINA RESULT:    -5.962      4.586      9.077
REMARK INTER + INTRA:         -10.337
REMARK INTER:                  -9.069
REMARK INTRA:                  -1.268
REMARK UNBOUND:                -1.412
REMARK SMILES COC(=O)C1=CO[C@@H](O[C@@H]2O[C@@H](CO)[C@H](O)[C@@H](O)[C@H]2O)[C@H]2C(CO)=CC[C@H]12
REMARK SMILES IDX 9 1 8 2 5 3 6 4 27 5 7 6 21 7 26 8 22 9 25 10 3 11 4 12 2 13
REMARK SMILES IDX 1 14 23 15 24 16 10 18 19 19 11 20 17 21 12 22 15 23 20 24
REMARK SMILES IDX 18 26 13 28 14 29 16 31
REMARK H PARENT 24 17 20 25 18 27 14 30 16 32
REMARK Flexibility Score: inf
ROOT
ATOM      1  O   UNL     1       8.162  10.466 -14.988  1.00  0.00    -0.310 OA
ENDROOT
BRANCH   1   2
ATOM      2  C   UNL     1       6.801  10.367 -14.608  1.00  0.00     0.316 C 
ATOM      3  C   UNL     1       6.800   8.811 -12.122  1.00  0.00     0.076 C 
ATOM      4  C   UNL     1       6.610  10.150 -12.098  1.00  0.00     0.202 C 
ATOM      5  C   UNL     1       7.176   8.210 -13.454  1.00  0.00     0.047 C 
ATOM      6  O   UNL     1       6.614  10.919 -13.288  1.00  0.00    -0.471 OA
ATOM      7  C   UNL     1       6.376   8.898 -14.553  1.00  0.00     0.094 C 
ATOM      8  C   UNL     1       6.954   6.729 -13.758  1.00  0.00     0.037 C 
ATOM      9  C   UNL     1       6.582   7.981 -15.711  1.00  0.00    -0.039 C 
ATOM     10  C   UNL     1       6.843   6.752 -15.256  1.00  0.00    -0.024 C 
BRANCH   3  11
ATOM     11  C   UNL     1       6.837   8.032 -10.863  1.00  0.00     0.337 C 
ATOM     12  O   UNL     1       5.965   7.149 -10.638  1.00  0.00    -0.246 OA
BRANCH  11  13
ATOM     13  O   UNL     1       7.847   8.272  -9.924  1.00  0.00    -0.466 OA
ATOM     14  C   UNL     1       7.612   8.247  -8.521  1.00  0.00     0.282 C 
ENDBRANCH  11  13
ENDBRANCH   3  11
BRANCH   9  15
ATOM     15  C   UNL     1       6.271   8.304 -17.146  1.00  0.00     0.187 C 
BRANCH  15  16
ATOM     16  O   UNL     1       7.413   8.137 -17.941  1.00  0.00    -0.392 OA
ATOM     17  H   UNL     1       7.636   7.171 -17.925  1.00  0.00     0.211 HD
ENDBRANCH  15  16
ENDBRANCH   9  15
ENDBRANCH   1   2
BRANCH   1  18
ATOM     18  C   UNL     1       8.489  11.798 -15.356  1.00  0.00     0.286 C 
ATOM     19  C   UNL     1      10.022  11.957 -15.432  1.00  0.00     0.202 C 
ATOM     20  O   UNL     1       7.872  12.160 -16.583  1.00  0.00    -0.341 OA
ATOM     21  C   UNL     1      10.597  11.184 -16.633  1.00  0.00     0.179 C 
ATOM     22  C   UNL     1       8.295  11.327 -17.654  1.00  0.00     0.178 C 
ATOM     23  C   UNL     1       9.810  11.492 -17.918  1.00  0.00     0.177 C 
BRANCH  19  24
ATOM     24  O   UNL     1      10.393  13.315 -15.471  1.00  0.00    -0.385 OA
ATOM     25  H   UNL     1      11.383  13.366 -15.478  1.00  0.00     0.211 HD
ENDBRANCH  19  24
BRANCH  21  26
ATOM     26  O   UNL     1      11.953  11.515 -16.799  1.00  0.00    -0.387 OA
ATOM     27  H   UNL     1      12.011  12.103 -17.596  1.00  0.00     0.211 HD
ENDBRANCH  21  26
BRANCH  22  28
ATOM     28  C   UNL     1       7.481  11.697 -18.900  1.00  0.00     0.191 C 
BRANCH  28  29
ATOM     29  O   UNL     1       7.389  10.589 -19.752  1.00  0.00    -0.394 OA
ATOM     30  H   UNL     1       6.864  10.888 -20.538  1.00  0.00     0.210 HD
ENDBRANCH  28  29
ENDBRANCH  22  28
BRANCH  23  31
ATOM     31  O   UNL     1      10.223  10.603 -18.925  1.00  0.00    -0.387 OA
ATOM     32  H   UNL     1      10.585   9.796 -18.475  1.00  0.00     0.211 HD
ENDBRANCH  23  31
ENDBRANCH   1  18
TORSDOF 11
ENDMDL
MODEL 3
REMARK VINA RESULT:    -5.919      3.383      8.047
REMARK INTER + INTRA:         -10.273
REMARK INTER:                  -8.959
REMARK INTRA:                  -1.314
REMARK UNBOUND:                -1.412
REMARK SMILES COC(=O)C1=CO[C@@H](O[C@@H]2O[C@@H](CO)[C@H](O)[C@@H](O)[C@H]2O)[C@H]2C(CO)=CC[C@H]12
REMARK SMILES IDX 9 1 8 2 5 3 6 4 27 5 7 6 21 7 26 8 22 9 25 10 3 11 4 12 2 13
REMARK SMILES IDX 1 14 23 15 24 16 10 18 19 19 11 20 17 21 12 22 15 23 20 24
REMARK SMILES IDX 18 26 13 28 14 29 16 31
REMARK H PARENT 24 17 20 25 18 27 14 30 16 32
REMARK Flexibility Score: inf
ROOT
ATOM      1  O   UNL     1       8.595  11.651 -16.247  1.00  0.00    -0.310 OA
ENDROOT
BRANCH   1   2
ATOM      2  C   UNL     1       7.754  10.569 -16.604  1.00  0.00     0.316 C 
ATOM      3  C   UNL     1       7.190   9.162 -14.093  1.00  0.00     0.076 C 
ATOM      4  C   UNL     1       6.254   9.953 -14.666  1.00  0.00     0.202 C 
ATOM      5  C   UNL     1       8.563   9.186 -14.718  1.00  0.00     0.047 C 
ATOM      6  O   UNL     1       6.510  10.646 -15.875  1.00  0.00    -0.471 OA
ATOM      7  C   UNL     1       8.419   9.242 -16.233  1.00  0.00     0.094 C 
ATOM      8  C   UNL     1       9.556   8.042 -14.519  1.00  0.00     0.037 C 
ATOM      9  C   UNL     1       9.797   8.904 -16.691  1.00  0.00    -0.039 C 
ATOM     10  C   UNL     1      10.406   8.176 -15.750  1.00  0.00    -0.024 C 
BRANCH   3  11
ATOM     11  C   UNL     1       6.917   8.482 -12.806  1.00  0.00     0.337 C 
ATOM     12  O   UNL     1       6.582   7.267 -12.790  1.00  0.00    -0.246 OA
BRANCH  11  13
ATOM     13  O   UNL     1       7.038   9.190 -11.605  1.00  0.00    -0.466 OA
ATOM     14  C   UNL     1       7.009   8.553 -10.333  1.00  0.00     0.282 C 
ENDBRANCH  11  13
ENDBRANCH   3  11
BRANCH   9  15
ATOM     15  C   UNL     1      10.326   9.097 -18.085  1.00  0.00     0.187 C 
BRANCH  15  16
ATOM     16  O   UNL     1      10.641  10.444 -18.305  1.00  0.00    -0.392 OA
ATOM     17  H   UNL     1      11.583  10.570 -18.017  1.00  0.00     0.211 HD
ENDBRANCH  15  16
ENDBRANCH   9  15
ENDBRANCH   1   2
BRANCH   1  18
ATOM     18  C   UNL     1       7.886  12.881 -16.298  1.00  0.00     0.286 C 
ATOM     19  C   UNL     1       8.353  13.801 -15.150  1.00  0.00     0.202 C 
ATOM     20  O   UNL     1       8.042  13.514 -17.560  1.00  0.00    -0.341 OA
ATOM     21  C   UNL     1       9.791  14.294 -15.388  1.00  0.00     0.179 C 
ATOM     22  C   UNL     1       9.403  13.817 -17.835  1.00  0.00     0.178 C 
ATOM     23  C   UNL     1       9.958  14.840 -16.817  1.00  0.00     0.177 C 
BRANCH  19  24
ATOM     24  O   UNL     1       7.464  14.878 -14.966  1.00  0.00    -0.385 OA
ATOM     25  H   UNL     1       7.222  15.236 -15.858  1.00  0.00     0.211 HD
ENDBRANCH  19  24
BRANCH  21  26
ATOM     26  O   UNL     1      10.109  15.286 -14.446  1.00  0.00    -0.387 OA
ATOM     27  H   UNL     1      10.958  15.706 -14.743  1.00  0.00     0.211 HD
ENDBRANCH  21  26
BRANCH  22  28
ATOM     28  C   UNL     1       9.493  14.366 -19.264  1.00  0.00     0.191 C 
BRANCH  28  29
ATOM     29  O   UNL     1       9.701  15.751 -19.227  1.00  0.00    -0.394 OA
ATOM     30  H   UNL     1      10.551  15.890 -18.736  1.00  0.00     0.210 HD
ENDBRANCH  28  29
ENDBRANCH  22  28
BRANCH  23  31
ATOM     31  O   UNL     1      11.325  15.066 -17.057  1.00  0.00    -0.387 OA
ATOM     32  H   UNL     1      11.486  14.901 -18.023  1.00  0.00     0.211 HD
ENDBRANCH  23  31
ENDBRANCH   1  18
TORSDOF 11
ENDMDL
MODEL 4
REMARK VINA RESULT:    -5.805      2.551      7.022
REMARK INTER + INTRA:         -10.102
REMARK INTER:                  -8.738
REMARK INTRA:                  -1.365
REMARK UNBOUND:                -1.412
REMARK SMILES COC(=O)C1=CO[C@@H](O[C@@H]2O[C@@H](CO)[C@H](O)[C@@H](O)[C@H]2O)[C@H]2C(CO)=CC[C@H]12
REMARK SMILES IDX 9 1 8 2 5 3 6 4 27 5 7 6 21 7 26 8 22 9 25 10 3 11 4 12 2 13
REMARK SMILES IDX 1 14 23 15 24 16 10 18 19 19 11 20 17 21 12 22 15 23 20 24
REMARK SMILES IDX 18 26 13 28 14 29 16 31
REMARK H PARENT 24 17 20 25 18 27 14 30 16 32
REMARK Flexibility Score: inf
ROOT
ATOM      1  O   UNL     1       9.208  12.248 -17.691  1.00  0.00    -0.310 OA
ENDROOT
BRANCH   1   2
ATOM      2  C   UNL     1      10.239  11.735 -16.866  1.00  0.00     0.316 C 
ATOM      3  C   UNL     1       9.144   9.284 -15.686  1.00  0.00     0.076 C 
ATOM      4  C   UNL     1      10.047   9.221 -16.691  1.00  0.00     0.202 C 
ATOM      5  C   UNL     1       8.619  10.655 -15.339  1.00  0.00     0.047 C 
ATOM      6  O   UNL     1      10.583  10.394 -17.278  1.00  0.00    -0.471 OA
ATOM      7  C   UNL     1       9.763  11.659 -15.414  1.00  0.00     0.094 C 
ATOM      8  C   UNL     1       8.001  10.957 -13.974  1.00  0.00     0.037 C 
ATOM      9  C   UNL     1       9.186  12.844 -14.718  1.00  0.00    -0.039 C 
ATOM     10  C   UNL     1       8.241  12.436 -13.865  1.00  0.00    -0.024 C 
BRANCH   3  11
ATOM     11  C   UNL     1       8.563   8.046 -15.116  1.00  0.00     0.337 C 
ATOM     12  O   UNL     1       9.086   7.509 -14.103  1.00  0.00    -0.246 OA
BRANCH  11  13
ATOM     13  O   UNL     1       7.425   7.477 -15.701  1.00  0.00    -0.466 OA
ATOM     14  C   UNL     1       7.437   6.190 -16.307  1.00  0.00     0.282 C 
ENDBRANCH  11  13
ENDBRANCH   3  11
BRANCH   9  15
ATOM     15  C   UNL     1       9.752  14.236 -14.749  1.00  0.00     0.187 C 
BRANCH  15  16
ATOM     16  O   UNL     1       9.360  14.897 -15.921  1.00  0.00    -0.392 OA
ATOM     17  H   UNL     1       9.937  15.700 -16.006  1.00  0.00     0.211 HD
ENDBRANCH  15  16
ENDBRANCH   9  15
ENDBRANCH   1   2
BRANCH   1  18
ATOM     18  C   UNL     1       9.696  12.527 -18.995  1.00  0.00     0.286 C 
ATOM     19  C   UNL     1       9.036  11.575 -20.014  1.00  0.00     0.202 C 
ATOM     20  O   UNL     1       9.478  13.886 -19.346  1.00  0.00    -0.341 OA
ATOM     21  C   UNL     1       7.543  11.906 -20.193  1.00  0.00     0.179 C 
ATOM     22  C   UNL     1       8.096  14.218 -19.348  1.00  0.00     0.178 C 
ATOM     23  C   UNL     1       7.336  13.413 -20.428  1.00  0.00     0.177 C 
BRANCH  19  24
ATOM     24  O   UNL     1       9.718  11.594 -21.246  1.00  0.00    -0.385 OA
ATOM     25  H   UNL     1       9.127  11.191 -21.934  1.00  0.00     0.211 HD
ENDBRANCH  19  24
BRANCH  21  26
ATOM     26  O   UNL     1       7.024  11.168 -21.271  1.00  0.00    -0.387 OA
ATOM     27  H   UNL     1       6.072  11.430 -21.368  1.00  0.00     0.211 HD
ENDBRANCH  21  26
BRANCH  22  28
ATOM     28  C   UNL     1       7.965  15.725 -19.599  1.00  0.00     0.191 C 
BRANCH  28  29
ATOM     29  O   UNL     1       7.880  15.971 -20.975  1.00  0.00    -0.394 OA
ATOM     30  H   UNL     1       8.163  16.911 -21.106  1.00  0.00     0.210 HD
ENDBRANCH  28  29
ENDBRANCH  22  28
BRANCH  23  31
ATOM     31  O   UNL     1       5.960  13.695 -20.360  1.00  0.00    -0.387 OA
ATOM     32  H   UNL     1       5.868  14.647 -20.091  1.00  0.00     0.211 HD
ENDBRANCH  23  31
ENDBRANCH   1  18
TORSDOF 11
ENDMDL
MODEL 5
REMARK VINA RESULT:    -5.733      3.318      7.368
REMARK INTER + INTRA:          -9.994
REMARK INTER:                  -8.757
REMARK INTRA:                  -1.238
REMARK UNBOUND:                -1.412
REMARK SMILES COC(=O)C1=CO[C@@H](O[C@@H]2O[C@@H](CO)[C@H](O)[C@@H](O)[C@H]2O)[C@H]2C(CO)=CC[C@H]12
REMARK SMILES IDX 9 1 8 2 5 3 6 4 27 5 7 6 21 7 26 8 22 9 25 10 3 11 4 12 2 13
REMARK SMILES IDX 1 14 23 15 24 16 10 18 19 19 11 20 17 21 12 22 15 23 20 24
REMARK SMILES IDX 18 26 13 28 14 29 16 31
REMARK H PARENT 24 17 20 25 18 27 14 30 16 32
REMARK Flexibility Score: inf
ROOT
ATOM      1  O   UNL     1       8.899  11.393 -16.555  1.00  0.00    -0.310 OA
ENDROOT
BRANCH   1   2
ATOM      2  C   UNL     1       9.528  10.796 -15.436  1.00  0.00     0.316 C 
ATOM      3  C   UNL     1       8.660   7.995 -15.460  1.00  0.00     0.076 C 
ATOM      4  C   UNL     1       9.908   8.334 -15.858  1.00  0.00     0.202 C 
ATOM      5  C   UNL     1       7.713   9.134 -15.175  1.00  0.00     0.047 C 
ATOM      6  O   UNL     1      10.343   9.682 -15.860  1.00  0.00    -0.471 OA
ATOM      7  C   UNL     1       8.475  10.250 -14.470  1.00  0.00     0.094 C 
ATOM      8  C   UNL     1       6.485   8.954 -14.285  1.00  0.00     0.037 C 
ATOM      9  C   UNL     1       7.369  11.106 -13.954  1.00  0.00    -0.039 C 
ATOM     10  C   UNL     1       6.273  10.358 -13.793  1.00  0.00    -0.024 C 
BRANCH   3  11
ATOM     11  C   UNL     1       8.211   6.584 -15.508  1.00  0.00     0.337 C 
ATOM     12  O   UNL     1       8.281   5.862 -14.477  1.00  0.00    -0.246 OA
BRANCH  11  13
ATOM     13  O   UNL     1       7.700   6.056 -16.699  1.00  0.00    -0.466 OA
ATOM     14  C   UNL     1       6.372   6.309 -17.143  1.00  0.00     0.282 C 
ENDBRANCH  11  13
ENDBRANCH   3  11
BRANCH   9  15
ATOM     15  C   UNL     1       7.521  12.507 -13.431  1.00  0.00     0.187 C 
BRANCH  15  16
ATOM     16  O   UNL     1       8.355  12.520 -12.305  1.00  0.00    -0.392 OA
ATOM     17  H   UNL     1       8.075  11.760 -11.731  1.00  0.00     0.211 HD
ENDBRANCH  15  16
ENDBRANCH   9  15
ENDBRANCH   1   2
BRANCH   1  18
ATOM     18  C   UNL     1       9.818  11.550 -17.627  1.00  0.00     0.286 C 
ATOM     19  C   UNL     1       9.106  11.278 -18.969  1.00  0.00     0.202 C 
ATOM     20  O   UNL     1      10.412  12.840 -17.613  1.00  0.00    -0.341 OA
ATOM     21  C   UNL     1       8.098  12.395 -19.295  1.00  0.00     0.179 C 
ATOM     22  C   UNL     1       9.443  13.871 -17.752  1.00  0.00     0.178 C 
ATOM     23  C   UNL     1       8.739  13.784 -19.127  1.00  0.00     0.177 C 
BRANCH  19  24
ATOM     24  O   UNL     1      10.035  11.103 -20.013  1.00  0.00    -0.385 OA
ATOM     25  H   UNL     1      10.058  11.936 -20.550  1.00  0.00     0.211 HD
ENDBRANCH  19  24
BRANCH  21  26
ATOM     26  O   UNL     1       7.624  12.232 -20.608  1.00  0.00    -0.387 OA
ATOM     27  H   UNL     1       8.402  11.970 -21.166  1.00  0.00     0.211 HD
ENDBRANCH  21  26
BRANCH  22  28
ATOM     28  C   UNL     1      10.151  15.221 -17.587  1.00  0.00     0.191 C 
BRANCH  28  29
ATOM     29  O   UNL     1      10.556  15.700 -18.839  1.00  0.00    -0.394 OA
ATOM     30  H   UNL     1      10.818  16.646 -18.701  1.00  0.00     0.210 HD
ENDBRANCH  28  29
ENDBRANCH  22  28
BRANCH  23  31
ATOM     31  O   UNL     1       7.730  14.760 -19.214  1.00  0.00    -0.387 OA
ATOM     32  H   UNL     1       8.171  15.618 -19.449  1.00  0.00     0.211 HD
ENDBRANCH  23  31
ENDBRANCH   1  18
TORSDOF 11
ENDMDL
MODEL 6
REMARK VINA RESULT:    -5.712      2.127      3.843
REMARK INTER + INTRA:          -9.963
REMARK INTER:                  -8.902
REMARK INTRA:                  -1.061
REMARK UNBOUND:                -1.412
REMARK SMILES COC(=O)C1=CO[C@@H](O[C@@H]2O[C@@H](CO)[C@H](O)[C@@H](O)[C@H]2O)[C@H]2C(CO)=CC[C@H]12
REMARK SMILES IDX 9 1 8 2 5 3 6 4 27 5 7 6 21 7 26 8 22 9 25 10 3 11 4 12 2 13
REMARK SMILES IDX 1 14 23 15 24 16 10 18 19 19 11 20 17 21 12 22 15 23 20 24
REMARK SMILES IDX 18 26 13 28 14 29 16 31
REMARK H PARENT 24 17 20 25 18 27 14 30 16 32
REMARK Flexibility Score: inf
ROOT
ATOM      1  O   UNL     1       9.232  12.102 -16.241  1.00  0.00    -0.310 OA
ENDROOT
BRANCH   1   2
ATOM      2  C   UNL     1       8.461  13.289 -16.220  1.00  0.00     0.316 C 
ATOM      3  C   UNL     1       8.502  14.290 -18.977  1.00  0.00     0.076 C 
ATOM      4  C   UNL     1       7.401  13.680 -18.481  1.00  0.00     0.202 C 
ATOM      5  C   UNL     1       9.733  14.268 -18.104  1.00  0.00     0.047 C 
ATOM      6  O   UNL     1       7.365  13.185 -17.154  1.00  0.00    -0.471 OA
ATOM      7  C   UNL     1       9.318  14.481 -16.654  1.00  0.00     0.094 C 
ATOM      8  C   UNL     1      10.861  15.283 -18.281  1.00  0.00     0.037 C 
ATOM      9  C   UNL     1      10.621  14.786 -15.997  1.00  0.00    -0.039 C 
ATOM     10  C   UNL     1      11.461  15.295 -16.904  1.00  0.00    -0.024 C 
BRANCH   3  11
ATOM     11  C   UNL     1       8.535  14.761 -20.381  1.00  0.00     0.337 C 
ATOM     12  O   UNL     1       8.757  13.947 -21.317  1.00  0.00    -0.246 OA
BRANCH  11  13
ATOM     13  O   UNL     1       8.313  16.113 -20.667  1.00  0.00    -0.466 OA
ATOM     14  C   UNL     1       8.644  16.695 -21.923  1.00  0.00     0.282 C 
ENDBRANCH  11  13
ENDBRANCH   3  11
BRANCH   9  15
ATOM     15  C   UNL     1      10.872  14.793 -14.515  1.00  0.00     0.187 C 
BRANCH  15  16
ATOM     16  O   UNL     1      12.157  15.277 -14.239  1.00  0.00    -0.392 OA
ATOM     17  H   UNL     1      12.706  15.114 -15.050  1.00  0.00     0.211 HD
ENDBRANCH  15  16
ENDBRANCH   9  15
ENDBRANCH   1   2
BRANCH   1  18
ATOM     18  C   UNL     1       8.468  11.011 -16.732  1.00  0.00     0.286 C 
ATOM     19  C   UNL     1       9.129  10.443 -18.006  1.00  0.00     0.202 C 
ATOM     20  O   UNL     1       8.310  10.004 -15.743  1.00  0.00    -0.341 OA
ATOM     21  C   UNL     1      10.452   9.732 -17.671  1.00  0.00     0.179 C 
ATOM     22  C   UNL     1       9.559   9.471 -15.326  1.00  0.00     0.178 C 
ATOM     23  C   UNL     1      10.272   8.754 -16.496  1.00  0.00     0.177 C 
BRANCH  19  24
ATOM     24  O   UNL     1       8.248   9.590 -18.700  1.00  0.00    -0.385 OA
ATOM     25  H   UNL     1       8.628   8.674 -18.685  1.00  0.00     0.211 HD
ENDBRANCH  19  24
BRANCH  21  26
ATOM     26  O   UNL     1      10.919   9.049 -18.807  1.00  0.00    -0.387 OA
ATOM     27  H   UNL     1      11.629   9.613 -19.212  1.00  0.00     0.211 HD
ENDBRANCH  21  26
BRANCH  22  28
ATOM     28  C   UNL     1       9.304   8.500 -14.167  1.00  0.00     0.191 C 
BRANCH  28  29
ATOM     29  O   UNL     1       9.309   7.182 -14.642  1.00  0.00    -0.394 OA
ATOM     30  H   UNL     1       8.816   6.645 -13.971  1.00  0.00     0.210 HD
ENDBRANCH  28  29
ENDBRANCH  22  28
BRANCH  23  31
ATOM     31  O   UNL     1      11.539   8.304 -16.085  1.00  0.00    -0.387 OA
ATOM     32  H   UNL     1      11.395   7.523 -15.489  1.00  0.00     0.211 HD
ENDBRANCH  23  31
ENDBRANCH   1  18
TORSDOF 11
ENDMDL
MODEL 7
REMARK VINA RESULT:    -5.640      3.721      7.857
REMARK INTER + INTRA:          -9.855
REMARK INTER:                  -8.527
REMARK INTRA:                  -1.328
REMARK UNBOUND:                -1.412
REMARK SMILES COC(=O)C1=CO[C@@H](O[C@@H]2O[C@@H](CO)[C@H](O)[C@@H](O)[C@H]2O)[C@H]2C(CO)=CC[C@H]12
REMARK SMILES IDX 9 1 8 2 5 3 6 4 27 5 7 6 21 7 26 8 22 9 25 10 3 11 4 12 2 13
REMARK SMILES IDX 1 14 23 15 24 16 10 18 19 19 11 20 17 21 12 22 15 23 20 24
REMARK SMILES IDX 18 26 13 28 14 29 16 31
REMARK H PARENT 24 17 20 25 18 27 14 30 16 32
REMARK Flexibility Score: inf
ROOT
ATOM      1  O   UNL     1       8.146  11.351 -16.449  1.00  0.00    -0.310 OA
ENDROOT
BRANCH   1   2
ATOM      2  C   UNL     1       7.910  10.159 -17.177  1.00  0.00     0.316 C 
ATOM      3  C   UNL     1       7.113   8.171 -15.173  1.00  0.00     0.076 C 
ATOM      4  C   UNL     1       6.193   8.737 -15.988  1.00  0.00     0.202 C 
ATOM      5  C   UNL     1       8.509   8.739 -15.240  1.00  0.00     0.047 C 
ATOM      6  O   UNL     1       6.558   9.703 -16.957  1.00  0.00    -0.471 OA
ATOM      7  C   UNL     1       8.849   9.052 -16.692  1.00  0.00     0.094 C 
ATOM      8  C   UNL     1       9.725   7.938 -14.778  1.00  0.00     0.037 C 
ATOM      9  C   UNL     1      10.325   9.251 -16.632  1.00  0.00    -0.039 C 
ATOM     10  C   UNL     1      10.818   8.571 -15.592  1.00  0.00    -0.024 C 
BRANCH   3  11
ATOM     11  C   UNL     1       6.704   7.195 -14.136  1.00  0.00     0.337 C 
ATOM     12  O   UNL     1       6.672   7.536 -12.923  1.00  0.00    -0.246 OA
BRANCH  11  13
ATOM     13  O   UNL     1       6.346   5.894 -14.507  1.00  0.00    -0.466 OA
ATOM     14  C   UNL     1       7.205   5.048 -15.262  1.00  0.00     0.282 C 
ENDBRANCH  11  13
ENDBRANCH   3  11
BRANCH   9  15
ATOM     15  C   UNL     1      11.168   9.873 -17.711  1.00  0.00     0.187 C 
BRANCH  15  16
ATOM     16  O   UNL     1      10.750   9.430 -18.972  1.00  0.00    -0.392 OA
ATOM     17  H   UNL     1      10.012  10.029 -19.258  1.00  0.00     0.211 HD
ENDBRANCH  15  16
ENDBRANCH   9  15
ENDBRANCH   1   2
BRANCH   1  18
ATOM     18  C   UNL     1       8.246  12.465 -17.324  1.00  0.00     0.286 C 
ATOM     19  C   UNL     1       7.325  13.601 -16.830  1.00  0.00     0.202 C 
ATOM     20  O   UNL     1       9.591  12.909 -17.442  1.00  0.00    -0.341 OA
ATOM     21  C   UNL     1       7.860  14.217 -15.524  1.00  0.00     0.179 C 
ATOM     22  C   UNL     1      10.123  13.323 -16.191  1.00  0.00     0.178 C 
ATOM     23  C   UNL     1       9.357  14.550 -15.644  1.00  0.00     0.177 C 
BRANCH  19  24
ATOM     24  O   UNL     1       7.145  14.581 -17.825  1.00  0.00    -0.385 OA
ATOM     25  H   UNL     1       6.198  14.557 -18.116  1.00  0.00     0.211 HD
ENDBRANCH  19  24
BRANCH  21  26
ATOM     26  O   UNL     1       7.125  15.374 -15.215  1.00  0.00    -0.387 OA
ATOM     27  H   UNL     1       6.674  15.207 -14.347  1.00  0.00     0.211 HD
ENDBRANCH  21  26
BRANCH  22  28
ATOM     28  C   UNL     1      11.608  13.651 -16.387  1.00  0.00     0.191 C 
BRANCH  28  29
ATOM     29  O   UNL     1      11.757  15.007 -16.703  1.00  0.00    -0.394 OA
ATOM     30  H   UNL     1      10.862  15.417 -16.589  1.00  0.00     0.210 HD
ENDBRANCH  28  29
ENDBRANCH  22  28
BRANCH  23  31
ATOM     31  O   UNL     1       9.846  14.895 -14.371  1.00  0.00    -0.387 OA
ATOM     32  H   UNL     1       9.346  15.699 -14.072  1.00  0.00     0.211 HD
ENDBRANCH  23  31
ENDBRANCH   1  18
TORSDOF 11
ENDMDL
MODEL 8
REMARK VINA RESULT:    -5.577      4.199      8.767
REMARK INTER + INTRA:          -9.761
REMARK INTER:                  -8.820
REMARK INTRA:                  -0.940
REMARK UNBOUND:                -1.412
REMARK SMILES COC(=O)C1=CO[C@@H](O[C@@H]2O[C@@H](CO)[C@H](O)[C@@H](O)[C@H]2O)[C@H]2C(CO)=CC[C@H]12
REMARK SMILES IDX 9 1 8 2 5 3 6 4 27 5 7 6 21 7 26 8 22 9 25 10 3 11 4 12 2 13
REMARK SMILES IDX 1 14 23 15 24 16 10 18 19 19 11 20 17 21 12 22 15 23 20 24
REMARK SMILES IDX 18 26 13 28 14 29 16 31
REMARK H PARENT 24 17 20 25 18 27 14 30 16 32
REMARK Flexibility Score: inf
ROOT
ATOM      1  O   UNL     1       8.074  10.969 -15.307  1.00  0.00    -0.310 OA
ENDROOT
BRANCH   1   2
ATOM      2  C   UNL     1       6.778  10.420 -15.155  1.00  0.00     0.316 C 
ATOM      3  C   UNL     1       6.835   8.991 -12.594  1.00  0.00     0.076 C 
ATOM      4  C   UNL     1       6.212  10.187 -12.703  1.00  0.00     0.202 C 
ATOM      5  C   UNL     1       7.626   8.534 -13.795  1.00  0.00     0.047 C 
ATOM      6  O   UNL     1       6.179  10.895 -13.930  1.00  0.00    -0.471 OA
ATOM      7  C   UNL     1       6.860   8.895 -15.062  1.00  0.00     0.094 C 
ATOM      8  C   UNL     1       7.966   7.061 -14.019  1.00  0.00     0.037 C 
ATOM      9  C   UNL     1       7.565   8.086 -16.096  1.00  0.00    -0.039 C 
ATOM     10  C   UNL     1       8.131   7.025 -15.512  1.00  0.00    -0.024 C 
BRANCH   3  11
ATOM     11  C   UNL     1       6.896   8.288 -11.292  1.00  0.00     0.337 C 
ATOM     12  O   UNL     1       6.231   7.234 -11.109  1.00  0.00    -0.246 OA
BRANCH  11  13
ATOM     13  O   UNL     1       7.701   8.794 -10.264  1.00  0.00    -0.466 OA
ATOM     14  C   UNL     1       7.609   8.334  -8.921  1.00  0.00     0.282 C 
ENDBRANCH  11  13
ENDBRANCH   3  11
BRANCH   9  15
ATOM     15  C   UNL     1       7.435   8.264 -17.583  1.00  0.00     0.187 C 
BRANCH  15  16
ATOM     16  O   UNL     1       8.672   8.607 -18.144  1.00  0.00    -0.392 OA
ATOM     17  H   UNL     1       8.848   7.957 -18.873  1.00  0.00     0.211 HD
ENDBRANCH  15  16
ENDBRANCH   9  15
ENDBRANCH   1   2
BRANCH   1  18
ATOM     18  C   UNL     1       8.149  11.773 -16.475  1.00  0.00     0.286 C 
ATOM     19  C   UNL     1       7.249  13.016 -16.311  1.00  0.00     0.202 C 
ATOM     20  O   UNL     1       9.490  12.144 -16.762  1.00  0.00    -0.341 OA
ATOM     21  C   UNL     1       7.830  13.984 -15.264  1.00  0.00     0.179 C 
ATOM     22  C   UNL     1      10.066  12.902 -15.707  1.00  0.00     0.178 C 
ATOM     23  C   UNL     1       9.324  14.247 -15.524  1.00  0.00     0.177 C 
BRANCH  19  24
ATOM     24  O   UNL     1       7.039  13.661 -17.546  1.00  0.00    -0.385 OA
ATOM     25  H   UNL     1       7.057  12.974 -18.261  1.00  0.00     0.211 HD
ENDBRANCH  19  24
BRANCH  21  26
ATOM     26  O   UNL     1       7.110  15.190 -15.289  1.00  0.00    -0.387 OA
ATOM     27  H   UNL     1       6.682  15.254 -16.182  1.00  0.00     0.211 HD
ENDBRANCH  21  26
BRANCH  22  28
ATOM     28  C   UNL     1      11.545  13.137 -16.038  1.00  0.00     0.191 C 
BRANCH  28  29
ATOM     29  O   UNL     1      12.165  11.916 -16.331  1.00  0.00    -0.394 OA
ATOM     30  H   UNL     1      11.787  11.615 -17.197  1.00  0.00     0.210 HD
ENDBRANCH  28  29
ENDBRANCH  22  28
BRANCH  23  31
ATOM     31  O   UNL     1       9.857  14.946 -14.427  1.00  0.00    -0.387 OA
ATOM     32  H   UNL     1       9.512  14.510 -13.605  1.00  0.00     0.211 HD
ENDBRANCH  23  31
ENDBRANCH   1  18
TORSDOF 11
ENDMDL
MODEL 9
REMARK VINA RESULT:    -5.562      1.859      3.369
REMARK INTER + INTRA:          -9.738
REMARK INTER:                  -8.294
REMARK INTRA:                  -1.445
REMARK UNBOUND:                -1.412
REMARK SMILES COC(=O)C1=CO[C@@H](O[C@@H]2O[C@@H](CO)[C@H](O)[C@@H](O)[C@H]2O)[C@H]2C(CO)=CC[C@H]12
REMARK SMILES IDX 9 1 8 2 5 3 6 4 27 5 7 6 21 7 26 8 22 9 25 10 3 11 4 12 2 13
REMARK SMILES IDX 1 14 23 15 24 16 10 18 19 19 11 20 17 21 12 22 15 23 20 24
REMARK SMILES IDX 18 26 13 28 14 29 16 31
REMARK H PARENT 24 17 20 25 18 27 14 30 16 32
REMARK Flexibility Score: inf
ROOT
ATOM      1  O   UNL     1       8.333  12.586 -17.653  1.00  0.00    -0.310 OA
ENDROOT
BRANCH   1   2
ATOM      2  C   UNL     1       7.757  13.868 -17.483  1.00  0.00     0.316 C 
ATOM      3  C   UNL     1       8.245  15.280 -20.007  1.00  0.00     0.076 C 
ATOM      4  C   UNL     1       7.016  14.795 -19.714  1.00  0.00     0.202 C 
ATOM      5  C   UNL     1       9.358  14.907 -19.059  1.00  0.00     0.047 C 
ATOM      6  O   UNL     1       6.763  14.104 -18.503  1.00  0.00    -0.471 OA
ATOM      7  C   UNL     1       8.829  14.950 -17.630  1.00  0.00     0.094 C 
ATOM      8  C   UNL     1      10.641  15.731 -18.964  1.00  0.00     0.037 C 
ATOM      9  C   UNL     1      10.086  14.918 -16.830  1.00  0.00    -0.039 C 
ATOM     10  C   UNL     1      11.086  15.417 -17.563  1.00  0.00    -0.024 C 
BRANCH   3  11
ATOM     11  C   UNL     1       8.499  15.959 -21.298  1.00  0.00     0.337 C 
ATOM     12  O   UNL     1       8.435  17.216 -21.376  1.00  0.00    -0.246 OA
BRANCH  11  13
ATOM     13  O   UNL     1       8.818  15.204 -22.432  1.00  0.00    -0.466 OA
ATOM     14  C   UNL     1       8.815  15.752 -23.745  1.00  0.00     0.282 C 
ENDBRANCH  11  13
ENDBRANCH   3  11
BRANCH   9  15
ATOM     15  C   UNL     1      10.175  14.642 -15.355  1.00  0.00     0.187 C 
BRANCH  15  16
ATOM     16  O   UNL     1      10.760  13.389 -15.128  1.00  0.00    -0.392 OA
ATOM     17  H   UNL     1      11.065  13.050 -16.010  1.00  0.00     0.211 HD
ENDBRANCH  15  16
ENDBRANCH   9  15
ENDBRANCH   1   2
BRANCH   1  18
ATOM     18  C   UNL     1       8.078  11.763 -16.524  1.00  0.00     0.286 C 
ATOM     19  C   UNL     1       6.882  10.832 -16.816  1.00  0.00     0.202 C 
ATOM     20  O   UNL     1       9.231  11.019 -16.157  1.00  0.00    -0.341 OA
ATOM     21  C   UNL     1       7.255   9.767 -17.863  1.00  0.00     0.179 C 
ATOM     22  C   UNL     1       9.658  10.155 -17.202  1.00  0.00     0.178 C 
ATOM     23  C   UNL     1       8.586   9.083 -17.506  1.00  0.00     0.177 C 
BRANCH  19  24
ATOM     24  O   UNL     1       6.394  10.242 -15.634  1.00  0.00    -0.385 OA
ATOM     25  H   UNL     1       6.556  10.871 -14.885  1.00  0.00     0.211 HD
ENDBRANCH  19  24
BRANCH  21  26
ATOM     26  O   UNL     1       6.225   8.815 -17.952  1.00  0.00    -0.387 OA
ATOM     27  H   UNL     1       5.375   9.290 -17.758  1.00  0.00     0.211 HD
ENDBRANCH  21  26
BRANCH  22  28
ATOM     28  C   UNL     1      10.977   9.501 -16.775  1.00  0.00     0.191 C 
BRANCH  28  29
ATOM     29  O   UNL     1      11.763   9.235 -17.903  1.00  0.00    -0.394 OA
ATOM     30  H   UNL     1      11.473   9.879 -18.599  1.00  0.00     0.210 HD
ENDBRANCH  28  29
ENDBRANCH  22  28
BRANCH  23  31
ATOM     31  O   UNL     1       8.992   8.290 -18.594  1.00  0.00    -0.387 OA
ATOM     32  H   UNL     1       9.650   8.820 -19.115  1.00  0.00     0.211 HD
ENDBRANCH  23  31
ENDBRANCH   1  18
TORSDOF 11
ENDMDL
