MODEL 1
REMARK VINA RESULT:    -3.897      0.000      0.000
REMARK INTER + INTRA:          -5.311
REMARK INTER:                  -5.720
REMARK INTRA:                   0.409
REMARK UNBOUND:                 0.409
REMARK SMILES C=C1CC=CC(C)(C)CC=C(C)CCC1
REMARK SMILES IDX 2 1 1 2 15 3 14 4 13 5 11 6 12 7 10 8 3 10 4 11 5 12 6 13
REMARK SMILES IDX 7 14 8 15 9 16
REMARK H PARENT
REMARK Flexibility Score: 60.00
ROOT
ATOM      1  C   UNL     1     -40.845 -47.864  27.788  1.00  0.00    -0.074 C 
ATOM      2  C   UNL     1     -40.060 -46.969  28.418  1.00  0.00     0.008 C 
ENDROOT
BRANCH   1   3
ATOM      3  C   UNL     1     -40.729 -49.332  28.145  1.00  0.00     0.031 C 
BRANCH   3   4
ATOM      4  C   UNL     1     -41.372 -49.721  29.491  1.00  0.00     0.009 C 
BRANCH   4   5
ATOM      5  C   UNL     1     -42.723 -49.050  29.800  1.00  0.00     0.030 C 
BRANCH   5   6
ATOM      6  C   UNL     1     -43.917 -49.882  29.360  1.00  0.00    -0.077 C 
ATOM      7  C   UNL     1     -44.271 -51.101  30.176  1.00  0.00     0.039 C 
ATOM      8  C   UNL     1     -44.682 -49.598  28.278  1.00  0.00    -0.027 CG0
ATOM      9  G   UNL     1     -44.545 -48.364  27.400  1.00  0.00     0.000 G0
ENDBRANCH   5   6
ENDBRANCH   4   5
ENDBRANCH   3   4
ENDBRANCH   1   3
BRANCH   1  10
ATOM     10  C   UNL     1     -41.661 -47.496  26.558  1.00  0.00     0.057 C 
BRANCH  10  11
ATOM     11  C   UNL     1     -41.999 -48.657  25.650  1.00  0.00    -0.026 C 
ATOM     12  C   UNL     1     -43.229 -49.109  25.323  1.00  0.00    -0.024 C 
BRANCH  12  13
ATOM     13  C   UNL     1     -44.587 -48.608  25.832  1.00  0.00    -0.014 C 
ATOM     14  C   UNL     1     -44.854 -47.246  25.145  1.00  0.00     0.016 C 
ATOM     15  C   UNL     1     -45.695 -49.572  25.341  1.00  0.00     0.016 C 
BRANCH  13  16
ATOM     16  C   UNL     1     -44.557 -48.357  27.388  1.00  0.00     0.038 CG0
ATOM     17  G   UNL     1     -44.672 -49.585  28.278  1.00  0.00     0.000 G0
ENDBRANCH  13  16
ENDBRANCH  12  13
ENDBRANCH  10  11
ENDBRANCH   1  10
TORSDOF 0
ENDMDL
MODEL 2
REMARK VINA RESULT:    -3.885      7.082     10.609
REMARK INTER + INTRA:          -5.294
REMARK INTER:                  -5.602
REMARK INTRA:                   0.309
REMARK UNBOUND:                 0.409
REMARK SMILES C=C1CC=CC(C)(C)CC=C(C)CCC1
REMARK SMILES IDX 2 1 1 2 15 3 14 4 13 5 11 6 12 7 10 8 3 10 4 11 5 12 6 13
REMARK SMILES IDX 7 14 8 15 9 16
REMARK H PARENT
REMARK Flexibility Score: 60.00
ROOT
ATOM      1  C   UNL     1     -53.360 -47.867  22.730  1.00  0.00    -0.074 C 
ATOM      2  C   UNL     1     -53.777 -46.599  22.557  1.00  0.00     0.008 C 
ENDROOT
BRANCH   1   3
ATOM      3  C   UNL     1     -53.952 -48.966  21.869  1.00  0.00     0.031 C 
BRANCH   3   4
ATOM      4  C   UNL     1     -53.524 -48.924  20.388  1.00  0.00     0.009 C 
BRANCH   4   5
ATOM      5  C   UNL     1     -52.010 -48.807  20.137  1.00  0.00     0.030 C 
BRANCH   5   6
ATOM      6  C   UNL     1     -51.241 -50.057  20.533  1.00  0.00    -0.077 C 
ATOM      7  C   UNL     1     -51.707 -51.381  19.980  1.00  0.00     0.039 C 
ATOM      8  C   UNL     1     -50.163 -50.056  21.355  1.00  0.00    -0.027 CG0
ATOM      9  G   UNL     1     -49.488 -48.818  21.924  1.00  0.00     0.000 G0
ENDBRANCH   5   6
ENDBRANCH   4   5
ENDBRANCH   3   4
ENDBRANCH   1   3
BRANCH   1  10
ATOM     10  C   UNL     1     -52.508 -48.281  23.921  1.00  0.00     0.057 C 
BRANCH  10  11
ATOM     11  C   UNL     1     -51.388 -47.325  24.263  1.00  0.00    -0.026 C 
ATOM     12  C   UNL     1     -50.065 -47.510  24.065  1.00  0.00    -0.024 C 
BRANCH  12  13
ATOM     13  C   UNL     1     -49.357 -48.752  23.507  1.00  0.00    -0.014 C 
ATOM     14  C   UNL     1     -47.853 -48.609  23.851  1.00  0.00     0.016 C 
ATOM     15  C   UNL     1     -49.863 -50.003  24.265  1.00  0.00     0.016 C 
BRANCH  13  16
ATOM     16  C   UNL     1     -49.479 -48.823  21.938  1.00  0.00     0.038 CG0
ATOM     17  G   UNL     1     -50.149 -50.060  21.362  1.00  0.00     0.000 G0
ENDBRANCH  13  16
ENDBRANCH  12  13
ENDBRANCH  10  11
ENDBRANCH   1  10
TORSDOF 0
ENDMDL
MODEL 3
REMARK VINA RESULT:    -3.875      7.326     10.502
REMARK INTER + INTRA:          -5.278
REMARK INTER:                  -5.923
REMARK INTRA:                   0.645
REMARK UNBOUND:                 0.409
REMARK SMILES C=C1CC=CC(C)(C)CC=C(C)CCC1
REMARK SMILES IDX 2 1 1 2 15 3 14 4 13 5 11 6 12 7 10 8 3 10 4 11 5 12 6 13
REMARK SMILES IDX 7 14 8 15 9 16
REMARK H PARENT
REMARK Flexibility Score: 60.00
ROOT
ATOM      1  C   UNL     1     -53.636 -47.721  22.052  1.00  0.00    -0.074 C 
ATOM      2  C   UNL     1     -54.698 -47.009  21.628  1.00  0.00     0.008 C 
ENDROOT
BRANCH   1   3
ATOM      3  C   UNL     1     -52.508 -47.010  22.772  1.00  0.00     0.031 C 
BRANCH   3   4
ATOM      4  C   UNL     1     -52.282 -47.468  24.227  1.00  0.00     0.009 C 
BRANCH   4   5
ATOM      5  C   UNL     1     -51.625 -48.851  24.393  1.00  0.00     0.030 C 
BRANCH   5   6
ATOM      6  C   UNL     1     -50.162 -48.870  23.983  1.00  0.00    -0.077 C 
ATOM      7  C   UNL     1     -49.145 -48.329  24.958  1.00  0.00     0.039 C 
ATOM      8  C   UNL     1     -49.713 -49.340  22.794  1.00  0.00    -0.027 CG0
ATOM      9  G   UNL     1     -50.568 -50.015  21.733  1.00  0.00     0.000 G0
ENDBRANCH   5   6
ENDBRANCH   4   5
ENDBRANCH   3   4
ENDBRANCH   1   3
BRANCH   1  10
ATOM     10  C   UNL     1     -53.404 -49.161  21.618  1.00  0.00     0.057 C 
BRANCH  10  11
ATOM     11  C   UNL     1     -53.090 -49.338  20.150  1.00  0.00    -0.026 C 
ATOM     12  C   UNL     1     -51.869 -49.463  19.584  1.00  0.00    -0.024 C 
BRANCH  12  13
ATOM     13  C   UNL     1     -50.498 -49.394  20.268  1.00  0.00    -0.014 C 
ATOM     14  C   UNL     1     -49.524 -50.246  19.416  1.00  0.00     0.016 C 
ATOM     15  C   UNL     1     -49.976 -47.938  20.206  1.00  0.00     0.016 C 
BRANCH  13  16
ATOM     16  C   UNL     1     -50.546 -50.029  21.710  1.00  0.00     0.038 CG0
ATOM     17  G   UNL     1     -49.719 -49.341  22.784  1.00  0.00     0.000 G0
ENDBRANCH  13  16
ENDBRANCH  12  13
ENDBRANCH  10  11
ENDBRANCH   1  10
TORSDOF 0
ENDMDL
MODEL 4
REMARK VINA RESULT:    -3.819      7.613     10.636
REMARK INTER + INTRA:          -5.197
REMARK INTER:                  -5.675
REMARK INTRA:                   0.478
REMARK UNBOUND:                 0.409
REMARK SMILES C=C1CC=CC(C)(C)CC=C(C)CCC1
REMARK SMILES IDX 2 1 1 2 15 3 14 4 13 5 11 6 12 7 10 8 3 10 4 11 5 12 6 13
REMARK SMILES IDX 7 14 8 15 9 16
REMARK H PARENT
REMARK Flexibility Score: 60.00
ROOT
ATOM      1  C   UNL     1     -50.787 -49.609  19.861  1.00  0.00    -0.074 C 
ATOM      2  C   UNL     1     -50.092 -49.639  18.708  1.00  0.00     0.008 C 
ENDROOT
BRANCH   1   3
ATOM      3  C   UNL     1     -52.238 -50.046  19.863  1.00  0.00     0.031 C 
BRANCH   3   4
ATOM      4  C   UNL     1     -53.237 -48.961  20.310  1.00  0.00     0.009 C 
BRANCH   4   5
ATOM      5  C   UNL     1     -53.698 -49.046  21.777  1.00  0.00     0.030 C 
BRANCH   5   6
ATOM      6  C   UNL     1     -53.486 -47.752  22.545  1.00  0.00    -0.077 C 
ATOM      7  C   UNL     1     -54.233 -46.524  22.086  1.00  0.00     0.039 C 
ATOM      8  C   UNL     1     -52.666 -47.631  23.617  1.00  0.00    -0.027 CG0
ATOM      9  G   UNL     1     -51.915 -48.771  24.286  1.00  0.00     0.000 G0
ENDBRANCH   5   6
ENDBRANCH   4   5
ENDBRANCH   3   4
ENDBRANCH   1   3
BRANCH   1  10
ATOM     10  C   UNL     1     -50.253 -48.918  21.107  1.00  0.00     0.057 C 
BRANCH  10  11
ATOM     11  C   UNL     1     -49.611 -49.840  22.118  1.00  0.00    -0.026 C 
ATOM     12  C   UNL     1     -49.661 -49.740  23.465  1.00  0.00    -0.024 C 
BRANCH  12  13
ATOM     13  C   UNL     1     -50.320 -48.639  24.307  1.00  0.00    -0.014 C 
ATOM     14  C   UNL     1     -49.854 -48.848  25.770  1.00  0.00     0.016 C 
ATOM     15  C   UNL     1     -49.765 -47.264  23.862  1.00  0.00     0.016 C 
BRANCH  13  16
ATOM     16  C   UNL     1     -51.891 -48.767  24.287  1.00  0.00     0.038 CG0
ATOM     17  G   UNL     1     -52.657 -47.637  23.617  1.00  0.00     0.000 G0
ENDBRANCH  13  16
ENDBRANCH  12  13
ENDBRANCH  10  11
ENDBRANCH   1  10
TORSDOF 0
ENDMDL
MODEL 5
REMARK VINA RESULT:    -3.711      1.577      3.590
REMARK INTER + INTRA:          -5.037
REMARK INTER:                  -5.581
REMARK INTRA:                   0.544
REMARK UNBOUND:                 0.409
REMARK SMILES C=C1CC=CC(C)(C)CC=C(C)CCC1
REMARK SMILES IDX 2 1 1 2 15 3 14 4 13 5 11 6 12 7 10 8 3 10 4 11 5 12 6 13
REMARK SMILES IDX 7 14 8 15 9 16
REMARK H PARENT
REMARK Flexibility Score: 60.00
ROOT
ATOM      1  C   UNL     1     -42.273 -50.231  29.592  1.00  0.00    -0.074 C 
ATOM      2  C   UNL     1     -42.199 -51.531  29.251  1.00  0.00     0.008 C 
ENDROOT
BRANCH   1   3
ATOM      3  C   UNL     1     -41.367 -49.698  30.685  1.00  0.00     0.031 C 
BRANCH   3   4
ATOM      4  C   UNL     1     -40.195 -48.831  30.184  1.00  0.00     0.009 C 
BRANCH   4   5
ATOM      5  C   UNL     1     -39.964 -48.842  28.662  1.00  0.00     0.030 C 
BRANCH   5   6
ATOM      6  C   UNL     1     -40.339 -47.529  27.993  1.00  0.00    -0.077 C 
ATOM      7  C   UNL     1     -39.677 -46.267  28.487  1.00  0.00     0.039 C 
ATOM      8  C   UNL     1     -41.234 -47.422  26.980  1.00  0.00    -0.027 CG0
ATOM      9  G   UNL     1     -41.921 -48.586  26.284  1.00  0.00     0.000 G0
ENDBRANCH   5   6
ENDBRANCH   4   5
ENDBRANCH   3   4
ENDBRANCH   1   3
BRANCH   1  10
ATOM     10  C   UNL     1     -43.400 -49.332  29.105  1.00  0.00     0.057 C 
BRANCH  10  11
ATOM     11  C   UNL     1     -44.247 -49.920  27.998  1.00  0.00    -0.026 C 
ATOM     12  C   UNL     1     -44.258 -49.559  26.697  1.00  0.00    -0.024 C 
BRANCH  12  13
ATOM     13  C   UNL     1     -43.470 -48.428  26.022  1.00  0.00    -0.014 C 
ATOM     14  C   UNL     1     -43.706 -48.559  24.497  1.00  0.00     0.016 C 
ATOM     15  C   UNL     1     -44.079 -47.069  26.445  1.00  0.00     0.016 C 
BRANCH  13  16
ATOM     16  C   UNL     1     -41.922 -48.578  26.277  1.00  0.00     0.038 CG0
ATOM     17  G   UNL     1     -41.233 -47.420  26.981  1.00  0.00     0.000 G0
ENDBRANCH  13  16
ENDBRANCH  12  13
ENDBRANCH  10  11
ENDBRANCH   1  10
TORSDOF 0
ENDMDL
MODEL 6
REMARK VINA RESULT:    -3.700      1.944      4.978
REMARK INTER + INTRA:          -5.022
REMARK INTER:                  -5.563
REMARK INTRA:                   0.542
REMARK UNBOUND:                 0.409
REMARK SMILES C=C1CC=CC(C)(C)CC=C(C)CCC1
REMARK SMILES IDX 2 1 1 2 15 3 14 4 13 5 11 6 12 7 10 8 3 10 4 11 5 12 6 13
REMARK SMILES IDX 7 14 8 15 9 16
REMARK H PARENT
REMARK Flexibility Score: 60.00
ROOT
ATOM      1  C   UNL     1     -43.499 -49.902  30.112  1.00  0.00    -0.074 C 
ATOM      2  C   UNL     1     -44.442 -50.807  30.437  1.00  0.00     0.008 C 
ENDROOT
BRANCH   1   3
ATOM      3  C   UNL     1     -43.910 -48.471  29.833  1.00  0.00     0.031 C 
BRANCH   3   4
ATOM      4  C   UNL     1     -44.338 -48.196  28.377  1.00  0.00     0.009 C 
BRANCH   4   5
ATOM      5  C   UNL     1     -43.815 -46.882  27.768  1.00  0.00     0.030 C 
BRANCH   5   6
ATOM      6  C   UNL     1     -42.769 -47.101  26.687  1.00  0.00    -0.077 C 
ATOM      7  C   UNL     1     -43.231 -47.149  25.252  1.00  0.00     0.039 C 
ATOM      8  C   UNL     1     -41.445 -47.258  26.933  1.00  0.00    -0.027 CG0
ATOM      9  G   UNL     1     -40.781 -47.137  28.295  1.00  0.00     0.000 G0
ENDBRANCH   5   6
ENDBRANCH   4   5
ENDBRANCH   3   4
ENDBRANCH   1   3
BRANCH   1  10
ATOM     10  C   UNL     1     -42.074 -50.311  29.767  1.00  0.00     0.057 C 
BRANCH  10  11
ATOM     11  C   UNL     1     -41.002 -49.629  30.587  1.00  0.00    -0.026 C 
ATOM     12  C   UNL     1     -40.060 -48.767  30.147  1.00  0.00    -0.024 C 
BRANCH  12  13
ATOM     13  C   UNL     1     -39.795 -48.310  28.706  1.00  0.00    -0.014 C 
ATOM     14  C   UNL     1     -38.350 -47.753  28.666  1.00  0.00     0.016 C 
ATOM     15  C   UNL     1     -39.814 -49.547  27.774  1.00  0.00     0.016 C 
BRANCH  13  16
ATOM     16  C   UNL     1     -40.765 -47.141  28.288  1.00  0.00     0.038 CG0
ATOM     17  G   UNL     1     -41.444 -47.270  26.934  1.00  0.00     0.000 G0
ENDBRANCH  13  16
ENDBRANCH  12  13
ENDBRANCH  10  11
ENDBRANCH   1  10
TORSDOF 0
ENDMDL
MODEL 7
REMARK VINA RESULT:    -3.691      8.065     10.797
REMARK INTER + INTRA:          -5.008
REMARK INTER:                  -5.744
REMARK INTRA:                   0.736
REMARK UNBOUND:                 0.409
REMARK SMILES C=C1CC=CC(C)(C)CC=C(C)CCC1
REMARK SMILES IDX 2 1 1 2 15 3 14 4 13 5 11 6 12 7 10 8 3 10 4 11 5 12 6 13
REMARK SMILES IDX 7 14 8 15 9 16
REMARK H PARENT
REMARK Flexibility Score: 60.00
ROOT
ATOM      1  C   UNL     1     -50.923 -47.710  24.622  1.00  0.00    -0.074 C 
ATOM      2  C   UNL     1     -49.938 -47.613  25.535  1.00  0.00     0.008 C 
ENDROOT
BRANCH   1   3
ATOM      3  C   UNL     1     -51.930 -46.584  24.496  1.00  0.00     0.031 C 
BRANCH   3   4
ATOM      4  C   UNL     1     -53.310 -47.012  23.958  1.00  0.00     0.009 C 
BRANCH   4   5
ATOM      5  C   UNL     1     -53.678 -46.466  22.566  1.00  0.00     0.030 C 
BRANCH   5   6
ATOM      6  C   UNL     1     -54.125 -47.550  21.599  1.00  0.00    -0.077 C 
ATOM      7  C   UNL     1     -55.605 -47.721  21.359  1.00  0.00     0.039 C 
ATOM      8  C   UNL     1     -53.276 -48.375  20.939  1.00  0.00    -0.027 CG0
ATOM      9  G   UNL     1     -51.759 -48.289  20.971  1.00  0.00     0.000 G0
ENDBRANCH   5   6
ENDBRANCH   4   5
ENDBRANCH   3   4
ENDBRANCH   1   3
BRANCH   1  10
ATOM     10  C   UNL     1     -51.218 -49.010  23.889  1.00  0.00     0.057 C 
BRANCH  10  11
ATOM     11  C   UNL     1     -50.033 -49.616  23.171  1.00  0.00    -0.026 C 
ATOM     12  C   UNL     1     -49.914 -49.855  21.846  1.00  0.00    -0.024 C 
BRANCH  12  13
ATOM     13  C   UNL     1     -50.963 -49.636  20.748  1.00  0.00    -0.014 C 
ATOM     14  C   UNL     1     -50.197 -49.521  19.407  1.00  0.00     0.016 C 
ATOM     15  C   UNL     1     -51.849 -50.901  20.639  1.00  0.00     0.016 C 
BRANCH  13  16
ATOM     16  C   UNL     1     -51.745 -48.286  20.965  1.00  0.00     0.038 CG0
ATOM     17  G   UNL     1     -53.263 -48.364  20.926  1.00  0.00     0.000 G0
ENDBRANCH  13  16
ENDBRANCH  12  13
ENDBRANCH  10  11
ENDBRANCH   1  10
TORSDOF 0
ENDMDL
MODEL 8
REMARK VINA RESULT:    -3.654      1.889      4.681
REMARK INTER + INTRA:          -4.954
REMARK INTER:                  -5.478
REMARK INTRA:                   0.524
REMARK UNBOUND:                 0.409
REMARK SMILES C=C1CC=CC(C)(C)CC=C(C)CCC1
REMARK SMILES IDX 2 1 1 2 15 3 14 4 13 5 11 6 12 7 10 8 3 10 4 11 5 12 6 13
REMARK SMILES IDX 7 14 8 15 9 16
REMARK H PARENT
REMARK Flexibility Score: 60.00
ROOT
ATOM      1  C   UNL     1     -43.363 -48.957  26.977  1.00  0.00    -0.074 C 
ATOM      2  C   UNL     1     -44.061 -49.909  26.330  1.00  0.00     0.008 C 
ENDROOT
BRANCH   1   3
ATOM      3  C   UNL     1     -41.916 -48.712  26.597  1.00  0.00     0.031 C 
BRANCH   3   4
ATOM      4  C   UNL     1     -41.404 -47.289  26.899  1.00  0.00     0.009 C 
BRANCH   4   5
ATOM      5  C   UNL     1     -40.844 -47.073  28.317  1.00  0.00     0.030 C 
BRANCH   5   6
ATOM      6  C   UNL     1     -40.013 -48.244  28.816  1.00  0.00    -0.077 C 
ATOM      7  C   UNL     1     -38.601 -48.382  28.303  1.00  0.00     0.039 C 
ATOM      8  C   UNL     1     -40.464 -49.175  29.692  1.00  0.00    -0.027 CG0
ATOM      9  G   UNL     1     -41.813 -49.147  30.393  1.00  0.00     0.000 G0
ENDBRANCH   5   6
ENDBRANCH   4   5
ENDBRANCH   3   4
ENDBRANCH   1   3
BRANCH   1  10
ATOM     10  C   UNL     1     -43.885 -48.294  28.243  1.00  0.00     0.057 C 
BRANCH  10  11
ATOM     11  C   UNL     1     -44.671 -49.205  29.159  1.00  0.00    -0.026 C 
ATOM     12  C   UNL     1     -44.177 -50.091  30.052  1.00  0.00    -0.024 C 
BRANCH  12  13
ATOM     13  C   UNL     1     -42.709 -50.443  30.322  1.00  0.00    -0.014 C 
ATOM     14  C   UNL     1     -42.657 -51.141  31.704  1.00  0.00     0.016 C 
ATOM     15  C   UNL     1     -42.244 -51.492  29.282  1.00  0.00     0.016 C 
BRANCH  13  16
ATOM     16  C   UNL     1     -41.816 -49.147  30.412  1.00  0.00     0.038 CG0
ATOM     17  G   UNL     1     -40.477 -49.191  29.693  1.00  0.00     0.000 G0
ENDBRANCH  13  16
ENDBRANCH  12  13
ENDBRANCH  10  11
ENDBRANCH   1  10
TORSDOF 0
ENDMDL
MODEL 9
REMARK VINA RESULT:    -3.608      7.581     10.925
REMARK INTER + INTRA:          -4.886
REMARK INTER:                  -5.719
REMARK INTRA:                   0.833
REMARK UNBOUND:                 0.409
REMARK SMILES C=C1CC=CC(C)(C)CC=C(C)CCC1
REMARK SMILES IDX 2 1 1 2 15 3 14 4 13 5 11 6 12 7 10 8 3 10 4 11 5 12 6 13
REMARK SMILES IDX 7 14 8 15 9 16
REMARK H PARENT
REMARK Flexibility Score: 60.00
ROOT
ATOM      1  C   UNL     1     -54.108 -47.415  21.891  1.00  0.00    -0.074 C 
ATOM      2  C   UNL     1     -55.244 -46.929  21.355  1.00  0.00     0.008 C 
ENDROOT
BRANCH   1   3
ATOM      3  C   UNL     1     -53.980 -48.907  22.129  1.00  0.00     0.031 C 
BRANCH   3   4
ATOM      4  C   UNL     1     -52.958 -49.619  21.220  1.00  0.00     0.009 C 
BRANCH   4   5
ATOM      5  C   UNL     1     -51.969 -48.697  20.483  1.00  0.00     0.030 C 
BRANCH   5   6
ATOM      6  C   UNL     1     -50.515 -49.023  20.781  1.00  0.00    -0.077 C 
ATOM      7  C   UNL     1     -49.812 -50.011  19.884  1.00  0.00     0.039 C 
ATOM      8  C   UNL     1     -49.810 -48.481  21.804  1.00  0.00    -0.027 CG0
ATOM      9  G   UNL     1     -50.312 -47.397  22.744  1.00  0.00     0.000 G0
ENDBRANCH   5   6
ENDBRANCH   4   5
ENDBRANCH   3   4
ENDBRANCH   1   3
BRANCH   1  10
ATOM     10  C   UNL     1     -53.051 -46.507  22.501  1.00  0.00     0.057 C 
BRANCH  10  11
ATOM     11  C   UNL     1     -52.943 -46.582  24.007  1.00  0.00    -0.026 C 
ATOM     12  C   UNL     1     -51.941 -47.129  24.730  1.00  0.00    -0.024 C 
BRANCH  12  13
ATOM     13  C   UNL     1     -50.697 -47.866  24.215  1.00  0.00    -0.014 C 
ATOM     14  C   UNL     1     -49.523 -47.479  25.149  1.00  0.00     0.016 C 
ATOM     15  C   UNL     1     -50.909 -49.391  24.386  1.00  0.00     0.016 C 
BRANCH  13  16
ATOM     16  C   UNL     1     -50.318 -47.401  22.758  1.00  0.00     0.038 CG0
ATOM     17  G   UNL     1     -49.807 -48.475  21.812  1.00  0.00     0.000 G0
ENDBRANCH  13  16
ENDBRANCH  12  13
ENDBRANCH  10  11
ENDBRANCH   1  10
TORSDOF 0
ENDMDL
