MODEL 1
REMARK VINA RESULT:     8.758      0.000      0.000
REMARK INTER + INTRA:           9.326
REMARK INTER:                   9.526
REMARK INTRA:                  -0.200
REMARK UNBOUND:                -0.200
REMARK SMILES Cc1ccc(C(C)C)c(O)c1
REMARK SMILES IDX 1 1 2 2 11 3 9 4 5 5 4 6 3 7 10 8 6 10 7 11 8 12
REMARK H PARENT 10 9
REMARK Flexibility Score: inf
ROOT
ATOM      1  C   UNL     1       9.844  10.286  31.428  1.00  0.00     0.044 C 
ATOM      2  C   UNL     1      10.775  11.190  30.674  1.00  0.00    -0.047 A 
ATOM      3  C   UNL     1      12.062  10.754  30.336  1.00  0.00     0.049 A 
ATOM      4  C   UNL     1      12.926  11.578  29.599  1.00  0.00     0.119 A 
ATOM      5  C   UNL     1      12.496  12.857  29.180  1.00  0.00    -0.004 A 
ATOM      6  C   UNL     1      11.192  13.276  29.509  1.00  0.00     0.008 A 
ATOM      7  C   UNL     1      10.339  12.449  30.242  1.00  0.00     0.004 A 
ENDROOT
BRANCH   4   8
ATOM      8  O   UNL     1      14.207  11.123  29.285  1.00  0.00    -0.508 OA
ATOM      9  H   UNL     1      14.801  11.615  28.627  1.00  0.00     0.293 HD
ENDBRANCH   4   8
BRANCH   5  10
ATOM     10  C   UNL     1      13.414  13.770  28.381  1.00  0.00     0.017 C 
ATOM     11  C   UNL     1      12.684  14.362  27.168  1.00  0.00     0.012 C 
ATOM     12  C   UNL     1      14.001  14.877  29.265  1.00  0.00     0.012 C 
ENDBRANCH   5  10
TORSDOF 2
ENDMDL
MODEL 2
REMARK VINA RESULT:     9.405      1.683      2.136
REMARK INTER + INTRA:          10.030
REMARK INTER:                  10.226
REMARK INTRA:                  -0.196
REMARK UNBOUND:                -0.200
REMARK SMILES Cc1ccc(C(C)C)c(O)c1
REMARK SMILES IDX 1 1 2 2 11 3 9 4 5 5 4 6 3 7 10 8 6 10 7 11 8 12
REMARK H PARENT 10 9
REMARK Flexibility Score: inf
ROOT
ATOM      1  C   UNL     1       9.647  10.577  31.473  1.00  0.00     0.044 C 
ATOM      2  C   UNL     1      10.707  11.412  30.816  1.00  0.00    -0.047 A 
ATOM      3  C   UNL     1      11.212  12.548  31.462  1.00  0.00     0.049 A 
ATOM      4  C   UNL     1      12.229  13.313  30.872  1.00  0.00     0.119 A 
ATOM      5  C   UNL     1      12.761  12.935  29.619  1.00  0.00    -0.004 A 
ATOM      6  C   UNL     1      12.259  11.780  28.989  1.00  0.00     0.008 A 
ATOM      7  C   UNL     1      11.248  11.023  29.584  1.00  0.00     0.004 A 
ENDROOT
BRANCH   4   8
ATOM      8  O   UNL     1      12.706  14.445  31.532  1.00  0.00    -0.508 OA
ATOM      9  H   UNL     1      12.153  14.929  32.230  1.00  0.00     0.293 HD
ENDBRANCH   4   8
BRANCH   5  10
ATOM     10  C   UNL     1      13.864  13.749  28.958  1.00  0.00     0.017 C 
ATOM     11  C   UNL     1      15.108  12.888  28.702  1.00  0.00     0.012 C 
ATOM     12  C   UNL     1      13.369  14.401  27.661  1.00  0.00     0.012 C 
ENDBRANCH   5  10
TORSDOF 2
ENDMDL
MODEL 3
REMARK VINA RESULT:     9.481      1.613      2.161
REMARK INTER + INTRA:          10.113
REMARK INTER:                  10.309
REMARK INTRA:                  -0.197
REMARK UNBOUND:                -0.200
REMARK SMILES Cc1ccc(C(C)C)c(O)c1
REMARK SMILES IDX 1 1 2 2 11 3 9 4 5 5 4 6 3 7 10 8 6 10 7 11 8 12
REMARK H PARENT 10 9
REMARK Flexibility Score: inf
ROOT
ATOM      1  C   UNL     1       9.448  10.427  31.371  1.00  0.00     0.044 C 
ATOM      2  C   UNL     1      10.514  11.270  30.735  1.00  0.00    -0.047 A 
ATOM      3  C   UNL     1      10.262  11.933  29.527  1.00  0.00     0.049 A 
ATOM      4  C   UNL     1      11.239  12.754  28.944  1.00  0.00     0.119 A 
ATOM      5  C   UNL     1      12.488  12.928  29.582  1.00  0.00    -0.004 A 
ATOM      6  C   UNL     1      12.722  12.272  30.806  1.00  0.00     0.008 A 
ATOM      7  C   UNL     1      11.743  11.458  31.379  1.00  0.00     0.004 A 
ENDROOT
BRANCH   4   8
ATOM      8  O   UNL     1      10.966  13.394  27.736  1.00  0.00    -0.508 OA
ATOM      9  H   UNL     1      10.186  13.117  27.150  1.00  0.00     0.293 HD
ENDBRANCH   4   8
BRANCH   5  10
ATOM     10  C   UNL     1      13.565  13.812  28.969  1.00  0.00     0.017 C 
ATOM     11  C   UNL     1      13.813  15.056  29.832  1.00  0.00     0.012 C 
ATOM     12  C   UNL     1      14.864  13.028  28.746  1.00  0.00     0.012 C 
ENDBRANCH   5  10
TORSDOF 2
ENDMDL
