MODEL 1
REMARK VINA RESULT:    -7.271      0.000      0.000
REMARK INTER + INTRA:          -7.271
REMARK INTER:                  -7.271
REMARK INTRA:                   0.000
REMARK UNBOUND:                 0.000
REMARK SMILES CC(C)=C1CC[C@@H](C)CC1=O
REMARK SMILES IDX 8 1 7 2 6 3 5 4 4 5 2 6 1 7 3 8 10 9 11 10 9 11
REMARK H PARENT
REMARK Flexibility Score: inf
ROOT
ATOM      1  C   UNL     1     107.245  52.552  61.496  1.00  0.00     0.008 C 
ATOM      2  C   UNL     1     107.288  51.118  62.038  1.00  0.00    -0.006 C 
ATOM      3  C   UNL     1     107.852  51.097  63.468  1.00  0.00     0.008 C 
ATOM      4  C   UNL     1     107.808  49.685  64.065  1.00  0.00     0.039 C 
ATOM      5  C   UNL     1     108.465  48.649  63.162  1.00  0.00    -0.006 C 
ATOM      6  C   UNL     1     109.102  47.557  63.680  1.00  0.00    -0.070 C 
ATOM      7  C   UNL     1     109.165  47.322  65.173  1.00  0.00     0.039 C 
ATOM      8  C   UNL     1     109.806  46.554  62.797  1.00  0.00     0.039 C 
ATOM      9  C   UNL     1     108.269  48.840  61.693  1.00  0.00     0.159 C 
ATOM     10  O   UNL     1     108.202  47.856  60.908  1.00  0.00    -0.295 OA
ATOM     11  C   UNL     1     108.140  50.223  61.126  1.00  0.00     0.084 C 
ENDROOT
TORSDOF 0
ENDMDL
MODEL 2
REMARK VINA RESULT:    -6.508      1.931      4.647
REMARK INTER + INTRA:          -6.508
REMARK INTER:                  -6.508
REMARK INTRA:                   0.000
REMARK UNBOUND:                 0.000
REMARK SMILES CC(C)=C1CC[C@@H](C)CC1=O
REMARK SMILES IDX 8 1 7 2 6 3 5 4 4 5 2 6 1 7 3 8 10 9 11 10 9 11
REMARK H PARENT
REMARK Flexibility Score: inf
ROOT
ATOM      1  C   UNL     1     109.492  45.858  64.483  1.00  0.00     0.008 C 
ATOM      2  C   UNL     1     108.981  47.122  63.782  1.00  0.00    -0.006 C 
ATOM      3  C   UNL     1     110.011  47.628  62.759  1.00  0.00     0.008 C 
ATOM      4  C   UNL     1     109.475  48.833  61.976  1.00  0.00     0.039 C 
ATOM      5  C   UNL     1     108.963  49.940  62.886  1.00  0.00    -0.006 C 
ATOM      6  C   UNL     1     109.045  51.254  62.522  1.00  0.00    -0.070 C 
ATOM      7  C   UNL     1     109.635  51.663  61.190  1.00  0.00     0.039 C 
ATOM      8  C   UNL     1     108.592  52.365  63.442  1.00  0.00     0.039 C 
ATOM      9  C   UNL     1     108.267  49.496  64.131  1.00  0.00     0.159 C 
ATOM     10  O   UNL     1     107.326  50.170  64.631  1.00  0.00    -0.295 OA
ATOM     11  C   UNL     1     108.678  48.223  64.810  1.00  0.00     0.084 C 
ENDROOT
TORSDOF 0
ENDMDL
MODEL 3
REMARK VINA RESULT:    -6.406      1.678      4.223
REMARK INTER + INTRA:          -6.406
REMARK INTER:                  -6.406
REMARK INTRA:                   0.000
REMARK UNBOUND:                 0.000
REMARK SMILES CC(C)=C1CC[C@@H](C)CC1=O
REMARK SMILES IDX 8 1 7 2 6 3 5 4 4 5 2 6 1 7 3 8 10 9 11 10 9 11
REMARK H PARENT
REMARK Flexibility Score: inf
ROOT
ATOM      1  C   UNL     1     109.122  45.234  64.395  1.00  0.00     0.008 C 
ATOM      2  C   UNL     1     109.539  46.692  64.165  1.00  0.00    -0.006 C 
ATOM      3  C   UNL     1     108.533  47.652  64.823  1.00  0.00     0.008 C 
ATOM      4  C   UNL     1     108.986  49.111  64.692  1.00  0.00     0.039 C 
ATOM      5  C   UNL     1     109.307  49.495  63.254  1.00  0.00    -0.006 C 
ATOM      6  C   UNL     1     109.105  50.766  62.796  1.00  0.00    -0.070 C 
ATOM      7  C   UNL     1     108.570  51.850  63.705  1.00  0.00     0.039 C 
ATOM      8  C   UNL     1     109.366  51.145  61.356  1.00  0.00     0.039 C 
ATOM      9  C   UNL     1     109.958  48.439  62.422  1.00  0.00     0.159 C 
ATOM     10  O   UNL     1     110.781  48.735  61.514  1.00  0.00    -0.295 OA
ATOM     11  C   UNL     1     109.644  46.992  62.663  1.00  0.00     0.084 C 
ENDROOT
TORSDOF 0
ENDMDL
MODEL 4
REMARK VINA RESULT:    -6.281      1.519      2.419
REMARK INTER + INTRA:          -6.281
REMARK INTER:                  -6.281
REMARK INTRA:                   0.000
REMARK UNBOUND:                 0.000
REMARK SMILES CC(C)=C1CC[C@@H](C)CC1=O
REMARK SMILES IDX 8 1 7 2 6 3 5 4 4 5 2 6 1 7 3 8 10 9 11 10 9 11
REMARK H PARENT
REMARK Flexibility Score: inf
ROOT
ATOM      1  C   UNL     1     107.244  51.992  61.125  1.00  0.00     0.008 C 
ATOM      2  C   UNL     1     108.185  50.949  61.739  1.00  0.00    -0.006 C 
ATOM      3  C   UNL     1     108.182  49.659  60.901  1.00  0.00     0.008 C 
ATOM      4  C   UNL     1     109.193  48.640  61.442  1.00  0.00     0.039 C 
ATOM      5  C   UNL     1     109.014  48.372  62.930  1.00  0.00    -0.006 C 
ATOM      6  C   UNL     1     109.297  47.151  63.471  1.00  0.00    -0.070 C 
ATOM      7  C   UNL     1     109.818  46.017  62.616  1.00  0.00     0.039 C 
ATOM      8  C   UNL     1     109.069  46.856  64.935  1.00  0.00     0.039 C 
ATOM      9  C   UNL     1     108.627  49.548  63.766  1.00  0.00     0.159 C 
ATOM     10  O   UNL     1     109.009  49.655  64.963  1.00  0.00    -0.295 OA
ATOM     11  C   UNL     1     107.773  50.636  63.185  1.00  0.00     0.084 C 
ENDROOT
TORSDOF 0
ENDMDL
MODEL 5
REMARK VINA RESULT:    -5.705      1.302      4.006
REMARK INTER + INTRA:          -5.705
REMARK INTER:                  -5.705
REMARK INTRA:                   0.000
REMARK UNBOUND:                 0.000
REMARK SMILES CC(C)=C1CC[C@@H](C)CC1=O
REMARK SMILES IDX 8 1 7 2 6 3 5 4 4 5 2 6 1 7 3 8 10 9 11 10 9 11
REMARK H PARENT
REMARK Flexibility Score: inf
ROOT
ATOM      1  C   UNL     1     109.485  47.120  66.408  1.00  0.00     0.008 C 
ATOM      2  C   UNL     1     109.588  47.761  65.019  1.00  0.00    -0.006 C 
ATOM      3  C   UNL     1     108.597  48.929  64.888  1.00  0.00     0.008 C 
ATOM      4  C   UNL     1     108.755  49.647  63.542  1.00  0.00     0.039 C 
ATOM      5  C   UNL     1     108.693  48.690  62.359  1.00  0.00    -0.006 C 
ATOM      6  C   UNL     1     108.184  49.083  61.154  1.00  0.00    -0.070 C 
ATOM      7  C   UNL     1     107.677  50.492  60.939  1.00  0.00     0.039 C 
ATOM      8  C   UNL     1     108.064  48.126  59.990  1.00  0.00     0.039 C 
ATOM      9  C   UNL     1     109.323  47.351  62.564  1.00  0.00     0.159 C 
ATOM     10  O   UNL     1     109.871  46.733  61.611  1.00  0.00    -0.295 OA
ATOM     11  C   UNL     1     109.319  46.718  63.924  1.00  0.00     0.084 C 
ENDROOT
TORSDOF 0
ENDMDL
MODEL 6
REMARK VINA RESULT:    -5.504      1.968      4.664
REMARK INTER + INTRA:          -5.504
REMARK INTER:                  -5.504
REMARK INTRA:                   0.000
REMARK UNBOUND:                 0.000
REMARK SMILES CC(C)=C1CC[C@@H](C)CC1=O
REMARK SMILES IDX 8 1 7 2 6 3 5 4 4 5 2 6 1 7 3 8 10 9 11 10 9 11
REMARK H PARENT
REMARK Flexibility Score: inf
ROOT
ATOM      1  C   UNL     1     109.865  46.580  62.105  1.00  0.00     0.008 C 
ATOM      2  C   UNL     1     109.061  47.870  62.304  1.00  0.00    -0.006 C 
ATOM      3  C   UNL     1     108.510  48.377  60.961  1.00  0.00     0.008 C 
ATOM      4  C   UNL     1     107.619  49.609  61.153  1.00  0.00     0.039 C 
ATOM      5  C   UNL     1     108.304  50.707  61.956  1.00  0.00    -0.006 C 
ATOM      6  C   UNL     1     108.035  52.026  61.729  1.00  0.00    -0.070 C 
ATOM      7  C   UNL     1     107.031  52.452  60.681  1.00  0.00     0.039 C 
ATOM      8  C   UNL     1     108.751  53.125  62.480  1.00  0.00     0.039 C 
ATOM      9  C   UNL     1     109.187  50.249  63.071  1.00  0.00     0.159 C 
ATOM     10  O   UNL     1     109.320  50.931  64.123  1.00  0.00    -0.295 OA
ATOM     11  C   UNL     1     109.933  48.953  62.956  1.00  0.00     0.084 C 
ENDROOT
TORSDOF 0
ENDMDL
MODEL 7
REMARK VINA RESULT:    -5.284      1.583      4.429
REMARK INTER + INTRA:          -5.284
REMARK INTER:                  -5.284
REMARK INTRA:                   0.000
REMARK UNBOUND:                 0.000
REMARK SMILES CC(C)=C1CC[C@@H](C)CC1=O
REMARK SMILES IDX 8 1 7 2 6 3 5 4 4 5 2 6 1 7 3 8 10 9 11 10 9 11
REMARK H PARENT
REMARK Flexibility Score: inf
ROOT
ATOM      1  C   UNL     1     109.833  47.086  66.378  1.00  0.00     0.008 C 
ATOM      2  C   UNL     1     108.975  47.437  65.157  1.00  0.00    -0.006 C 
ATOM      3  C   UNL     1     109.597  46.861  63.874  1.00  0.00     0.008 C 
ATOM      4  C   UNL     1     108.701  47.115  62.656  1.00  0.00     0.039 C 
ATOM      5  C   UNL     1     108.314  48.581  62.511  1.00  0.00    -0.006 C 
ATOM      6  C   UNL     1     108.108  49.144  61.284  1.00  0.00    -0.070 C 
ATOM      7  C   UNL     1     108.239  48.328  60.017  1.00  0.00     0.039 C 
ATOM      8  C   UNL     1     107.781  50.610  61.125  1.00  0.00     0.039 C 
ATOM      9  C   UNL     1     108.064  49.322  63.784  1.00  0.00     0.159 C 
ATOM     10  O   UNL     1     107.216  50.253  63.843  1.00  0.00    -0.295 OA
ATOM     11  C   UNL     1     108.821  48.960  65.027  1.00  0.00     0.084 C 
ENDROOT
TORSDOF 0
ENDMDL
MODEL 8
REMARK VINA RESULT:    -5.140     16.557     17.555
REMARK INTER + INTRA:          -5.140
REMARK INTER:                  -5.140
REMARK INTRA:                   0.000
REMARK UNBOUND:                 0.000
REMARK SMILES CC(C)=C1CC[C@@H](C)CC1=O
REMARK SMILES IDX 8 1 7 2 6 3 5 4 4 5 2 6 1 7 3 8 10 9 11 10 9 11
REMARK H PARENT
REMARK Flexibility Score: inf
ROOT
ATOM      1  C   UNL     1     102.739  32.878  61.434  1.00  0.00     0.008 C 
ATOM      2  C   UNL     1     101.330  33.288  61.879  1.00  0.00    -0.006 C 
ATOM      3  C   UNL     1     101.057  34.758  61.522  1.00  0.00     0.008 C 
ATOM      4  C   UNL     1      99.617  35.158  61.868  1.00  0.00     0.039 C 
ATOM      5  C   UNL     1      99.249  34.828  63.309  1.00  0.00    -0.006 C 
ATOM      6  C   UNL     1      98.365  35.597  64.010  1.00  0.00    -0.070 C 
ATOM      7  C   UNL     1      97.700  36.800  63.379  1.00  0.00     0.039 C 
ATOM      8  C   UNL     1      98.036  35.312  65.457  1.00  0.00     0.039 C 
ATOM      9  C   UNL     1      99.819  33.561  63.857  1.00  0.00     0.159 C 
ATOM     10  O   UNL     1      99.191  32.875  64.708  1.00  0.00    -0.295 OA
ATOM     11  C   UNL     1     101.160  33.075  63.391  1.00  0.00     0.084 C 
ENDROOT
TORSDOF 0
ENDMDL
MODEL 9
REMARK VINA RESULT:    -5.055     16.707     17.795
REMARK INTER + INTRA:          -5.055
REMARK INTER:                  -5.055
REMARK INTRA:                   0.000
REMARK UNBOUND:                 0.000
REMARK SMILES CC(C)=C1CC[C@@H](C)CC1=O
REMARK SMILES IDX 8 1 7 2 6 3 5 4 4 5 2 6 1 7 3 8 10 9 11 10 9 11
REMARK H PARENT
REMARK Flexibility Score: inf
ROOT
ATOM      1  C   UNL     1     103.370  33.191  58.875  1.00  0.00     0.008 C 
ATOM      2  C   UNL     1     102.349  32.935  59.990  1.00  0.00    -0.006 C 
ATOM      3  C   UNL     1     100.923  33.223  59.494  1.00  0.00     0.008 C 
ATOM      4  C   UNL     1      99.879  32.875  60.563  1.00  0.00     0.039 C 
ATOM      5  C   UNL     1     100.176  33.532  61.904  1.00  0.00    -0.006 C 
ATOM      6  C   UNL     1      99.171  33.905  62.750  1.00  0.00    -0.070 C 
ATOM      7  C   UNL     1      97.720  33.665  62.397  1.00  0.00     0.039 C 
ATOM      8  C   UNL     1      99.452  34.609  64.058  1.00  0.00     0.039 C 
ATOM      9  C   UNL     1     101.619  33.632  62.280  1.00  0.00     0.159 C 
ATOM     10  O   UNL     1     101.987  33.570  63.485  1.00  0.00    -0.295 OA
ATOM     11  C   UNL     1     102.663  33.803  61.217  1.00  0.00     0.084 C 
ENDROOT
TORSDOF 0
ENDMDL
