MODEL 1
REMARK VINA RESULT:    -5.965      0.000      0.000
REMARK INTER + INTRA:          -6.725
REMARK INTER:                  -6.662
REMARK INTRA:                  -0.062
REMARK UNBOUND:                -0.062
REMARK SMILES COc1cc2ccc(=O)oc2c(O)c1O
REMARK SMILES IDX 3 1 14 2 12 3 11 4 5 5 4 6 6 7 7 8 8 9 9 10 10 11 2 12 1 13
REMARK SMILES IDX 15 14 13 16
REMARK H PARENT 15 15 13 17
REMARK Flexibility Score: inf
ROOT
ATOM      1  C   UNL     1     -13.190  -9.973 -15.990  1.00  0.00     0.165 A 
ATOM      2  C   UNL     1     -13.460  -9.698 -14.635  1.00  0.00     0.204 A 
ATOM      3  C   UNL     1     -14.743  -9.909 -14.110  1.00  0.00     0.205 A 
ATOM      4  C   UNL     1     -15.768 -10.399 -14.935  1.00  0.00     0.184 A 
ATOM      5  C   UNL     1     -15.502 -10.676 -16.293  1.00  0.00     0.025 A 
ATOM      6  C   UNL     1     -14.221 -10.465 -16.815  1.00  0.00     0.062 A 
ATOM      7  C   UNL     1     -16.543 -11.163 -17.091  1.00  0.00     0.020 A 
ATOM      8  C   UNL     1     -17.803 -11.359 -16.531  1.00  0.00     0.094 A 
ATOM      9  C   UNL     1     -17.995 -11.063 -15.178  1.00  0.00     0.336 A 
ATOM     10  O   UNL     1     -19.126 -11.233 -14.651  1.00  0.00    -0.246 OA
ATOM     11  O   UNL     1     -16.989 -10.602 -14.441  1.00  0.00    -0.419 OA
ENDROOT
BRANCH   1  12
ATOM     12  O   UNL     1     -11.893  -9.749 -16.479  1.00  0.00    -0.493 OA
ATOM     13  C   UNL     1     -11.571  -8.855 -17.540  1.00  0.00     0.278 C 
ENDBRANCH   1  12
BRANCH   2  14
ATOM     14  O   UNL     1     -12.459  -9.210 -13.794  1.00  0.00    -0.502 OA
ATOM     15  H   UNL     1     -12.634  -8.491 -13.104  1.00  0.00     0.293 HD
ENDBRANCH   2  14
BRANCH   3  16
ATOM     16  O   UNL     1     -14.980  -9.626 -12.763  1.00  0.00    -0.502 OA
ATOM     17  H   UNL     1     -15.906  -9.407 -12.415  1.00  0.00     0.293 HD
ENDBRANCH   3  16
TORSDOF 3
ENDMDL
MODEL 2
REMARK VINA RESULT:    -5.946      0.951      4.639
REMARK INTER + INTRA:          -6.704
REMARK INTER:                  -6.654
REMARK INTRA:                  -0.050
REMARK UNBOUND:                -0.062
REMARK SMILES COc1cc2ccc(=O)oc2c(O)c1O
REMARK SMILES IDX 3 1 14 2 12 3 11 4 5 5 4 6 6 7 7 8 8 9 9 10 10 11 2 12 1 13
REMARK SMILES IDX 15 14 13 16
REMARK H PARENT 15 15 13 17
REMARK Flexibility Score: inf
ROOT
ATOM      1  C   UNL     1     -16.101 -10.535 -14.828  1.00  0.00     0.165 A 
ATOM      2  C   UNL     1     -15.119 -10.009 -13.967  1.00  0.00     0.204 A 
ATOM      3  C   UNL     1     -13.893  -9.560 -14.478  1.00  0.00     0.205 A 
ATOM      4  C   UNL     1     -13.638  -9.632 -15.856  1.00  0.00     0.184 A 
ATOM      5  C   UNL     1     -14.619 -10.159 -16.724  1.00  0.00     0.025 A 
ATOM      6  C   UNL     1     -15.842 -10.606 -16.211  1.00  0.00     0.062 A 
ATOM      7  C   UNL     1     -14.337 -10.219 -18.093  1.00  0.00     0.020 A 
ATOM      8  C   UNL     1     -13.107  -9.762 -18.561  1.00  0.00     0.094 A 
ATOM      9  C   UNL     1     -12.181  -9.254 -17.644  1.00  0.00     0.336 A 
ATOM     10  O   UNL     1     -11.064  -8.836 -18.046  1.00  0.00    -0.246 OA
ATOM     11  O   UNL     1     -12.474  -9.207 -16.348  1.00  0.00    -0.419 OA
ENDROOT
BRANCH   1  12
ATOM     12  O   UNL     1     -17.317 -10.974 -14.278  1.00  0.00    -0.493 OA
ATOM     13  C   UNL     1     -18.562 -10.981 -14.969  1.00  0.00     0.278 C 
ENDBRANCH   1  12
BRANCH   2  14
ATOM     14  O   UNL     1     -15.347  -9.926 -12.592  1.00  0.00    -0.502 OA
ATOM     15  H   UNL     1     -15.774  -9.115 -12.162  1.00  0.00     0.293 HD
ENDBRANCH   2  14
BRANCH   3  16
ATOM     16  O   UNL     1     -12.938  -9.044 -13.599  1.00  0.00    -0.502 OA
ATOM     17  H   UNL     1     -13.185  -8.414 -12.845  1.00  0.00     0.293 HD
ENDBRANCH   3  16
TORSDOF 3
ENDMDL
MODEL 3
REMARK VINA RESULT:    -5.709     13.158     14.586
REMARK INTER + INTRA:          -6.439
REMARK INTER:                  -6.377
REMARK INTRA:                  -0.062
REMARK UNBOUND:                -0.062
REMARK SMILES COc1cc2ccc(=O)oc2c(O)c1O
REMARK SMILES IDX 3 1 14 2 12 3 11 4 5 5 4 6 6 7 7 8 8 9 9 10 10 11 2 12 1 13
REMARK SMILES IDX 15 14 13 16
REMARK H PARENT 15 15 13 17
REMARK Flexibility Score: inf
ROOT
ATOM      1  C   UNL     1     -12.914 -19.669  -6.498  1.00  0.00     0.165 A 
ATOM      2  C   UNL     1     -12.381 -20.604  -5.590  1.00  0.00     0.204 A 
ATOM      3  C   UNL     1     -10.993 -20.743  -5.448  1.00  0.00     0.205 A 
ATOM      4  C   UNL     1     -10.125 -19.947  -6.212  1.00  0.00     0.184 A 
ATOM      5  C   UNL     1     -10.655 -19.008  -7.122  1.00  0.00     0.025 A 
ATOM      6  C   UNL     1     -12.041 -18.871  -7.263  1.00  0.00     0.062 A 
ATOM      7  C   UNL     1      -9.766 -18.228  -7.871  1.00  0.00     0.020 A 
ATOM      8  C   UNL     1      -8.394 -18.397  -7.699  1.00  0.00     0.094 A 
ATOM      9  C   UNL     1      -7.939 -19.347  -6.779  1.00  0.00     0.336 A 
ATOM     10  O   UNL     1      -6.703 -19.515  -6.609  1.00  0.00    -0.246 OA
ATOM     11  O   UNL     1      -8.805 -20.075  -6.080  1.00  0.00    -0.419 OA
ENDROOT
BRANCH   1  12
ATOM     12  O   UNL     1     -14.310 -19.558  -6.613  1.00  0.00    -0.493 OA
ATOM     13  C   UNL     1     -15.103 -20.265  -7.561  1.00  0.00     0.278 C 
ENDBRANCH   1  12
BRANCH   2  14
ATOM     14  O   UNL     1     -13.222 -21.408  -4.819  1.00  0.00    -0.502 OA
ATOM     15  H   UNL     1     -13.963 -21.024  -4.246  1.00  0.00     0.293 HD
ENDBRANCH   2  14
BRANCH   3  16
ATOM     16  O   UNL     1     -10.494 -21.680  -4.540  1.00  0.00    -0.502 OA
ATOM     17  H   UNL     1      -9.844 -22.406  -4.819  1.00  0.00     0.293 HD
ENDBRANCH   3  16
TORSDOF 3
ENDMDL
MODEL 4
REMARK VINA RESULT:    -5.673     12.844     14.432
REMARK INTER + INTRA:          -6.398
REMARK INTER:                  -6.402
REMARK INTRA:                   0.004
REMARK UNBOUND:                -0.062
REMARK SMILES COc1cc2ccc(=O)oc2c(O)c1O
REMARK SMILES IDX 3 1 14 2 12 3 11 4 5 5 4 6 6 7 7 8 8 9 9 10 10 11 2 12 1 13
REMARK SMILES IDX 15 14 13 16
REMARK H PARENT 15 15 13 17
REMARK Flexibility Score: inf
ROOT
ATOM      1  C   UNL     1     -11.591 -19.644  -6.095  1.00  0.00     0.165 A 
ATOM      2  C   UNL     1     -11.480 -18.455  -6.842  1.00  0.00     0.204 A 
ATOM      3  C   UNL     1     -10.233 -18.031  -7.321  1.00  0.00     0.205 A 
ATOM      4  C   UNL     1      -9.083 -18.793  -7.059  1.00  0.00     0.184 A 
ATOM      5  C   UNL     1      -9.189 -19.986  -6.311  1.00  0.00     0.025 A 
ATOM      6  C   UNL     1     -10.436 -20.407  -5.834  1.00  0.00     0.062 A 
ATOM      7  C   UNL     1      -8.027 -20.725  -6.065  1.00  0.00     0.020 A 
ATOM      8  C   UNL     1      -6.807 -20.270  -6.559  1.00  0.00     0.094 A 
ATOM      9  C   UNL     1      -6.776 -19.079  -7.292  1.00  0.00     0.336 A 
ATOM     10  O   UNL     1      -5.684 -18.650  -7.747  1.00  0.00    -0.246 OA
ATOM     11  O   UNL     1      -7.895 -18.395  -7.512  1.00  0.00    -0.419 OA
ENDROOT
BRANCH   1  12
ATOM     12  O   UNL     1     -12.858 -20.036  -5.632  1.00  0.00    -0.493 OA
ATOM     13  C   UNL     1     -13.845 -20.685  -6.428  1.00  0.00     0.278 C 
ENDBRANCH   1  12
BRANCH   2  14
ATOM     14  O   UNL     1     -12.607 -17.678  -7.116  1.00  0.00    -0.502 OA
ATOM     15  H   UNL     1     -13.541 -17.967  -6.854  1.00  0.00     0.293 HD
ENDBRANCH   2  14
BRANCH   3  16
ATOM     16  O   UNL     1     -10.154 -16.847  -8.057  1.00  0.00    -0.502 OA
ATOM     17  H   UNL     1     -10.752 -16.669  -8.856  1.00  0.00     0.293 HD
ENDBRANCH   3  16
TORSDOF 3
ENDMDL
MODEL 5
REMARK VINA RESULT:    -5.594     12.829     13.378
REMARK INTER + INTRA:          -6.310
REMARK INTER:                  -6.259
REMARK INTRA:                  -0.051
REMARK UNBOUND:                -0.062
REMARK SMILES COc1cc2ccc(=O)oc2c(O)c1O
REMARK SMILES IDX 3 1 14 2 12 3 11 4 5 5 4 6 6 7 7 8 8 9 9 10 10 11 2 12 1 13
REMARK SMILES IDX 15 14 13 16
REMARK H PARENT 15 15 13 17
REMARK Flexibility Score: inf
ROOT
ATOM      1  C   UNL     1     -10.942 -20.377  -6.755  1.00  0.00     0.165 A 
ATOM      2  C   UNL     1     -11.718 -20.537  -5.590  1.00  0.00     0.204 A 
ATOM      3  C   UNL     1     -13.117 -20.595  -5.670  1.00  0.00     0.205 A 
ATOM      4  C   UNL     1     -13.753 -20.494  -6.918  1.00  0.00     0.184 A 
ATOM      5  C   UNL     1     -12.980 -20.334  -8.088  1.00  0.00     0.025 A 
ATOM      6  C   UNL     1     -11.584 -20.277  -8.005  1.00  0.00     0.062 A 
ATOM      7  C   UNL     1     -13.641 -20.236  -9.317  1.00  0.00     0.020 A 
ATOM      8  C   UNL     1     -15.032 -20.299  -9.354  1.00  0.00     0.094 A 
ATOM      9  C   UNL     1     -15.735 -20.458  -8.155  1.00  0.00     0.336 A 
ATOM     10  O   UNL     1     -16.992 -20.517  -8.167  1.00  0.00    -0.246 OA
ATOM     11  O   UNL     1     -15.082 -20.549  -7.001  1.00  0.00    -0.419 OA
ENDROOT
BRANCH   1  12
ATOM     12  O   UNL     1      -9.544 -20.324  -6.633  1.00  0.00    -0.493 OA
ATOM     13  C   UNL     1      -8.685 -19.577  -7.488  1.00  0.00     0.278 C 
ENDBRANCH   1  12
BRANCH   2  14
ATOM     14  O   UNL     1     -11.110 -20.640  -4.338  1.00  0.00    -0.502 OA
ATOM     15  H   UNL     1     -11.261 -19.957  -3.605  1.00  0.00     0.293 HD
ENDBRANCH   2  14
BRANCH   3  16
ATOM     16  O   UNL     1     -13.859 -20.753  -4.499  1.00  0.00    -0.502 OA
ATOM     17  H   UNL     1     -13.617 -20.274  -3.639  1.00  0.00     0.293 HD
ENDBRANCH   3  16
TORSDOF 3
ENDMDL
MODEL 6
REMARK VINA RESULT:    -5.378      3.360      5.253
REMARK INTER + INTRA:          -6.069
REMARK INTER:                  -6.002
REMARK INTRA:                  -0.067
REMARK UNBOUND:                -0.062
REMARK SMILES COc1cc2ccc(=O)oc2c(O)c1O
REMARK SMILES IDX 3 1 14 2 12 3 11 4 5 5 4 6 6 7 7 8 8 9 9 10 10 11 2 12 1 13
REMARK SMILES IDX 15 14 13 16
REMARK H PARENT 15 15 13 17
REMARK Flexibility Score: inf
ROOT
ATOM      1  C   UNL     1     -13.045  -9.465 -16.183  1.00  0.00     0.165 A 
ATOM      2  C   UNL     1     -12.478  -9.488 -14.894  1.00  0.00     0.204 A 
ATOM      3  C   UNL     1     -11.507 -10.443 -14.562  1.00  0.00     0.205 A 
ATOM      4  C   UNL     1     -11.093 -11.385 -15.518  1.00  0.00     0.184 A 
ATOM      5  C   UNL     1     -11.657 -11.365 -16.812  1.00  0.00     0.025 A 
ATOM      6  C   UNL     1     -12.627 -10.410 -17.140  1.00  0.00     0.062 A 
ATOM      7  C   UNL     1     -11.226 -12.315 -17.744  1.00  0.00     0.020 A 
ATOM      8  C   UNL     1     -10.258 -13.247 -17.374  1.00  0.00     0.094 A 
ATOM      9  C   UNL     1      -9.743 -13.209 -16.075  1.00  0.00     0.336 A 
ATOM     10  O   UNL     1      -8.868 -14.042 -15.722  1.00  0.00    -0.246 OA
ATOM     11  O   UNL     1     -10.170 -12.295 -15.209  1.00  0.00    -0.419 OA
ENDROOT
BRANCH   1  12
ATOM     12  O   UNL     1     -14.015  -8.492 -16.477  1.00  0.00    -0.493 OA
ATOM     13  C   UNL     1     -13.744  -7.243 -17.105  1.00  0.00     0.278 C 
ENDBRANCH   1  12
BRANCH   2  14
ATOM     14  O   UNL     1     -12.873  -8.564 -13.926  1.00  0.00    -0.502 OA
ATOM     15  H   UNL     1     -13.779  -8.112 -13.945  1.00  0.00     0.293 HD
ENDBRANCH   2  14
BRANCH   3  16
ATOM     16  O   UNL     1     -10.964 -10.442 -13.276  1.00  0.00    -0.502 OA
ATOM     17  H   UNL     1     -11.066  -9.652 -12.650  1.00  0.00     0.293 HD
ENDBRANCH   3  16
TORSDOF 3
ENDMDL
MODEL 7
REMARK VINA RESULT:    -5.341     12.470     13.547
REMARK INTER + INTRA:          -6.028
REMARK INTER:                  -5.979
REMARK INTRA:                  -0.049
REMARK UNBOUND:                -0.062
REMARK SMILES COc1cc2ccc(=O)oc2c(O)c1O
REMARK SMILES IDX 3 1 14 2 12 3 11 4 5 5 4 6 6 7 7 8 8 9 9 10 10 11 2 12 1 13
REMARK SMILES IDX 15 14 13 16
REMARK H PARENT 15 15 13 17
REMARK Flexibility Score: inf
ROOT
ATOM      1  C   UNL     1     -13.898 -20.431  -8.148  1.00  0.00     0.165 A 
ATOM      2  C   UNL     1     -13.004 -21.128  -8.985  1.00  0.00     0.204 A 
ATOM      3  C   UNL     1     -11.637 -20.815  -8.980  1.00  0.00     0.205 A 
ATOM      4  C   UNL     1     -11.151 -19.803  -8.138  1.00  0.00     0.184 A 
ATOM      5  C   UNL     1     -12.042 -19.103  -7.297  1.00  0.00     0.025 A 
ATOM      6  C   UNL     1     -13.406 -19.417  -7.303  1.00  0.00     0.062 A 
ATOM      7  C   UNL     1     -11.530 -18.099  -6.468  1.00  0.00     0.020 A 
ATOM      8  C   UNL     1     -10.165 -17.820  -6.493  1.00  0.00     0.094 A 
ATOM      9  C   UNL     1      -9.340 -18.553  -7.351  1.00  0.00     0.336 A 
ATOM     10  O   UNL     1      -8.104 -18.316  -7.389  1.00  0.00    -0.246 OA
ATOM     11  O   UNL     1      -9.852 -19.502  -8.129  1.00  0.00    -0.419 OA
ENDROOT
BRANCH   1  12
ATOM     12  O   UNL     1     -15.259 -20.773  -8.181  1.00  0.00    -0.493 OA
ATOM     13  C   UNL     1     -16.301 -20.006  -7.587  1.00  0.00     0.278 C 
ENDBRANCH   1  12
BRANCH   2  14
ATOM     14  O   UNL     1     -13.461 -22.138  -9.833  1.00  0.00    -0.502 OA
ATOM     15  H   UNL     1     -14.371 -22.568  -9.722  1.00  0.00     0.293 HD
ENDBRANCH   2  14
BRANCH   3  16
ATOM     16  O   UNL     1     -10.775 -21.522  -9.822  1.00  0.00    -0.502 OA
ATOM     17  H   UNL     1      -9.779 -21.578  -9.648  1.00  0.00     0.293 HD
ENDBRANCH   3  16
TORSDOF 3
ENDMDL
MODEL 8
REMARK VINA RESULT:    -5.315      2.090      4.830
REMARK INTER + INTRA:          -5.998
REMARK INTER:                  -5.937
REMARK INTRA:                  -0.061
REMARK UNBOUND:                -0.062
REMARK SMILES COc1cc2ccc(=O)oc2c(O)c1O
REMARK SMILES IDX 3 1 14 2 12 3 11 4 5 5 4 6 6 7 7 8 8 9 9 10 10 11 2 12 1 13
REMARK SMILES IDX 15 14 13 16
REMARK H PARENT 15 15 13 17
REMARK Flexibility Score: inf
ROOT
ATOM      1  C   UNL     1     -14.613  -9.261 -15.186  1.00  0.00     0.165 A 
ATOM      2  C   UNL     1     -13.469  -9.370 -14.371  1.00  0.00     0.204 A 
ATOM      3  C   UNL     1     -12.294  -9.949 -14.871  1.00  0.00     0.205 A 
ATOM      4  C   UNL     1     -12.252 -10.423 -16.191  1.00  0.00     0.184 A 
ATOM      5  C   UNL     1     -13.395 -10.316 -17.012  1.00  0.00     0.025 A 
ATOM      6  C   UNL     1     -14.567  -9.738 -16.511  1.00  0.00     0.062 A 
ATOM      7  C   UNL     1     -13.324 -10.798 -18.324  1.00  0.00     0.020 A 
ATOM      8  C   UNL     1     -12.137 -11.365 -18.782  1.00  0.00     0.094 A 
ATOM      9  C   UNL     1     -11.043 -11.440 -17.914  1.00  0.00     0.336 A 
ATOM     10  O   UNL     1      -9.962 -11.949 -18.309  1.00  0.00    -0.246 OA
ATOM     11  O   UNL     1     -11.137 -10.974 -16.672  1.00  0.00    -0.419 OA
ENDROOT
BRANCH   1  12
ATOM     12  O   UNL     1     -15.771  -8.675 -14.649  1.00  0.00    -0.493 OA
ATOM     13  C   UNL     1     -16.822  -9.395 -14.013  1.00  0.00     0.278 C 
ENDBRANCH   1  12
BRANCH   2  14
ATOM     14  O   UNL     1     -13.485  -8.907 -13.055  1.00  0.00    -0.502 OA
ATOM     15  H   UNL     1     -14.331  -8.576 -12.607  1.00  0.00     0.293 HD
ENDBRANCH   2  14
BRANCH   3  16
ATOM     16  O   UNL     1     -11.176 -10.044 -14.039  1.00  0.00    -0.502 OA
ATOM     17  H   UNL     1     -10.648  -9.229 -13.752  1.00  0.00     0.293 HD
ENDBRANCH   3  16
TORSDOF 3
ENDMDL
MODEL 9
REMARK VINA RESULT:    -5.152      1.404      2.194
REMARK INTER + INTRA:          -5.816
REMARK INTER:                  -5.754
REMARK INTRA:                  -0.062
REMARK UNBOUND:                -0.062
REMARK SMILES COc1cc2ccc(=O)oc2c(O)c1O
REMARK SMILES IDX 3 1 14 2 12 3 11 4 5 5 4 6 6 7 7 8 8 9 9 10 10 11 2 12 1 13
REMARK SMILES IDX 15 14 13 16
REMARK H PARENT 15 15 13 17
REMARK Flexibility Score: inf
ROOT
ATOM      1  C   UNL     1     -12.156 -10.001 -17.514  1.00  0.00     0.165 A 
ATOM      2  C   UNL     1     -11.699  -9.800 -16.197  1.00  0.00     0.204 A 
ATOM      3  C   UNL     1     -12.587  -9.893 -15.115  1.00  0.00     0.205 A 
ATOM      4  C   UNL     1     -13.940 -10.189 -15.341  1.00  0.00     0.184 A 
ATOM      5  C   UNL     1     -14.403 -10.392 -16.659  1.00  0.00     0.025 A 
ATOM      6  C   UNL     1     -13.515 -10.298 -17.737  1.00  0.00     0.062 A 
ATOM      7  C   UNL     1     -15.757 -10.685 -16.854  1.00  0.00     0.020 A 
ATOM      8  C   UNL     1     -16.606 -10.769 -15.752  1.00  0.00     0.094 A 
ATOM      9  C   UNL     1     -16.079 -10.556 -14.475  1.00  0.00     0.336 A 
ATOM     10  O   UNL     1     -16.829 -10.627 -13.466  1.00  0.00    -0.246 OA
ATOM     11  O   UNL     1     -14.789 -10.279 -14.317  1.00  0.00    -0.419 OA
ENDROOT
BRANCH   1  12
ATOM     12  O   UNL     1     -11.237  -9.899 -18.570  1.00  0.00    -0.493 OA
ATOM     13  C   UNL     1     -10.517 -10.996 -19.125  1.00  0.00     0.278 C 
ENDBRANCH   1  12
BRANCH   2  14
ATOM     14  O   UNL     1     -10.359  -9.503 -15.945  1.00  0.00    -0.502 OA
ATOM     15  H   UNL     1      -9.873  -9.844 -15.125  1.00  0.00     0.293 HD
ENDBRANCH   2  14
BRANCH   3  16
ATOM     16  O   UNL     1     -12.105  -9.687 -13.821  1.00  0.00    -0.502 OA
ATOM     17  H   UNL     1     -11.771 -10.450 -13.243  1.00  0.00     0.293 HD
ENDBRANCH   3  16
TORSDOF 3
ENDMDL
