MODEL 1
REMARK VINA RESULT:    -6.136      0.000      0.000
REMARK INTER + INTRA:         -13.113
REMARK INTER:                 -11.517
REMARK INTRA:                  -1.595
REMARK UNBOUND:                -1.595
REMARK SMILES O=C([O-])CCCCCCCCCCCCCCC(=O)[O-]
REMARK SMILES IDX 10 1 9 2 8 3 7 4 6 5 5 6 4 7 2 8 1 9 3 10 11 11 12 12 13 13
REMARK SMILES IDX 14 14 15 15 16 16 17 17 18 18 19 19 20 20
REMARK H PARENT
REMARK Flexibility Score: inf
ROOT
ATOM      1  C   UNL     1      15.388   2.882  13.068  1.00  0.00     0.000 C 
ENDROOT
BRANCH   1   2
ATOM      2  C   UNL     1      14.395   2.090  13.945  1.00  0.00     0.000 C 
BRANCH   2   3
ATOM      3  C   UNL     1      14.361   2.608  15.394  1.00  0.00     0.000 C 
BRANCH   3   4
ATOM      4  C   UNL     1      12.943   2.977  15.865  1.00  0.00     0.000 C 
BRANCH   4   5
ATOM      5  C   UNL     1      12.882   3.788  17.173  1.00  0.00     0.000 C 
BRANCH   5   6
ATOM      6  C   UNL     1      14.176   3.691  17.999  1.00  0.00     0.006 C 
BRANCH   6   7
ATOM      7  C   UNL     1      14.008   2.796  19.234  1.00  0.00     0.053 C 
BRANCH   7   8
ATOM      8  C   UNL     1      14.621   1.444  19.031  1.00  0.00     0.041 C 
ATOM      9  O   UNL     1      15.589   1.074  19.745  1.00  0.00    -0.550 OA
ATOM     10  O   UNL     1      14.102   0.581  18.075  1.00  0.00    -0.550 OA
ENDBRANCH   7   8
ENDBRANCH   6   7
ENDBRANCH   5   6
ENDBRANCH   4   5
ENDBRANCH   3   4
ENDBRANCH   2   3
ENDBRANCH   1   2
BRANCH   1  11
ATOM     11  C   UNL     1      15.624   2.256  11.682  1.00  0.00     0.000 C 
BRANCH  11  12
ATOM     12  C   UNL     1      17.104   1.928  11.421  1.00  0.00     0.000 C 
BRANCH  12  13
ATOM     13  C   UNL     1      17.393   0.420  11.492  1.00  0.00     0.000 C 
BRANCH  13  14
ATOM     14  C   UNL     1      18.057   0.011  12.818  1.00  0.00     0.000 C 
BRANCH  14  15
ATOM     15  C   UNL     1      17.032  -0.341  13.909  1.00  0.00     0.000 C 
BRANCH  15  16
ATOM     16  C   UNL     1      17.354   0.313  15.261  1.00  0.00     0.006 C 
BRANCH  16  17
ATOM     17  C   UNL     1      17.014  -0.629  16.420  1.00  0.00     0.053 C 
BRANCH  17  18
ATOM     18  C   UNL     1      18.058  -1.690  16.556  1.00  0.00     0.041 C 
ATOM     19  O   UNL     1      17.750  -2.831  16.994  1.00  0.00    -0.550 OA
ATOM     20  O   UNL     1      19.384  -1.407  16.251  1.00  0.00    -0.550 OA
ENDBRANCH  17  18
ENDBRANCH  16  17
ENDBRANCH  15  16
ENDBRANCH  14  15
ENDBRANCH  13  14
ENDBRANCH  12  13
ENDBRANCH  11  12
ENDBRANCH   1  11
TORSDOF 15
ENDMDL
MODEL 2
REMARK VINA RESULT:    -6.135      2.411      5.455
REMARK INTER + INTRA:         -13.110
REMARK INTER:                 -11.415
REMARK INTRA:                  -1.695
REMARK UNBOUND:                -1.595
REMARK SMILES O=C([O-])CCCCCCCCCCCCCCC(=O)[O-]
REMARK SMILES IDX 10 1 9 2 8 3 7 4 6 5 5 6 4 7 2 8 1 9 3 10 11 11 12 12 13 13
REMARK SMILES IDX 14 14 15 15 16 16 17 17 18 18 19 19 20 20
REMARK H PARENT
REMARK Flexibility Score: inf
ROOT
ATOM      1  C   UNL     1      14.421   2.242  19.032  1.00  0.00     0.000 C 
ENDROOT
BRANCH   1   2
ATOM      2  C   UNL     1      13.613   3.540  18.824  1.00  0.00     0.000 C 
BRANCH   2   3
ATOM      3  C   UNL     1      13.006   3.625  17.412  1.00  0.00     0.000 C 
BRANCH   3   4
ATOM      4  C   UNL     1      13.298   2.379  16.558  1.00  0.00     0.000 C 
BRANCH   4   5
ATOM      5  C   UNL     1      13.638   2.666  15.084  1.00  0.00     0.000 C 
BRANCH   5   6
ATOM      6  C   UNL     1      15.144   2.562  14.784  1.00  0.00     0.006 C 
BRANCH   6   7
ATOM      7  C   UNL     1      15.486   3.049  13.370  1.00  0.00     0.053 C 
BRANCH   7   8
ATOM      8  C   UNL     1      16.028   1.944  12.515  1.00  0.00     0.041 C 
ATOM      9  O   UNL     1      16.759   1.053  13.021  1.00  0.00    -0.550 OA
ATOM     10  O   UNL     1      15.699   1.882  11.167  1.00  0.00    -0.550 OA
ENDBRANCH   7   8
ENDBRANCH   6   7
ENDBRANCH   5   6
ENDBRANCH   4   5
ENDBRANCH   3   4
ENDBRANCH   2   3
ENDBRANCH   1   2
BRANCH   1  11
ATOM     11  C   UNL     1      14.699   1.916  20.510  1.00  0.00     0.000 C 
BRANCH  11  12
ATOM     12  C   UNL     1      15.246   0.493  20.714  1.00  0.00     0.000 C 
BRANCH  12  13
ATOM     13  C   UNL     1      15.227  -0.336  19.420  1.00  0.00     0.000 C 
BRANCH  13  14
ATOM     14  C   UNL     1      16.615  -0.892  19.059  1.00  0.00     0.000 C 
BRANCH  14  15
ATOM     15  C   UNL     1      17.688   0.206  18.968  1.00  0.00     0.000 C 
BRANCH  15  16
ATOM     16  C   UNL     1      17.581   1.037  17.681  1.00  0.00     0.006 C 
BRANCH  16  17
ATOM     17  C   UNL     1      17.418   0.132  16.456  1.00  0.00     0.053 C 
BRANCH  17  18
ATOM     18  C   UNL     1      18.748  -0.371  15.994  1.00  0.00     0.041 C 
ATOM     19  O   UNL     1      18.885  -1.573  15.643  1.00  0.00    -0.550 OA
ATOM     20  O   UNL     1      19.851   0.474  15.999  1.00  0.00    -0.550 OA
ENDBRANCH  17  18
ENDBRANCH  16  17
ENDBRANCH  15  16
ENDBRANCH  14  15
ENDBRANCH  13  14
ENDBRANCH  12  13
ENDBRANCH  11  12
ENDBRANCH   1  11
TORSDOF 15
ENDMDL
MODEL 3
REMARK VINA RESULT:    -6.094      2.440      5.456
REMARK INTER + INTRA:         -13.033
REMARK INTER:                 -11.463
REMARK INTRA:                  -1.570
REMARK UNBOUND:                -1.595
REMARK SMILES O=C([O-])CCCCCCCCCCCCCCC(=O)[O-]
REMARK SMILES IDX 10 1 9 2 8 3 7 4 6 5 5 6 4 7 2 8 1 9 3 10 11 11 12 12 13 13
REMARK SMILES IDX 14 14 15 15 16 16 17 17 18 18 19 19 20 20
REMARK H PARENT
REMARK Flexibility Score: inf
ROOT
ATOM      1  C   UNL     1      14.137   2.304  18.830  1.00  0.00     0.000 C 
ENDROOT
BRANCH   1   2
ATOM      2  C   UNL     1      13.665   0.838  18.938  1.00  0.00     0.000 C 
BRANCH   2   3
ATOM      3  C   UNL     1      14.537   0.019  19.907  1.00  0.00     0.000 C 
BRANCH   3   4
ATOM      4  C   UNL     1      15.978   0.550  20.012  1.00  0.00     0.000 C 
BRANCH   4   5
ATOM      5  C   UNL     1      17.021  -0.234  19.194  1.00  0.00     0.000 C 
BRANCH   5   6
ATOM      6  C   UNL     1      17.974   0.679  18.403  1.00  0.00     0.006 C 
BRANCH   6   7
ATOM      7  C   UNL     1      17.282   1.329  17.198  1.00  0.00     0.053 C 
BRANCH   7   8
ATOM      8  C   UNL     1      17.109   0.363  16.065  1.00  0.00     0.041 C 
ATOM      9  O   UNL     1      18.087   0.069  15.329  1.00  0.00    -0.550 OA
ATOM     10  O   UNL     1      15.877  -0.237  15.844  1.00  0.00    -0.550 OA
ENDBRANCH   7   8
ENDBRANCH   6   7
ENDBRANCH   5   6
ENDBRANCH   4   5
ENDBRANCH   3   4
ENDBRANCH   2   3
ENDBRANCH   1   2
BRANCH   1  11
ATOM     11  C   UNL     1      13.031   3.278  18.390  1.00  0.00     0.000 C 
BRANCH  11  12
ATOM     12  C   UNL     1      12.999   3.496  16.867  1.00  0.00     0.000 C 
BRANCH  12  13
ATOM     13  C   UNL     1      14.267   2.975  16.172  1.00  0.00     0.000 C 
BRANCH  13  14
ATOM     14  C   UNL     1      13.997   2.510  14.731  1.00  0.00     0.000 C 
BRANCH  14  15
ATOM     15  C   UNL     1      15.159   2.832  13.777  1.00  0.00     0.000 C 
BRANCH  15  16
ATOM     16  C   UNL     1      15.512   1.657  12.852  1.00  0.00     0.006 C 
BRANCH  16  17
ATOM     17  C   UNL     1      16.279   2.143  11.618  1.00  0.00     0.053 C 
BRANCH  17  18
ATOM     18  C   UNL     1      17.346   1.164  11.246  1.00  0.00     0.041 C 
ATOM     19  O   UNL     1      18.159   0.750  12.115  1.00  0.00    -0.550 OA
ATOM     20  O   UNL     1      17.479   0.748   9.927  1.00  0.00    -0.550 OA
ENDBRANCH  17  18
ENDBRANCH  16  17
ENDBRANCH  15  16
ENDBRANCH  14  15
ENDBRANCH  13  14
ENDBRANCH  12  13
ENDBRANCH  11  12
ENDBRANCH   1  11
TORSDOF 15
ENDMDL
MODEL 4
REMARK VINA RESULT:    -6.092      2.402      5.831
REMARK INTER + INTRA:         -13.030
REMARK INTER:                 -11.306
REMARK INTRA:                  -1.724
REMARK UNBOUND:                -1.595
REMARK SMILES O=C([O-])CCCCCCCCCCCCCCC(=O)[O-]
REMARK SMILES IDX 10 1 9 2 8 3 7 4 6 5 5 6 4 7 2 8 1 9 3 10 11 11 12 12 13 13
REMARK SMILES IDX 14 14 15 15 16 16 17 17 18 18 19 19 20 20
REMARK H PARENT
REMARK Flexibility Score: inf
ROOT
ATOM      1  C   UNL     1      13.241   2.395  16.248  1.00  0.00     0.000 C 
ENDROOT
BRANCH   1   2
ATOM      2  C   UNL     1      13.901   2.671  14.880  1.00  0.00     0.000 C 
BRANCH   2   3
ATOM      3  C   UNL     1      15.438   2.622  14.958  1.00  0.00     0.000 C 
BRANCH   3   4
ATOM      4  C   UNL     1      15.957   1.457  15.818  1.00  0.00     0.000 C 
BRANCH   4   5
ATOM      5  C   UNL     1      17.046   0.594  15.154  1.00  0.00     0.000 C 
BRANCH   5   6
ATOM      6  C   UNL     1      16.612   0.020  13.794  1.00  0.00     0.006 C 
BRANCH   6   7
ATOM      7  C   UNL     1      17.702   0.176  12.727  1.00  0.00     0.053 C 
BRANCH   7   8
ATOM      8  C   UNL     1      17.210   0.937  11.533  1.00  0.00     0.041 C 
ATOM      9  O   UNL     1      17.560   0.592  10.374  1.00  0.00    -0.550 OA
ATOM     10  O   UNL     1      16.339   2.006  11.699  1.00  0.00    -0.550 OA
ENDBRANCH   7   8
ENDBRANCH   6   7
ENDBRANCH   5   6
ENDBRANCH   4   5
ENDBRANCH   3   4
ENDBRANCH   2   3
ENDBRANCH   1   2
BRANCH   1  11
ATOM     11  C   UNL     1      13.142   3.638  17.148  1.00  0.00     0.000 C 
BRANCH  11  12
ATOM     12  C   UNL     1      13.635   3.378  18.582  1.00  0.00     0.000 C 
BRANCH  12  13
ATOM     13  C   UNL     1      13.945   1.893  18.836  1.00  0.00     0.000 C 
BRANCH  13  14
ATOM     14  C   UNL     1      14.688   1.669  20.164  1.00  0.00     0.000 C 
BRANCH  14  15
ATOM     15  C   UNL     1      15.834   0.652  20.038  1.00  0.00     0.000 C 
BRANCH  15  16
ATOM     16  C   UNL     1      15.547  -0.441  18.997  1.00  0.00     0.006 C 
BRANCH  16  17
ATOM     17  C   UNL     1      16.759  -1.359  18.817  1.00  0.00     0.053 C 
BRANCH  17  18
ATOM     18  C   UNL     1      16.661  -2.112  17.529  1.00  0.00     0.041 C 
ATOM     19  O   UNL     1      15.547  -2.251  16.959  1.00  0.00    -0.550 OA
ATOM     20  O   UNL     1      17.792  -2.706  16.982  1.00  0.00    -0.550 OA
ENDBRANCH  17  18
ENDBRANCH  16  17
ENDBRANCH  15  16
ENDBRANCH  14  15
ENDBRANCH  13  14
ENDBRANCH  12  13
ENDBRANCH  11  12
ENDBRANCH   1  11
TORSDOF 15
ENDMDL
MODEL 5
REMARK VINA RESULT:    -6.082      2.278      5.978
REMARK INTER + INTRA:         -13.010
REMARK INTER:                 -11.614
REMARK INTRA:                  -1.396
REMARK UNBOUND:                -1.595
REMARK SMILES O=C([O-])CCCCCCCCCCCCCCC(=O)[O-]
REMARK SMILES IDX 10 1 9 2 8 3 7 4 6 5 5 6 4 7 2 8 1 9 3 10 11 11 12 12 13 13
REMARK SMILES IDX 14 14 15 15 16 16 17 17 18 18 19 19 20 20
REMARK H PARENT
REMARK Flexibility Score: inf
ROOT
ATOM      1  C   UNL     1      14.340   3.373  17.402  1.00  0.00     0.000 C 
ENDROOT
BRANCH   1   2
ATOM      2  C   UNL     1      13.118   3.270  16.466  1.00  0.00     0.000 C 
BRANCH   2   3
ATOM      3  C   UNL     1      13.458   2.559  15.144  1.00  0.00     0.000 C 
BRANCH   3   4
ATOM      4  C   UNL     1      14.973   2.465  14.888  1.00  0.00     0.000 C 
BRANCH   4   5
ATOM      5  C   UNL     1      15.436   3.004  13.522  1.00  0.00     0.000 C 
BRANCH   5   6
ATOM      6  C   UNL     1      15.404   1.938  12.413  1.00  0.00     0.006 C 
BRANCH   6   7
ATOM      7  C   UNL     1      16.485   2.178  11.350  1.00  0.00     0.053 C 
BRANCH   7   8
ATOM      8  C   UNL     1      17.405   1.004  11.215  1.00  0.00     0.041 C 
ATOM      9  O   UNL     1      17.599   0.477  10.088  1.00  0.00    -0.550 OA
ATOM     10  O   UNL     1      18.075   0.511  12.328  1.00  0.00    -0.550 OA
ENDBRANCH   7   8
ENDBRANCH   6   7
ENDBRANCH   5   6
ENDBRANCH   4   5
ENDBRANCH   3   4
ENDBRANCH   2   3
ENDBRANCH   1   2
BRANCH   1  11
ATOM     11  C   UNL     1      14.010   3.110  18.882  1.00  0.00     0.000 C 
BRANCH  11  12
ATOM     12  C   UNL     1      14.000   1.613  19.233  1.00  0.00     0.000 C 
BRANCH  12  13
ATOM     13  C   UNL     1      14.919   1.281  20.420  1.00  0.00     0.000 C 
BRANCH  13  14
ATOM     14  C   UNL     1      15.696  -0.030  20.211  1.00  0.00     0.000 C 
BRANCH  14  15
ATOM     15  C   UNL     1      16.235  -0.177  18.779  1.00  0.00     0.000 C 
BRANCH  15  16
ATOM     16  C   UNL     1      17.620   0.462  18.596  1.00  0.00     0.006 C 
BRANCH  16  17
ATOM     17  C   UNL     1      17.709   1.202  17.258  1.00  0.00     0.053 C 
BRANCH  17  18
ATOM     18  C   UNL     1      18.559   0.440  16.292  1.00  0.00     0.041 C 
ATOM     19  O   UNL     1      19.748   0.795  16.075  1.00  0.00    -0.550 OA
ATOM     20  O   UNL     1      18.023  -0.633  15.590  1.00  0.00    -0.550 OA
ENDBRANCH  17  18
ENDBRANCH  16  17
ENDBRANCH  15  16
ENDBRANCH  14  15
ENDBRANCH  13  14
ENDBRANCH  12  13
ENDBRANCH  11  12
ENDBRANCH   1  11
TORSDOF 15
ENDMDL
MODEL 6
REMARK VINA RESULT:    -6.058      1.215      2.160
REMARK INTER + INTRA:         -12.966
REMARK INTER:                 -11.184
REMARK INTRA:                  -1.782
REMARK UNBOUND:                -1.595
REMARK SMILES O=C([O-])CCCCCCCCCCCCCCC(=O)[O-]
REMARK SMILES IDX 10 1 9 2 8 3 7 4 6 5 5 6 4 7 2 8 1 9 3 10 11 11 12 12 13 13
REMARK SMILES IDX 14 14 15 15 16 16 17 17 18 18 19 19 20 20
REMARK H PARENT
REMARK Flexibility Score: inf
ROOT
ATOM      1  C   UNL     1      14.895   2.565  15.143  1.00  0.00     0.000 C 
ENDROOT
BRANCH   1   2
ATOM      2  C   UNL     1      13.355   2.633  15.228  1.00  0.00     0.000 C 
BRANCH   2   3
ATOM      3  C   UNL     1      12.875   3.271  16.545  1.00  0.00     0.000 C 
BRANCH   3   4
ATOM      4  C   UNL     1      14.035   3.732  17.445  1.00  0.00     0.000 C 
BRANCH   4   5
ATOM      5  C   UNL     1      13.943   3.273  18.912  1.00  0.00     0.000 C 
BRANCH   5   6
ATOM      6  C   UNL     1      13.963   1.742  19.063  1.00  0.00     0.006 C 
BRANCH   6   7
ATOM      7  C   UNL     1      15.258   1.125  18.518  1.00  0.00     0.053 C 
BRANCH   7   8
ATOM      8  C   UNL     1      15.992   0.348  19.569  1.00  0.00     0.041 C 
ATOM      9  O   UNL     1      15.353  -0.287  20.448  1.00  0.00    -0.550 OA
ATOM     10  O   UNL     1      17.380   0.300  19.557  1.00  0.00    -0.550 OA
ENDBRANCH   7   8
ENDBRANCH   6   7
ENDBRANCH   5   6
ENDBRANCH   4   5
ENDBRANCH   3   4
ENDBRANCH   2   3
ENDBRANCH   1   2
BRANCH   1  11
ATOM     11  C   UNL     1      15.456   2.971  13.769  1.00  0.00     0.000 C 
BRANCH  11  12
ATOM     12  C   UNL     1      15.097   1.969  12.659  1.00  0.00     0.000 C 
BRANCH  12  13
ATOM     13  C   UNL     1      15.935   2.177  11.387  1.00  0.00     0.000 C 
BRANCH  13  14
ATOM     14  C   UNL     1      17.375   1.658  11.541  1.00  0.00     0.000 C 
BRANCH  14  15
ATOM     15  C   UNL     1      17.431   0.198  12.017  1.00  0.00     0.000 C 
BRANCH  15  16
ATOM     16  C   UNL     1      17.985   0.057  13.442  1.00  0.00     0.006 C 
BRANCH  16  17
ATOM     17  C   UNL     1      16.976  -0.643  14.357  1.00  0.00     0.053 C 
BRANCH  17  18
ATOM     18  C   UNL     1      17.351  -0.457  15.792  1.00  0.00     0.041 C 
ATOM     19  O   UNL     1      17.028  -1.323  16.649  1.00  0.00    -0.550 OA
ATOM     20  O   UNL     1      18.012   0.697  16.195  1.00  0.00    -0.550 OA
ENDBRANCH  17  18
ENDBRANCH  16  17
ENDBRANCH  15  16
ENDBRANCH  14  15
ENDBRANCH  13  14
ENDBRANCH  12  13
ENDBRANCH  11  12
ENDBRANCH   1  11
TORSDOF 15
ENDMDL
MODEL 7
REMARK VINA RESULT:    -6.026      2.326      6.736
REMARK INTER + INTRA:         -12.905
REMARK INTER:                 -11.051
REMARK INTRA:                  -1.854
REMARK UNBOUND:                -1.595
REMARK SMILES O=C([O-])CCCCCCCCCCCCCCC(=O)[O-]
REMARK SMILES IDX 10 1 9 2 8 3 7 4 6 5 5 6 4 7 2 8 1 9 3 10 11 11 12 12 13 13
REMARK SMILES IDX 14 14 15 15 16 16 17 17 18 18 19 19 20 20
REMARK H PARENT
REMARK Flexibility Score: inf
ROOT
ATOM      1  C   UNL     1      16.655   0.103  19.585  1.00  0.00     0.000 C 
ENDROOT
BRANCH   1   2
ATOM      2  C   UNL     1      16.430  -1.381  19.224  1.00  0.00     0.000 C 
BRANCH   2   3
ATOM      3  C   UNL     1      16.820  -1.688  17.767  1.00  0.00     0.000 C 
BRANCH   3   4
ATOM      4  C   UNL     1      16.039  -0.841  16.746  1.00  0.00     0.000 C 
BRANCH   4   5
ATOM      5  C   UNL     1      16.903   0.090  15.877  1.00  0.00     0.000 C 
BRANCH   5   6
ATOM      6  C   UNL     1      17.208  -0.498  14.488  1.00  0.00     0.006 C 
BRANCH   6   7
ATOM      7  C   UNL     1      18.685  -0.338  14.105  1.00  0.00     0.053 C 
BRANCH   7   8
ATOM      8  C   UNL     1      19.598  -0.872  15.166  1.00  0.00     0.041 C 
ATOM      9  O   UNL     1      20.331  -0.088  15.823  1.00  0.00    -0.550 OA
ATOM     10  O   UNL     1      19.614  -2.231  15.452  1.00  0.00    -0.550 OA
ENDBRANCH   7   8
ENDBRANCH   6   7
ENDBRANCH   5   6
ENDBRANCH   4   5
ENDBRANCH   3   4
ENDBRANCH   2   3
ENDBRANCH   1   2
BRANCH   1  11
ATOM     11  C   UNL     1      15.491   0.731  20.371  1.00  0.00     0.000 C 
BRANCH  11  12
ATOM     12  C   UNL     1      14.116   0.211  19.919  1.00  0.00     0.000 C 
BRANCH  12  13
ATOM     13  C   UNL     1      13.608   0.917  18.651  1.00  0.00     0.000 C 
BRANCH  13  14
ATOM     14  C   UNL     1      13.970   2.412  18.628  1.00  0.00     0.000 C 
BRANCH  14  15
ATOM     15  C   UNL     1      13.265   3.174  17.494  1.00  0.00     0.000 C 
BRANCH  15  16
ATOM     16  C   UNL     1      13.426   2.491  16.128  1.00  0.00     0.006 C 
BRANCH  16  17
ATOM     17  C   UNL     1      14.727   2.924  15.448  1.00  0.00     0.053 C 
BRANCH  17  18
ATOM     18  C   UNL     1      14.728   2.519  14.008  1.00  0.00     0.041 C 
ATOM     19  O   UNL     1      15.073   3.340  13.118  1.00  0.00    -0.550 OA
ATOM     20  O   UNL     1      14.297   1.250  13.643  1.00  0.00    -0.550 OA
ENDBRANCH  17  18
ENDBRANCH  16  17
ENDBRANCH  15  16
ENDBRANCH  14  15
ENDBRANCH  13  14
ENDBRANCH  12  13
ENDBRANCH  11  12
ENDBRANCH   1  11
TORSDOF 15
ENDMDL
MODEL 8
REMARK VINA RESULT:    -6.001      1.559      5.300
REMARK INTER + INTRA:         -12.859
REMARK INTER:                 -10.994
REMARK INTRA:                  -1.865
REMARK UNBOUND:                -1.595
REMARK SMILES O=C([O-])CCCCCCCCCCCCCCC(=O)[O-]
REMARK SMILES IDX 10 1 9 2 8 3 7 4 6 5 5 6 4 7 2 8 1 9 3 10 11 11 12 12 13 13
REMARK SMILES IDX 14 14 15 15 16 16 17 17 18 18 19 19 20 20
REMARK H PARENT
REMARK Flexibility Score: inf
ROOT
ATOM      1  C   UNL     1      15.187   2.639  15.117  1.00  0.00     0.000 C 
ENDROOT
BRANCH   1   2
ATOM      2  C   UNL     1      15.378   3.067  13.647  1.00  0.00     0.000 C 
BRANCH   2   3
ATOM      3  C   UNL     1      15.137   1.903  12.668  1.00  0.00     0.000 C 
BRANCH   3   4
ATOM      4  C   UNL     1      16.098   1.922  11.466  1.00  0.00     0.000 C 
BRANCH   4   5
ATOM      5  C   UNL     1      17.486   1.312  11.733  1.00  0.00     0.000 C 
BRANCH   5   6
ATOM      6  C   UNL     1      17.417  -0.046  12.453  1.00  0.00     0.006 C 
BRANCH   6   7
ATOM      7  C   UNL     1      18.341  -0.099  13.677  1.00  0.00     0.053 C 
BRANCH   7   8
ATOM      8  C   UNL     1      17.566  -0.159  14.958  1.00  0.00     0.041 C 
ATOM      9  O   UNL     1      18.037   0.354  16.007  1.00  0.00    -0.550 OA
ATOM     10  O   UNL     1      16.311  -0.754  14.986  1.00  0.00    -0.550 OA
ENDBRANCH   7   8
ENDBRANCH   6   7
ENDBRANCH   5   6
ENDBRANCH   4   5
ENDBRANCH   3   4
ENDBRANCH   2   3
ENDBRANCH   1   2
BRANCH   1  11
ATOM     11  C   UNL     1      13.755   2.185  15.447  1.00  0.00     0.000 C 
BRANCH  11  12
ATOM     12  C   UNL     1      12.875   3.328  15.982  1.00  0.00     0.000 C 
BRANCH  12  13
ATOM     13  C   UNL     1      13.197   3.685  17.442  1.00  0.00     0.000 C 
BRANCH  13  14
ATOM     14  C   UNL     1      13.267   2.442  18.347  1.00  0.00     0.000 C 
BRANCH  14  15
ATOM     15  C   UNL     1      14.600   2.338  19.106  1.00  0.00     0.000 C 
BRANCH  15  16
ATOM     16  C   UNL     1      15.428   1.113  18.689  1.00  0.00     0.006 C 
BRANCH  16  17
ATOM     17  C   UNL     1      14.571  -0.156  18.697  1.00  0.00     0.053 C 
BRANCH  17  18
ATOM     18  C   UNL     1      15.390  -1.345  18.306  1.00  0.00     0.041 C 
ATOM     19  O   UNL     1      14.890  -2.252  17.589  1.00  0.00    -0.550 OA
ATOM     20  O   UNL     1      16.691  -1.479  18.776  1.00  0.00    -0.550 OA
ENDBRANCH  17  18
ENDBRANCH  16  17
ENDBRANCH  15  16
ENDBRANCH  14  15
ENDBRANCH  13  14
ENDBRANCH  12  13
ENDBRANCH  11  12
ENDBRANCH   1  11
TORSDOF 15
ENDMDL
MODEL 9
REMARK VINA RESULT:    -5.991      1.756      5.685
REMARK INTER + INTRA:         -12.840
REMARK INTER:                 -11.113
REMARK INTRA:                  -1.727
REMARK UNBOUND:                -1.595
REMARK SMILES O=C([O-])CCCCCCCCCCCCCCC(=O)[O-]
REMARK SMILES IDX 10 1 9 2 8 3 7 4 6 5 5 6 4 7 2 8 1 9 3 10 11 11 12 12 13 13
REMARK SMILES IDX 14 14 15 15 16 16 17 17 18 18 19 19 20 20
REMARK H PARENT
REMARK Flexibility Score: inf
ROOT
ATOM      1  C   UNL     1      13.963   2.656  14.889  1.00  0.00     0.000 C 
ENDROOT
BRANCH   1   2
ATOM      2  C   UNL     1      15.501   2.528  14.940  1.00  0.00     0.000 C 
BRANCH   2   3
ATOM      3  C   UNL     1      15.960   1.450  15.939  1.00  0.00     0.000 C 
BRANCH   3   4
ATOM      4  C   UNL     1      16.415   0.151  15.251  1.00  0.00     0.000 C 
BRANCH   4   5
ATOM      5  C   UNL     1      17.024   0.336  13.849  1.00  0.00     0.000 C 
BRANCH   5   6
ATOM      6  C   UNL     1      18.391  -0.353  13.693  1.00  0.00     0.006 C 
BRANCH   6   7
ATOM      7  C   UNL     1      18.795  -1.125  14.956  1.00  0.00     0.053 C 
BRANCH   7   8
ATOM      8  C   UNL     1      20.003  -0.529  15.612  1.00  0.00     0.041 C 
ATOM      9  O   UNL     1      20.023   0.693  15.911  1.00  0.00    -0.550 OA
ATOM     10  O   UNL     1      21.094  -1.331  15.922  1.00  0.00    -0.550 OA
ENDBRANCH   7   8
ENDBRANCH   6   7
ENDBRANCH   5   6
ENDBRANCH   4   5
ENDBRANCH   3   4
ENDBRANCH   2   3
ENDBRANCH   1   2
BRANCH   1  11
ATOM     11  C   UNL     1      13.270   2.307  16.218  1.00  0.00     0.000 C 
BRANCH  11  12
ATOM     12  C   UNL     1      12.962   3.547  17.074  1.00  0.00     0.000 C 
BRANCH  12  13
ATOM     13  C   UNL     1      13.540   3.440  18.494  1.00  0.00     0.000 C 
BRANCH  13  14
ATOM     14  C   UNL     1      13.819   1.984  18.905  1.00  0.00     0.000 C 
BRANCH  14  15
ATOM     15  C   UNL     1      14.717   1.881  20.149  1.00  0.00     0.000 C 
BRANCH  15  16
ATOM     16  C   UNL     1      15.238   0.456  20.391  1.00  0.00     0.006 C 
BRANCH  16  17
ATOM     17  C   UNL     1      16.506   0.190  19.575  1.00  0.00     0.053 C 
BRANCH  17  18
ATOM     18  C   UNL     1      16.370  -1.077  18.792  1.00  0.00     0.041 C 
ATOM     19  O   UNL     1      15.240  -1.448  18.378  1.00  0.00    -0.550 OA
ATOM     20  O   UNL     1      17.483  -1.877  18.565  1.00  0.00    -0.550 OA
ENDBRANCH  17  18
ENDBRANCH  16  17
ENDBRANCH  15  16
ENDBRANCH  14  15
ENDBRANCH  13  14
ENDBRANCH  12  13
ENDBRANCH  11  12
ENDBRANCH   1  11
TORSDOF 15
ENDMDL
