MODEL 1
REMARK VINA RESULT:    -5.205      0.000      0.000
REMARK INTER + INTRA:          -7.892
REMARK INTER:                  -7.031
REMARK INTRA:                  -0.861
REMARK UNBOUND:                -0.861
REMARK SMILES CC(=O)CCC=C(C)CCC=C(C)C
REMARK SMILES IDX 7 1 6 2 8 3 9 4 10 5 11 6 13 7 12 8 14 9 5 10 4 11 2 12 3 13
REMARK SMILES IDX 1 14
REMARK H PARENT
REMARK Flexibility Score: inf
ROOT
ATOM      1  C   UNL     1      10.456 -13.117  17.227  1.00  0.00    -0.077 C 
ATOM      2  C   UNL     1      11.359 -12.323  17.841  1.00  0.00    -0.028 C 
ATOM      3  C   UNL     1      10.131 -12.952  15.762  1.00  0.00     0.039 C 
ENDROOT
BRANCH   1   4
ATOM      4  C   UNL     1       9.752 -14.196  18.026  1.00  0.00     0.034 C 
BRANCH   4   5
ATOM      5  C   UNL     1       9.697 -15.529  17.263  1.00  0.00     0.032 C 
BRANCH   5   6
ATOM      6  C   UNL     1      10.930 -16.367  17.509  1.00  0.00    -0.028 C 
ATOM      7  C   UNL     1      12.982 -17.613  16.908  1.00  0.00     0.039 C 
ATOM      8  C   UNL     1      11.801 -16.749  16.547  1.00  0.00    -0.080 C 
ATOM      9  C   UNL     1      11.669 -16.290  15.116  1.00  0.00     0.039 C 
ENDBRANCH   5   6
ENDBRANCH   4   5
ENDBRANCH   1   4
BRANCH   2  10
ATOM     10  C   UNL     1      12.099 -11.212  17.132  1.00  0.00     0.035 C 
BRANCH  10  11
ATOM     11  C   UNL     1      12.616 -10.150  18.112  1.00  0.00     0.079 C 
BRANCH  11  12
ATOM     12  C   UNL     1      11.497  -9.556  18.930  1.00  0.00     0.130 C 
ATOM     13  O   UNL     1      11.537  -9.634  20.148  1.00  0.00    -0.300 OA
ATOM     14  C   UNL     1      10.330  -8.875  18.280  1.00  0.00     0.087 C 
ENDBRANCH  11  12
ENDBRANCH  10  11
ENDBRANCH   2  10
TORSDOF 6
ENDMDL
MODEL 2
REMARK VINA RESULT:    -5.103      1.562      2.854
REMARK INTER + INTRA:          -7.755
REMARK INTER:                  -7.021
REMARK INTRA:                  -0.734
REMARK UNBOUND:                -0.861
REMARK SMILES CC(=O)CCC=C(C)CCC=C(C)C
REMARK SMILES IDX 7 1 6 2 8 3 9 4 10 5 11 6 13 7 12 8 14 9 5 10 4 11 2 12 3 13
REMARK SMILES IDX 1 14
REMARK H PARENT
REMARK Flexibility Score: inf
ROOT
ATOM      1  C   UNL     1      10.284 -15.089  17.580  1.00  0.00    -0.077 C 
ATOM      2  C   UNL     1      10.860 -13.878  17.427  1.00  0.00    -0.028 C 
ATOM      3  C   UNL     1       9.039 -15.268  18.415  1.00  0.00     0.039 C 
ENDROOT
BRANCH   1   4
ATOM      4  C   UNL     1      10.901 -16.296  16.901  1.00  0.00     0.034 C 
BRANCH   4   5
ATOM      5  C   UNL     1      11.916 -15.888  15.821  1.00  0.00     0.032 C 
BRANCH   5   6
ATOM      6  C   UNL     1      11.525 -16.408  14.458  1.00  0.00    -0.028 C 
ATOM      7  C   UNL     1      10.462 -16.342  12.225  1.00  0.00     0.039 C 
ATOM      8  C   UNL     1      10.822 -15.705  13.542  1.00  0.00    -0.080 C 
ATOM      9  C   UNL     1      10.426 -14.267  13.767  1.00  0.00     0.039 C 
ENDBRANCH   5   6
ENDBRANCH   4   5
ENDBRANCH   1   4
BRANCH   2  10
ATOM     10  C   UNL     1      10.327 -12.621  18.075  1.00  0.00     0.035 C 
BRANCH  10  11
ATOM     11  C   UNL     1      11.329 -11.462  17.991  1.00  0.00     0.079 C 
BRANCH  11  12
ATOM     12  C   UNL     1      10.796 -10.217  18.657  1.00  0.00     0.130 C 
ATOM     13  O   UNL     1       9.736  -9.741  18.281  1.00  0.00    -0.300 OA
ATOM     14  C   UNL     1      11.544  -9.545  19.769  1.00  0.00     0.087 C 
ENDBRANCH  11  12
ENDBRANCH  10  11
ENDBRANCH   2  10
TORSDOF 6
ENDMDL
MODEL 3
REMARK VINA RESULT:    -5.061      1.527      2.564
REMARK INTER + INTRA:          -7.697
REMARK INTER:                  -6.899
REMARK INTRA:                  -0.798
REMARK UNBOUND:                -0.861
REMARK SMILES CC(=O)CCC=C(C)CCC=C(C)C
REMARK SMILES IDX 7 1 6 2 8 3 9 4 10 5 11 6 13 7 12 8 14 9 5 10 4 11 2 12 3 13
REMARK SMILES IDX 1 14
REMARK H PARENT
REMARK Flexibility Score: inf
ROOT
ATOM      1  C   UNL     1      10.431 -15.245  17.277  1.00  0.00    -0.077 C 
ATOM      2  C   UNL     1      11.004 -14.253  16.561  1.00  0.00    -0.028 C 
ATOM      3  C   UNL     1       9.373 -14.957  18.315  1.00  0.00     0.039 C 
ENDROOT
BRANCH   1   4
ATOM      4  C   UNL     1      10.859 -16.678  17.032  1.00  0.00     0.034 C 
BRANCH   4   5
ATOM      5  C   UNL     1      12.237 -16.758  16.357  1.00  0.00     0.032 C 
BRANCH   5   6
ATOM      6  C   UNL     1      12.302 -17.876  15.343  1.00  0.00    -0.028 C 
ATOM      7  C   UNL     1      12.081 -18.935  13.118  1.00  0.00     0.039 C 
ATOM      8  C   UNL     1      12.011 -17.737  14.030  1.00  0.00    -0.080 C 
ATOM      9  C   UNL     1      11.669 -16.400  13.421  1.00  0.00     0.039 C 
ENDBRANCH   5   6
ENDBRANCH   4   5
ENDBRANCH   1   4
BRANCH   2  10
ATOM     10  C   UNL     1      10.653 -12.795  16.744  1.00  0.00     0.035 C 
BRANCH  10  11
ATOM     11  C   UNL     1      11.682 -12.061  17.616  1.00  0.00     0.079 C 
BRANCH  11  12
ATOM     12  C   UNL     1      11.017 -11.112  18.581  1.00  0.00     0.130 C 
ATOM     13  O   UNL     1      11.663 -10.650  19.510  1.00  0.00    -0.300 OA
ATOM     14  C   UNL     1       9.576 -10.726  18.431  1.00  0.00     0.087 C 
ENDBRANCH  11  12
ENDBRANCH  10  11
ENDBRANCH   2  10
TORSDOF 6
ENDMDL
MODEL 4
REMARK VINA RESULT:    -5.002      3.875      7.138
REMARK INTER + INTRA:          -7.617
REMARK INTER:                  -6.739
REMARK INTRA:                  -0.878
REMARK UNBOUND:                -0.861
REMARK SMILES CC(=O)CCC=C(C)CCC=C(C)C
REMARK SMILES IDX 7 1 6 2 8 3 9 4 10 5 11 6 13 7 12 8 14 9 5 10 4 11 2 12 3 13
REMARK SMILES IDX 1 14
REMARK H PARENT
REMARK Flexibility Score: inf
ROOT
ATOM      1  C   UNL     1      11.639 -16.777  16.009  1.00  0.00    -0.077 C 
ATOM      2  C   UNL     1      11.237 -16.192  14.860  1.00  0.00    -0.028 C 
ATOM      3  C   UNL     1      12.741 -17.809  16.023  1.00  0.00     0.039 C 
ENDROOT
BRANCH   1   4
ATOM      4  C   UNL     1      10.970 -16.389  17.313  1.00  0.00     0.034 C 
BRANCH   4   5
ATOM      5  C   UNL     1       9.837 -15.373  17.095  1.00  0.00     0.032 C 
BRANCH   5   6
ATOM      6  C   UNL     1      10.011 -14.146  17.959  1.00  0.00    -0.028 C 
ATOM      7  C   UNL     1      10.521 -11.777  18.458  1.00  0.00     0.039 C 
ATOM      8  C   UNL     1      10.345 -12.921  17.494  1.00  0.00    -0.080 C 
ATOM      9  C   UNL     1      10.496 -12.638  16.020  1.00  0.00     0.039 C 
ENDBRANCH   5   6
ENDBRANCH   4   5
ENDBRANCH   1   4
BRANCH   2  10
ATOM     10  C   UNL     1      11.833 -16.523  13.512  1.00  0.00     0.035 C 
BRANCH  10  11
ATOM     11  C   UNL     1      10.755 -16.860  12.474  1.00  0.00     0.079 C 
BRANCH  11  12
ATOM     12  C   UNL     1      10.874 -18.284  11.989  1.00  0.00     0.130 C 
ATOM     13  O   UNL     1      10.431 -18.584  10.891  1.00  0.00    -0.300 OA
ATOM     14  C   UNL     1      11.519 -19.344  12.831  1.00  0.00     0.087 C 
ENDBRANCH  11  12
ENDBRANCH  10  11
ENDBRANCH   2  10
TORSDOF 6
ENDMDL
MODEL 5
REMARK VINA RESULT:    -4.837      3.425      6.312
REMARK INTER + INTRA:          -7.395
REMARK INTER:                  -6.634
REMARK INTRA:                  -0.761
REMARK UNBOUND:                -0.861
REMARK SMILES CC(=O)CCC=C(C)CCC=C(C)C
REMARK SMILES IDX 7 1 6 2 8 3 9 4 10 5 11 6 13 7 12 8 14 9 5 10 4 11 2 12 3 13
REMARK SMILES IDX 1 14
REMARK H PARENT
REMARK Flexibility Score: inf
ROOT
ATOM      1  C   UNL     1      11.952 -16.900  16.368  1.00  0.00    -0.077 C 
ATOM      2  C   UNL     1      11.606 -16.426  15.152  1.00  0.00    -0.028 C 
ATOM      3  C   UNL     1      13.036 -17.939  16.529  1.00  0.00     0.039 C 
ENDROOT
BRANCH   1   4
ATOM      4  C   UNL     1      11.236 -16.378  17.598  1.00  0.00     0.034 C 
BRANCH   4   5
ATOM      5  C   UNL     1       9.956 -15.610  17.234  1.00  0.00     0.032 C 
BRANCH   5   6
ATOM      6  C   UNL     1       9.843 -14.313  18.000  1.00  0.00    -0.028 C 
ATOM      7  C   UNL     1      10.258 -11.923  18.486  1.00  0.00     0.039 C 
ATOM      8  C   UNL     1      10.415 -13.148  17.623  1.00  0.00    -0.080 C 
ATOM      9  C   UNL     1      11.169 -13.008  16.323  1.00  0.00     0.039 C 
ENDBRANCH   5   6
ENDBRANCH   4   5
ENDBRANCH   1   4
BRANCH   2  10
ATOM     10  C   UNL     1      12.252 -16.895  13.869  1.00  0.00     0.035 C 
BRANCH  10  11
ATOM     11  C   UNL     1      11.989 -15.929  12.706  1.00  0.00     0.079 C 
BRANCH  11  12
ATOM     12  C   UNL     1      10.588 -16.076  12.166  1.00  0.00     0.130 C 
ATOM     13  O   UNL     1      10.126 -17.193  11.992  1.00  0.00    -0.300 OA
ATOM     14  C   UNL     1       9.750 -14.879  11.830  1.00  0.00     0.087 C 
ENDBRANCH  11  12
ENDBRANCH  10  11
ENDBRANCH   2  10
TORSDOF 6
ENDMDL
MODEL 6
REMARK VINA RESULT:    -4.815      3.029      6.933
REMARK INTER + INTRA:          -7.366
REMARK INTER:                  -6.999
REMARK INTRA:                  -0.367
REMARK UNBOUND:                -0.861
REMARK SMILES CC(=O)CCC=C(C)CCC=C(C)C
REMARK SMILES IDX 7 1 6 2 8 3 9 4 10 5 11 6 13 7 12 8 14 9 5 10 4 11 2 12 3 13
REMARK SMILES IDX 1 14
REMARK H PARENT
REMARK Flexibility Score: inf
ROOT
ATOM      1  C   UNL     1      10.798 -14.833  17.046  1.00  0.00    -0.077 C 
ATOM      2  C   UNL     1      11.732 -15.553  16.387  1.00  0.00    -0.028 C 
ATOM      3  C   UNL     1       9.551 -15.480  17.600  1.00  0.00     0.039 C 
ENDROOT
BRANCH   1   4
ATOM      4  C   UNL     1      11.007 -13.343  17.234  1.00  0.00     0.034 C 
BRANCH   4   5
ATOM      5  C   UNL     1      10.132 -12.781  18.365  1.00  0.00     0.032 C 
BRANCH   5   6
ATOM      6  C   UNL     1       9.843 -11.310  18.173  1.00  0.00    -0.028 C 
ATOM      7  C   UNL     1      10.197  -8.876  18.440  1.00  0.00     0.039 C 
ATOM      8  C   UNL     1      10.603 -10.308  18.671  1.00  0.00    -0.080 C 
ATOM      9  C   UNL     1      11.890 -10.570  19.412  1.00  0.00     0.039 C 
ENDBRANCH   5   6
ENDBRANCH   4   5
ENDBRANCH   1   4
BRANCH   2  10
ATOM     10  C   UNL     1      11.605 -17.038  16.139  1.00  0.00     0.035 C 
BRANCH  10  11
ATOM     11  C   UNL     1      12.580 -17.525  15.059  1.00  0.00     0.079 C 
BRANCH  11  12
ATOM     12  C   UNL     1      11.899 -17.678  13.722  1.00  0.00     0.130 C 
ATOM     13  O   UNL     1      11.455 -16.691  13.157  1.00  0.00    -0.300 OA
ATOM     14  C   UNL     1      11.748 -19.021  13.071  1.00  0.00     0.087 C 
ENDBRANCH  11  12
ENDBRANCH  10  11
ENDBRANCH   2  10
TORSDOF 6
ENDMDL
MODEL 7
REMARK VINA RESULT:    -4.810      1.524      2.571
REMARK INTER + INTRA:          -7.358
REMARK INTER:                  -6.263
REMARK INTRA:                  -1.095
REMARK UNBOUND:                -0.861
REMARK SMILES CC(=O)CCC=C(C)CCC=C(C)C
REMARK SMILES IDX 7 1 6 2 8 3 9 4 10 5 11 6 13 7 12 8 14 9 5 10 4 11 2 12 3 13
REMARK SMILES IDX 1 14
REMARK H PARENT
REMARK Flexibility Score: inf
ROOT
ATOM      1  C   UNL     1      11.922 -12.049  15.599  1.00  0.00    -0.077 C 
ATOM      2  C   UNL     1      12.666 -11.874  16.713  1.00  0.00    -0.028 C 
ATOM      3  C   UNL     1      11.127 -10.916  14.998  1.00  0.00     0.039 C 
ENDROOT
BRANCH   1   4
ATOM      4  C   UNL     1      11.886 -13.413  14.939  1.00  0.00     0.034 C 
BRANCH   4   5
ATOM      5  C   UNL     1      10.454 -13.964  14.841  1.00  0.00     0.032 C 
BRANCH   5   6
ATOM      6  C   UNL     1       9.800 -14.069  16.199  1.00  0.00    -0.028 C 
ATOM      7  C   UNL     1       9.225 -15.120  18.364  1.00  0.00     0.039 C 
ATOM      8  C   UNL     1       9.955 -15.112  17.046  1.00  0.00    -0.080 C 
ATOM      9  C   UNL     1      10.889 -16.258  16.745  1.00  0.00     0.039 C 
ENDBRANCH   5   6
ENDBRANCH   4   5
ENDBRANCH   1   4
BRANCH   2  10
ATOM     10  C   UNL     1      12.753 -10.556  17.448  1.00  0.00     0.035 C 
BRANCH  10  11
ATOM     11  C   UNL     1      11.972 -10.583  18.769  1.00  0.00     0.079 C 
BRANCH  11  12
ATOM     12  C   UNL     1      10.548 -10.121  18.582  1.00  0.00     0.130 C 
ATOM     13  O   UNL     1      10.306  -8.924  18.532  1.00  0.00    -0.300 OA
ATOM     14  C   UNL     1       9.418 -11.099  18.465  1.00  0.00     0.087 C 
ENDBRANCH  11  12
ENDBRANCH  10  11
ENDBRANCH   2  10
TORSDOF 6
ENDMDL
MODEL 8
REMARK VINA RESULT:    -4.757      3.475      6.833
REMARK INTER + INTRA:          -7.287
REMARK INTER:                  -6.455
REMARK INTRA:                  -0.831
REMARK UNBOUND:                -0.861
REMARK SMILES CC(=O)CCC=C(C)CCC=C(C)C
REMARK SMILES IDX 7 1 6 2 8 3 9 4 10 5 11 6 13 7 12 8 14 9 5 10 4 11 2 12 3 13
REMARK SMILES IDX 1 14
REMARK H PARENT
REMARK Flexibility Score: inf
ROOT
ATOM      1  C   UNL     1      10.528 -15.486  15.650  1.00  0.00    -0.077 C 
ATOM      2  C   UNL     1      11.472 -16.429  15.855  1.00  0.00    -0.028 C 
ATOM      3  C   UNL     1      10.483 -14.683  14.372  1.00  0.00     0.039 C 
ENDROOT
BRANCH   1   4
ATOM      4  C   UNL     1       9.492 -15.227  16.725  1.00  0.00     0.034 C 
BRANCH   4   5
ATOM      5  C   UNL     1      10.138 -14.794  18.051  1.00  0.00     0.032 C 
BRANCH   5   6
ATOM      6  C   UNL     1       9.742 -13.388  18.436  1.00  0.00    -0.028 C 
ATOM      7  C   UNL     1       9.961 -10.927  18.572  1.00  0.00     0.039 C 
ATOM      8  C   UNL     1      10.438 -12.277  18.104  1.00  0.00    -0.080 C 
ATOM      9  C   UNL     1      11.661 -12.331  17.222  1.00  0.00     0.039 C 
ENDBRANCH   5   6
ENDBRANCH   4   5
ENDBRANCH   1   4
BRANCH   2  10
ATOM     10  C   UNL     1      12.553 -16.748  14.849  1.00  0.00     0.035 C 
BRANCH  10  11
ATOM     11  C   UNL     1      12.541 -18.228  14.442  1.00  0.00     0.079 C 
BRANCH  11  12
ATOM     12  C   UNL     1      11.929 -18.425  13.078  1.00  0.00     0.130 C 
ATOM     13  O   UNL     1      11.411 -17.476  12.509  1.00  0.00    -0.300 OA
ATOM     14  C   UNL     1      11.935 -19.765  12.405  1.00  0.00     0.087 C 
ENDBRANCH  11  12
ENDBRANCH  10  11
ENDBRANCH   2  10
TORSDOF 6
ENDMDL
MODEL 9
REMARK VINA RESULT:    -4.755     17.486     19.274
REMARK INTER + INTRA:          -7.285
REMARK INTER:                  -6.256
REMARK INTRA:                  -1.029
REMARK UNBOUND:                -0.861
REMARK SMILES CC(=O)CCC=C(C)CCC=C(C)C
REMARK SMILES IDX 7 1 6 2 8 3 9 4 10 5 11 6 13 7 12 8 14 9 5 10 4 11 2 12 3 13
REMARK SMILES IDX 1 14
REMARK H PARENT
REMARK Flexibility Score: inf
ROOT
ATOM      1  C   UNL     1      -0.728 -26.451  13.281  1.00  0.00    -0.077 C 
ATOM      2  C   UNL     1      -0.577 -27.665  12.709  1.00  0.00    -0.028 C 
ATOM      3  C   UNL     1       0.445 -25.521  13.476  1.00  0.00     0.039 C 
ENDROOT
BRANCH   1   4
ATOM      4  C   UNL     1      -2.106 -26.013  13.737  1.00  0.00     0.034 C 
BRANCH   4   5
ATOM      5  C   UNL     1      -2.127 -25.657  15.232  1.00  0.00     0.032 C 
BRANCH   5   6
ATOM      6  C   UNL     1      -2.321 -26.880  16.098  1.00  0.00    -0.028 C 
ATOM      7  C   UNL     1      -1.648 -28.708  17.624  1.00  0.00     0.039 C 
ATOM      8  C   UNL     1      -1.342 -27.470  16.821  1.00  0.00    -0.080 C 
ATOM      9  C   UNL     1       0.051 -26.897  16.903  1.00  0.00     0.039 C 
ENDBRANCH   5   6
ENDBRANCH   4   5
ENDBRANCH   1   4
BRANCH   2  10
ATOM     10  C   UNL     1       0.757 -28.194  12.236  1.00  0.00     0.035 C 
BRANCH  10  11
ATOM     11  C   UNL     1       0.695 -28.697  10.787  1.00  0.00     0.079 C 
BRANCH  11  12
ATOM     12  C   UNL     1       1.332 -27.721   9.830  1.00  0.00     0.130 C 
ATOM     13  O   UNL     1       1.315 -27.956   8.632  1.00  0.00    -0.300 OA
ATOM     14  C   UNL     1       1.994 -26.467  10.319  1.00  0.00     0.087 C 
ENDBRANCH  11  12
ENDBRANCH  10  11
ENDBRANCH   2  10
TORSDOF 6
ENDMDL
