MODEL 1
REMARK VINA RESULT:    -3.268      0.000      0.000
REMARK INTER + INTRA:          -3.674
REMARK INTER:                  -3.650
REMARK INTRA:                  -0.025
REMARK UNBOUND:                -0.025
REMARK SMILES CC(C)CC=O
REMARK SMILES IDX 4 1 2 2 1 3 3 4 5 5 6 6
REMARK H PARENT
REMARK Flexibility Score: inf
ROOT
ATOM      1  C   UNL     1      24.085  56.912  -9.028  1.00  0.00     0.075 C 
ENDROOT
BRANCH   1   2
ATOM      2  C   UNL     1      24.215  55.421  -8.642  1.00  0.00    -0.010 C 
ATOM      3  C   UNL     1      25.633  55.058  -8.181  1.00  0.00     0.008 C 
ATOM      4  C   UNL     1      23.175  55.008  -7.592  1.00  0.00     0.008 C 
ENDBRANCH   1   2
BRANCH   1   5
ATOM      5  C   UNL     1      25.401  57.576  -9.326  1.00  0.00     0.224 C 
ATOM      6  O   UNL     1      25.465  58.783  -9.497  1.00  0.00    -0.303 OA
ENDBRANCH   1   5
TORSDOF 2
ENDMDL
MODEL 2
REMARK VINA RESULT:    -3.106     16.079     17.307
REMARK INTER + INTRA:          -3.494
REMARK INTER:                  -3.455
REMARK INTRA:                  -0.038
REMARK UNBOUND:                -0.025
REMARK SMILES CC(C)CC=O
REMARK SMILES IDX 4 1 2 2 1 3 3 4 5 5 6 6
REMARK H PARENT
REMARK Flexibility Score: inf
ROOT
ATOM      1  C   UNL     1      18.574  43.499   1.916  1.00  0.00     0.075 C 
ENDROOT
BRANCH   1   2
ATOM      2  C   UNL     1      19.789  43.969   1.085  1.00  0.00    -0.010 C 
ATOM      3  C   UNL     1      20.737  42.815   0.731  1.00  0.00     0.008 C 
ATOM      4  C   UNL     1      19.361  44.733  -0.174  1.00  0.00     0.008 C 
ENDBRANCH   1   2
BRANCH   1   5
ATOM      5  C   UNL     1      17.258  43.660   1.207  1.00  0.00     0.224 C 
ATOM      6  O   UNL     1      16.321  44.219   1.754  1.00  0.00    -0.303 OA
ENDBRANCH   1   5
TORSDOF 2
ENDMDL
MODEL 3
REMARK VINA RESULT:    -3.064      2.462      3.341
REMARK INTER + INTRA:          -3.447
REMARK INTER:                  -3.411
REMARK INTRA:                  -0.035
REMARK UNBOUND:                -0.025
REMARK SMILES CC(C)CC=O
REMARK SMILES IDX 4 1 2 2 1 3 3 4 5 5 6 6
REMARK H PARENT
REMARK Flexibility Score: inf
ROOT
ATOM      1  C   UNL     1      23.422  56.055  -8.676  1.00  0.00     0.075 C 
ENDROOT
BRANCH   1   2
ATOM      2  C   UNL     1      24.884  56.250  -9.136  1.00  0.00    -0.010 C 
ATOM      3  C   UNL     1      25.261  57.731  -9.272  1.00  0.00     0.008 C 
ATOM      4  C   UNL     1      25.875  55.513  -8.226  1.00  0.00     0.008 C 
ENDBRANCH   1   2
BRANCH   1   5
ATOM      5  C   UNL     1      23.270  55.073  -7.547  1.00  0.00     0.224 C 
ATOM      6  O   UNL     1      22.399  54.219  -7.578  1.00  0.00    -0.303 OA
ENDBRANCH   1   5
TORSDOF 2
ENDMDL
MODEL 4
REMARK VINA RESULT:    -3.061     16.665     17.463
REMARK INTER + INTRA:          -3.443
REMARK INTER:                  -3.372
REMARK INTRA:                  -0.071
REMARK UNBOUND:                -0.025
REMARK SMILES CC(C)CC=O
REMARK SMILES IDX 4 1 2 2 1 3 3 4 5 5 6 6
REMARK H PARENT
REMARK Flexibility Score: inf
ROOT
ATOM      1  C   UNL     1      14.723  42.369 -14.533  1.00  0.00     0.075 C 
ENDROOT
BRANCH   1   2
ATOM      2  C   UNL     1      14.936  43.736 -15.221  1.00  0.00    -0.010 C 
ATOM      3  C   UNL     1      14.537  44.913 -14.319  1.00  0.00     0.008 C 
ATOM      4  C   UNL     1      16.372  43.902 -15.734  1.00  0.00     0.008 C 
ENDBRANCH   1   2
BRANCH   1   5
ATOM      5  C   UNL     1      15.941  41.857 -13.816  1.00  0.00     0.224 C 
ATOM      6  O   UNL     1      16.082  42.042 -12.618  1.00  0.00    -0.303 OA
ENDBRANCH   1   5
TORSDOF 2
ENDMDL
MODEL 5
REMARK VINA RESULT:    -3.019     15.711     16.601
REMARK INTER + INTRA:          -3.397
REMARK INTER:                  -3.362
REMARK INTRA:                  -0.035
REMARK UNBOUND:                -0.025
REMARK SMILES CC(C)CC=O
REMARK SMILES IDX 4 1 2 2 1 3 3 4 5 5 6 6
REMARK H PARENT
REMARK Flexibility Score: inf
ROOT
ATOM      1  C   UNL     1      19.177  44.614  -0.206  1.00  0.00     0.075 C 
ENDROOT
BRANCH   1   2
ATOM      2  C   UNL     1      19.799  43.945   1.040  1.00  0.00    -0.010 C 
ATOM      3  C   UNL     1      18.737  43.491   2.051  1.00  0.00     0.008 C 
ATOM      4  C   UNL     1      20.729  42.784   0.664  1.00  0.00     0.008 C 
ENDBRANCH   1   2
BRANCH   1   5
ATOM      5  C   UNL     1      17.699  44.380  -0.343  1.00  0.00     0.224 C 
ATOM      6  O   UNL     1      16.961  45.268  -0.740  1.00  0.00    -0.303 OA
ENDBRANCH   1   5
TORSDOF 2
ENDMDL
MODEL 6
REMARK VINA RESULT:    -3.000     15.649     16.993
REMARK INTER + INTRA:          -3.375
REMARK INTER:                  -3.336
REMARK INTRA:                  -0.039
REMARK UNBOUND:                -0.025
REMARK SMILES CC(C)CC=O
REMARK SMILES IDX 4 1 2 2 1 3 3 4 5 5 6 6
REMARK H PARENT
REMARK Flexibility Score: inf
ROOT
ATOM      1  C   UNL     1      19.588  43.147   1.338  1.00  0.00     0.075 C 
ENDROOT
BRANCH   1   2
ATOM      2  C   UNL     1      18.765  43.738   0.171  1.00  0.00    -0.010 C 
ATOM      3  C   UNL     1      17.287  43.932   0.538  1.00  0.00     0.008 C 
ATOM      4  C   UNL     1      19.374  45.043  -0.356  1.00  0.00     0.008 C 
ENDBRANCH   1   2
BRANCH   1   5
ATOM      5  C   UNL     1      20.980  42.736   0.948  1.00  0.00     0.224 C 
ATOM      6  O   UNL     1      21.167  41.988   0.001  1.00  0.00    -0.303 OA
ENDBRANCH   1   5
TORSDOF 2
ENDMDL
MODEL 7
REMARK VINA RESULT:    -2.924     17.004     17.377
REMARK INTER + INTRA:          -3.291
REMARK INTER:                  -3.233
REMARK INTRA:                  -0.058
REMARK UNBOUND:                -0.025
REMARK SMILES CC(C)CC=O
REMARK SMILES IDX 4 1 2 2 1 3 3 4 5 5 6 6
REMARK H PARENT
REMARK Flexibility Score: inf
ROOT
ATOM      1  C   UNL     1      14.639  42.601 -14.955  1.00  0.00     0.075 C 
ENDROOT
BRANCH   1   2
ATOM      2  C   UNL     1      14.467  42.443 -13.427  1.00  0.00    -0.010 C 
ATOM      3  C   UNL     1      15.769  42.022 -12.733  1.00  0.00     0.008 C 
ATOM      4  C   UNL     1      13.886  43.708 -12.782  1.00  0.00     0.008 C 
ENDBRANCH   1   2
BRANCH   1   5
ATOM      5  C   UNL     1      15.348  43.865 -15.356  1.00  0.00     0.224 C 
ATOM      6  O   UNL     1      16.516  43.839 -15.709  1.00  0.00    -0.303 OA
ENDBRANCH   1   5
TORSDOF 2
ENDMDL
MODEL 8
REMARK VINA RESULT:    -2.884     16.091     17.366
REMARK INTER + INTRA:          -3.246
REMARK INTER:                  -3.177
REMARK INTRA:                  -0.069
REMARK UNBOUND:                -0.025
REMARK SMILES CC(C)CC=O
REMARK SMILES IDX 4 1 2 2 1 3 3 4 5 5 6 6
REMARK H PARENT
REMARK Flexibility Score: inf
ROOT
ATOM      1  C   UNL     1      18.286  42.767   1.021  1.00  0.00     0.075 C 
ENDROOT
BRANCH   1   2
ATOM      2  C   UNL     1      19.523  43.692   1.038  1.00  0.00    -0.010 C 
ATOM      3  C   UNL     1      20.841  42.906   1.025  1.00  0.00     0.008 C 
ATOM      4  C   UNL     1      19.487  44.719  -0.102  1.00  0.00     0.008 C 
ENDBRANCH   1   2
BRANCH   1   5
ATOM      5  C   UNL     1      17.793  42.443  -0.362  1.00  0.00     0.224 C 
ATOM      6  O   UNL     1      18.252  41.496  -0.981  1.00  0.00    -0.303 OA
ENDBRANCH   1   5
TORSDOF 2
ENDMDL
MODEL 9
REMARK VINA RESULT:    -2.792     15.634     16.903
REMARK INTER + INTRA:          -3.144
REMARK INTER:                  -3.104
REMARK INTRA:                  -0.039
REMARK UNBOUND:                -0.025
REMARK SMILES CC(C)CC=O
REMARK SMILES IDX 4 1 2 2 1 3 3 4 5 5 6 6
REMARK H PARENT
REMARK Flexibility Score: inf
ROOT
ATOM      1  C   UNL     1      19.242  42.540   0.013  1.00  0.00     0.075 C 
ENDROOT
BRANCH   1   2
ATOM      2  C   UNL     1      18.711  43.930   0.431  1.00  0.00    -0.010 C 
ATOM      3  C   UNL     1      19.232  45.052  -0.478  1.00  0.00     0.008 C 
ATOM      4  C   UNL     1      17.180  43.957   0.514  1.00  0.00     0.008 C 
ENDBRANCH   1   2
BRANCH   1   5
ATOM      5  C   UNL     1      20.730  42.391   0.167  1.00  0.00     0.224 C 
ATOM      6  O   UNL     1      21.282  42.690   1.214  1.00  0.00    -0.303 OA
ENDBRANCH   1   5
TORSDOF 2
ENDMDL
