MODEL 1
REMARK VINA RESULT:    -4.976      0.000      0.000
REMARK INTER + INTRA:          -7.370
REMARK INTER:                  -6.721
REMARK INTRA:                  -0.649
REMARK UNBOUND:                -0.649
REMARK SMILES CC(=O)CCC=C(C)CCC=C(C)C
REMARK SMILES IDX 7 1 6 2 8 3 9 4 10 5 11 6 13 7 12 8 14 9 5 10 4 11 2 12 3 13
REMARK SMILES IDX 1 14
REMARK H PARENT
REMARK Flexibility Score: inf
ROOT
ATOM      1  C   UNL     1       3.459   5.703 107.697  1.00  0.00    -0.077 C 
ATOM      2  C   UNL     1       4.572   5.268 108.330  1.00  0.00    -0.028 C 
ATOM      3  C   UNL     1       3.078   7.155 107.835  1.00  0.00     0.039 C 
ENDROOT
BRANCH   1   4
ATOM      4  C   UNL     1       2.616   4.813 106.803  1.00  0.00     0.034 C 
BRANCH   4   5
ATOM      5  C   UNL     1       2.510   5.407 105.394  1.00  0.00     0.032 C 
BRANCH   5   6
ATOM      6  C   UNL     1       3.838   5.357 104.678  1.00  0.00    -0.028 C 
ATOM      7  C   UNL     1       2.848   6.305 102.590  1.00  0.00     0.039 C 
ATOM      8  C   UNL     1       4.002   5.763 103.401  1.00  0.00    -0.080 C 
ATOM      9  C   UNL     1       5.372   5.672 102.781  1.00  0.00     0.039 C 
ENDBRANCH   5   6
ENDBRANCH   4   5
ENDBRANCH   1   4
BRANCH   2  10
ATOM     10  C   UNL     1       5.080   3.848 108.302  1.00  0.00     0.035 C 
BRANCH  10  11
ATOM     11  C   UNL     1       5.687   3.462 109.655  1.00  0.00     0.079 C 
BRANCH  11  12
ATOM     12  C   UNL     1       5.174   2.123 110.107  1.00  0.00     0.130 C 
ATOM     13  O   UNL     1       5.148   1.855 111.299  1.00  0.00    -0.300 OA
ATOM     14  C   UNL     1       4.719   1.106 109.105  1.00  0.00     0.087 C 
ENDBRANCH  11  12
ENDBRANCH  10  11
ENDBRANCH   2  10
TORSDOF 6
ENDMDL
MODEL 2
REMARK VINA RESULT:    -4.935      2.729      5.463
REMARK INTER + INTRA:          -7.315
REMARK INTER:                  -5.902
REMARK INTRA:                  -1.413
REMARK UNBOUND:                -0.649
REMARK SMILES CC(=O)CCC=C(C)CCC=C(C)C
REMARK SMILES IDX 7 1 6 2 8 3 9 4 10 5 11 6 13 7 12 8 14 9 5 10 4 11 2 12 3 13
REMARK SMILES IDX 1 14
REMARK H PARENT
REMARK Flexibility Score: inf
ROOT
ATOM      1  C   UNL     1       3.148   2.364 105.465  1.00  0.00    -0.077 C 
ATOM      2  C   UNL     1       3.769   3.463 104.980  1.00  0.00    -0.028 C 
ATOM      3  C   UNL     1       2.689   1.312 104.487  1.00  0.00     0.039 C 
ENDROOT
BRANCH   1   4
ATOM      4  C   UNL     1       2.952   2.113 106.948  1.00  0.00     0.034 C 
BRANCH   4   5
ATOM      5  C   UNL     1       4.076   1.229 107.499  1.00  0.00     0.032 C 
BRANCH   5   6
ATOM      6  C   UNL     1       4.790   1.903 108.645  1.00  0.00    -0.028 C 
ATOM      7  C   UNL     1       6.797   2.374 107.236  1.00  0.00     0.039 C 
ATOM      8  C   UNL     1       6.030   2.427 108.536  1.00  0.00    -0.080 C 
ATOM      9  C   UNL     1       6.651   3.080 109.743  1.00  0.00     0.039 C 
ENDBRANCH   5   6
ENDBRANCH   4   5
ENDBRANCH   1   4
BRANCH   2  10
ATOM     10  C   UNL     1       4.274   4.609 105.821  1.00  0.00     0.035 C 
BRANCH  10  11
ATOM     11  C   UNL     1       3.188   5.675 105.996  1.00  0.00     0.079 C 
BRANCH  11  12
ATOM     12  C   UNL     1       3.212   6.237 107.390  1.00  0.00     0.130 C 
ATOM     13  O   UNL     1       2.834   7.382 107.588  1.00  0.00    -0.300 OA
ATOM     14  C   UNL     1       3.721   5.413 108.533  1.00  0.00     0.087 C 
ENDBRANCH  11  12
ENDBRANCH  10  11
ENDBRANCH   2  10
TORSDOF 6
ENDMDL
MODEL 3
REMARK VINA RESULT:    -4.912      2.423      3.630
REMARK INTER + INTRA:          -7.284
REMARK INTER:                  -5.591
REMARK INTRA:                  -1.693
REMARK UNBOUND:                -0.649
REMARK SMILES CC(=O)CCC=C(C)CCC=C(C)C
REMARK SMILES IDX 7 1 6 2 8 3 9 4 10 5 11 6 13 7 12 8 14 9 5 10 4 11 2 12 3 13
REMARK SMILES IDX 1 14
REMARK H PARENT
REMARK Flexibility Score: inf
ROOT
ATOM      1  C   UNL     1       4.742   4.881 108.272  1.00  0.00    -0.077 C 
ATOM      2  C   UNL     1       4.910   4.394 109.523  1.00  0.00    -0.028 C 
ATOM      3  C   UNL     1       3.509   5.697 107.982  1.00  0.00     0.039 C 
ENDROOT
BRANCH   1   4
ATOM      4  C   UNL     1       5.768   4.697 107.171  1.00  0.00     0.034 C 
BRANCH   4   5
ATOM      5  C   UNL     1       5.205   3.819 106.048  1.00  0.00     0.032 C 
BRANCH   5   6
ATOM      6  C   UNL     1       5.351   2.352 106.375  1.00  0.00    -0.028 C 
ATOM      7  C   UNL     1       2.909   2.119 106.839  1.00  0.00     0.039 C 
ATOM      8  C   UNL     1       4.312   1.570 106.736  1.00  0.00    -0.080 C 
ATOM      9  C   UNL     1       4.569   0.117 107.040  1.00  0.00     0.039 C 
ENDBRANCH   5   6
ENDBRANCH   4   5
ENDBRANCH   1   4
BRANCH   2  10
ATOM     10  C   UNL     1       6.078   3.551 109.970  1.00  0.00     0.035 C 
BRANCH  10  11
ATOM     11  C   UNL     1       5.670   2.079 110.093  1.00  0.00     0.079 C 
BRANCH  11  12
ATOM     12  C   UNL     1       6.768   1.178 109.600  1.00  0.00     0.130 C 
ATOM     13  O   UNL     1       6.711  -0.022 109.819  1.00  0.00    -0.300 OA
ATOM     14  C   UNL     1       7.944   1.746 108.864  1.00  0.00     0.087 C 
ENDBRANCH  11  12
ENDBRANCH  10  11
ENDBRANCH   2  10
TORSDOF 6
ENDMDL
MODEL 4
REMARK VINA RESULT:    -4.905      2.927      6.104
REMARK INTER + INTRA:          -7.274
REMARK INTER:                  -5.868
REMARK INTRA:                  -1.405
REMARK UNBOUND:                -0.649
REMARK SMILES CC(=O)CCC=C(C)CCC=C(C)C
REMARK SMILES IDX 7 1 6 2 8 3 9 4 10 5 11 6 13 7 12 8 14 9 5 10 4 11 2 12 3 13
REMARK SMILES IDX 1 14
REMARK H PARENT
REMARK Flexibility Score: inf
ROOT
ATOM      1  C   UNL     1       4.643   1.048 107.268  1.00  0.00    -0.077 C 
ATOM      2  C   UNL     1       3.463   1.594 106.895  1.00  0.00    -0.028 C 
ATOM      3  C   UNL     1       4.622  -0.276 107.988  1.00  0.00     0.039 C 
ENDROOT
BRANCH   1   4
ATOM      4  C   UNL     1       5.984   1.673 106.935  1.00  0.00     0.034 C 
BRANCH   4   5
ATOM      5  C   UNL     1       6.678   2.172 108.207  1.00  0.00     0.032 C 
BRANCH   5   6
ATOM      6  C   UNL     1       5.975   3.382 108.775  1.00  0.00    -0.028 C 
ATOM      7  C   UNL     1       5.212   2.106 110.782  1.00  0.00     0.039 C 
ATOM      8  C   UNL     1       5.305   3.362 109.946  1.00  0.00    -0.080 C 
ATOM      9  C   UNL     1       4.640   4.627 110.423  1.00  0.00     0.039 C 
ENDBRANCH   5   6
ENDBRANCH   4   5
ENDBRANCH   1   4
BRANCH   2  10
ATOM     10  C   UNL     1       3.312   2.915 106.181  1.00  0.00     0.035 C 
BRANCH  10  11
ATOM     11  C   UNL     1       2.674   3.960 107.102  1.00  0.00     0.079 C 
BRANCH  11  12
ATOM     12  C   UNL     1       2.877   5.346 106.556  1.00  0.00     0.130 C 
ATOM     13  O   UNL     1       2.831   5.535 105.349  1.00  0.00    -0.300 OA
ATOM     14  C   UNL     1       3.163   6.492 107.478  1.00  0.00     0.087 C 
ENDBRANCH  11  12
ENDBRANCH  10  11
ENDBRANCH   2  10
TORSDOF 6
ENDMDL
MODEL 5
REMARK VINA RESULT:    -4.898      2.917      5.517
REMARK INTER + INTRA:          -7.265
REMARK INTER:                  -5.962
REMARK INTRA:                  -1.302
REMARK UNBOUND:                -0.649
REMARK SMILES CC(=O)CCC=C(C)CCC=C(C)C
REMARK SMILES IDX 7 1 6 2 8 3 9 4 10 5 11 6 13 7 12 8 14 9 5 10 4 11 2 12 3 13
REMARK SMILES IDX 1 14
REMARK H PARENT
REMARK Flexibility Score: inf
ROOT
ATOM      1  C   UNL     1       6.334   2.673 109.167  1.00  0.00    -0.077 C 
ATOM      2  C   UNL     1       6.061   3.846 108.552  1.00  0.00    -0.028 C 
ATOM      3  C   UNL     1       7.713   2.085 109.007  1.00  0.00     0.039 C 
ENDROOT
BRANCH   1   4
ATOM      4  C   UNL     1       5.339   1.957 110.060  1.00  0.00     0.034 C 
BRANCH   4   5
ATOM      5  C   UNL     1       4.822   0.684 109.381  1.00  0.00     0.032 C 
BRANCH   5   6
ATOM      6  C   UNL     1       3.866   1.011 108.260  1.00  0.00    -0.028 C 
ATOM      7  C   UNL     1       5.475   0.201 106.531  1.00  0.00     0.039 C 
ATOM      8  C   UNL     1       4.154   0.795 106.959  1.00  0.00    -0.080 C 
ATOM      9  C   UNL     1       3.126   1.157 105.918  1.00  0.00     0.039 C 
ENDBRANCH   5   6
ENDBRANCH   4   5
ENDBRANCH   1   4
BRANCH   2  10
ATOM     10  C   UNL     1       4.731   4.555 108.601  1.00  0.00     0.035 C 
BRANCH  10  11
ATOM     11  C   UNL     1       4.080   4.585 107.215  1.00  0.00     0.079 C 
BRANCH  11  12
ATOM     12  C   UNL     1       3.005   5.635 107.153  1.00  0.00     0.130 C 
ATOM     13  O   UNL     1       1.980   5.417 106.525  1.00  0.00    -0.300 OA
ATOM     14  C   UNL     1       3.193   6.956 107.836  1.00  0.00     0.087 C 
ENDBRANCH  11  12
ENDBRANCH  10  11
ENDBRANCH   2  10
TORSDOF 6
ENDMDL
MODEL 6
REMARK VINA RESULT:    -4.808      2.474      5.546
REMARK INTER + INTRA:          -7.143
REMARK INTER:                  -5.789
REMARK INTRA:                  -1.354
REMARK UNBOUND:                -0.649
REMARK SMILES CC(=O)CCC=C(C)CCC=C(C)C
REMARK SMILES IDX 7 1 6 2 8 3 9 4 10 5 11 6 13 7 12 8 14 9 5 10 4 11 2 12 3 13
REMARK SMILES IDX 1 14
REMARK H PARENT
REMARK Flexibility Score: inf
ROOT
ATOM      1  C   UNL     1       5.054   3.947 105.129  1.00  0.00    -0.077 C 
ATOM      2  C   UNL     1       3.705   3.899 105.206  1.00  0.00    -0.028 C 
ATOM      3  C   UNL     1       5.699   3.797 103.775  1.00  0.00     0.039 C 
ENDROOT
BRANCH   1   4
ATOM      4  C   UNL     1       5.941   4.209 106.332  1.00  0.00     0.034 C 
BRANCH   4   5
ATOM      5  C   UNL     1       6.459   2.891 106.918  1.00  0.00     0.032 C 
BRANCH   5   6
ATOM      6  C   UNL     1       6.338   2.877 108.423  1.00  0.00    -0.028 C 
ATOM      7  C   UNL     1       4.437   1.260 108.345  1.00  0.00     0.039 C 
ATOM      8  C   UNL     1       5.421   2.138 109.082  1.00  0.00    -0.080 C 
ATOM      9  C   UNL     1       5.387   2.196 110.587  1.00  0.00     0.039 C 
ENDBRANCH   5   6
ENDBRANCH   4   5
ENDBRANCH   1   4
BRANCH   2  10
ATOM     10  C   UNL     1       2.910   4.018 106.483  1.00  0.00     0.035 C 
BRANCH  10  11
ATOM     11  C   UNL     1       2.326   5.427 106.630  1.00  0.00     0.079 C 
BRANCH  11  12
ATOM     12  C   UNL     1       3.036   6.187 107.716  1.00  0.00     0.130 C 
ATOM     13  O   UNL     1       3.112   7.405 107.654  1.00  0.00    -0.300 OA
ATOM     14  C   UNL     1       3.672   5.459 108.862  1.00  0.00     0.087 C 
ENDBRANCH  11  12
ENDBRANCH  10  11
ENDBRANCH   2  10
TORSDOF 6
ENDMDL
MODEL 7
REMARK VINA RESULT:    -4.780      2.736      6.152
REMARK INTER + INTRA:          -7.105
REMARK INTER:                  -6.005
REMARK INTRA:                  -1.100
REMARK UNBOUND:                -0.649
REMARK SMILES CC(=O)CCC=C(C)CCC=C(C)C
REMARK SMILES IDX 7 1 6 2 8 3 9 4 10 5 11 6 13 7 12 8 14 9 5 10 4 11 2 12 3 13
REMARK SMILES IDX 1 14
REMARK H PARENT
REMARK Flexibility Score: inf
ROOT
ATOM      1  C   UNL     1       4.519   2.707 107.871  1.00  0.00    -0.077 C 
ATOM      2  C   UNL     1       4.561   3.204 106.614  1.00  0.00    -0.028 C 
ATOM      3  C   UNL     1       4.037   1.293 108.067  1.00  0.00     0.039 C 
ENDROOT
BRANCH   1   4
ATOM      4  C   UNL     1       4.998   3.486 109.082  1.00  0.00     0.034 C 
BRANCH   4   5
ATOM      5  C   UNL     1       5.960   2.641 109.923  1.00  0.00     0.032 C 
BRANCH   5   6
ATOM      6  C   UNL     1       7.328   2.575 109.288  1.00  0.00    -0.028 C 
ATOM      7  C   UNL     1       7.363   0.081 109.410  1.00  0.00     0.039 C 
ATOM      8  C   UNL     1       7.976   1.414 109.051  1.00  0.00    -0.080 C 
ATOM      9  C   UNL     1       9.339   1.462 108.411  1.00  0.00     0.039 C 
ENDBRANCH   5   6
ENDBRANCH   4   5
ENDBRANCH   1   4
BRANCH   2  10
ATOM     10  C   UNL     1       5.004   4.600 106.252  1.00  0.00     0.035 C 
BRANCH  10  11
ATOM     11  C   UNL     1       3.880   5.358 105.537  1.00  0.00     0.079 C 
BRANCH  11  12
ATOM     12  C   UNL     1       2.844   5.827 106.521  1.00  0.00     0.130 C 
ATOM     13  O   UNL     1       1.676   5.501 106.371  1.00  0.00    -0.300 OA
ATOM     14  C   UNL     1       3.230   6.711 107.667  1.00  0.00     0.087 C 
ENDBRANCH  11  12
ENDBRANCH  10  11
ENDBRANCH   2  10
TORSDOF 6
ENDMDL
MODEL 8
REMARK VINA RESULT:    -4.752      1.662      2.072
REMARK INTER + INTRA:          -7.067
REMARK INTER:                  -5.842
REMARK INTRA:                  -1.225
REMARK UNBOUND:                -0.649
REMARK SMILES CC(=O)CCC=C(C)CCC=C(C)C
REMARK SMILES IDX 7 1 6 2 8 3 9 4 10 5 11 6 13 7 12 8 14 9 5 10 4 11 2 12 3 13
REMARK SMILES IDX 1 14
REMARK H PARENT
REMARK Flexibility Score: inf
ROOT
ATOM      1  C   UNL     1       3.281   5.810 107.585  1.00  0.00    -0.077 C 
ATOM      2  C   UNL     1       4.265   5.177 108.263  1.00  0.00    -0.028 C 
ATOM      3  C   UNL     1       3.101   7.290 107.802  1.00  0.00     0.039 C 
ENDROOT
BRANCH   1   4
ATOM      4  C   UNL     1       2.397   5.110 106.570  1.00  0.00     0.034 C 
BRANCH   4   5
ATOM      5  C   UNL     1       3.000   5.215 105.165  1.00  0.00     0.032 C 
BRANCH   5   6
ATOM      6  C   UNL     1       3.457   3.866 104.664  1.00  0.00    -0.028 C 
ATOM      7  C   UNL     1       5.830   4.628 104.507  1.00  0.00     0.039 C 
ATOM      8  C   UNL     1       4.743   3.589 104.361  1.00  0.00    -0.080 C 
ATOM      9  C   UNL     1       5.092   2.208 103.870  1.00  0.00     0.039 C 
ENDBRANCH   5   6
ENDBRANCH   4   5
ENDBRANCH   1   4
BRANCH   2  10
ATOM     10  C   UNL     1       4.566   3.701 108.168  1.00  0.00     0.035 C 
BRANCH  10  11
ATOM     11  C   UNL     1       6.073   3.463 108.020  1.00  0.00     0.079 C 
BRANCH  11  12
ATOM     12  C   UNL     1       6.607   2.691 109.195  1.00  0.00     0.130 C 
ATOM     13  O   UNL     1       7.751   2.263 109.169  1.00  0.00    -0.300 OA
ATOM     14  C   UNL     1       5.739   2.421 110.386  1.00  0.00     0.087 C 
ENDBRANCH  11  12
ENDBRANCH  10  11
ENDBRANCH   2  10
TORSDOF 6
ENDMDL
MODEL 9
REMARK VINA RESULT:    -4.744      2.657      4.417
REMARK INTER + INTRA:          -7.056
REMARK INTER:                  -5.407
REMARK INTRA:                  -1.650
REMARK UNBOUND:                -0.649
REMARK SMILES CC(=O)CCC=C(C)CCC=C(C)C
REMARK SMILES IDX 7 1 6 2 8 3 9 4 10 5 11 6 13 7 12 8 14 9 5 10 4 11 2 12 3 13
REMARK SMILES IDX 1 14
REMARK H PARENT
REMARK Flexibility Score: inf
ROOT
ATOM      1  C   UNL     1       6.239   2.609 108.601  1.00  0.00    -0.077 C 
ATOM      2  C   UNL     1       5.873   3.789 109.152  1.00  0.00    -0.028 C 
ATOM      3  C   UNL     1       7.623   2.084 108.887  1.00  0.00     0.039 C 
ENDROOT
BRANCH   1   4
ATOM      4  C   UNL     1       5.298   1.761 107.766  1.00  0.00     0.034 C 
BRANCH   4   5
ATOM      5  C   UNL     1       5.796   1.669 106.319  1.00  0.00     0.032 C 
BRANCH   5   6
ATOM      6  C   UNL     1       5.128   2.701 105.443  1.00  0.00    -0.028 C 
ATOM      7  C   UNL     1       7.228   4.041 105.266  1.00  0.00     0.039 C 
ATOM      8  C   UNL     1       5.771   3.785 104.959  1.00  0.00    -0.080 C 
ATOM      9  C   UNL     1       5.009   4.753 104.092  1.00  0.00     0.039 C 
ENDBRANCH   5   6
ENDBRANCH   4   5
ENDBRANCH   1   4
BRANCH   2  10
ATOM     10  C   UNL     1       4.534   4.454 108.953  1.00  0.00     0.035 C 
BRANCH  10  11
ATOM     11  C   UNL     1       4.616   5.523 107.859  1.00  0.00     0.079 C 
BRANCH  11  12
ATOM     12  C   UNL     1       3.243   5.887 107.366  1.00  0.00     0.130 C 
ATOM     13  O   UNL     1       2.844   7.037 107.475  1.00  0.00    -0.300 OA
ATOM     14  C   UNL     1       2.350   4.844 106.764  1.00  0.00     0.087 C 
ENDBRANCH  11  12
ENDBRANCH  10  11
ENDBRANCH   2  10
TORSDOF 6
ENDMDL
