MODEL 1
REMARK VINA RESULT:    -4.979      0.000      0.000
REMARK INTER + INTRA:          -8.097
REMARK INTER:                  -7.598
REMARK INTRA:                  -0.499
REMARK UNBOUND:                -0.499
REMARK SMILES CC1=CCC[C@@H](C)C(=O)C[C@H](C(C)C)C(=O)C1
REMARK SMILES IDX 8 1 9 2 6 3 7 4 5 5 4 6 3 7 2 8 1 9 10 11 11 12 15 13 16 14
REMARK SMILES IDX 17 15 12 17 13 18 14 19
REMARK H PARENT
REMARK Flexibility Score: 70.00
ROOT
ATOM      1  C   UNL     1     119.122 176.452 128.786  1.00  0.00     0.136 C 
ATOM      2  O   UNL     1     120.113 175.765 128.994  1.00  0.00    -0.299 OA
ENDROOT
BRANCH   1   3
ATOM      3  C   UNL     1     117.766 175.901 129.218  1.00  0.00     0.053 C 
ATOM      4  C   UNL     1     117.760 175.490 130.703  1.00  0.00     0.016 C 
BRANCH   3   5
ATOM      5  C   UNL     1     117.110 174.820 128.317  1.00  0.00     0.015 C 
BRANCH   5   6
ATOM      6  C   UNL     1     117.124 175.004 126.785  1.00  0.00     0.028 C 
BRANCH   6   7
ATOM      7  C   UNL     1     116.207 176.068 126.235  1.00  0.00    -0.028 C 
ATOM      8  C   UNL     1     116.552 177.206 125.572  1.00  0.00    -0.070 CG0
ATOM      9  C   UNL     1     115.426 178.161 125.248  1.00  0.00     0.039 C 
ATOM     10  G   UNL     1     117.923 177.523 124.978  1.00  0.00     0.000 G0
ENDBRANCH   6   7
ENDBRANCH   5   6
ENDBRANCH   3   5
ENDBRANCH   1   3
BRANCH   1  11
ATOM     11  C   UNL     1     119.350 177.843 128.230  1.00  0.00     0.087 C 
BRANCH  11  12
ATOM     12  C   UNL     1     119.844 177.820 126.758  1.00  0.00     0.066 C 
BRANCH  12  13
ATOM     13  C   UNL     1     118.832 178.433 125.794  1.00  0.00     0.140 C 
ATOM     14  O   UNL     1     118.762 179.643 125.636  1.00  0.00    -0.299 OA
BRANCH  13  15
ATOM     15  C   UNL     1     117.932 177.544 124.977  1.00  0.00     0.106 CG0
ATOM     16  G   UNL     1     116.569 177.214 125.583  1.00  0.00     0.000 G0
ENDBRANCH  13  15
ENDBRANCH  12  13
BRANCH  12  17
ATOM     17  C   UNL     1     121.297 178.381 126.626  1.00  0.00    -0.006 C 
ATOM     18  C   UNL     1     122.262 177.481 125.832  1.00  0.00     0.008 C 
ATOM     19  C   UNL     1     121.899 178.748 127.992  1.00  0.00     0.008 C 
ENDBRANCH  12  17
ENDBRANCH  11  12
ENDBRANCH   1  11
TORSDOF 1
ENDMDL
MODEL 2
REMARK VINA RESULT:    -4.650      1.594      4.067
REMARK INTER + INTRA:          -7.596
REMARK INTER:                  -6.989
REMARK INTRA:                  -0.607
REMARK UNBOUND:                -0.499
REMARK SMILES CC1=CCC[C@@H](C)C(=O)C[C@H](C(C)C)C(=O)C1
REMARK SMILES IDX 8 1 9 2 6 3 7 4 5 5 4 6 3 7 2 8 1 9 10 11 11 12 15 13 16 14
REMARK SMILES IDX 17 15 12 17 13 18 14 19
REMARK H PARENT
REMARK Flexibility Score: 70.00
ROOT
ATOM      1  C   UNL     1     117.257 175.278 126.981  1.00  0.00     0.136 C 
ATOM      2  O   UNL     1     118.091 174.611 126.382  1.00  0.00    -0.299 OA
ENDROOT
BRANCH   1   3
ATOM      3  C   UNL     1     117.294 175.267 128.506  1.00  0.00     0.053 C 
ATOM      4  C   UNL     1     116.001 175.841 129.117  1.00  0.00     0.016 C 
BRANCH   3   5
ATOM      5  C   UNL     1     118.562 175.838 129.197  1.00  0.00     0.015 C 
BRANCH   5   6
ATOM      6  C   UNL     1     119.178 177.153 128.677  1.00  0.00     0.028 C 
BRANCH   6   7
ATOM      7  C   UNL     1     120.299 177.011 127.677  1.00  0.00    -0.028 C 
ATOM      8  C   UNL     1     120.323 177.438 126.385  1.00  0.00    -0.070 CG0
ATOM      9  C   UNL     1     121.534 177.044 125.571  1.00  0.00     0.039 C 
ATOM     10  G   UNL     1     119.340 178.413 125.740  1.00  0.00     0.000 G0
ENDBRANCH   6   7
ENDBRANCH   5   6
ENDBRANCH   3   5
ENDBRANCH   1   3
BRANCH   1  11
ATOM     11  C   UNL     1     116.341 176.151 126.147  1.00  0.00     0.087 C 
BRANCH  11  12
ATOM     12  C   UNL     1     116.831 177.622 126.072  1.00  0.00     0.066 C 
BRANCH  12  13
ATOM     13  C   UNL     1     118.061 177.782 125.181  1.00  0.00     0.140 C 
ATOM     14  O   UNL     1     118.035 177.458 124.003  1.00  0.00    -0.299 OA
BRANCH  13  15
ATOM     15  C   UNL     1     119.320 178.395 125.735  1.00  0.00     0.106 CG0
ATOM     16  G   UNL     1     120.331 177.431 126.354  1.00  0.00     0.000 G0
ENDBRANCH  13  15
ENDBRANCH  12  13
BRANCH  12  17
ATOM     17  C   UNL     1     115.660 178.608 125.753  1.00  0.00    -0.006 C 
ATOM     18  C   UNL     1     115.899 180.057 126.218  1.00  0.00     0.008 C 
ATOM     19  C   UNL     1     114.312 178.087 126.274  1.00  0.00     0.008 C 
ENDBRANCH  12  17
ENDBRANCH  11  12
ENDBRANCH   1  11
TORSDOF 1
ENDMDL
MODEL 3
REMARK VINA RESULT:    -4.568      1.708      3.944
REMARK INTER + INTRA:          -7.470
REMARK INTER:                  -7.074
REMARK INTRA:                  -0.396
REMARK UNBOUND:                -0.499
REMARK SMILES CC1=CCC[C@@H](C)C(=O)C[C@H](C(C)C)C(=O)C1
REMARK SMILES IDX 8 1 9 2 6 3 7 4 5 5 4 6 3 7 2 8 1 9 10 11 11 12 15 13 16 14
REMARK SMILES IDX 17 15 12 17 13 18 14 19
REMARK H PARENT
REMARK Flexibility Score: 70.00
ROOT
ATOM      1  C   UNL     1     120.519 177.363 125.549  1.00  0.00     0.136 C 
ATOM      2  O   UNL     1     121.608 177.502 125.007  1.00  0.00    -0.299 OA
ENDROOT
BRANCH   1   3
ATOM      3  C   UNL     1     119.314 178.062 124.925  1.00  0.00     0.053 C 
ATOM      4  C   UNL     1     119.469 178.221 123.401  1.00  0.00     0.016 C 
BRANCH   3   5
ATOM      5  C   UNL     1     118.818 179.372 125.595  1.00  0.00     0.015 C 
BRANCH   5   6
ATOM      6  C   UNL     1     117.410 179.412 126.224  1.00  0.00     0.028 C 
BRANCH   6   7
ATOM      7  C   UNL     1     116.550 178.191 126.006  1.00  0.00    -0.028 C 
ATOM      8  C   UNL     1     116.497 177.062 126.764  1.00  0.00    -0.070 CG0
ATOM      9  C   UNL     1     115.636 175.939 126.235  1.00  0.00     0.039 C 
ATOM     10  G   UNL     1     117.077 176.890 128.166  1.00  0.00     0.000 G0
ENDBRANCH   6   7
ENDBRANCH   5   6
ENDBRANCH   3   5
ENDBRANCH   1   3
BRANCH   1  11
ATOM     11  C   UNL     1     120.448 176.406 126.722  1.00  0.00     0.087 C 
BRANCH  11  12
ATOM     12  C   UNL     1     119.689 177.010 127.935  1.00  0.00     0.066 C 
BRANCH  12  13
ATOM     13  C   UNL     1     118.430 176.220 128.285  1.00  0.00     0.140 C 
ATOM     14  O   UNL     1     118.498 175.071 128.696  1.00  0.00    -0.299 OA
BRANCH  13  15
ATOM     15  C   UNL     1     117.076 176.871 128.179  1.00  0.00     0.106 CG0
ATOM     16  G   UNL     1     116.514 177.045 126.769  1.00  0.00     0.000 G0
ENDBRANCH  13  15
ENDBRANCH  12  13
BRANCH  12  17
ATOM     17  C   UNL     1     120.646 177.283 129.141  1.00  0.00    -0.006 C 
ATOM     18  C   UNL     1     119.934 177.680 130.446  1.00  0.00     0.008 C 
ATOM     19  C   UNL     1     121.739 178.304 128.787  1.00  0.00     0.008 C 
ENDBRANCH  12  17
ENDBRANCH  11  12
ENDBRANCH   1  11
TORSDOF 1
ENDMDL
MODEL 4
REMARK VINA RESULT:    -4.437      1.943      3.528
REMARK INTER + INTRA:          -7.271
REMARK INTER:                  -6.771
REMARK INTRA:                  -0.500
REMARK UNBOUND:                -0.499
REMARK SMILES CC1=CCC[C@@H](C)C(=O)C[C@H](C(C)C)C(=O)C1
REMARK SMILES IDX 8 1 9 2 6 3 7 4 5 5 4 6 3 7 2 8 1 9 10 11 11 12 15 13 16 14
REMARK SMILES IDX 17 15 12 17 13 18 14 19
REMARK H PARENT
REMARK Flexibility Score: 70.00
ROOT
ATOM      1  C   UNL     1     120.062 175.472 126.265  1.00  0.00     0.136 C 
ATOM      2  O   UNL     1     119.199 174.698 125.871  1.00  0.00    -0.299 OA
ENDROOT
BRANCH   1   3
ATOM      3  C   UNL     1     120.970 176.121 125.226  1.00  0.00     0.053 C 
ATOM      4  C   UNL     1     122.189 176.805 125.874  1.00  0.00     0.016 C 
BRANCH   3   5
ATOM      5  C   UNL     1     120.303 177.026 124.155  1.00  0.00     0.015 C 
BRANCH   5   6
ATOM      6  C   UNL     1     119.395 178.188 124.607  1.00  0.00     0.028 C 
BRANCH   6   7
ATOM      7  C   UNL     1     117.909 177.936 124.539  1.00  0.00    -0.028 C 
ATOM      8  C   UNL     1     117.029 177.847 125.573  1.00  0.00    -0.070 CG0
ATOM      9  C   UNL     1     115.613 177.455 125.219  1.00  0.00     0.039 C 
ATOM     10  G   UNL     1     117.291 178.270 127.018  1.00  0.00     0.000 G0
ENDBRANCH   6   7
ENDBRANCH   5   6
ENDBRANCH   3   5
ENDBRANCH   1   3
BRANCH   1  11
ATOM     11  C   UNL     1     120.065 175.808 127.743  1.00  0.00     0.087 C 
BRANCH  11  12
ATOM     12  C   UNL     1     119.469 177.212 128.033  1.00  0.00     0.066 C 
BRANCH  12  13
ATOM     13  C   UNL     1     117.947 177.235 127.912  1.00  0.00     0.140 C 
ATOM     14  O   UNL     1     117.250 176.464 128.553  1.00  0.00    -0.299 OA
BRANCH  13  15
ATOM     15  C   UNL     1     117.276 178.256 127.031  1.00  0.00     0.106 CG0
ATOM     16  G   UNL     1     117.026 177.844 125.581  1.00  0.00     0.000 G0
ENDBRANCH  13  15
ENDBRANCH  12  13
BRANCH  12  17
ATOM     17  C   UNL     1     120.029 177.816 129.363  1.00  0.00    -0.006 C 
ATOM     18  C   UNL     1     121.514 178.216 129.308  1.00  0.00     0.008 C 
ATOM     19  C   UNL     1     119.757 176.902 130.568  1.00  0.00     0.008 C 
ENDBRANCH  12  17
ENDBRANCH  11  12
ENDBRANCH   1  11
TORSDOF 1
ENDMDL
MODEL 5
REMARK VINA RESULT:    -4.385      2.050      4.778
REMARK INTER + INTRA:          -7.191
REMARK INTER:                  -7.166
REMARK INTRA:                  -0.025
REMARK UNBOUND:                -0.499
REMARK SMILES CC1=CCC[C@@H](C)C(=O)C[C@H](C(C)C)C(=O)C1
REMARK SMILES IDX 8 1 9 2 6 3 7 4 5 5 4 6 3 7 2 8 1 9 10 11 11 12 15 13 16 14
REMARK SMILES IDX 17 15 12 17 13 18 14 19
REMARK H PARENT
REMARK Flexibility Score: 70.00
ROOT
ATOM      1  C   UNL     1     116.338 176.519 126.369  1.00  0.00     0.136 C 
ATOM      2  O   UNL     1     115.969 175.452 125.895  1.00  0.00    -0.299 OA
ENDROOT
BRANCH   1   3
ATOM      3  C   UNL     1     116.562 177.687 125.412  1.00  0.00     0.053 C 
ATOM      4  C   UNL     1     115.374 177.877 124.450  1.00  0.00     0.016 C 
BRANCH   3   5
ATOM      5  C   UNL     1     117.924 177.755 124.669  1.00  0.00     0.015 C 
BRANCH   5   6
ATOM      6  C   UNL     1     119.001 176.691 124.966  1.00  0.00     0.028 C 
BRANCH   6   7
ATOM      7  C   UNL     1     120.358 177.212 125.366  1.00  0.00    -0.028 C 
ATOM      8  C   UNL     1     120.856 177.366 126.624  1.00  0.00    -0.070 CG0
ATOM      9  C   UNL     1     122.205 178.037 126.735  1.00  0.00     0.039 C 
ATOM     10  G   UNL     1     120.268 176.775 127.904  1.00  0.00     0.000 G0
ENDBRANCH   6   7
ENDBRANCH   5   6
ENDBRANCH   3   5
ENDBRANCH   1   3
BRANCH   1  11
ATOM     11  C   UNL     1     116.418 176.614 127.879  1.00  0.00     0.087 C 
BRANCH  11  12
ATOM     12  C   UNL     1     117.783 176.124 128.433  1.00  0.00     0.066 C 
BRANCH  12  13
ATOM     13  C   UNL     1     118.880 177.178 128.295  1.00  0.00     0.140 C 
ATOM     14  O   UNL     1     118.654 178.358 128.517  1.00  0.00    -0.299 OA
BRANCH  13  15
ATOM     15  C   UNL     1     120.281 176.765 127.931  1.00  0.00     0.106 CG0
ATOM     16  G   UNL     1     120.849 177.350 126.639  1.00  0.00     0.000 G0
ENDBRANCH  13  15
ENDBRANCH  12  13
BRANCH  12  17
ATOM     17  C   UNL     1     117.642 175.511 129.864  1.00  0.00    -0.006 C 
ATOM     18  C   UNL     1     118.741 175.938 130.855  1.00  0.00     0.008 C 
ATOM     19  C   UNL     1     117.513 173.980 129.824  1.00  0.00     0.008 C 
ENDBRANCH  12  17
ENDBRANCH  11  12
ENDBRANCH   1  11
TORSDOF 1
ENDMDL
MODEL 6
REMARK VINA RESULT:    -4.323      6.630      9.799
REMARK INTER + INTRA:          -7.097
REMARK INTER:                  -6.805
REMARK INTRA:                  -0.292
REMARK UNBOUND:                -0.499
REMARK SMILES CC1=CCC[C@@H](C)C(=O)C[C@H](C(C)C)C(=O)C1
REMARK SMILES IDX 8 1 9 2 6 3 7 4 5 5 4 6 3 7 2 8 1 9 10 11 11 12 15 13 16 14
REMARK SMILES IDX 17 15 12 17 13 18 14 19
REMARK H PARENT
REMARK Flexibility Score: 70.00
ROOT
ATOM      1  C   UNL     1     123.114 177.410 120.845  1.00  0.00     0.136 C 
ATOM      2  O   UNL     1     121.940 177.544 121.166  1.00  0.00    -0.299 OA
ENDROOT
BRANCH   1   3
ATOM      3  C   UNL     1     123.470 177.529 119.366  1.00  0.00     0.053 C 
ATOM      4  C   UNL     1     122.776 176.445 118.520  1.00  0.00     0.016 C 
BRANCH   3   5
ATOM      5  C   UNL     1     124.971 177.676 118.999  1.00  0.00     0.015 C 
BRANCH   5   6
ATOM      6  C   UNL     1     125.725 176.468 118.406  1.00  0.00     0.028 C 
BRANCH   6   7
ATOM      7  C   UNL     1     126.857 175.918 119.238  1.00  0.00    -0.028 C 
ATOM      8  C   UNL     1     126.774 175.234 120.412  1.00  0.00    -0.070 CG0
ATOM      9  C   UNL     1     128.083 174.915 121.098  1.00  0.00     0.039 C 
ATOM     10  G   UNL     1     125.511 174.615 121.007  1.00  0.00     0.000 G0
ENDBRANCH   6   7
ENDBRANCH   5   6
ENDBRANCH   3   5
ENDBRANCH   1   3
BRANCH   1  11
ATOM     11  C   UNL     1     124.124 177.261 121.965  1.00  0.00     0.087 C 
BRANCH  11  12
ATOM     12  C   UNL     1     123.991 175.903 122.707  1.00  0.00     0.066 C 
BRANCH  12  13
ATOM     13  C   UNL     1     125.163 174.966 122.420  1.00  0.00     0.140 C 
ATOM     14  O   UNL     1     125.808 174.464 123.328  1.00  0.00    -0.299 OA
BRANCH  13  15
ATOM     15  C   UNL     1     125.509 174.604 121.000  1.00  0.00     0.106 CG0
ATOM     16  G   UNL     1     126.779 175.231 120.428  1.00  0.00     0.000 G0
ENDBRANCH  13  15
ENDBRANCH  12  13
BRANCH  12  17
ATOM     17  C   UNL     1     123.667 176.100 124.224  1.00  0.00    -0.006 C 
ATOM     18  C   UNL     1     122.171 176.013 124.575  1.00  0.00     0.008 C 
ATOM     19  C   UNL     1     124.280 177.395 124.780  1.00  0.00     0.008 C 
ENDBRANCH  12  17
ENDBRANCH  11  12
ENDBRANCH   1  11
TORSDOF 1
ENDMDL
MODEL 7
REMARK VINA RESULT:    -4.276      2.492      4.804
REMARK INTER + INTRA:          -7.024
REMARK INTER:                  -6.979
REMARK INTRA:                  -0.045
REMARK UNBOUND:                -0.499
REMARK SMILES CC1=CCC[C@@H](C)C(=O)C[C@H](C(C)C)C(=O)C1
REMARK SMILES IDX 8 1 9 2 6 3 7 4 5 5 4 6 3 7 2 8 1 9 10 11 11 12 15 13 16 14
REMARK SMILES IDX 17 15 12 17 13 18 14 19
REMARK H PARENT
REMARK Flexibility Score: 70.00
ROOT
ATOM      1  C   UNL     1     120.021 176.886 124.772  1.00  0.00     0.136 C 
ATOM      2  O   UNL     1     121.192 177.226 124.885  1.00  0.00    -0.299 OA
ENDROOT
BRANCH   1   3
ATOM      3  C   UNL     1     119.006 177.946 124.357  1.00  0.00     0.053 C 
ATOM      4  C   UNL     1     119.308 178.514 122.957  1.00  0.00     0.016 C 
BRANCH   3   5
ATOM      5  C   UNL     1     118.682 179.070 125.379  1.00  0.00     0.015 C 
BRANCH   5   6
ATOM      6  C   UNL     1     117.855 178.732 126.636  1.00  0.00     0.028 C 
BRANCH   6   7
ATOM      7  C   UNL     1     118.640 178.317 127.856  1.00  0.00    -0.028 C 
ATOM      8  C   UNL     1     118.497 177.183 128.595  1.00  0.00    -0.070 CG0
ATOM      9  C   UNL     1     119.335 177.088 129.848  1.00  0.00     0.039 C 
ATOM     10  G   UNL     1     117.712 175.937 128.189  1.00  0.00     0.000 G0
ENDBRANCH   6   7
ENDBRANCH   5   6
ENDBRANCH   3   5
ENDBRANCH   1   3
BRANCH   1  11
ATOM     11  C   UNL     1     119.711 175.412 124.936  1.00  0.00     0.087 C 
BRANCH  11  12
ATOM     12  C   UNL     1     119.420 175.027 126.412  1.00  0.00     0.066 C 
BRANCH  12  13
ATOM     13  C   UNL     1     117.990 175.363 126.830  1.00  0.00     0.140 C 
ATOM     14  O   UNL     1     117.045 175.141 126.087  1.00  0.00    -0.299 OA
BRANCH  13  15
ATOM     15  C   UNL     1     117.717 175.929 128.198  1.00  0.00     0.106 CG0
ATOM     16  G   UNL     1     118.505 177.178 128.588  1.00  0.00     0.000 G0
ENDBRANCH  13  15
ENDBRANCH  12  13
BRANCH  12  17
ATOM     17  C   UNL     1     119.867 173.563 126.728  1.00  0.00    -0.006 C 
ATOM     18  C   UNL     1     119.002 172.473 126.068  1.00  0.00     0.008 C 
ATOM     19  C   UNL     1     119.992 173.314 128.240  1.00  0.00     0.008 C 
ENDBRANCH  12  17
ENDBRANCH  11  12
ENDBRANCH   1  11
TORSDOF 1
ENDMDL
MODEL 8
REMARK VINA RESULT:    -4.256      2.168      4.192
REMARK INTER + INTRA:          -6.995
REMARK INTER:                  -6.858
REMARK INTRA:                  -0.137
REMARK UNBOUND:                -0.499
REMARK SMILES CC1=CCC[C@@H](C)C(=O)C[C@H](C(C)C)C(=O)C1
REMARK SMILES IDX 8 1 9 2 6 3 7 4 5 5 4 6 3 7 2 8 1 9 10 11 11 12 15 13 16 14
REMARK SMILES IDX 17 15 12 17 13 18 14 19
REMARK H PARENT
REMARK Flexibility Score: 70.00
ROOT
ATOM      1  C   UNL     1     119.236 177.729 124.208  1.00  0.00     0.136 C 
ATOM      2  O   UNL     1     119.421 178.313 123.148  1.00  0.00    -0.299 OA
ENDROOT
BRANCH   1   3
ATOM      3  C   UNL     1     117.955 178.033 124.979  1.00  0.00     0.053 C 
ATOM      4  C   UNL     1     118.111 179.267 125.889  1.00  0.00     0.016 C 
BRANCH   3   5
ATOM      5  C   UNL     1     117.264 176.855 125.717  1.00  0.00     0.015 C 
BRANCH   5   6
ATOM      6  C   UNL     1     117.238 176.842 127.260  1.00  0.00     0.028 C 
BRANCH   6   7
ATOM      7  C   UNL     1     117.185 175.482 127.912  1.00  0.00    -0.028 C 
ATOM      8  C   UNL     1     118.218 174.625 128.138  1.00  0.00    -0.070 CG0
ATOM      9  C   UNL     1     117.854 173.268 128.694  1.00  0.00     0.039 C 
ATOM     10  G   UNL     1     119.705 174.962 128.049  1.00  0.00     0.000 G0
ENDBRANCH   6   7
ENDBRANCH   5   6
ENDBRANCH   3   5
ENDBRANCH   1   3
BRANCH   1  11
ATOM     11  C   UNL     1     120.242 176.664 124.595  1.00  0.00     0.087 C 
BRANCH  11  12
ATOM     12  C   UNL     1     120.459 176.582 126.130  1.00  0.00     0.066 C 
BRANCH  12  13
ATOM     13  C   UNL     1     120.271 175.167 126.670  1.00  0.00     0.140 C 
ATOM     14  O   UNL     1     120.602 174.190 126.015  1.00  0.00    -0.299 OA
BRANCH  13  15
ATOM     15  C   UNL     1     119.717 174.955 128.054  1.00  0.00     0.106 CG0
ATOM     16  G   UNL     1     118.226 174.636 128.149  1.00  0.00     0.000 G0
ENDBRANCH  13  15
ENDBRANCH  12  13
BRANCH  12  17
ATOM     17  C   UNL     1     121.792 177.276 126.564  1.00  0.00    -0.006 C 
ATOM     18  C   UNL     1     121.611 178.666 127.202  1.00  0.00     0.008 C 
ATOM     19  C   UNL     1     122.811 177.335 125.416  1.00  0.00     0.008 C 
ENDBRANCH  12  17
ENDBRANCH  11  12
ENDBRANCH   1  11
TORSDOF 1
ENDMDL
MODEL 9
REMARK VINA RESULT:    -4.043      2.200      4.862
REMARK INTER + INTRA:          -6.670
REMARK INTER:                  -6.261
REMARK INTRA:                  -0.409
REMARK UNBOUND:                -0.499
REMARK SMILES CC1=CCC[C@@H](C)C(=O)C[C@H](C(C)C)C(=O)C1
REMARK SMILES IDX 8 1 9 2 6 3 7 4 5 5 4 6 3 7 2 8 1 9 10 11 11 12 15 13 16 14
REMARK SMILES IDX 17 15 12 17 13 18 14 19
REMARK H PARENT
REMARK Flexibility Score: 70.00
ROOT
ATOM      1  C   UNL     1     116.450 176.133 126.832  1.00  0.00     0.136 C 
ATOM      2  O   UNL     1     115.931 175.586 125.868  1.00  0.00    -0.299 OA
ENDROOT
BRANCH   1   3
ATOM      3  C   UNL     1     116.071 177.582 127.124  1.00  0.00     0.053 C 
ATOM      4  C   UNL     1     114.607 177.879 126.747  1.00  0.00     0.016 C 
BRANCH   3   5
ATOM      5  C   UNL     1     117.034 178.691 126.621  1.00  0.00     0.015 C 
BRANCH   5   6
ATOM      6  C   UNL     1     118.134 178.331 125.602  1.00  0.00     0.028 C 
BRANCH   6   7
ATOM      7  C   UNL     1     119.545 178.288 126.135  1.00  0.00    -0.028 C 
ATOM      8  C   UNL     1     120.326 177.192 126.341  1.00  0.00    -0.070 CG0
ATOM      9  C   UNL     1     121.659 177.434 127.010  1.00  0.00     0.039 C 
ATOM     10  G   UNL     1     120.063 175.785 125.808  1.00  0.00     0.000 G0
ENDBRANCH   6   7
ENDBRANCH   5   6
ENDBRANCH   3   5
ENDBRANCH   1   3
BRANCH   1  11
ATOM     11  C   UNL     1     117.330 175.277 127.721  1.00  0.00     0.087 C 
BRANCH  11  12
ATOM     12  C   UNL     1     118.208 174.287 126.908  1.00  0.00     0.066 C 
BRANCH  12  13
ATOM     13  C   UNL     1     119.664 174.739 126.818  1.00  0.00     0.140 C 
ATOM     14  O   UNL     1     120.526 174.240 127.526  1.00  0.00    -0.299 OA
BRANCH  13  15
ATOM     15  C   UNL     1     120.070 175.779 125.808  1.00  0.00     0.106 CG0
ATOM     16  G   UNL     1     120.325 177.186 126.345  1.00  0.00     0.000 G0
ENDBRANCH  13  15
ENDBRANCH  12  13
BRANCH  12  17
ATOM     17  C   UNL     1     118.010 172.811 127.385  1.00  0.00    -0.006 C 
ATOM     18  C   UNL     1     117.113 171.958 126.469  1.00  0.00     0.008 C 
ATOM     19  C   UNL     1     117.525 172.736 128.841  1.00  0.00     0.008 C 
ENDBRANCH  12  17
ENDBRANCH  11  12
ENDBRANCH   1  11
TORSDOF 1
ENDMDL
