MODEL 1
REMARK VINA RESULT:    -6.010      0.000      0.000
REMARK INTER + INTRA:          -7.356
REMARK INTER:                  -7.064
REMARK INTRA:                  -0.293
REMARK UNBOUND:                -0.293
REMARK SMILES O=c1c(O)c(-c2ccc(O)c(O)c2)oc2cc(O)ccc12
REMARK SMILES IDX 5 1 3 2 2 3 1 4 21 5 15 6 14 7 16 8 17 9 19 10 20 11 6 12
REMARK SMILES IDX 7 13 8 14 9 15 13 16 11 17 10 18 12 20 4 22 18 24
REMARK H PARENT 10 19 12 21 4 23 18 25
REMARK Flexibility Score: inf
ROOT
ATOM      1  C   UNL     1     -12.017 -32.433  34.600  1.00  0.00     0.180 A 
ATOM      2  C   UNL     1     -13.392 -32.520  34.297  1.00  0.00     0.208 A 
ATOM      3  C   UNL     1     -13.802 -33.363  33.253  1.00  0.00     0.235 A 
ATOM      4  O   UNL     1     -15.025 -33.449  32.955  1.00  0.00    -0.285 OA
ATOM      5  C   UNL     1     -12.843 -34.111  32.552  1.00  0.00     0.069 A 
ATOM      6  C   UNL     1     -11.489 -33.986  32.932  1.00  0.00     0.142 A 
ATOM      7  O   UNL     1     -11.142 -33.170  33.921  1.00  0.00    -0.452 OA
ATOM      8  C   UNL     1     -10.504 -34.722  32.264  1.00  0.00     0.094 A 
ATOM      9  C   UNL     1     -10.856 -35.584  31.216  1.00  0.00     0.119 A 
ATOM     10  C   UNL     1     -12.197 -35.707  30.837  1.00  0.00     0.047 A 
ATOM     11  C   UNL     1     -13.189 -34.977  31.498  1.00  0.00     0.020 A 
ENDROOT
BRANCH   1  12
ATOM     12  C   UNL     1     -11.503 -31.553  35.674  1.00  0.00     0.025 A 
ATOM     13  C   UNL     1     -11.529 -32.000  37.005  1.00  0.00     0.016 A 
ATOM     14  C   UNL     1     -11.030 -31.195  38.031  1.00  0.00     0.051 A 
ATOM     15  C   UNL     1     -10.484 -29.940  37.745  1.00  0.00     0.157 A 
ATOM     16  C   UNL     1     -10.935 -30.299  35.385  1.00  0.00     0.062 A 
ATOM     17  C   UNL     1     -10.431 -29.490  36.415  1.00  0.00     0.158 A 
BRANCH  15  18
ATOM     18  O   UNL     1      -9.996 -29.158  38.791  1.00  0.00    -0.504 OA
ATOM     19  H   UNL     1      -9.923 -29.512  39.737  1.00  0.00     0.293 HD
ENDBRANCH  15  18
BRANCH  17  20
ATOM     20  O   UNL     1      -9.875 -28.246  36.120  1.00  0.00    -0.504 OA
ATOM     21  H   UNL     1      -9.781 -27.525  36.827  1.00  0.00     0.293 HD
ENDBRANCH  17  20
ENDBRANCH   1  12
BRANCH   2  22
ATOM     22  O   UNL     1     -14.328 -31.801  35.045  1.00  0.00    -0.502 OA
ATOM     23  H   UNL     1     -14.060 -31.195  35.811  1.00  0.00     0.293 HD
ENDBRANCH   2  22
BRANCH   9  24
ATOM     24  O   UNL     1      -9.882 -36.321  30.545  1.00  0.00    -0.508 OA
ATOM     25  H   UNL     1      -9.537 -37.199  30.913  1.00  0.00     0.293 HD
ENDBRANCH   9  24
TORSDOF 5
ENDMDL
MODEL 2
REMARK VINA RESULT:    -5.394      2.480      4.068
REMARK INTER + INTRA:          -6.632
REMARK INTER:                  -6.720
REMARK INTRA:                   0.088
REMARK UNBOUND:                -0.293
REMARK SMILES O=c1c(O)c(-c2ccc(O)c(O)c2)oc2cc(O)ccc12
REMARK SMILES IDX 5 1 3 2 2 3 1 4 21 5 15 6 14 7 16 8 17 9 19 10 20 11 6 12
REMARK SMILES IDX 7 13 8 14 9 15 13 16 11 17 10 18 12 20 4 22 18 24
REMARK H PARENT 10 19 12 21 4 23 18 25
REMARK Flexibility Score: inf
ROOT
ATOM      1  C   UNL     1     -11.753 -33.829  32.120  1.00  0.00     0.180 A 
ATOM      2  C   UNL     1     -10.847 -34.897  31.960  1.00  0.00     0.208 A 
ATOM      3  C   UNL     1     -10.754 -35.524  30.708  1.00  0.00     0.235 A 
ATOM      4  O   UNL     1      -9.960 -36.490  30.543  1.00  0.00    -0.285 OA
ATOM      5  C   UNL     1     -11.546 -35.061  29.644  1.00  0.00     0.069 A 
ATOM      6  C   UNL     1     -12.410 -33.970  29.878  1.00  0.00     0.142 A 
ATOM      7  O   UNL     1     -12.474 -33.411  31.082  1.00  0.00    -0.452 OA
ATOM      8  C   UNL     1     -13.207 -33.474  28.842  1.00  0.00     0.094 A 
ATOM      9  C   UNL     1     -13.153 -34.058  27.569  1.00  0.00     0.119 A 
ATOM     10  C   UNL     1     -12.298 -35.140  27.335  1.00  0.00     0.047 A 
ATOM     11  C   UNL     1     -11.496 -35.643  28.364  1.00  0.00     0.020 A 
ENDROOT
BRANCH   1  12
ATOM     12  C   UNL     1     -11.922 -33.128  33.413  1.00  0.00     0.025 A 
ATOM     13  C   UNL     1     -13.214 -32.892  33.908  1.00  0.00     0.016 A 
ATOM     14  C   UNL     1     -13.396 -32.251  35.135  1.00  0.00     0.051 A 
ATOM     15  C   UNL     1     -12.292 -31.849  35.894  1.00  0.00     0.157 A 
ATOM     16  C   UNL     1     -10.813 -32.742  34.188  1.00  0.00     0.062 A 
ATOM     17  C   UNL     1     -10.993 -32.100  35.422  1.00  0.00     0.158 A 
BRANCH  15  18
ATOM     18  O   UNL     1     -12.506 -31.210  37.115  1.00  0.00    -0.504 OA
ATOM     19  H   UNL     1     -13.436 -30.998  37.455  1.00  0.00     0.293 HD
ENDBRANCH  15  18
BRANCH  17  20
ATOM     20  O   UNL     1      -9.888 -31.715  36.180  1.00  0.00    -0.504 OA
ATOM     21  H   UNL     1      -9.057 -32.292  36.238  1.00  0.00     0.293 HD
ENDBRANCH  17  20
ENDBRANCH   1  12
BRANCH   2  22
ATOM     22  O   UNL     1     -10.037 -35.303  33.023  1.00  0.00    -0.502 OA
ATOM     23  H   UNL     1      -9.074 -35.002  33.117  1.00  0.00     0.293 HD
ENDBRANCH   2  22
BRANCH   9  24
ATOM     24  O   UNL     1     -13.944 -33.570  26.530  1.00  0.00    -0.508 OA
ATOM     25  H   UNL     1     -13.640 -33.623  25.565  1.00  0.00     0.293 HD
ENDBRANCH   9  24
TORSDOF 5
ENDMDL
MODEL 3
REMARK VINA RESULT:    -5.348      2.021      7.019
REMARK INTER + INTRA:          -6.578
REMARK INTER:                  -6.274
REMARK INTRA:                  -0.304
REMARK UNBOUND:                -0.293
REMARK SMILES O=c1c(O)c(-c2ccc(O)c(O)c2)oc2cc(O)ccc12
REMARK SMILES IDX 5 1 3 2 2 3 1 4 21 5 15 6 14 7 16 8 17 9 19 10 20 11 6 12
REMARK SMILES IDX 7 13 8 14 9 15 13 16 11 17 10 18 12 20 4 22 18 24
REMARK H PARENT 10 19 12 21 4 23 18 25
REMARK Flexibility Score: inf
ROOT
ATOM      1  C   UNL     1     -13.380 -34.300  32.545  1.00  0.00     0.180 A 
ATOM      2  C   UNL     1     -14.627 -33.726  32.868  1.00  0.00     0.208 A 
ATOM      3  C   UNL     1     -14.680 -32.739  33.864  1.00  0.00     0.235 A 
ATOM      4  O   UNL     1     -15.785 -32.219  34.180  1.00  0.00    -0.285 OA
ATOM      5  C   UNL     1     -13.494 -32.334  34.498  1.00  0.00     0.069 A 
ATOM      6  C   UNL     1     -12.282 -32.940  34.101  1.00  0.00     0.142 A 
ATOM      7  O   UNL     1     -12.278 -33.877  33.159  1.00  0.00    -0.452 OA
ATOM      8  C   UNL     1     -11.079 -32.556  34.702  1.00  0.00     0.094 A 
ATOM      9  C   UNL     1     -11.070 -31.572  35.699  1.00  0.00     0.119 A 
ATOM     10  C   UNL     1     -12.269 -30.972  36.096  1.00  0.00     0.047 A 
ATOM     11  C   UNL     1     -13.478 -31.347  35.501  1.00  0.00     0.020 A 
ENDROOT
BRANCH   1  12
ATOM     12  C   UNL     1     -13.244 -35.358  31.519  1.00  0.00     0.025 A 
ATOM     13  C   UNL     1     -13.270 -36.706  31.908  1.00  0.00     0.016 A 
ATOM     14  C   UNL     1     -13.164 -37.721  30.954  1.00  0.00     0.051 A 
ATOM     15  C   UNL     1     -13.045 -37.406  29.597  1.00  0.00     0.157 A 
ATOM     16  C   UNL     1     -13.145 -35.044  30.151  1.00  0.00     0.062 A 
ATOM     17  C   UNL     1     -13.040 -36.062  29.191  1.00  0.00     0.158 A 
BRANCH  15  18
ATOM     18  O   UNL     1     -12.939 -38.441  28.668  1.00  0.00    -0.504 OA
ATOM     19  H   UNL     1     -13.656 -39.149  28.568  1.00  0.00     0.293 HD
ENDBRANCH  15  18
BRANCH  17  20
ATOM     20  O   UNL     1     -12.936 -35.741  27.838  1.00  0.00    -0.504 OA
ATOM     21  H   UNL     1     -12.116 -35.277  27.464  1.00  0.00     0.293 HD
ENDBRANCH  17  20
ENDBRANCH   1  12
BRANCH   2  22
ATOM     22  O   UNL     1     -15.783 -34.114  32.186  1.00  0.00    -0.502 OA
ATOM     23  H   UNL     1     -16.161 -33.581  31.412  1.00  0.00     0.293 HD
ENDBRANCH   2  22
BRANCH   9  24
ATOM     24  O   UNL     1      -9.876 -31.184  36.303  1.00  0.00    -0.508 OA
ATOM     25  H   UNL     1      -8.977 -31.428  35.904  1.00  0.00     0.293 HD
ENDBRANCH   9  24
TORSDOF 5
ENDMDL
MODEL 4
REMARK VINA RESULT:    -5.080      1.923      7.014
REMARK INTER + INTRA:          -6.263
REMARK INTER:                  -5.943
REMARK INTRA:                  -0.321
REMARK UNBOUND:                -0.293
REMARK SMILES O=c1c(O)c(-c2ccc(O)c(O)c2)oc2cc(O)ccc12
REMARK SMILES IDX 5 1 3 2 2 3 1 4 21 5 15 6 14 7 16 8 17 9 19 10 20 11 6 12
REMARK SMILES IDX 7 13 8 14 9 15 13 16 11 17 10 18 12 20 4 22 18 24
REMARK H PARENT 10 19 12 21 4 23 18 25
REMARK Flexibility Score: inf
ROOT
ATOM      1  C   UNL     1     -13.089 -33.618  32.147  1.00  0.00     0.180 A 
ATOM      2  C   UNL     1     -14.379 -33.261  32.588  1.00  0.00     0.208 A 
ATOM      3  C   UNL     1     -14.520 -32.647  33.842  1.00  0.00     0.235 A 
ATOM      4  O   UNL     1     -15.665 -32.328  34.265  1.00  0.00    -0.285 OA
ATOM      5  C   UNL     1     -13.376 -32.387  34.615  1.00  0.00     0.069 A 
ATOM      6  C   UNL     1     -12.117 -32.753  34.092  1.00  0.00     0.142 A 
ATOM      7  O   UNL     1     -12.029 -33.339  32.903  1.00  0.00    -0.452 OA
ATOM      8  C   UNL     1     -10.954 -32.501  34.827  1.00  0.00     0.094 A 
ATOM      9  C   UNL     1     -11.033 -31.887  36.084  1.00  0.00     0.119 A 
ATOM     10  C   UNL     1     -12.279 -31.524  36.605  1.00  0.00     0.047 A 
ATOM     11  C   UNL     1     -13.448 -31.771  35.878  1.00  0.00     0.020 A 
ENDROOT
BRANCH   1  12
ATOM     12  C   UNL     1     -12.859 -34.284  30.844  1.00  0.00     0.025 A 
ATOM     13  C   UNL     1     -12.632 -33.505  29.700  1.00  0.00     0.016 A 
ATOM     14  C   UNL     1     -12.393 -34.112  28.466  1.00  0.00     0.051 A 
ATOM     15  C   UNL     1     -12.362 -35.506  28.357  1.00  0.00     0.157 A 
ATOM     16  C   UNL     1     -12.807 -35.686  30.738  1.00  0.00     0.062 A 
ATOM     17  C   UNL     1     -12.565 -36.298  29.499  1.00  0.00     0.158 A 
BRANCH  15  18
ATOM     18  O   UNL     1     -12.123 -36.084  27.111  1.00  0.00    -0.504 OA
ATOM     19  H   UNL     1     -11.315 -35.839  26.551  1.00  0.00     0.293 HD
ENDBRANCH  15  18
BRANCH  17  20
ATOM     20  O   UNL     1     -12.521 -37.688  29.402  1.00  0.00    -0.504 OA
ATOM     21  H   UNL     1     -12.531 -38.279  30.225  1.00  0.00     0.293 HD
ENDBRANCH  17  20
ENDBRANCH   1  12
BRANCH   2  22
ATOM     22  O   UNL     1     -15.493 -33.488  31.776  1.00  0.00    -0.502 OA
ATOM     23  H   UNL     1     -15.835 -34.420  31.574  1.00  0.00     0.293 HD
ENDBRANCH   2  22
BRANCH   9  24
ATOM     24  O   UNL     1      -9.880 -31.632  36.824  1.00  0.00    -0.508 OA
ATOM     25  H   UNL     1      -9.061 -32.224  36.747  1.00  0.00     0.293 HD
ENDBRANCH   9  24
TORSDOF 5
ENDMDL
MODEL 5
REMARK VINA RESULT:    -4.604      2.235      3.789
REMARK INTER + INTRA:          -5.704
REMARK INTER:                  -5.614
REMARK INTRA:                  -0.090
REMARK UNBOUND:                -0.293
REMARK SMILES O=c1c(O)c(-c2ccc(O)c(O)c2)oc2cc(O)ccc12
REMARK SMILES IDX 5 1 3 2 2 3 1 4 21 5 15 6 14 7 16 8 17 9 19 10 20 11 6 12
REMARK SMILES IDX 7 13 8 14 9 15 13 16 11 17 10 18 12 20 4 22 18 24
REMARK H PARENT 10 19 12 21 4 23 18 25
REMARK Flexibility Score: inf
ROOT
ATOM      1  C   UNL     1     -11.497 -33.903  32.265  1.00  0.00     0.180 A 
ATOM      2  C   UNL     1     -10.765 -33.488  31.134  1.00  0.00     0.208 A 
ATOM      3  C   UNL     1     -10.967 -34.153  29.915  1.00  0.00     0.235 A 
ATOM      4  O   UNL     1     -10.316 -33.808  28.892  1.00  0.00    -0.285 OA
ATOM      5  C   UNL     1     -11.904 -35.197  29.846  1.00  0.00     0.069 A 
ATOM      6  C   UNL     1     -12.616 -35.537  31.017  1.00  0.00     0.142 A 
ATOM      7  O   UNL     1     -12.387 -34.887  32.153  1.00  0.00    -0.452 OA
ATOM      8  C   UNL     1     -13.564 -36.564  30.986  1.00  0.00     0.094 A 
ATOM      9  C   UNL     1     -13.812 -37.260  29.795  1.00  0.00     0.119 A 
ATOM     10  C   UNL     1     -13.108 -36.927  28.634  1.00  0.00     0.047 A 
ATOM     11  C   UNL     1     -12.158 -35.901  28.654  1.00  0.00     0.020 A 
ENDROOT
BRANCH   1  12
ATOM     12  C   UNL     1     -11.328 -33.264  33.590  1.00  0.00     0.025 A 
ATOM     13  C   UNL     1     -10.062 -33.253  34.195  1.00  0.00     0.016 A 
ATOM     14  C   UNL     1      -9.875 -32.638  35.435  1.00  0.00     0.051 A 
ATOM     15  C   UNL     1     -10.945 -32.012  36.082  1.00  0.00     0.157 A 
ATOM     16  C   UNL     1     -12.398 -32.616  34.233  1.00  0.00     0.062 A 
ATOM     17  C   UNL     1     -12.212 -31.996  35.477  1.00  0.00     0.158 A 
BRANCH  15  18
ATOM     18  O   UNL     1     -10.728 -31.408  37.320  1.00  0.00    -0.504 OA
ATOM     19  H   UNL     1     -11.465 -30.926  37.819  1.00  0.00     0.293 HD
ENDBRANCH  15  18
BRANCH  17  20
ATOM     20  O   UNL     1     -13.280 -31.362  36.110  1.00  0.00    -0.504 OA
ATOM     21  H   UNL     1     -13.997 -30.876  35.584  1.00  0.00     0.293 HD
ENDBRANCH  17  20
ENDBRANCH   1  12
BRANCH   2  22
ATOM     22  O   UNL     1      -9.875 -32.414  31.222  1.00  0.00    -0.502 OA
ATOM     23  H   UNL     1      -9.719 -31.909  32.086  1.00  0.00     0.293 HD
ENDBRANCH   2  22
BRANCH   9  24
ATOM     24  O   UNL     1     -14.755 -38.285  29.755  1.00  0.00    -0.508 OA
ATOM     25  H   UNL     1     -15.581 -38.221  29.172  1.00  0.00     0.293 HD
ENDBRANCH   9  24
TORSDOF 5
ENDMDL
MODEL 6
REMARK VINA RESULT:    -4.162      2.391      3.705
REMARK INTER + INTRA:          -5.184
REMARK INTER:                  -4.917
REMARK INTRA:                  -0.267
REMARK UNBOUND:                -0.293
REMARK SMILES O=c1c(O)c(-c2ccc(O)c(O)c2)oc2cc(O)ccc12
REMARK SMILES IDX 5 1 3 2 2 3 1 4 21 5 15 6 14 7 16 8 17 9 19 10 20 11 6 12
REMARK SMILES IDX 7 13 8 14 9 15 13 16 11 17 10 18 12 20 4 22 18 24
REMARK H PARENT 10 19 12 21 4 23 18 25
REMARK Flexibility Score: inf
ROOT
ATOM      1  C   UNL     1     -12.935 -34.396  32.318  1.00  0.00     0.180 A 
ATOM      2  C   UNL     1     -13.216 -34.034  30.985  1.00  0.00     0.208 A 
ATOM      3  C   UNL     1     -13.262 -35.040  30.007  1.00  0.00     0.235 A 
ATOM      4  O   UNL     1     -13.500 -34.741  28.805  1.00  0.00    -0.285 OA
ATOM      5  C   UNL     1     -13.048 -36.377  30.381  1.00  0.00     0.069 A 
ATOM      6  C   UNL     1     -12.796 -36.659  31.741  1.00  0.00     0.142 A 
ATOM      7  O   UNL     1     -12.753 -35.676  32.633  1.00  0.00    -0.452 OA
ATOM      8  C   UNL     1     -12.588 -37.979  32.154  1.00  0.00     0.094 A 
ATOM      9  C   UNL     1     -12.626 -39.025  31.222  1.00  0.00     0.119 A 
ATOM     10  C   UNL     1     -12.874 -38.747  29.874  1.00  0.00     0.047 A 
ATOM     11  C   UNL     1     -13.085 -37.432  29.450  1.00  0.00     0.020 A 
ENDROOT
BRANCH   1  12
ATOM     12  C   UNL     1     -12.852 -33.392  33.404  1.00  0.00     0.025 A 
ATOM     13  C   UNL     1     -14.032 -32.875  33.959  1.00  0.00     0.016 A 
ATOM     14  C   UNL     1     -13.977 -31.943  34.997  1.00  0.00     0.051 A 
ATOM     15  C   UNL     1     -12.745 -31.525  35.508  1.00  0.00     0.157 A 
ATOM     16  C   UNL     1     -11.613 -32.986  33.933  1.00  0.00     0.062 A 
ATOM     17  C   UNL     1     -11.556 -32.052  34.978  1.00  0.00     0.158 A 
BRANCH  15  18
ATOM     18  O   UNL     1     -12.722 -30.591  36.544  1.00  0.00    -0.504 OA
ATOM     19  H   UNL     1     -12.015 -29.868  36.600  1.00  0.00     0.293 HD
ENDBRANCH  15  18
BRANCH  17  20
ATOM     20  O   UNL     1     -10.323 -31.650  35.492  1.00  0.00    -0.504 OA
ATOM     21  H   UNL     1      -9.603 -31.256  34.897  1.00  0.00     0.293 HD
ENDBRANCH  17  20
ENDBRANCH   1  12
BRANCH   2  22
ATOM     22  O   UNL     1     -13.474 -32.702  30.651  1.00  0.00    -0.502 OA
ATOM     23  H   UNL     1     -14.220 -32.436  30.021  1.00  0.00     0.293 HD
ENDBRANCH   2  22
BRANCH   9  24
ATOM     24  O   UNL     1     -12.420 -40.343  31.625  1.00  0.00    -0.508 OA
ATOM     25  H   UNL     1     -11.978 -41.019  31.014  1.00  0.00     0.293 HD
ENDBRANCH   9  24
TORSDOF 5
ENDMDL
MODEL 7
REMARK VINA RESULT:    -3.604      3.238      7.900
REMARK INTER + INTRA:          -4.529
REMARK INTER:                  -4.984
REMARK INTRA:                   0.455
REMARK UNBOUND:                -0.293
REMARK SMILES O=c1c(O)c(-c2ccc(O)c(O)c2)oc2cc(O)ccc12
REMARK SMILES IDX 5 1 3 2 2 3 1 4 21 5 15 6 14 7 16 8 17 9 19 10 20 11 6 12
REMARK SMILES IDX 7 13 8 14 9 15 13 16 11 17 10 18 12 20 4 22 18 24
REMARK H PARENT 10 19 12 21 4 23 18 25
REMARK Flexibility Score: inf
ROOT
ATOM      1  C   UNL     1     -12.252 -34.092  30.458  1.00  0.00     0.180 A 
ATOM      2  C   UNL     1     -11.208 -33.855  31.375  1.00  0.00     0.208 A 
ATOM      3  C   UNL     1     -11.533 -33.489  32.690  1.00  0.00     0.235 A 
ATOM      4  O   UNL     1     -10.617 -33.260  33.527  1.00  0.00    -0.285 OA
ATOM      5  C   UNL     1     -12.883 -33.387  33.065  1.00  0.00     0.069 A 
ATOM      6  C   UNL     1     -13.869 -33.664  32.094  1.00  0.00     0.142 A 
ATOM      7  O   UNL     1     -13.518 -33.999  30.857  1.00  0.00    -0.452 OA
ATOM      8  C   UNL     1     -15.225 -33.584  32.431  1.00  0.00     0.094 A 
ATOM      9  C   UNL     1     -15.608 -33.227  33.730  1.00  0.00     0.119 A 
ATOM     10  C   UNL     1     -14.633 -32.950  34.693  1.00  0.00     0.047 A 
ATOM     11  C   UNL     1     -13.275 -33.028  34.368  1.00  0.00     0.020 A 
ENDROOT
BRANCH   1  12
ATOM     12  C   UNL     1     -11.991 -34.465  29.049  1.00  0.00     0.025 A 
ATOM     13  C   UNL     1     -10.738 -34.985  28.692  1.00  0.00     0.016 A 
ATOM     14  C   UNL     1     -10.477 -35.363  27.373  1.00  0.00     0.051 A 
ATOM     15  C   UNL     1     -11.468 -35.241  26.393  1.00  0.00     0.157 A 
ATOM     16  C   UNL     1     -12.993 -34.362  28.066  1.00  0.00     0.062 A 
ATOM     17  C   UNL     1     -12.734 -34.743  26.741  1.00  0.00     0.158 A 
BRANCH  15  18
ATOM     18  O   UNL     1     -11.177 -35.624  25.084  1.00  0.00    -0.504 OA
ATOM     19  H   UNL     1     -10.238 -35.862  24.790  1.00  0.00     0.293 HD
ENDBRANCH  15  18
BRANCH  17  20
ATOM     20  O   UNL     1     -13.731 -34.631  25.773  1.00  0.00    -0.504 OA
ATOM     21  H   UNL     1     -13.533 -34.771  24.788  1.00  0.00     0.293 HD
ENDBRANCH  17  20
ENDBRANCH   1  12
BRANCH   2  22
ATOM     22  O   UNL     1      -9.875 -34.011  30.987  1.00  0.00    -0.502 OA
ATOM     23  H   UNL     1      -9.549 -33.770  30.058  1.00  0.00     0.293 HD
ENDBRANCH   2  22
BRANCH   9  24
ATOM     24  O   UNL     1     -16.956 -33.144  34.075  1.00  0.00    -0.508 OA
ATOM     25  H   UNL     1     -17.345 -32.306  34.492  1.00  0.00     0.293 HD
ENDBRANCH   9  24
TORSDOF 5
ENDMDL
