MODEL 1
REMARK VINA RESULT:    -7.124      0.000      0.000
REMARK INTER + INTRA:          -9.994
REMARK INTER:                  -9.623
REMARK INTRA:                  -0.371
REMARK UNBOUND:                -0.371
REMARK SMILES O=c1c(-c2ccc(O)cc2)coc2c([C@@H]3O[C@H](CO)[C@H](O)[C@H](O)[C@H]3O)c(O)ccc12
REMARK SMILES IDX 3 1 11 2 12 3 13 4 30 5 2 6 1 7 29 8 28 9 26 10 14 11 4 12
REMARK SMILES IDX 5 13 6 14 7 15 10 16 9 17 8 18 15 20 24 21 16 22 22 23 17 24
REMARK SMILES IDX 20 25 25 26 23 28 18 30 19 31 21 33 27 35
REMARK H PARENT 8 19 25 27 23 29 19 32 21 34 27 36
REMARK Flexibility Score: inf
ROOT
ATOM      1  C   UNL     1      -8.603  -0.106  -5.331  1.00  0.00     0.065 A 
ATOM      2  C   UNL     1      -7.901  -0.310  -6.524  1.00  0.00     0.208 A 
ATOM      3  O   UNL     1      -7.750  -1.530  -7.026  1.00  0.00    -0.463 OA
ATOM      4  C   UNL     1      -8.249  -2.625  -6.455  1.00  0.00     0.147 A 
ATOM      5  C   UNL     1      -9.034  -2.502  -5.282  1.00  0.00     0.066 A 
ATOM      6  C   UNL     1      -9.220  -1.220  -4.727  1.00  0.00     0.200 A 
ATOM      7  O   UNL     1      -9.936  -1.068  -3.699  1.00  0.00    -0.288 OA
ATOM      8  C   UNL     1      -9.593  -3.645  -4.689  1.00  0.00     0.020 A 
ATOM      9  C   UNL     1      -9.357  -4.903  -5.241  1.00  0.00     0.047 A 
ATOM     10  C   UNL     1      -8.574  -5.043  -6.390  1.00  0.00     0.125 A 
ATOM     11  C   UNL     1      -7.993  -3.909  -7.005  1.00  0.00     0.069 A 
ENDROOT
BRANCH   1  12
ATOM     12  C   UNL     1      -8.687   1.256  -4.743  1.00  0.00    -0.011 A 
ATOM     13  C   UNL     1      -9.485   2.247  -5.347  1.00  0.00     0.013 A 
ATOM     14  C   UNL     1      -9.582   3.521  -4.780  1.00  0.00     0.047 A 
ATOM     15  C   UNL     1      -8.887   3.822  -3.596  1.00  0.00     0.115 A 
ATOM     16  C   UNL     1      -7.982   1.571  -3.566  1.00  0.00     0.013 A 
ATOM     17  C   UNL     1      -8.082   2.846  -3.000  1.00  0.00     0.047 A 
BRANCH  15  18
ATOM     18  O   UNL     1      -8.986   5.084  -3.013  1.00  0.00    -0.508 OA
ATOM     19  H   UNL     1      -9.465   5.219  -2.129  1.00  0.00     0.293 HD
ENDBRANCH  15  18
ENDBRANCH   1  12
BRANCH  11  20
ATOM     20  C   UNL     1      -7.108  -4.120  -8.234  1.00  0.00     0.188 C 
ATOM     21  C   UNL     1      -6.465  -2.770  -8.697  1.00  0.00     0.179 C 
ATOM     22  O   UNL     1      -6.120  -5.111  -7.986  1.00  0.00    -0.362 OA
ATOM     23  C   UNL     1      -4.927  -2.879  -8.814  1.00  0.00     0.177 C 
ATOM     24  C   UNL     1      -5.374  -5.385  -9.159  1.00  0.00     0.176 C 
ATOM     25  C   UNL     1      -4.512  -4.155  -9.582  1.00  0.00     0.177 C 
BRANCH  21  26
ATOM     26  O   UNL     1      -7.032  -2.333  -9.910  1.00  0.00    -0.387 OA
ATOM     27  H   UNL     1      -6.385  -1.713 -10.343  1.00  0.00     0.211 HD
ENDBRANCH  21  26
BRANCH  23  28
ATOM     28  O   UNL     1      -4.364  -2.911  -7.523  1.00  0.00    -0.387 OA
ATOM     29  H   UNL     1      -5.102  -2.745  -6.881  1.00  0.00     0.211 HD
ENDBRANCH  23  28
BRANCH  24  30
ATOM     30  C   UNL     1      -4.554  -6.660  -8.916  1.00  0.00     0.191 C 
BRANCH  30  31
ATOM     31  O   UNL     1      -3.763  -6.513  -7.771  1.00  0.00    -0.394 OA
ATOM     32  H   UNL     1      -4.284  -6.908  -7.025  1.00  0.00     0.210 HD
ENDBRANCH  30  31
ENDBRANCH  24  30
BRANCH  25  33
ATOM     33  O   UNL     1      -3.136  -4.387  -9.392  1.00  0.00    -0.388 OA
ATOM     34  H   UNL     1      -2.673  -3.524  -9.529  1.00  0.00     0.211 HD
ENDBRANCH  25  33
ENDBRANCH  11  20
BRANCH  10  35
ATOM     35  O   UNL     1      -8.367  -6.313  -6.922  1.00  0.00    -0.507 OA
ATOM     36  H   UNL     1      -8.629  -6.543  -7.875  1.00  0.00     0.293 HD
ENDBRANCH  10  35
TORSDOF 9
ENDMDL
MODEL 2
REMARK VINA RESULT:    -6.418      2.167      8.294
REMARK INTER + INTRA:          -9.041
REMARK INTER:                  -8.611
REMARK INTRA:                  -0.430
REMARK UNBOUND:                -0.371
REMARK SMILES O=c1c(-c2ccc(O)cc2)coc2c([C@@H]3O[C@H](CO)[C@H](O)[C@H](O)[C@H]3O)c(O)ccc12
REMARK SMILES IDX 3 1 11 2 12 3 13 4 30 5 2 6 1 7 29 8 28 9 26 10 14 11 4 12
REMARK SMILES IDX 5 13 6 14 7 15 10 16 9 17 8 18 15 20 24 21 16 22 22 23 17 24
REMARK SMILES IDX 20 25 25 26 23 28 18 30 19 31 21 33 27 35
REMARK H PARENT 8 19 25 27 23 29 19 32 21 34 27 36
REMARK Flexibility Score: inf
ROOT
ATOM      1  C   UNL     1      -7.819  -3.721  -7.964  1.00  0.00     0.065 A 
ATOM      2  C   UNL     1      -8.010  -3.467  -6.601  1.00  0.00     0.208 A 
ATOM      3  O   UNL     1      -8.488  -2.301  -6.185  1.00  0.00    -0.463 OA
ATOM      4  C   UNL     1      -8.827  -1.311  -7.009  1.00  0.00     0.147 A 
ATOM      5  C   UNL     1      -8.734  -1.509  -8.409  1.00  0.00     0.066 A 
ATOM      6  C   UNL     1      -8.236  -2.738  -8.884  1.00  0.00     0.200 A 
ATOM      7  O   UNL     1      -8.165  -2.960 -10.124  1.00  0.00    -0.288 OA
ATOM      8  C   UNL     1      -9.119  -0.484  -9.288  1.00  0.00     0.020 A 
ATOM      9  C   UNL     1      -9.570   0.735  -8.785  1.00  0.00     0.047 A 
ATOM     10  C   UNL     1      -9.655   0.950  -7.406  1.00  0.00     0.125 A 
ATOM     11  C   UNL     1      -9.269  -0.061  -6.497  1.00  0.00     0.069 A 
ENDROOT
BRANCH   1  12
ATOM     12  C   UNL     1      -7.202  -4.999  -8.402  1.00  0.00    -0.011 A 
ATOM     13  C   UNL     1      -5.805  -5.105  -8.547  1.00  0.00     0.013 A 
ATOM     14  C   UNL     1      -5.224  -6.315  -8.938  1.00  0.00     0.047 A 
ATOM     15  C   UNL     1      -6.030  -7.440  -9.181  1.00  0.00     0.115 A 
ATOM     16  C   UNL     1      -8.003  -6.126  -8.664  1.00  0.00     0.013 A 
ATOM     17  C   UNL     1      -7.419  -7.336  -9.052  1.00  0.00     0.047 A 
BRANCH  15  18
ATOM     18  O   UNL     1      -5.462  -8.656  -9.558  1.00  0.00    -0.508 OA
ATOM     19  H   UNL     1      -4.683  -8.695 -10.207  1.00  0.00     0.293 HD
ENDBRANCH  15  18
ENDBRANCH   1  12
BRANCH  11  20
ATOM     20  C   UNL     1      -9.338   0.240  -4.999  1.00  0.00     0.188 C 
ATOM     21  C   UNL     1      -8.491  -0.793  -4.183  1.00  0.00     0.179 C 
ATOM     22  O   UNL     1      -8.936   1.575  -4.730  1.00  0.00    -0.362 OA
ATOM     23  C   UNL     1      -7.471  -0.089  -3.257  1.00  0.00     0.177 C 
ATOM     24  C   UNL     1      -9.108   1.888  -3.358  1.00  0.00     0.176 C 
ATOM     25  C   UNL     1      -8.133   1.060  -2.462  1.00  0.00     0.177 C 
BRANCH  21  26
ATOM     26  O   UNL     1      -9.324  -1.658  -3.448  1.00  0.00    -0.387 OA
ATOM     27  H   UNL     1     -10.233  -1.621  -3.851  1.00  0.00     0.211 HD
ENDBRANCH  21  26
BRANCH  23  28
ATOM     28  O   UNL     1      -6.418   0.431  -4.035  1.00  0.00    -0.387 OA
ATOM     29  H   UNL     1      -5.602   0.407  -3.471  1.00  0.00     0.211 HD
ENDBRANCH  23  28
BRANCH  24  30
ATOM     30  C   UNL     1      -8.960   3.407  -3.192  1.00  0.00     0.191 C 
BRANCH  30  31
ATOM     31  O   UNL     1      -7.806   3.853  -3.846  1.00  0.00    -0.394 OA
ATOM     32  H   UNL     1      -7.622   4.761  -3.489  1.00  0.00     0.210 HD
ENDBRANCH  30  31
ENDBRANCH  24  30
BRANCH  25  33
ATOM     33  O   UNL     1      -7.132   1.868  -1.889  1.00  0.00    -0.388 OA
ATOM     34  H   UNL     1      -7.591   2.586  -1.385  1.00  0.00     0.211 HD
ENDBRANCH  25  33
ENDBRANCH  11  20
BRANCH  10  35
ATOM     35  O   UNL     1     -10.121   2.176  -6.937  1.00  0.00    -0.507 OA
ATOM     36  H   UNL     1     -11.055   2.282  -6.556  1.00  0.00     0.293 HD
ENDBRANCH  10  35
TORSDOF 9
ENDMDL
MODEL 3
REMARK VINA RESULT:    -5.679      1.896      3.238
REMARK INTER + INTRA:          -8.042
REMARK INTER:                  -7.474
REMARK INTRA:                  -0.568
REMARK UNBOUND:                -0.371
REMARK SMILES O=c1c(-c2ccc(O)cc2)coc2c([C@@H]3O[C@H](CO)[C@H](O)[C@H](O)[C@H]3O)c(O)ccc12
REMARK SMILES IDX 3 1 11 2 12 3 13 4 30 5 2 6 1 7 29 8 28 9 26 10 14 11 4 12
REMARK SMILES IDX 5 13 6 14 7 15 10 16 9 17 8 18 15 20 24 21 16 22 22 23 17 24
REMARK SMILES IDX 20 25 25 26 23 28 18 30 19 31 21 33 27 35
REMARK H PARENT 8 19 25 27 23 29 19 32 21 34 27 36
REMARK Flexibility Score: inf
ROOT
ATOM      1  C   UNL     1      -8.729   0.880  -6.071  1.00  0.00     0.065 A 
ATOM      2  C   UNL     1      -7.886  -0.164  -5.673  1.00  0.00     0.208 A 
ATOM      3  O   UNL     1      -7.812  -1.287  -6.378  1.00  0.00    -0.463 OA
ATOM      4  C   UNL     1      -8.506  -1.498  -7.496  1.00  0.00     0.147 A 
ATOM      5  C   UNL     1      -9.328  -0.465  -8.010  1.00  0.00     0.066 A 
ATOM      6  C   UNL     1      -9.424   0.741  -7.289  1.00  0.00     0.200 A 
ATOM      7  O   UNL     1     -10.125   1.694  -7.730  1.00  0.00    -0.288 OA
ATOM      8  C   UNL     1     -10.039  -0.664  -9.205  1.00  0.00     0.020 A 
ATOM      9  C   UNL     1      -9.953  -1.885  -9.873  1.00  0.00     0.047 A 
ATOM     10  C   UNL     1      -9.156  -2.918  -9.371  1.00  0.00     0.125 A 
ATOM     11  C   UNL     1      -8.434  -2.748  -8.167  1.00  0.00     0.069 A 
ENDROOT
BRANCH   1  12
ATOM     12  C   UNL     1      -8.861   2.092  -5.221  1.00  0.00    -0.011 A 
ATOM     13  C   UNL     1      -7.829   2.460  -4.336  1.00  0.00     0.013 A 
ATOM     14  C   UNL     1      -7.945   3.613  -3.555  1.00  0.00     0.047 A 
ATOM     15  C   UNL     1      -9.091   4.420  -3.650  1.00  0.00     0.115 A 
ATOM     16  C   UNL     1     -10.013   2.896  -5.300  1.00  0.00     0.013 A 
ATOM     17  C   UNL     1     -10.125   4.050  -4.517  1.00  0.00     0.047 A 
BRANCH  15  18
ATOM     18  O   UNL     1      -9.213   5.579  -2.887  1.00  0.00    -0.508 OA
ATOM     19  H   UNL     1      -8.415   6.179  -2.710  1.00  0.00     0.293 HD
ENDBRANCH  15  18
ENDBRANCH   1  12
BRANCH  11  20
ATOM     20  C   UNL     1      -7.612  -3.924  -7.638  1.00  0.00     0.188 C 
ATOM     21  C   UNL     1      -8.540  -5.008  -6.994  1.00  0.00     0.179 C 
ATOM     22  O   UNL     1      -6.795  -4.476  -8.661  1.00  0.00    -0.362 OA
ATOM     23  C   UNL     1      -8.291  -6.408  -7.603  1.00  0.00     0.177 C 
ATOM     24  C   UNL     1      -5.953  -5.490  -8.142  1.00  0.00     0.176 C 
ATOM     25  C   UNL     1      -6.780  -6.729  -7.673  1.00  0.00     0.177 C 
BRANCH  21  26
ATOM     26  O   UNL     1      -8.388  -5.034  -5.595  1.00  0.00    -0.387 OA
ATOM     27  H   UNL     1      -9.109  -4.474  -5.199  1.00  0.00     0.211 HD
ENDBRANCH  21  26
BRANCH  23  28
ATOM     28  O   UNL     1      -8.836  -6.454  -8.901  1.00  0.00    -0.387 OA
ATOM     29  H   UNL     1      -8.134  -6.129  -9.522  1.00  0.00     0.211 HD
ENDBRANCH  23  28
BRANCH  24  30
ATOM     30  C   UNL     1      -4.894  -5.821  -9.204  1.00  0.00     0.191 C 
BRANCH  30  31
ATOM     31  O   UNL     1      -3.830  -6.520  -8.622  1.00  0.00    -0.394 OA
ATOM     32  H   UNL     1      -3.468  -7.110  -9.333  1.00  0.00     0.210 HD
ENDBRANCH  30  31
ENDBRANCH  24  30
BRANCH  25  33
ATOM     33  O   UNL     1      -6.578  -7.843  -8.511  1.00  0.00    -0.388 OA
ATOM     34  H   UNL     1      -7.040  -7.652  -9.365  1.00  0.00     0.211 HD
ENDBRANCH  25  33
ENDBRANCH  11  20
BRANCH  10  35
ATOM     35  O   UNL     1      -9.083  -4.121 -10.070  1.00  0.00    -0.507 OA
ATOM     36  H   UNL     1      -8.200  -4.493 -10.402  1.00  0.00     0.293 HD
ENDBRANCH  10  35
TORSDOF 9
ENDMDL
MODEL 4
REMARK VINA RESULT:    -5.508      2.446      7.299
REMARK INTER + INTRA:          -7.811
REMARK INTER:                  -6.607
REMARK INTRA:                  -1.204
REMARK UNBOUND:                -0.371
REMARK SMILES O=c1c(-c2ccc(O)cc2)coc2c([C@@H]3O[C@H](CO)[C@H](O)[C@H](O)[C@H]3O)c(O)ccc12
REMARK SMILES IDX 3 1 11 2 12 3 13 4 30 5 2 6 1 7 29 8 28 9 26 10 14 11 4 12
REMARK SMILES IDX 5 13 6 14 7 15 10 16 9 17 8 18 15 20 24 21 16 22 22 23 17 24
REMARK SMILES IDX 20 25 25 26 23 28 18 30 19 31 21 33 27 35
REMARK H PARENT 8 19 25 27 23 29 19 32 21 34 27 36
REMARK Flexibility Score: inf
ROOT
ATOM      1  C   UNL     1      -3.996  -3.692  -8.257  1.00  0.00     0.065 A 
ATOM      2  C   UNL     1      -4.796  -2.656  -7.763  1.00  0.00     0.208 A 
ATOM      3  O   UNL     1      -6.094  -2.837  -7.555  1.00  0.00    -0.463 OA
ATOM      4  C   UNL     1      -6.720  -3.991  -7.783  1.00  0.00     0.147 A 
ATOM      5  C   UNL     1      -5.972  -5.114  -8.215  1.00  0.00     0.066 A 
ATOM      6  C   UNL     1      -4.590  -4.957  -8.440  1.00  0.00     0.200 A 
ATOM      7  O   UNL     1      -3.886  -5.941  -8.798  1.00  0.00    -0.288 OA
ATOM      8  C   UNL     1      -6.614  -6.344  -8.428  1.00  0.00     0.020 A 
ATOM      9  C   UNL     1      -7.990  -6.455  -8.235  1.00  0.00     0.047 A 
ATOM     10  C   UNL     1      -8.744  -5.354  -7.820  1.00  0.00     0.125 A 
ATOM     11  C   UNL     1      -8.125  -4.101  -7.605  1.00  0.00     0.069 A 
ENDROOT
BRANCH   1  12
ATOM     12  C   UNL     1      -2.563  -3.442  -8.564  1.00  0.00    -0.011 A 
ATOM     13  C   UNL     1      -2.173  -3.004  -9.845  1.00  0.00     0.013 A 
ATOM     14  C   UNL     1      -0.828  -2.747 -10.125  1.00  0.00     0.047 A 
ATOM     15  C   UNL     1       0.147  -2.918  -9.128  1.00  0.00     0.115 A 
ATOM     16  C   UNL     1      -1.579  -3.626  -7.576  1.00  0.00     0.013 A 
ATOM     17  C   UNL     1      -0.234  -3.367  -7.859  1.00  0.00     0.047 A 
BRANCH  15  18
ATOM     18  O   UNL     1       1.490  -2.653  -9.390  1.00  0.00    -0.508 OA
ATOM     19  H   UNL     1       2.102  -2.276  -8.674  1.00  0.00     0.293 HD
ENDBRANCH  15  18
ENDBRANCH   1  12
BRANCH  11  20
ATOM     20  C   UNL     1      -9.001  -2.916  -7.196  1.00  0.00     0.188 C 
ATOM     21  C   UNL     1      -8.855  -2.615  -5.667  1.00  0.00     0.179 C 
ATOM     22  O   UNL     1      -8.707  -1.771  -7.984  1.00  0.00    -0.362 OA
ATOM     23  C   UNL     1      -8.479  -1.137  -5.409  1.00  0.00     0.177 C 
ATOM     24  C   UNL     1      -9.595  -0.708  -7.682  1.00  0.00     0.176 C 
ATOM     25  C   UNL     1      -9.372  -0.179  -6.231  1.00  0.00     0.177 C 
BRANCH  21  26
ATOM     26  O   UNL     1     -10.028  -2.964  -4.971  1.00  0.00    -0.387 OA
ATOM     27  H   UNL     1     -10.511  -3.647  -5.511  1.00  0.00     0.211 HD
ENDBRANCH  21  26
BRANCH  23  28
ATOM     28  O   UNL     1      -7.131  -0.931  -5.760  1.00  0.00    -0.387 OA
ATOM     29  H   UNL     1      -6.841  -0.091  -5.319  1.00  0.00     0.211 HD
ENDBRANCH  23  28
BRANCH  24  30
ATOM     30  C   UNL     1      -9.436   0.370  -8.764  1.00  0.00     0.191 C 
BRANCH  30  31
ATOM     31  O   UNL     1      -8.105   0.432  -9.190  1.00  0.00    -0.394 OA
ATOM     32  H   UNL     1      -7.702  -0.446  -8.964  1.00  0.00     0.210 HD
ENDBRANCH  30  31
ENDBRANCH  24  30
BRANCH  25  33
ATOM     33  O   UNL     1      -8.803   1.110  -6.223  1.00  0.00    -0.388 OA
ATOM     34  H   UNL     1      -9.548   1.756  -6.138  1.00  0.00     0.211 HD
ENDBRANCH  25  33
ENDBRANCH  11  20
BRANCH  10  35
ATOM     35  O   UNL     1     -10.115  -5.502  -7.626  1.00  0.00    -0.507 OA
ATOM     36  H   UNL     1     -10.785  -5.282  -8.355  1.00  0.00     0.293 HD
ENDBRANCH  10  35
TORSDOF 9
ENDMDL
MODEL 5
REMARK VINA RESULT:    -5.349     14.737     18.415
REMARK INTER + INTRA:          -7.596
REMARK INTER:                  -7.457
REMARK INTRA:                  -0.138
REMARK UNBOUND:                -0.371
REMARK SMILES O=c1c(-c2ccc(O)cc2)coc2c([C@@H]3O[C@H](CO)[C@H](O)[C@H](O)[C@H]3O)c(O)ccc12
REMARK SMILES IDX 3 1 11 2 12 3 13 4 30 5 2 6 1 7 29 8 28 9 26 10 14 11 4 12
REMARK SMILES IDX 5 13 6 14 7 15 10 16 9 17 8 18 15 20 24 21 16 22 22 23 17 24
REMARK SMILES IDX 20 25 25 26 23 28 18 30 19 31 21 33 27 35
REMARK H PARENT 8 19 25 27 23 29 19 32 21 34 27 36
REMARK Flexibility Score: inf
ROOT
ATOM      1  C   UNL     1      -1.488   5.698   7.346  1.00  0.00     0.065 A 
ATOM      2  C   UNL     1      -2.447   6.436   8.049  1.00  0.00     0.208 A 
ATOM      3  O   UNL     1      -3.366   7.147   7.407  1.00  0.00    -0.463 OA
ATOM      4  C   UNL     1      -3.453   7.204   6.078  1.00  0.00     0.147 A 
ATOM      5  C   UNL     1      -2.566   6.430   5.289  1.00  0.00     0.066 A 
ATOM      6  C   UNL     1      -1.583   5.659   5.941  1.00  0.00     0.200 A 
ATOM      7  O   UNL     1      -0.794   4.936   5.272  1.00  0.00    -0.288 OA
ATOM      8  C   UNL     1      -2.669   6.457   3.889  1.00  0.00     0.020 A 
ATOM      9  C   UNL     1      -3.628   7.261   3.275  1.00  0.00     0.047 A 
ATOM     10  C   UNL     1      -4.501   8.041   4.039  1.00  0.00     0.125 A 
ATOM     11  C   UNL     1      -4.416   8.038   5.451  1.00  0.00     0.069 A 
ENDROOT
BRANCH   1  12
ATOM     12  C   UNL     1      -0.417   4.980   8.084  1.00  0.00    -0.011 A 
ATOM     13  C   UNL     1      -0.743   4.059   9.099  1.00  0.00     0.013 A 
ATOM     14  C   UNL     1       0.264   3.367   9.777  1.00  0.00     0.047 A 
ATOM     15  C   UNL     1       1.613   3.577   9.445  1.00  0.00     0.115 A 
ATOM     16  C   UNL     1       0.937   5.197   7.768  1.00  0.00     0.013 A 
ATOM     17  C   UNL     1       1.943   4.500   8.447  1.00  0.00     0.047 A 
BRANCH  15  18
ATOM     18  O   UNL     1       2.627   2.883  10.103  1.00  0.00    -0.508 OA
ATOM     19  H   UNL     1       3.603   3.129   9.973  1.00  0.00     0.293 HD
ENDBRANCH  15  18
ENDBRANCH   1  12
BRANCH  11  20
ATOM     20  C   UNL     1      -5.364   8.943   6.240  1.00  0.00     0.188 C 
ATOM     21  C   UNL     1      -6.853   8.501   6.041  1.00  0.00     0.179 C 
ATOM     22  O   UNL     1      -5.009   8.977   7.615  1.00  0.00    -0.362 OA
ATOM     23  C   UNL     1      -7.565   8.265   7.393  1.00  0.00     0.177 C 
ATOM     24  C   UNL     1      -5.816   9.901   8.323  1.00  0.00     0.176 C 
ATOM     25  C   UNL     1      -7.304   9.430   8.376  1.00  0.00     0.177 C 
BRANCH  21  26
ATOM     26  O   UNL     1      -7.556   9.437   5.259  1.00  0.00    -0.387 OA
ATOM     27  H   UNL     1      -7.185  10.339   5.457  1.00  0.00     0.211 HD
ENDBRANCH  21  26
BRANCH  23  28
ATOM     28  O   UNL     1      -7.096   7.064   7.962  1.00  0.00    -0.387 OA
ATOM     29  H   UNL     1      -7.455   7.022   8.886  1.00  0.00     0.211 HD
ENDBRANCH  23  28
BRANCH  24  30
ATOM     30  C   UNL     1      -5.189  10.122   9.706  1.00  0.00     0.191 C 
BRANCH  30  31
ATOM     31  O   UNL     1      -4.503   8.972  10.113  1.00  0.00    -0.394 OA
ATOM     32  H   UNL     1      -4.749   8.262   9.466  1.00  0.00     0.210 HD
ENDBRANCH  30  31
ENDBRANCH  24  30
BRANCH  25  33
ATOM     33  O   UNL     1      -7.685   9.040   9.674  1.00  0.00    -0.388 OA
ATOM     34  H   UNL     1      -6.853   8.896  10.191  1.00  0.00     0.211 HD
ENDBRANCH  25  33
ENDBRANCH  11  20
BRANCH  10  35
ATOM     35  O   UNL     1      -5.454   8.824   3.394  1.00  0.00    -0.507 OA
ATOM     36  H   UNL     1      -6.158   9.342   3.910  1.00  0.00     0.293 HD
ENDBRANCH  10  35
TORSDOF 9
ENDMDL
MODEL 6
REMARK VINA RESULT:    -5.251     15.152     18.102
REMARK INTER + INTRA:          -7.463
REMARK INTER:                  -6.873
REMARK INTRA:                  -0.591
REMARK UNBOUND:                -0.371
REMARK SMILES O=c1c(-c2ccc(O)cc2)coc2c([C@@H]3O[C@H](CO)[C@H](O)[C@H](O)[C@H]3O)c(O)ccc12
REMARK SMILES IDX 3 1 11 2 12 3 13 4 30 5 2 6 1 7 29 8 28 9 26 10 14 11 4 12
REMARK SMILES IDX 5 13 6 14 7 15 10 16 9 17 8 18 15 20 24 21 16 22 22 23 17 24
REMARK SMILES IDX 20 25 25 26 23 28 18 30 19 31 21 33 27 35
REMARK H PARENT 8 19 25 27 23 29 19 32 21 34 27 36
REMARK Flexibility Score: inf
ROOT
ATOM      1  C   UNL     1      -1.051   6.055   6.899  1.00  0.00     0.065 A 
ATOM      2  C   UNL     1      -2.423   5.826   7.060  1.00  0.00     0.208 A 
ATOM      3  O   UNL     1      -3.317   6.553   6.401  1.00  0.00    -0.463 OA
ATOM      4  C   UNL     1      -2.990   7.523   5.548  1.00  0.00     0.147 A 
ATOM      5  C   UNL     1      -1.623   7.773   5.271  1.00  0.00     0.066 A 
ATOM      6  C   UNL     1      -0.648   7.015   5.949  1.00  0.00     0.200 A 
ATOM      7  O   UNL     1       0.578   7.191   5.707  1.00  0.00    -0.288 OA
ATOM      8  C   UNL     1      -1.266   8.771   4.350  1.00  0.00     0.020 A 
ATOM      9  C   UNL     1      -2.255   9.530   3.725  1.00  0.00     0.047 A 
ATOM     10  C   UNL     1      -3.607   9.304   3.998  1.00  0.00     0.125 A 
ATOM     11  C   UNL     1      -3.995   8.310   4.926  1.00  0.00     0.069 A 
ENDROOT
BRANCH   1  12
ATOM     12  C   UNL     1      -0.070   5.289   7.710  1.00  0.00    -0.011 A 
ATOM     13  C   UNL     1       0.404   5.806   8.932  1.00  0.00     0.013 A 
ATOM     14  C   UNL     1       1.309   5.074   9.706  1.00  0.00     0.047 A 
ATOM     15  C   UNL     1       1.749   3.811   9.274  1.00  0.00     0.115 A 
ATOM     16  C   UNL     1       0.387   4.031   7.277  1.00  0.00     0.013 A 
ATOM     17  C   UNL     1       1.291   3.300   8.055  1.00  0.00     0.047 A 
BRANCH  15  18
ATOM     18  O   UNL     1       2.641   3.065  10.043  1.00  0.00    -0.508 OA
ATOM     19  H   UNL     1       2.330   2.557  10.864  1.00  0.00     0.293 HD
ENDBRANCH  15  18
ENDBRANCH   1  12
BRANCH  11  20
ATOM     20  C   UNL     1      -5.485   8.132   5.223  1.00  0.00     0.188 C 
ATOM     21  C   UNL     1      -5.808   6.645   5.587  1.00  0.00     0.179 C 
ATOM     22  O   UNL     1      -5.910   9.024   6.244  1.00  0.00    -0.362 OA
ATOM     23  C   UNL     1      -6.551   6.536   6.939  1.00  0.00     0.177 C 
ATOM     24  C   UNL     1      -7.311   8.938   6.439  1.00  0.00     0.176 C 
ATOM     25  C   UNL     1      -7.717   7.548   7.022  1.00  0.00     0.177 C 
BRANCH  21  26
ATOM     26  O   UNL     1      -6.542   6.023   4.559  1.00  0.00    -0.387 OA
ATOM     27  H   UNL     1      -7.029   6.732   4.059  1.00  0.00     0.211 HD
ENDBRANCH  21  26
BRANCH  23  28
ATOM     28  O   UNL     1      -5.645   6.784   7.989  1.00  0.00    -0.387 OA
ATOM     29  H   UNL     1      -4.803   6.312   7.762  1.00  0.00     0.211 HD
ENDBRANCH  23  28
BRANCH  24  30
ATOM     30  C   UNL     1      -7.746  10.124   7.311  1.00  0.00     0.191 C 
BRANCH  30  31
ATOM     31  O   UNL     1      -9.137  10.125   7.465  1.00  0.00    -0.394 OA
ATOM     32  H   UNL     1      -9.515  10.139   6.548  1.00  0.00     0.210 HD
ENDBRANCH  30  31
ENDBRANCH  24  30
BRANCH  25  33
ATOM     33  O   UNL     1      -8.156   7.646   8.357  1.00  0.00    -0.388 OA
ATOM     34  H   UNL     1      -7.373   7.912   8.901  1.00  0.00     0.211 HD
ENDBRANCH  25  33
ENDBRANCH  11  20
BRANCH  10  35
ATOM     35  O   UNL     1      -4.569  10.073   3.349  1.00  0.00    -0.507 OA
ATOM     36  H   UNL     1      -5.387   9.654   2.919  1.00  0.00     0.293 HD
ENDBRANCH  10  35
TORSDOF 9
ENDMDL
MODEL 7
REMARK VINA RESULT:    -4.855     16.057     18.513
REMARK INTER + INTRA:          -6.929
REMARK INTER:                  -6.303
REMARK INTRA:                  -0.627
REMARK UNBOUND:                -0.371
REMARK SMILES O=c1c(-c2ccc(O)cc2)coc2c([C@@H]3O[C@H](CO)[C@H](O)[C@H](O)[C@H]3O)c(O)ccc12
REMARK SMILES IDX 3 1 11 2 12 3 13 4 30 5 2 6 1 7 29 8 28 9 26 10 14 11 4 12
REMARK SMILES IDX 5 13 6 14 7 15 10 16 9 17 8 18 15 20 24 21 16 22 22 23 17 24
REMARK SMILES IDX 20 25 25 26 23 28 18 30 19 31 21 33 27 35
REMARK H PARENT 8 19 25 27 23 29 19 32 21 34 27 36
REMARK Flexibility Score: inf
ROOT
ATOM      1  C   UNL     1      -2.273   4.713   8.871  1.00  0.00     0.065 A 
ATOM      2  C   UNL     1      -3.011   5.852   8.531  1.00  0.00     0.208 A 
ATOM      3  O   UNL     1      -4.332   5.870   8.655  1.00  0.00    -0.463 OA
ATOM      4  C   UNL     1      -5.041   4.838   9.111  1.00  0.00     0.147 A 
ATOM      5  C   UNL     1      -4.367   3.670   9.546  1.00  0.00     0.066 A 
ATOM      6  C   UNL     1      -2.964   3.621   9.434  1.00  0.00     0.200 A 
ATOM      7  O   UNL     1      -2.327   2.608   9.837  1.00  0.00    -0.288 OA
ATOM      8  C   UNL     1      -5.101   2.588  10.059  1.00  0.00     0.020 A 
ATOM      9  C   UNL     1      -6.492   2.654  10.119  1.00  0.00     0.047 A 
ATOM     10  C   UNL     1      -7.172   3.794   9.682  1.00  0.00     0.125 A 
ATOM     11  C   UNL     1      -6.460   4.897   9.155  1.00  0.00     0.069 A 
ENDROOT
BRANCH   1  12
ATOM     12  C   UNL     1      -0.805   4.684   8.644  1.00  0.00    -0.011 A 
ATOM     13  C   UNL     1       0.087   4.711   9.734  1.00  0.00     0.013 A 
ATOM     14  C   UNL     1       1.468   4.660   9.519  1.00  0.00     0.047 A 
ATOM     15  C   UNL     1       1.978   4.574   8.213  1.00  0.00     0.115 A 
ATOM     16  C   UNL     1      -0.286   4.614   7.338  1.00  0.00     0.013 A 
ATOM     17  C   UNL     1       1.096   4.562   7.127  1.00  0.00     0.047 A 
BRANCH  15  18
ATOM     18  O   UNL     1       3.351   4.509   7.986  1.00  0.00    -0.508 OA
ATOM     19  H   UNL     1       3.845   3.623   7.998  1.00  0.00     0.293 HD
ENDBRANCH  15  18
ENDBRANCH   1  12
BRANCH  11  20
ATOM     20  C   UNL     1      -7.253   6.102   8.648  1.00  0.00     0.188 C 
ATOM     21  C   UNL     1      -7.590   7.082   9.822  1.00  0.00     0.179 C 
ATOM     22  O   UNL     1      -6.559   6.762   7.599  1.00  0.00    -0.362 OA
ATOM     23  C   UNL     1      -7.126   8.525   9.512  1.00  0.00     0.177 C 
ATOM     24  C   UNL     1      -7.344   7.809   7.055  1.00  0.00     0.176 C 
ATOM     25  C   UNL     1      -7.552   8.959   8.091  1.00  0.00     0.177 C 
BRANCH  21  26
ATOM     26  O   UNL     1      -8.965   7.050  10.125  1.00  0.00    -0.387 OA
ATOM     27  H   UNL     1      -9.276   6.109  10.028  1.00  0.00     0.211 HD
ENDBRANCH  21  26
BRANCH  23  28
ATOM     28  O   UNL     1      -5.723   8.595   9.618  1.00  0.00    -0.387 OA
ATOM     29  H   UNL     1      -5.356   8.433   8.711  1.00  0.00     0.211 HD
ENDBRANCH  23  28
BRANCH  24  30
ATOM     30  C   UNL     1      -6.687   8.269   5.746  1.00  0.00     0.191 C 
BRANCH  30  31
ATOM     31  O   UNL     1      -6.535   7.184   4.876  1.00  0.00    -0.394 OA
ATOM     32  H   UNL     1      -6.040   6.491   5.385  1.00  0.00     0.210 HD
ENDBRANCH  30  31
ENDBRANCH  24  30
BRANCH  25  33
ATOM     33  O   UNL     1      -6.850  10.125   7.729  1.00  0.00    -0.388 OA
ATOM     34  H   UNL     1      -6.544  10.552   8.568  1.00  0.00     0.211 HD
ENDBRANCH  25  33
ENDBRANCH  11  20
BRANCH  10  35
ATOM     35  O   UNL     1      -8.561   3.832   9.767  1.00  0.00    -0.507 OA
ATOM     36  H   UNL     1      -9.046   3.724  10.651  1.00  0.00     0.293 HD
ENDBRANCH  10  35
TORSDOF 9
ENDMDL
MODEL 8
REMARK VINA RESULT:    -4.403     14.836     17.636
REMARK INTER + INTRA:          -6.318
REMARK INTER:                  -5.265
REMARK INTRA:                  -1.053
REMARK UNBOUND:                -0.371
REMARK SMILES O=c1c(-c2ccc(O)cc2)coc2c([C@@H]3O[C@H](CO)[C@H](O)[C@H](O)[C@H]3O)c(O)ccc12
REMARK SMILES IDX 3 1 11 2 12 3 13 4 30 5 2 6 1 7 29 8 28 9 26 10 14 11 4 12
REMARK SMILES IDX 5 13 6 14 7 15 10 16 9 17 8 18 15 20 24 21 16 22 22 23 17 24
REMARK SMILES IDX 20 25 25 26 23 28 18 30 19 31 21 33 27 35
REMARK H PARENT 8 19 25 27 23 29 19 32 21 34 27 36
REMARK Flexibility Score: inf
ROOT
ATOM      1  C   UNL     1      -5.695   1.823   9.214  1.00  0.00     0.065 A 
ATOM      2  C   UNL     1      -4.540   2.482   8.779  1.00  0.00     0.208 A 
ATOM      3  O   UNL     1      -4.503   3.806   8.688  1.00  0.00    -0.463 OA
ATOM      4  C   UNL     1      -5.531   4.592   9.007  1.00  0.00     0.147 A 
ATOM      5  C   UNL     1      -6.715   4.013   9.526  1.00  0.00     0.066 A 
ATOM      6  C   UNL     1      -6.785   2.610   9.640  1.00  0.00     0.200 A 
ATOM      7  O   UNL     1      -7.813   2.060  10.124  1.00  0.00    -0.288 OA
ATOM      8  C   UNL     1      -7.793   4.833   9.895  1.00  0.00     0.020 A 
ATOM      9  C   UNL     1      -7.707   6.215   9.732  1.00  0.00     0.047 A 
ATOM     10  C   UNL     1      -6.550   6.800   9.209  1.00  0.00     0.125 A 
ATOM     11  C   UNL     1      -5.451   5.999   8.823  1.00  0.00     0.069 A 
ENDROOT
BRANCH   1  12
ATOM     12  C   UNL     1      -5.744   0.339   9.226  1.00  0.00    -0.011 A 
ATOM     13  C   UNL     1      -4.911  -0.396  10.094  1.00  0.00     0.013 A 
ATOM     14  C   UNL     1      -4.974  -1.792  10.120  1.00  0.00     0.047 A 
ATOM     15  C   UNL     1      -5.875  -2.475   9.286  1.00  0.00     0.115 A 
ATOM     16  C   UNL     1      -6.632  -0.354   8.383  1.00  0.00     0.013 A 
ATOM     17  C   UNL     1      -6.693  -1.751   8.413  1.00  0.00     0.047 A 
BRANCH  15  18
ATOM     18  O   UNL     1      -5.957  -3.867   9.313  1.00  0.00    -0.508 OA
ATOM     19  H   UNL     1      -6.047  -4.372  10.188  1.00  0.00     0.293 HD
ENDBRANCH  15  18
ENDBRANCH   1  12
BRANCH  11  20
ATOM     20  C   UNL     1      -4.227   6.684   8.215  1.00  0.00     0.188 C 
ATOM     21  C   UNL     1      -3.030   6.687   9.224  1.00  0.00     0.179 C 
ATOM     22  O   UNL     1      -3.867   6.081   6.980  1.00  0.00    -0.362 OA
ATOM     23  C   UNL     1      -1.753   6.079   8.598  1.00  0.00     0.177 C 
ATOM     24  C   UNL     1      -2.804   6.787   6.363  1.00  0.00     0.176 C 
ATOM     25  C   UNL     1      -1.486   6.661   7.191  1.00  0.00     0.177 C 
BRANCH  21  26
ATOM     26  O   UNL     1      -2.784   7.985   9.709  1.00  0.00    -0.387 OA
ATOM     27  H   UNL     1      -1.891   8.272   9.374  1.00  0.00     0.211 HD
ENDBRANCH  21  26
BRANCH  23  28
ATOM     28  O   UNL     1      -1.902   4.682   8.501  1.00  0.00    -0.387 OA
ATOM     29  H   UNL     1      -1.221   4.276   9.098  1.00  0.00     0.211 HD
ENDBRANCH  23  28
BRANCH  24  30
ATOM     30  C   UNL     1      -2.675   6.290   4.917  1.00  0.00     0.191 C 
BRANCH  30  31
ATOM     31  O   UNL     1      -2.553   4.896   4.896  1.00  0.00    -0.394 OA
ATOM     32  H   UNL     1      -2.663   4.596   5.836  1.00  0.00     0.210 HD
ENDBRANCH  30  31
ENDBRANCH  24  30
BRANCH  25  33
ATOM     33  O   UNL     1      -0.526   5.869   6.532  1.00  0.00    -0.388 OA
ATOM     34  H   UNL     1      -1.020   5.193   6.004  1.00  0.00     0.211 HD
ENDBRANCH  25  33
ENDBRANCH  11  20
BRANCH  10  35
ATOM     35  O   UNL     1      -6.493   8.185   9.070  1.00  0.00    -0.507 OA
ATOM     36  H   UNL     1      -5.966   8.625   8.323  1.00  0.00     0.293 HD
ENDBRANCH  10  35
TORSDOF 9
ENDMDL
