MODEL 1
REMARK VINA RESULT:    -8.466      0.000      0.000
REMARK INTER + INTRA:         -10.338
REMARK INTER:                 -10.198
REMARK INTRA:                  -0.140
REMARK UNBOUND:                -0.140
REMARK SMILES O=c1c(O)c(-c2ccc(O)c(O)c2)oc2cc(O)cc(O)c12
REMARK SMILES IDX 5 1 3 2 2 3 1 4 22 5 20 6 19 7 17 8 16 9 15 10 14 11 6 12
REMARK SMILES IDX 7 13 8 14 9 15 13 16 11 17 10 18 12 20 4 22 21 24 18 26
REMARK H PARENT 10 19 12 21 4 23 21 25 18 27
REMARK Flexibility Score: inf
ROOT
ATOM      1  C   UNL     1     -34.450  44.276  39.950  1.00  0.00     0.180 A 
ATOM      2  C   UNL     1     -35.126  44.896  41.016  1.00  0.00     0.208 A 
ATOM      3  C   UNL     1     -35.455  44.134  42.149  1.00  0.00     0.238 A 
ATOM      4  O   UNL     1     -36.107  44.681  43.076  1.00  0.00    -0.285 OA
ATOM      5  C   UNL     1     -35.088  42.768  42.209  1.00  0.00     0.111 A 
ATOM      6  C   UNL     1     -35.335  41.912  43.325  1.00  0.00     0.134 A 
ATOM      7  C   UNL     1     -35.046  40.546  43.223  1.00  0.00     0.093 A 
ATOM      8  C   UNL     1     -34.461  40.016  42.071  1.00  0.00     0.123 A 
ATOM      9  C   UNL     1     -34.162  40.854  41.000  1.00  0.00     0.094 A 
ATOM     10  C   UNL     1     -34.471  42.216  41.057  1.00  0.00     0.146 A 
ATOM     11  O   UNL     1     -34.179  42.978  40.010  1.00  0.00    -0.452 OA
ENDROOT
BRANCH   1  12
ATOM     12  C   UNL     1     -34.049  45.018  38.734  1.00  0.00     0.025 A 
ATOM     13  C   UNL     1     -35.037  45.549  37.889  1.00  0.00     0.016 A 
ATOM     14  C   UNL     1     -34.680  46.234  36.726  1.00  0.00     0.051 A 
ATOM     15  C   UNL     1     -33.335  46.388  36.380  1.00  0.00     0.157 A 
ATOM     16  C   UNL     1     -32.695  45.156  38.373  1.00  0.00     0.062 A 
ATOM     17  C   UNL     1     -32.336  45.843  37.204  1.00  0.00     0.158 A 
BRANCH  15  18
ATOM     18  O   UNL     1     -33.010  47.080  35.213  1.00  0.00    -0.504 OA
ATOM     19  H   UNL     1     -32.397  47.887  35.219  1.00  0.00     0.293 HD
ENDBRANCH  15  18
BRANCH  17  20
ATOM     20  O   UNL     1     -30.993  45.980  36.857  1.00  0.00    -0.504 OA
ATOM     21  H   UNL     1     -30.424  45.180  36.608  1.00  0.00     0.293 HD
ENDBRANCH  17  20
ENDBRANCH   1  12
BRANCH   2  22
ATOM     22  O   UNL     1     -35.497  46.241  40.925  1.00  0.00    -0.502 OA
ATOM     23  H   UNL     1     -36.327  46.607  41.376  1.00  0.00     0.293 HD
ENDBRANCH   2  22
BRANCH   6  24
ATOM     24  O   UNL     1     -35.832  42.356  44.554  1.00  0.00    -0.507 OA
ATOM     25  H   UNL     1     -36.476  41.840  45.133  1.00  0.00     0.293 HD
ENDBRANCH   6  24
BRANCH   8  26
ATOM     26  O   UNL     1     -34.163  38.659  41.985  1.00  0.00    -0.508 OA
ATOM     27  H   UNL     1     -33.782  38.148  42.772  1.00  0.00     0.293 HD
ENDBRANCH   8  26
TORSDOF 6
ENDMDL
MODEL 2
REMARK VINA RESULT:    -8.135      4.797      8.008
REMARK INTER + INTRA:          -9.940
REMARK INTER:                  -9.637
REMARK INTRA:                  -0.302
REMARK UNBOUND:                -0.140
REMARK SMILES O=c1c(O)c(-c2ccc(O)c(O)c2)oc2cc(O)cc(O)c12
REMARK SMILES IDX 5 1 3 2 2 3 1 4 22 5 20 6 19 7 17 8 16 9 15 10 14 11 6 12
REMARK SMILES IDX 7 13 8 14 9 15 13 16 11 17 10 18 12 20 4 22 21 24 18 26
REMARK H PARENT 10 19 12 21 4 23 21 25 18 27
REMARK Flexibility Score: inf
ROOT
ATOM      1  C   UNL     1     -37.287  38.800  44.010  1.00  0.00     0.180 A 
ATOM      2  C   UNL     1     -36.681  37.543  44.181  1.00  0.00     0.208 A 
ATOM      3  C   UNL     1     -37.105  36.721  45.238  1.00  0.00     0.238 A 
ATOM      4  O   UNL     1     -36.522  35.621  45.419  1.00  0.00    -0.285 OA
ATOM      5  C   UNL     1     -38.140  37.160  46.099  1.00  0.00     0.111 A 
ATOM      6  C   UNL     1     -38.675  36.393  47.178  1.00  0.00     0.134 A 
ATOM      7  C   UNL     1     -39.606  36.978  48.046  1.00  0.00     0.093 A 
ATOM      8  C   UNL     1     -40.068  38.279  47.835  1.00  0.00     0.123 A 
ATOM      9  C   UNL     1     -39.595  39.014  46.751  1.00  0.00     0.094 A 
ATOM     10  C   UNL     1     -38.639  38.470  45.889  1.00  0.00     0.146 A 
ATOM     11  O   UNL     1     -38.208  39.209  44.873  1.00  0.00    -0.452 OA
ENDROOT
BRANCH   1  12
ATOM     12  C   UNL     1     -36.912  39.711  42.905  1.00  0.00     0.025 A 
ATOM     13  C   UNL     1     -35.796  40.551  43.049  1.00  0.00     0.016 A 
ATOM     14  C   UNL     1     -35.437  41.433  42.028  1.00  0.00     0.051 A 
ATOM     15  C   UNL     1     -36.193  41.501  40.854  1.00  0.00     0.157 A 
ATOM     16  C   UNL     1     -37.684  39.796  41.731  1.00  0.00     0.062 A 
ATOM     17  C   UNL     1     -37.325  40.683  40.705  1.00  0.00     0.158 A 
BRANCH  15  18
ATOM     18  O   UNL     1     -35.808  42.390  39.850  1.00  0.00    -0.504 OA
ATOM     19  H   UNL     1     -35.651  43.374  40.034  1.00  0.00     0.293 HD
ENDBRANCH  15  18
BRANCH  17  20
ATOM     20  O   UNL     1     -38.091  40.756  39.543  1.00  0.00    -0.504 OA
ATOM     21  H   UNL     1     -38.077  41.576  38.948  1.00  0.00     0.293 HD
ENDBRANCH  17  20
ENDBRANCH   1  12
BRANCH   2  22
ATOM     22  O   UNL     1     -35.647  37.139  43.332  1.00  0.00    -0.502 OA
ATOM     23  H   UNL     1     -35.112  37.796  42.777  1.00  0.00     0.293 HD
ENDBRANCH   2  22
BRANCH   6  24
ATOM     24  O   UNL     1     -38.349  35.055  47.421  1.00  0.00    -0.507 OA
ATOM     25  H   UNL     1     -38.400  34.606  48.323  1.00  0.00     0.293 HD
ENDBRANCH   6  24
BRANCH   8  26
ATOM     26  O   UNL     1     -41.005  38.847  48.694  1.00  0.00    -0.508 OA
ATOM     27  H   UNL     1     -40.775  39.073  49.655  1.00  0.00     0.293 HD
ENDBRANCH   8  26
TORSDOF 6
ENDMDL
MODEL 3
REMARK VINA RESULT:    -8.071      4.255      9.704
REMARK INTER + INTRA:          -9.862
REMARK INTER:                  -9.550
REMARK INTRA:                  -0.312
REMARK UNBOUND:                -0.140
REMARK SMILES O=c1c(O)c(-c2ccc(O)c(O)c2)oc2cc(O)cc(O)c12
REMARK SMILES IDX 5 1 3 2 2 3 1 4 22 5 20 6 19 7 17 8 16 9 15 10 14 11 6 12
REMARK SMILES IDX 7 13 8 14 9 15 13 16 11 17 10 18 12 20 4 22 21 24 18 26
REMARK H PARENT 10 19 12 21 4 23 21 25 18 27
REMARK Flexibility Score: inf
ROOT
ATOM      1  C   UNL     1     -37.526  39.533  44.863  1.00  0.00     0.180 A 
ATOM      2  C   UNL     1     -36.728  38.626  44.145  1.00  0.00     0.208 A 
ATOM      3  C   UNL     1     -35.811  39.122  43.204  1.00  0.00     0.238 A 
ATOM      4  O   UNL     1     -35.139  38.302  42.526  1.00  0.00    -0.285 OA
ATOM      5  C   UNL     1     -35.692  40.519  43.006  1.00  0.00     0.111 A 
ATOM      6  C   UNL     1     -34.769  41.133  42.107  1.00  0.00     0.134 A 
ATOM      7  C   UNL     1     -34.828  42.516  41.895  1.00  0.00     0.093 A 
ATOM      8  C   UNL     1     -35.734  43.314  42.597  1.00  0.00     0.123 A 
ATOM      9  C   UNL     1     -36.600  42.731  43.519  1.00  0.00     0.094 A 
ATOM     10  C   UNL     1     -36.589  41.349  43.726  1.00  0.00     0.146 A 
ATOM     11  O   UNL     1     -37.437  40.833  44.607  1.00  0.00    -0.452 OA
ENDROOT
BRANCH   1  12
ATOM     12  C   UNL     1     -38.496  39.088  45.889  1.00  0.00     0.025 A 
ATOM     13  C   UNL     1     -39.865  39.049  45.576  1.00  0.00     0.016 A 
ATOM     14  C   UNL     1     -40.799  38.653  46.535  1.00  0.00     0.051 A 
ATOM     15  C   UNL     1     -40.385  38.304  47.824  1.00  0.00     0.157 A 
ATOM     16  C   UNL     1     -38.084  38.757  47.193  1.00  0.00     0.062 A 
ATOM     17  C   UNL     1     -39.022  38.360  48.158  1.00  0.00     0.158 A 
BRANCH  15  18
ATOM     18  O   UNL     1     -41.342  37.909  48.759  1.00  0.00    -0.504 OA
ATOM     19  H   UNL     1     -42.333  37.918  48.552  1.00  0.00     0.293 HD
ENDBRANCH  15  18
BRANCH  17  20
ATOM     20  O   UNL     1     -38.604  38.027  49.445  1.00  0.00    -0.504 OA
ATOM     21  H   UNL     1     -38.946  37.198  49.917  1.00  0.00     0.293 HD
ENDBRANCH  17  20
ENDBRANCH   1  12
BRANCH   2  22
ATOM     22  O   UNL     1     -36.877  37.250  44.342  1.00  0.00    -0.502 OA
ATOM     23  H   UNL     1     -37.785  36.807  44.412  1.00  0.00     0.293 HD
ENDBRANCH   2  22
BRANCH   6  24
ATOM     24  O   UNL     1     -33.764  40.440  41.426  1.00  0.00    -0.507 OA
ATOM     25  H   UNL     1     -32.981  39.983  41.867  1.00  0.00     0.293 HD
ENDBRANCH   6  24
BRANCH   8  26
ATOM     26  O   UNL     1     -35.777  44.691  42.391  1.00  0.00    -0.508 OA
ATOM     27  H   UNL     1     -34.955  45.271  42.513  1.00  0.00     0.293 HD
ENDBRANCH   8  26
TORSDOF 6
ENDMDL
MODEL 4
REMARK VINA RESULT:    -8.036      5.679      8.012
REMARK INTER + INTRA:          -9.820
REMARK INTER:                  -9.502
REMARK INTRA:                  -0.318
REMARK UNBOUND:                -0.140
REMARK SMILES O=c1c(O)c(-c2ccc(O)c(O)c2)oc2cc(O)cc(O)c12
REMARK SMILES IDX 5 1 3 2 2 3 1 4 22 5 20 6 19 7 17 8 16 9 15 10 14 11 6 12
REMARK SMILES IDX 7 13 8 14 9 15 13 16 11 17 10 18 12 20 4 22 21 24 18 26
REMARK H PARENT 10 19 12 21 4 23 21 25 18 27
REMARK Flexibility Score: inf
ROOT
ATOM      1  C   UNL     1     -36.937  39.859  45.115  1.00  0.00     0.180 A 
ATOM      2  C   UNL     1     -38.064  39.959  44.281  1.00  0.00     0.208 A 
ATOM      3  C   UNL     1     -39.312  39.538  44.769  1.00  0.00     0.238 A 
ATOM      4  O   UNL     1     -40.307  39.580  44.000  1.00  0.00    -0.285 OA
ATOM      5  C   UNL     1     -39.418  39.037  46.090  1.00  0.00     0.111 A 
ATOM      6  C   UNL     1     -40.639  38.620  46.701  1.00  0.00     0.134 A 
ATOM      7  C   UNL     1     -40.607  38.019  47.966  1.00  0.00     0.093 A 
ATOM      8  C   UNL     1     -39.408  37.881  48.668  1.00  0.00     0.123 A 
ATOM      9  C   UNL     1     -38.219  38.339  48.104  1.00  0.00     0.094 A 
ATOM     10  C   UNL     1     -38.214  38.910  46.828  1.00  0.00     0.146 A 
ATOM     11  O   UNL     1     -37.058  39.324  46.324  1.00  0.00    -0.452 OA
ENDROOT
BRANCH   1  12
ATOM     12  C   UNL     1     -35.594  40.305  44.680  1.00  0.00     0.025 A 
ATOM     13  C   UNL     1     -35.238  41.657  44.810  1.00  0.00     0.016 A 
ATOM     14  C   UNL     1     -33.985  42.104  44.387  1.00  0.00     0.051 A 
ATOM     15  C   UNL     1     -33.073  41.212  43.814  1.00  0.00     0.157 A 
ATOM     16  C   UNL     1     -34.682  39.413  44.085  1.00  0.00     0.062 A 
ATOM     17  C   UNL     1     -33.423  39.861  43.657  1.00  0.00     0.158 A 
BRANCH  15  18
ATOM     18  O   UNL     1     -31.827  41.687  43.404  1.00  0.00    -0.504 OA
ATOM     19  H   UNL     1     -31.717  42.267  42.581  1.00  0.00     0.293 HD
ENDBRANCH  15  18
BRANCH  17  20
ATOM     20  O   UNL     1     -32.524  38.969  43.075  1.00  0.00    -0.504 OA
ATOM     21  H   UNL     1     -31.524  39.058  43.212  1.00  0.00     0.293 HD
ENDBRANCH  17  20
ENDBRANCH   1  12
BRANCH   2  22
ATOM     22  O   UNL     1     -37.932  40.436  42.974  1.00  0.00    -0.502 OA
ATOM     23  H   UNL     1     -38.724  40.751  42.427  1.00  0.00     0.293 HD
ENDBRANCH   2  22
BRANCH   6  24
ATOM     24  O   UNL     1     -41.901  38.796  46.125  1.00  0.00    -0.507 OA
ATOM     25  H   UNL     1     -42.065  38.987  45.149  1.00  0.00     0.293 HD
ENDBRANCH   6  24
BRANCH   8  26
ATOM     26  O   UNL     1     -39.387  37.296  49.931  1.00  0.00    -0.508 OA
ATOM     27  H   UNL     1     -39.150  37.830  50.759  1.00  0.00     0.293 HD
ENDBRANCH   8  26
TORSDOF 6
ENDMDL
MODEL 5
REMARK VINA RESULT:    -8.001      2.581      4.352
REMARK INTER + INTRA:          -9.778
REMARK INTER:                  -9.489
REMARK INTRA:                  -0.289
REMARK UNBOUND:                -0.140
REMARK SMILES O=c1c(O)c(-c2ccc(O)c(O)c2)oc2cc(O)cc(O)c12
REMARK SMILES IDX 5 1 3 2 2 3 1 4 22 5 20 6 19 7 17 8 16 9 15 10 14 11 6 12
REMARK SMILES IDX 7 13 8 14 9 15 13 16 11 17 10 18 12 20 4 22 21 24 18 26
REMARK H PARENT 10 19 12 21 4 23 21 25 18 27
REMARK Flexibility Score: inf
ROOT
ATOM      1  C   UNL     1     -35.467  41.868  42.185  1.00  0.00     0.180 A 
ATOM      2  C   UNL     1     -34.453  41.132  42.824  1.00  0.00     0.208 A 
ATOM      3  C   UNL     1     -34.812  40.142  43.752  1.00  0.00     0.238 A 
ATOM      4  O   UNL     1     -33.900  39.524  44.360  1.00  0.00    -0.285 OA
ATOM      5  C   UNL     1     -36.180  39.888  44.017  1.00  0.00     0.111 A 
ATOM      6  C   UNL     1     -36.659  38.881  44.908  1.00  0.00     0.134 A 
ATOM      7  C   UNL     1     -38.028  38.806  45.193  1.00  0.00     0.093 A 
ATOM      8  C   UNL     1     -38.942  39.658  44.569  1.00  0.00     0.123 A 
ATOM      9  C   UNL     1     -38.490  40.605  43.654  1.00  0.00     0.094 A 
ATOM     10  C   UNL     1     -37.126  40.728  43.376  1.00  0.00     0.146 A 
ATOM     11  O   UNL     1     -36.737  41.651  42.504  1.00  0.00    -0.452 OA
ENDROOT
BRANCH   1  12
ATOM     12  C   UNL     1     -35.168  42.910  41.177  1.00  0.00     0.025 A 
ATOM     13  C   UNL     1     -35.308  44.264  41.520  1.00  0.00     0.016 A 
ATOM     14  C   UNL     1     -35.052  45.263  40.578  1.00  0.00     0.051 A 
ATOM     15  C   UNL     1     -34.666  44.927  39.278  1.00  0.00     0.157 A 
ATOM     16  C   UNL     1     -34.799  42.573  39.861  1.00  0.00     0.062 A 
ATOM     17  C   UNL     1     -34.543  43.576  38.914  1.00  0.00     0.158 A 
BRANCH  15  18
ATOM     18  O   UNL     1     -34.413  45.947  38.360  1.00  0.00    -0.504 OA
ATOM     19  H   UNL     1     -33.500  46.082  37.944  1.00  0.00     0.293 HD
ENDBRANCH  15  18
BRANCH  17  20
ATOM     20  O   UNL     1     -34.173  43.233  37.615  1.00  0.00    -0.504 OA
ATOM     21  H   UNL     1     -34.859  42.957  36.922  1.00  0.00     0.293 HD
ENDBRANCH  17  20
ENDBRANCH   1  12
BRANCH   2  22
ATOM     22  O   UNL     1     -33.109  41.415  42.563  1.00  0.00    -0.502 OA
ATOM     23  H   UNL     1     -32.503  40.767  42.075  1.00  0.00     0.293 HD
ENDBRANCH   2  22
BRANCH   6  24
ATOM     24  O   UNL     1     -35.842  37.921  45.513  1.00  0.00    -0.507 OA
ATOM     25  H   UNL     1     -35.011  38.127  46.046  1.00  0.00     0.293 HD
ENDBRANCH   6  24
BRANCH   8  26
ATOM     26  O   UNL     1     -40.303  39.566  44.847  1.00  0.00    -0.508 OA
ATOM     27  H   UNL     1     -40.845  40.379  45.120  1.00  0.00     0.293 HD
ENDBRANCH   8  26
TORSDOF 6
ENDMDL
MODEL 6
REMARK VINA RESULT:    -7.944      3.789      6.444
REMARK INTER + INTRA:          -9.709
REMARK INTER:                  -9.383
REMARK INTRA:                  -0.326
REMARK UNBOUND:                -0.140
REMARK SMILES O=c1c(O)c(-c2ccc(O)c(O)c2)oc2cc(O)cc(O)c12
REMARK SMILES IDX 5 1 3 2 2 3 1 4 22 5 20 6 19 7 17 8 16 9 15 10 14 11 6 12
REMARK SMILES IDX 7 13 8 14 9 15 13 16 11 17 10 18 12 20 4 22 21 24 18 26
REMARK H PARENT 10 19 12 21 4 23 21 25 18 27
REMARK Flexibility Score: inf
ROOT
ATOM      1  C   UNL     1     -36.361  40.418  43.936  1.00  0.00     0.180 A 
ATOM      2  C   UNL     1     -35.452  40.092  44.958  1.00  0.00     0.208 A 
ATOM      3  C   UNL     1     -35.932  39.474  46.124  1.00  0.00     0.238 A 
ATOM      4  O   UNL     1     -35.122  39.233  47.057  1.00  0.00    -0.285 OA
ATOM      5  C   UNL     1     -37.310  39.175  46.247  1.00  0.00     0.111 A 
ATOM      6  C   UNL     1     -37.899  38.513  47.366  1.00  0.00     0.134 A 
ATOM      7  C   UNL     1     -39.292  38.387  47.439  1.00  0.00     0.093 A 
ATOM      8  C   UNL     1     -40.112  38.839  46.402  1.00  0.00     0.123 A 
ATOM      9  C   UNL     1     -39.542  39.432  45.278  1.00  0.00     0.094 A 
ATOM     10  C   UNL     1     -38.158  39.605  45.193  1.00  0.00     0.146 A 
ATOM     11  O   UNL     1     -37.656  40.185  44.109  1.00  0.00    -0.452 OA
ENDROOT
BRANCH   1  12
ATOM     12  C   UNL     1     -35.928  41.048  42.669  1.00  0.00     0.025 A 
ATOM     13  C   UNL     1     -35.882  42.448  42.572  1.00  0.00     0.016 A 
ATOM     14  C   UNL     1     -35.497  43.063  41.379  1.00  0.00     0.051 A 
ATOM     15  C   UNL     1     -35.166  42.293  40.261  1.00  0.00     0.157 A 
ATOM     16  C   UNL     1     -35.614  40.275  41.536  1.00  0.00     0.062 A 
ATOM     17  C   UNL     1     -35.229  40.891  40.336  1.00  0.00     0.158 A 
BRANCH  15  18
ATOM     18  O   UNL     1     -34.781  42.936  39.084  1.00  0.00    -0.504 OA
ATOM     19  H   UNL     1     -34.249  42.464  38.363  1.00  0.00     0.293 HD
ENDBRANCH  15  18
BRANCH  17  20
ATOM     20  O   UNL     1     -34.913  40.118  39.221  1.00  0.00    -0.504 OA
ATOM     21  H   UNL     1     -34.287  40.456  38.499  1.00  0.00     0.293 HD
ENDBRANCH  17  20
ENDBRANCH   1  12
BRANCH   2  22
ATOM     22  O   UNL     1     -34.099  40.416  44.825  1.00  0.00    -0.502 OA
ATOM     23  H   UNL     1     -33.625  41.043  45.463  1.00  0.00     0.293 HD
ENDBRANCH   2  22
BRANCH   6  24
ATOM     24  O   UNL     1     -37.165  37.944  48.411  1.00  0.00    -0.507 OA
ATOM     25  H   UNL     1     -36.940  36.964  48.488  1.00  0.00     0.293 HD
ENDBRANCH   6  24
BRANCH   8  26
ATOM     26  O   UNL     1     -41.495  38.695  46.475  1.00  0.00    -0.508 OA
ATOM     27  H   UNL     1     -41.923  37.960  47.026  1.00  0.00     0.293 HD
ENDBRANCH   8  26
TORSDOF 6
ENDMDL
MODEL 7
REMARK VINA RESULT:    -7.837      1.793      7.100
REMARK INTER + INTRA:          -9.581
REMARK INTER:                  -9.257
REMARK INTRA:                  -0.324
REMARK UNBOUND:                -0.140
REMARK SMILES O=c1c(O)c(-c2ccc(O)c(O)c2)oc2cc(O)cc(O)c12
REMARK SMILES IDX 5 1 3 2 2 3 1 4 22 5 20 6 19 7 17 8 16 9 15 10 14 11 6 12
REMARK SMILES IDX 7 13 8 14 9 15 13 16 11 17 10 18 12 20 4 22 21 24 18 26
REMARK H PARENT 10 19 12 21 4 23 21 25 18 27
REMARK Flexibility Score: inf
ROOT
ATOM      1  C   UNL     1     -35.131  41.612  41.968  1.00  0.00     0.180 A 
ATOM      2  C   UNL     1     -35.522  42.712  42.751  1.00  0.00     0.208 A 
ATOM      3  C   UNL     1     -35.516  43.994  42.178  1.00  0.00     0.238 A 
ATOM      4  O   UNL     1     -35.816  44.980  42.900  1.00  0.00    -0.285 OA
ATOM      5  C   UNL     1     -35.135  44.157  40.824  1.00  0.00     0.111 A 
ATOM      6  C   UNL     1     -35.131  45.404  40.129  1.00  0.00     0.134 A 
ATOM      7  C   UNL     1     -34.610  45.469  38.831  1.00  0.00     0.093 A 
ATOM      8  C   UNL     1     -34.154  44.321  38.179  1.00  0.00     0.123 A 
ATOM      9  C   UNL     1     -34.209  43.090  38.828  1.00  0.00     0.094 A 
ATOM     10  C   UNL     1     -34.690  42.999  40.137  1.00  0.00     0.146 A 
ATOM     11  O   UNL     1     -34.716  41.807  40.722  1.00  0.00    -0.452 OA
ENDROOT
BRANCH   1  12
ATOM     12  C   UNL     1     -35.135  40.228  42.494  1.00  0.00     0.025 A 
ATOM     13  C   UNL     1     -33.991  39.730  43.137  1.00  0.00     0.016 A 
ATOM     14  C   UNL     1     -33.966  38.420  43.622  1.00  0.00     0.051 A 
ATOM     15  C   UNL     1     -35.074  37.584  43.460  1.00  0.00     0.157 A 
ATOM     16  C   UNL     1     -36.242  39.379  42.313  1.00  0.00     0.062 A 
ATOM     17  C   UNL     1     -36.218  38.063  42.798  1.00  0.00     0.158 A 
BRANCH  15  18
ATOM     18  O   UNL     1     -35.021  36.283  43.958  1.00  0.00    -0.504 OA
ATOM     19  H   UNL     1     -34.807  35.489  43.366  1.00  0.00     0.293 HD
ENDBRANCH  15  18
BRANCH  17  20
ATOM     20  O   UNL     1     -37.321  37.230  42.620  1.00  0.00    -0.504 OA
ATOM     21  H   UNL     1     -38.086  37.213  43.285  1.00  0.00     0.293 HD
ENDBRANCH  17  20
ENDBRANCH   1  12
BRANCH   2  22
ATOM     22  O   UNL     1     -35.875  42.529  44.092  1.00  0.00    -0.502 OA
ATOM     23  H   UNL     1     -35.193  42.309  44.808  1.00  0.00     0.293 HD
ENDBRANCH   2  22
BRANCH   6  24
ATOM     24  O   UNL     1     -35.647  46.592  40.655  1.00  0.00    -0.507 OA
ATOM     25  H   UNL     1     -36.416  46.647  41.306  1.00  0.00     0.293 HD
ENDBRANCH   6  24
BRANCH   8  26
ATOM     26  O   UNL     1     -33.652  44.392  36.883  1.00  0.00    -0.508 OA
ATOM     27  H   UNL     1     -34.046  43.840  36.130  1.00  0.00     0.293 HD
ENDBRANCH   8  26
TORSDOF 6
ENDMDL
MODEL 8
REMARK VINA RESULT:    -7.827      4.897     10.008
REMARK INTER + INTRA:          -9.569
REMARK INTER:                  -9.257
REMARK INTRA:                  -0.312
REMARK UNBOUND:                -0.140
REMARK SMILES O=c1c(O)c(-c2ccc(O)c(O)c2)oc2cc(O)cc(O)c12
REMARK SMILES IDX 5 1 3 2 2 3 1 4 22 5 20 6 19 7 17 8 16 9 15 10 14 11 6 12
REMARK SMILES IDX 7 13 8 14 9 15 13 16 11 17 10 18 12 20 4 22 21 24 18 26
REMARK H PARENT 10 19 12 21 4 23 21 25 18 27
REMARK Flexibility Score: inf
ROOT
ATOM      1  C   UNL     1     -37.859  39.211  45.227  1.00  0.00     0.180 A 
ATOM      2  C   UNL     1     -37.011  40.261  45.621  1.00  0.00     0.208 A 
ATOM      3  C   UNL     1     -36.451  41.089  44.635  1.00  0.00     0.238 A 
ATOM      4  O   UNL     1     -35.650  41.993  44.990  1.00  0.00    -0.285 OA
ATOM      5  C   UNL     1     -36.759  40.868  43.271  1.00  0.00     0.111 A 
ATOM      6  C   UNL     1     -36.280  41.671  42.192  1.00  0.00     0.134 A 
ATOM      7  C   UNL     1     -36.542  41.282  40.873  1.00  0.00     0.093 A 
ATOM      8  C   UNL     1     -37.321  40.156  40.595  1.00  0.00     0.123 A 
ATOM      9  C   UNL     1     -37.842  39.400  41.642  1.00  0.00     0.094 A 
ATOM     10  C   UNL     1     -37.568  39.742  42.969  1.00  0.00     0.146 A 
ATOM     11  O   UNL     1     -38.076  38.989  43.937  1.00  0.00    -0.452 OA
ENDROOT
BRANCH   1  12
ATOM     12  C   UNL     1     -38.506  38.311  46.209  1.00  0.00     0.025 A 
ATOM     13  C   UNL     1     -37.988  37.022  46.413  1.00  0.00     0.016 A 
ATOM     14  C   UNL     1     -38.596  36.150  47.319  1.00  0.00     0.051 A 
ATOM     15  C   UNL     1     -39.737  36.544  48.023  1.00  0.00     0.157 A 
ATOM     16  C   UNL     1     -39.668  38.698  46.903  1.00  0.00     0.062 A 
ATOM     17  C   UNL     1     -40.281  37.822  47.811  1.00  0.00     0.158 A 
BRANCH  15  18
ATOM     18  O   UNL     1     -40.320  35.652  48.923  1.00  0.00    -0.504 OA
ATOM     19  H   UNL     1     -41.317  35.648  49.107  1.00  0.00     0.293 HD
ENDBRANCH  15  18
BRANCH  17  20
ATOM     20  O   UNL     1     -41.427  38.216  48.499  1.00  0.00    -0.504 OA
ATOM     21  H   UNL     1     -41.376  38.797  49.328  1.00  0.00     0.293 HD
ENDBRANCH  17  20
ENDBRANCH   1  12
BRANCH   2  22
ATOM     22  O   UNL     1     -36.703  40.447  46.972  1.00  0.00    -0.502 OA
ATOM     23  H   UNL     1     -36.386  41.336  47.339  1.00  0.00     0.293 HD
ENDBRANCH   2  22
BRANCH   6  24
ATOM     24  O   UNL     1     -35.571  42.864  42.362  1.00  0.00    -0.507 OA
ATOM     25  H   UNL     1     -35.434  43.330  43.246  1.00  0.00     0.293 HD
ENDBRANCH   6  24
BRANCH   8  26
ATOM     26  O   UNL     1     -37.590  39.785  39.280  1.00  0.00    -0.508 OA
ATOM     27  H   UNL     1     -36.891  39.872  38.551  1.00  0.00     0.293 HD
ENDBRANCH   8  26
TORSDOF 6
ENDMDL
MODEL 9
REMARK VINA RESULT:    -7.709      2.712      8.440
REMARK INTER + INTRA:          -9.427
REMARK INTER:                  -9.161
REMARK INTRA:                  -0.266
REMARK UNBOUND:                -0.140
REMARK SMILES O=c1c(O)c(-c2ccc(O)c(O)c2)oc2cc(O)cc(O)c12
REMARK SMILES IDX 5 1 3 2 2 3 1 4 22 5 20 6 19 7 17 8 16 9 15 10 14 11 6 12
REMARK SMILES IDX 7 13 8 14 9 15 13 16 11 17 10 18 12 20 4 22 21 24 18 26
REMARK H PARENT 10 19 12 21 4 23 21 25 18 27
REMARK Flexibility Score: inf
ROOT
ATOM      1  C   UNL     1     -35.745  40.359  43.405  1.00  0.00     0.180 A 
ATOM      2  C   UNL     1     -35.369  39.604  42.280  1.00  0.00     0.208 A 
ATOM      3  C   UNL     1     -35.006  40.273  41.100  1.00  0.00     0.238 A 
ATOM      4  O   UNL     1     -34.722  39.591  40.082  1.00  0.00    -0.285 OA
ATOM      5  C   UNL     1     -35.007  41.689  41.066  1.00  0.00     0.111 A 
ATOM      6  C   UNL     1     -34.618  42.471  39.937  1.00  0.00     0.134 A 
ATOM      7  C   UNL     1     -34.784  43.862  39.970  1.00  0.00     0.093 A 
ATOM      8  C   UNL     1     -35.262  44.503  41.115  1.00  0.00     0.123 A 
ATOM      9  C   UNL     1     -35.588  43.753  42.243  1.00  0.00     0.094 A 
ATOM     10  C   UNL     1     -35.468  42.360  42.227  1.00  0.00     0.146 A 
ATOM     11  O   UNL     1     -35.799  41.683  43.320  1.00  0.00    -0.452 OA
ENDROOT
BRANCH   1  12
ATOM     12  C   UNL     1     -36.116  39.726  44.691  1.00  0.00     0.025 A 
ATOM     13  C   UNL     1     -37.389  39.152  44.836  1.00  0.00     0.016 A 
ATOM     14  C   UNL     1     -37.768  38.568  46.047  1.00  0.00     0.051 A 
ATOM     15  C   UNL     1     -36.889  38.562  47.135  1.00  0.00     0.157 A 
ATOM     16  C   UNL     1     -35.241  39.738  45.793  1.00  0.00     0.062 A 
ATOM     17  C   UNL     1     -35.621  39.153  47.011  1.00  0.00     0.158 A 
BRANCH  15  18
ATOM     18  O   UNL     1     -37.295  37.969  48.330  1.00  0.00    -0.504 OA
ATOM     19  H   UNL     1     -37.100  38.388  49.232  1.00  0.00     0.293 HD
ENDBRANCH  15  18
BRANCH  17  20
ATOM     20  O   UNL     1     -34.746  39.163  48.095  1.00  0.00    -0.504 OA
ATOM     21  H   UNL     1     -34.150  38.370  48.303  1.00  0.00     0.293 HD
ENDBRANCH  17  20
ENDBRANCH   1  12
BRANCH   2  22
ATOM     22  O   UNL     1     -35.396  38.207  42.331  1.00  0.00    -0.502 OA
ATOM     23  H   UNL     1     -35.300  37.693  43.198  1.00  0.00     0.293 HD
ENDBRANCH   2  22
BRANCH   6  24
ATOM     24  O   UNL     1     -34.044  41.939  38.778  1.00  0.00    -0.507 OA
ATOM     25  H   UNL     1     -33.157  41.462  38.744  1.00  0.00     0.293 HD
ENDBRANCH   6  24
BRANCH   8  26
ATOM     26  O   UNL     1     -35.409  45.887  41.146  1.00  0.00    -0.508 OA
ATOM     27  H   UNL     1     -34.972  46.482  40.451  1.00  0.00     0.293 HD
ENDBRANCH   8  26
TORSDOF 6
ENDMDL
