MODEL 1
REMARK VINA RESULT:    -2.719      0.000      0.000
REMARK INTER + INTRA:          -3.050
REMARK INTER:                  -2.878
REMARK INTRA:                  -0.172
REMARK UNBOUND:                -0.172
REMARK SMILES CC(C)[C@H]1CC[C@H](C)CC1=O
REMARK SMILES IDX 8 1 7 2 6 3 5 4 4 5 10 6 11 7 9 8 2 9 1 10 3 11
REMARK H PARENT
REMARK Flexibility Score: inf
ROOT
ATOM      1  C   UNL     1     124.746 118.882 116.945  1.00  0.00     0.008 C 
ATOM      2  C   UNL     1     126.052 119.654 116.737  1.00  0.00    -0.007 C 
ATOM      3  C   UNL     1     126.133 120.207 115.299  1.00  0.00     0.004 C 
ATOM      4  C   UNL     1     127.432 121.002 115.067  1.00  0.00     0.012 C 
ATOM      5  C   UNL     1     127.577 122.170 116.075  1.00  0.00     0.058 C 
ATOM      6  C   UNL     1     127.413 121.591 117.470  1.00  0.00     0.136 C 
ATOM      7  O   UNL     1     128.289 121.689 118.318  1.00  0.00    -0.299 OA
ATOM      8  C   UNL     1     126.177 120.793 117.764  1.00  0.00     0.079 C 
ENDROOT
BRANCH   5   9
ATOM      9  C   UNL     1     128.909 122.973 115.901  1.00  0.00    -0.007 C 
ATOM     10  C   UNL     1     129.862 122.333 114.875  1.00  0.00     0.008 C 
ATOM     11  C   UNL     1     128.621 124.422 115.463  1.00  0.00     0.008 C 
ENDBRANCH   5   9
TORSDOF 1
ENDMDL
MODEL 2
REMARK VINA RESULT:    -2.683      1.111      4.491
REMARK INTER + INTRA:          -3.012
REMARK INTER:                  -2.855
REMARK INTRA:                  -0.157
REMARK UNBOUND:                -0.172
REMARK SMILES CC(C)[C@H]1CC[C@H](C)CC1=O
REMARK SMILES IDX 8 1 7 2 6 3 5 4 4 5 10 6 11 7 9 8 2 9 1 10 3 11
REMARK H PARENT
REMARK Flexibility Score: inf
ROOT
ATOM      1  C   UNL     1     129.078 122.341 115.262  1.00  0.00     0.008 C 
ATOM      2  C   UNL     1     127.707 121.870 115.757  1.00  0.00    -0.007 C 
ATOM      3  C   UNL     1     127.176 120.721 114.875  1.00  0.00     0.004 C 
ATOM      4  C   UNL     1     125.805 120.217 115.361  1.00  0.00     0.012 C 
ATOM      5  C   UNL     1     125.855 119.749 116.838  1.00  0.00     0.058 C 
ATOM      6  C   UNL     1     126.456 120.881 117.654  1.00  0.00     0.136 C 
ATOM      7  O   UNL     1     125.852 121.400 118.583  1.00  0.00    -0.299 OA
ATOM      8  C   UNL     1     127.786 121.431 117.230  1.00  0.00     0.079 C 
ENDROOT
BRANCH   5   9
ATOM      9  C   UNL     1     124.468 119.273 117.383  1.00  0.00    -0.007 C 
ATOM     10  C   UNL     1     123.479 118.911 116.261  1.00  0.00     0.008 C 
ATOM     11  C   UNL     1     124.632 118.049 118.304  1.00  0.00     0.008 C 
ENDBRANCH   5   9
TORSDOF 1
ENDMDL
MODEL 3
REMARK VINA RESULT:    -2.675     12.576     14.920
REMARK INTER + INTRA:          -3.003
REMARK INTER:                  -2.843
REMARK INTRA:                  -0.160
REMARK UNBOUND:                -0.172
REMARK SMILES CC(C)[C@H]1CC[C@H](C)CC1=O
REMARK SMILES IDX 8 1 7 2 6 3 5 4 4 5 10 6 11 7 9 8 2 9 1 10 3 11
REMARK H PARENT
REMARK Flexibility Score: inf
ROOT
ATOM      1  C   UNL     1     109.929 116.804 115.251  1.00  0.00     0.008 C 
ATOM      2  C   UNL     1     111.298 117.262 115.763  1.00  0.00    -0.007 C 
ATOM      3  C   UNL     1     111.833 118.432 114.910  1.00  0.00     0.004 C 
ATOM      4  C   UNL     1     113.203 118.923 115.413  1.00  0.00     0.012 C 
ATOM      5  C   UNL     1     113.147 119.356 116.900  1.00  0.00     0.058 C 
ATOM      6  C   UNL     1     112.542 118.205 117.687  1.00  0.00     0.136 C 
ATOM      7  O   UNL     1     113.142 117.665 118.606  1.00  0.00    -0.299 OA
ATOM      8  C   UNL     1     111.213 117.667 117.245  1.00  0.00     0.079 C 
ENDROOT
BRANCH   5   9
ATOM      9  C   UNL     1     114.532 119.818 117.462  1.00  0.00    -0.007 C 
ATOM     10  C   UNL     1     115.543 120.157 116.351  1.00  0.00     0.008 C 
ATOM     11  C   UNL     1     114.371 121.053 118.369  1.00  0.00     0.008 C 
ENDBRANCH   5   9
TORSDOF 1
ENDMDL
MODEL 4
REMARK VINA RESULT:    -2.661      5.787      7.642
REMARK INTER + INTRA:          -2.988
REMARK INTER:                  -2.817
REMARK INTRA:                  -0.172
REMARK UNBOUND:                -0.172
REMARK SMILES CC(C)[C@H]1CC[C@H](C)CC1=O
REMARK SMILES IDX 8 1 7 2 6 3 5 4 4 5 10 6 11 7 9 8 2 9 1 10 3 11
REMARK H PARENT
REMARK Flexibility Score: inf
ROOT
ATOM      1  C   UNL     1     124.681 129.777 120.906  1.00  0.00     0.008 C 
ATOM      2  C   UNL     1     125.811 129.037 120.184  1.00  0.00    -0.007 C 
ATOM      3  C   UNL     1     125.316 127.674 119.655  1.00  0.00     0.004 C 
ATOM      4  C   UNL     1     126.429 126.915 118.910  1.00  0.00     0.012 C 
ATOM      5  C   UNL     1     127.001 127.744 117.732  1.00  0.00     0.058 C 
ATOM      6  C   UNL     1     127.402 129.102 118.284  1.00  0.00     0.136 C 
ATOM      7  O   UNL     1     128.547 129.521 118.204  1.00  0.00    -0.299 OA
ATOM      8  C   UNL     1     126.370 129.893 119.034  1.00  0.00     0.079 C 
ENDROOT
BRANCH   5   9
ATOM      9  C   UNL     1     128.168 127.024 116.978  1.00  0.00    -0.007 C 
ATOM     10  C   UNL     1     128.606 125.719 117.666  1.00  0.00     0.008 C 
ATOM     11  C   UNL     1     127.765 126.701 115.527  1.00  0.00     0.008 C 
ENDBRANCH   5   9
TORSDOF 1
ENDMDL
MODEL 5
REMARK VINA RESULT:    -2.655      4.206      5.884
REMARK INTER + INTRA:          -2.982
REMARK INTER:                  -2.850
REMARK INTRA:                  -0.132
REMARK UNBOUND:                -0.172
REMARK SMILES CC(C)[C@H]1CC[C@H](C)CC1=O
REMARK SMILES IDX 8 1 7 2 6 3 5 4 4 5 10 6 11 7 9 8 2 9 1 10 3 11
REMARK H PARENT
REMARK Flexibility Score: inf
ROOT
ATOM      1  C   UNL     1     129.860 123.859 114.875  1.00  0.00     0.008 C 
ATOM      2  C   UNL     1     129.532 125.043 115.790  1.00  0.00    -0.007 C 
ATOM      3  C   UNL     1     128.464 125.950 115.143  1.00  0.00     0.004 C 
ATOM      4  C   UNL     1     128.103 127.141 116.050  1.00  0.00     0.012 C 
ATOM      5  C   UNL     1     127.605 126.673 117.440  1.00  0.00     0.058 C 
ATOM      6  C   UNL     1     128.649 125.724 118.004  1.00  0.00     0.136 C 
ATOM      7  O   UNL     1     129.213 125.939 119.067  1.00  0.00    -0.299 OA
ATOM      8  C   UNL     1     129.059 124.547 117.168  1.00  0.00     0.079 C 
ENDROOT
BRANCH   5   9
ATOM      9  C   UNL     1     127.273 127.858 118.408  1.00  0.00    -0.007 C 
ATOM     10  C   UNL     1     128.212 129.062 118.220  1.00  0.00     0.008 C 
ATOM     11  C   UNL     1     125.821 128.334 118.212  1.00  0.00     0.008 C 
ENDBRANCH   5   9
TORSDOF 1
ENDMDL
MODEL 6
REMARK VINA RESULT:    -2.645      9.020     10.346
REMARK INTER + INTRA:          -2.971
REMARK INTER:                  -2.799
REMARK INTRA:                  -0.172
REMARK UNBOUND:                -0.172
REMARK SMILES CC(C)[C@H]1CC[C@H](C)CC1=O
REMARK SMILES IDX 8 1 7 2 6 3 5 4 4 5 10 6 11 7 9 8 2 9 1 10 3 11
REMARK H PARENT
REMARK Flexibility Score: inf
ROOT
ATOM      1  C   UNL     1     129.955 114.380 120.967  1.00  0.00     0.008 C 
ATOM      2  C   UNL     1     129.189 113.264 120.251  1.00  0.00    -0.007 C 
ATOM      3  C   UNL     1     127.816 113.774 119.764  1.00  0.00     0.004 C 
ATOM      4  C   UNL     1     127.031 112.674 119.026  1.00  0.00     0.012 C 
ATOM      5  C   UNL     1     127.825 112.112 117.820  1.00  0.00     0.058 C 
ATOM      6  C   UNL     1     129.195 111.696 118.331  1.00  0.00     0.136 C 
ATOM      7  O   UNL     1     129.603 110.549 118.226  1.00  0.00    -0.299 OA
ATOM      8  C   UNL     1     130.012 112.714 119.072  1.00  0.00     0.079 C 
ENDROOT
BRANCH   5   9
ATOM      9  C   UNL     1     127.078 110.958 117.071  1.00  0.00    -0.007 C 
ATOM     10  C   UNL     1     125.812 110.490 117.811  1.00  0.00     0.008 C 
ATOM     11  C   UNL     1     126.679 111.397 115.649  1.00  0.00     0.008 C 
ENDBRANCH   5   9
TORSDOF 1
ENDMDL
MODEL 7
REMARK VINA RESULT:    -2.643     10.071     10.759
REMARK INTER + INTRA:          -2.969
REMARK INTER:                  -2.805
REMARK INTRA:                  -0.164
REMARK UNBOUND:                -0.172
REMARK SMILES CC(C)[C@H]1CC[C@H](C)CC1=O
REMARK SMILES IDX 8 1 7 2 6 3 5 4 4 5 10 6 11 7 9 8 2 9 1 10 3 11
REMARK H PARENT
REMARK Flexibility Score: inf
ROOT
ATOM      1  C   UNL     1     116.374 129.268 115.361  1.00  0.00     0.008 C 
ATOM      2  C   UNL     1     116.952 127.930 115.830  1.00  0.00    -0.007 C 
ATOM      3  C   UNL     1     118.164 127.528 114.963  1.00  0.00     0.004 C 
ATOM      4  C   UNL     1     118.774 126.191 115.424  1.00  0.00     0.012 C 
ATOM      5  C   UNL     1     119.202 126.238 116.912  1.00  0.00     0.058 C 
ATOM      6  C   UNL     1     118.003 126.713 117.716  1.00  0.00     0.136 C 
ATOM      7  O   UNL     1     117.519 126.039 118.614  1.00  0.00    -0.299 OA
ATOM      8  C   UNL     1     117.349 128.003 117.315  1.00  0.00     0.079 C 
ENDROOT
BRANCH   5   9
ATOM      9  C   UNL     1     119.786 124.882 117.431  1.00  0.00    -0.007 C 
ATOM     10  C   UNL     1     120.086 123.889 116.294  1.00  0.00     0.008 C 
ATOM     11  C   UNL     1     121.081 125.114 118.232  1.00  0.00     0.008 C 
ENDBRANCH   5   9
TORSDOF 1
ENDMDL
MODEL 8
REMARK VINA RESULT:    -2.633     15.485     16.674
REMARK INTER + INTRA:          -2.958
REMARK INTER:                  -2.838
REMARK INTRA:                  -0.120
REMARK UNBOUND:                -0.172
REMARK SMILES CC(C)[C@H]1CC[C@H](C)CC1=O
REMARK SMILES IDX 8 1 7 2 6 3 5 4 4 5 10 6 11 7 9 8 2 9 1 10 3 11
REMARK H PARENT
REMARK Flexibility Score: inf
ROOT
ATOM      1  C   UNL     1     115.467 129.574 114.941  1.00  0.00     0.008 C 
ATOM      2  C   UNL     1     114.221 129.336 115.798  1.00  0.00    -0.007 C 
ATOM      3  C   UNL     1     113.333 128.239 115.173  1.00  0.00     0.004 C 
ATOM      4  C   UNL     1     112.079 127.968 116.024  1.00  0.00     0.012 C 
ATOM      5  C   UNL     1     112.445 127.566 117.475  1.00  0.00     0.058 C 
ATOM      6  C   UNL     1     113.380 128.632 118.021  1.00  0.00     0.136 C 
ATOM      7  O   UNL     1     113.110 129.277 119.024  1.00  0.00    -0.299 OA
ATOM      8  C   UNL     1     114.617 128.958 117.236  1.00  0.00     0.079 C 
ENDROOT
BRANCH   5   9
ATOM      9  C   UNL     1     111.194 127.328 118.385  1.00  0.00    -0.007 C 
ATOM     10  C   UNL     1     110.039 128.297 118.076  1.00  0.00     0.008 C 
ATOM     11  C   UNL     1     110.674 125.885 118.234  1.00  0.00     0.008 C 
ENDBRANCH   5   9
TORSDOF 1
ENDMDL
