MODEL 1
REMARK VINA RESULT:    -5.041      0.000      0.000
REMARK INTER + INTRA:          -5.618
REMARK INTER:                  -5.336
REMARK INTRA:                  -0.282
REMARK UNBOUND:                -0.282
REMARK SMILES CC1=CC[C@H]2[C@H]3[C@@H]1[C@]2(C)CC[C@H]3C(C)C
REMARK SMILES IDX 1 1 2 2 3 3 4 4 5 5 6 6 7 7 8 8 10 9 11 10 12 11 9 12 13 13
REMARK SMILES IDX 14 14 15 15
REMARK H PARENT
REMARK Flexibility Score: inf
ROOT
ATOM      1  C   UNL     1      12.377  18.126  34.089  1.00  0.00     0.039 C 
ATOM      2  C   UNL     1      12.893  17.721  35.437  1.00  0.00    -0.073 C 
ATOM      3  C   UNL     1      13.572  18.584  36.241  1.00  0.00    -0.027 C 
ATOM      4  C   UNL     1      14.064  18.090  37.606  1.00  0.00     0.031 C 
ATOM      5  C   UNL     1      13.626  16.608  37.840  1.00  0.00     0.003 C 
ATOM      6  C   UNL     1      12.135  16.500  37.447  1.00  0.00     0.004 C 
ATOM      7  C   UNL     1      12.625  16.321  35.990  1.00  0.00     0.024 C 
ATOM      8  C   UNL     1      13.916  15.729  36.601  1.00  0.00    -0.022 C 
ATOM      9  C   UNL     1      13.707  14.235  36.982  1.00  0.00     0.008 C 
ATOM     10  C   UNL     1      12.265  13.934  37.467  1.00  0.00     0.005 C 
ATOM     11  C   UNL     1      11.492  15.189  37.997  1.00  0.00    -0.005 C 
ATOM     12  C   UNL     1      15.256  15.923  35.851  1.00  0.00     0.012 C 
ENDROOT
BRANCH  11  13
ATOM     13  C   UNL     1      11.346  15.168  39.555  1.00  0.00    -0.014 C 
ATOM     14  C   UNL     1      10.780  16.482  40.124  1.00  0.00     0.007 C 
ATOM     15  C   UNL     1      10.438  14.009  40.008  1.00  0.00     0.007 C 
ENDBRANCH  11  13
TORSDOF 1
ENDMDL
MODEL 2
REMARK VINA RESULT:    -4.830      1.413      2.999
REMARK INTER + INTRA:          -5.394
REMARK INTER:                  -5.105
REMARK INTRA:                  -0.289
REMARK UNBOUND:                -0.282
REMARK SMILES CC1=CC[C@H]2[C@H]3[C@@H]1[C@]2(C)CC[C@H]3C(C)C
REMARK SMILES IDX 1 1 2 2 3 3 4 4 5 5 6 6 7 7 8 8 10 9 11 10 12 11 9 12 13 13
REMARK SMILES IDX 14 14 15 15
REMARK H PARENT
REMARK Flexibility Score: inf
ROOT
ATOM      1  C   UNL     1      16.667  17.487  38.147  1.00  0.00     0.039 C 
ATOM      2  C   UNL     1      15.546  16.681  37.563  1.00  0.00    -0.073 C 
ATOM      3  C   UNL     1      15.757  15.485  36.950  1.00  0.00    -0.027 C 
ATOM      4  C   UNL     1      14.554  14.723  36.382  1.00  0.00     0.031 C 
ATOM      5  C   UNL     1      13.229  15.500  36.673  1.00  0.00     0.003 C 
ATOM      6  C   UNL     1      13.266  15.933  38.156  1.00  0.00     0.004 C 
ATOM      7  C   UNL     1      14.096  17.153  37.686  1.00  0.00     0.024 C 
ATOM      8  C   UNL     1      13.367  17.002  36.330  1.00  0.00    -0.022 C 
ATOM      9  C   UNL     1      11.960  17.663  36.388  1.00  0.00     0.008 C 
ATOM     10  C   UNL     1      11.294  17.539  37.784  1.00  0.00     0.005 C 
ATOM     11  C   UNL     1      11.854  16.367  38.659  1.00  0.00    -0.005 C 
ATOM     12  C   UNL     1      14.109  17.403  35.032  1.00  0.00     0.012 C 
ENDROOT
BRANCH  11  13
ATOM     13  C   UNL     1      10.836  15.183  38.766  1.00  0.00    -0.014 C 
ATOM     14  C   UNL     1      10.969  14.392  40.080  1.00  0.00     0.007 C 
ATOM     15  C   UNL     1       9.386  15.690  38.646  1.00  0.00     0.007 C 
ENDBRANCH  11  13
TORSDOF 1
ENDMDL
MODEL 3
REMARK VINA RESULT:    -4.781     10.372     13.859
REMARK INTER + INTRA:          -5.342
REMARK INTER:                  -5.059
REMARK INTRA:                  -0.283
REMARK UNBOUND:                -0.282
REMARK SMILES CC1=CC[C@H]2[C@H]3[C@@H]1[C@]2(C)CC[C@H]3C(C)C
REMARK SMILES IDX 1 1 2 2 3 3 4 4 5 5 6 6 7 7 8 8 10 9 11 10 12 11 9 12 13 13
REMARK SMILES IDX 14 14 15 15
REMARK H PARENT
REMARK Flexibility Score: inf
ROOT
ATOM      1  C   UNL     1       8.126  18.178  22.152  1.00  0.00     0.039 C 
ATOM      2  C   UNL     1       8.373  19.040  23.353  1.00  0.00    -0.073 C 
ATOM      3  C   UNL     1       7.435  19.217  24.322  1.00  0.00    -0.027 C 
ATOM      4  C   UNL     1       7.770  20.114  25.519  1.00  0.00     0.031 C 
ATOM      5  C   UNL     1       9.233  20.652  25.406  1.00  0.00     0.003 C 
ATOM      6  C   UNL     1      10.137  19.454  25.034  1.00  0.00     0.004 C 
ATOM      7  C   UNL     1       9.728  19.718  23.564  1.00  0.00     0.024 C 
ATOM      8  C   UNL     1       9.530  21.193  23.987  1.00  0.00    -0.022 C 
ATOM      9  C   UNL     1      10.891  21.944  24.009  1.00  0.00     0.008 C 
ATOM     10  C   UNL     1      12.073  21.037  24.442  1.00  0.00     0.005 C 
ATOM     11  C   UNL     1      11.644  19.780  25.272  1.00  0.00    -0.005 C 
ATOM     12  C   UNL     1       8.447  22.037  23.274  1.00  0.00     0.012 C 
ENDROOT
BRANCH  11  13
ATOM     13  C   UNL     1      12.023  19.923  26.784  1.00  0.00    -0.014 C 
ATOM     14  C   UNL     1      11.442  18.798  27.659  1.00  0.00     0.007 C 
ATOM     15  C   UNL     1      13.552  19.944  26.969  1.00  0.00     0.007 C 
ENDBRANCH  11  13
TORSDOF 1
ENDMDL
MODEL 4
REMARK VINA RESULT:    -4.750     10.369     14.095
REMARK INTER + INTRA:          -5.310
REMARK INTER:                  -5.046
REMARK INTRA:                  -0.263
REMARK UNBOUND:                -0.282
REMARK SMILES CC1=CC[C@H]2[C@H]3[C@@H]1[C@]2(C)CC[C@H]3C(C)C
REMARK SMILES IDX 1 1 2 2 3 3 4 4 5 5 6 6 7 7 8 8 10 9 11 10 12 11 9 12 13 13
REMARK SMILES IDX 14 14 15 15
REMARK H PARENT
REMARK Flexibility Score: inf
ROOT
ATOM      1  C   UNL     1      11.151  18.865  27.724  1.00  0.00     0.039 C 
ATOM      2  C   UNL     1      10.798  19.472  26.399  1.00  0.00    -0.073 C 
ATOM      3  C   UNL     1      11.725  19.672  25.425  1.00  0.00    -0.027 C 
ATOM      4  C   UNL     1      11.280  20.296  24.097  1.00  0.00     0.031 C 
ATOM      5  C   UNL     1       9.739  20.560  24.108  1.00  0.00     0.003 C 
ATOM      6  C   UNL     1       9.058  19.285  24.654  1.00  0.00     0.004 C 
ATOM      7  C   UNL     1       9.351  19.842  26.068  1.00  0.00     0.024 C 
ATOM      8  C   UNL     1       9.291  21.245  25.421  1.00  0.00    -0.022 C 
ATOM      9  C   UNL     1       7.816  21.715  25.266  1.00  0.00     0.008 C 
ATOM     10  C   UNL     1       6.840  20.546  24.967  1.00  0.00     0.005 C 
ATOM     11  C   UNL     1       7.527  19.280  24.350  1.00  0.00    -0.005 C 
ATOM     12  C   UNL     1      10.170  22.377  26.005  1.00  0.00     0.012 C 
ENDROOT
BRANCH  11  13
ATOM     13  C   UNL     1       7.190  19.118  22.831  1.00  0.00    -0.014 C 
ATOM     14  C   UNL     1       8.089  18.089  22.121  1.00  0.00     0.007 C 
ATOM     15  C   UNL     1       5.721  18.698  22.634  1.00  0.00     0.007 C 
ENDBRANCH  11  13
TORSDOF 1
ENDMDL
MODEL 5
REMARK VINA RESULT:    -4.516     10.705     12.864
REMARK INTER + INTRA:          -5.061
REMARK INTER:                  -4.823
REMARK INTRA:                  -0.238
REMARK UNBOUND:                -0.282
REMARK SMILES CC1=CC[C@H]2[C@H]3[C@@H]1[C@]2(C)CC[C@H]3C(C)C
REMARK SMILES IDX 1 1 2 2 3 3 4 4 5 5 6 6 7 7 8 8 10 9 11 10 12 11 9 12 13 13
REMARK SMILES IDX 14 14 15 15
REMARK H PARENT
REMARK Flexibility Score: inf
ROOT
ATOM      1  C   UNL     1      11.822  18.838  23.299  1.00  0.00     0.039 C 
ATOM      2  C   UNL     1      11.285  19.638  24.448  1.00  0.00    -0.073 C 
ATOM      3  C   UNL     1      11.936  20.726  24.940  1.00  0.00    -0.027 C 
ATOM      4  C   UNL     1      11.315  21.489  26.115  1.00  0.00     0.031 C 
ATOM      5  C   UNL     1       9.946  20.852  26.518  1.00  0.00     0.003 C 
ATOM      6  C   UNL     1       9.148  20.614  25.217  1.00  0.00     0.004 C 
ATOM      7  C   UNL     1       9.937  19.288  25.082  1.00  0.00     0.024 C 
ATOM      8  C   UNL     1      10.048  19.312  26.624  1.00  0.00    -0.022 C 
ATOM      9  C   UNL     1       8.746  18.764  27.276  1.00  0.00     0.008 C 
ATOM     10  C   UNL     1       7.472  19.115  26.462  1.00  0.00     0.005 C 
ATOM     11  C   UNL     1       7.639  20.349  25.512  1.00  0.00    -0.005 C 
ATOM     12  C   UNL     1      11.299  18.695  27.294  1.00  0.00     0.012 C 
ENDROOT
BRANCH  11  13
ATOM     13  C   UNL     1       6.876  21.606  26.051  1.00  0.00    -0.014 C 
ATOM     14  C   UNL     1       5.654  21.981  25.194  1.00  0.00     0.007 C 
ATOM     15  C   UNL     1       6.406  21.385  27.501  1.00  0.00     0.007 C 
ENDBRANCH  11  13
TORSDOF 1
ENDMDL
MODEL 6
REMARK VINA RESULT:    -4.506      2.074      4.005
REMARK INTER + INTRA:          -5.051
REMARK INTER:                  -4.894
REMARK INTRA:                  -0.158
REMARK UNBOUND:                -0.282
REMARK SMILES CC1=CC[C@H]2[C@H]3[C@@H]1[C@]2(C)CC[C@H]3C(C)C
REMARK SMILES IDX 1 1 2 2 3 3 4 4 5 5 6 6 7 7 8 8 10 9 11 10 12 11 9 12 13 13
REMARK SMILES IDX 14 14 15 15
REMARK H PARENT
REMARK Flexibility Score: inf
ROOT
ATOM      1  C   UNL     1      14.069  21.095  34.375  1.00  0.00     0.039 C 
ATOM      2  C   UNL     1      13.477  19.737  34.609  1.00  0.00    -0.073 C 
ATOM      3  C   UNL     1      12.596  19.172  33.739  1.00  0.00    -0.027 C 
ATOM      4  C   UNL     1      12.040  17.779  34.052  1.00  0.00     0.031 C 
ATOM      5  C   UNL     1      12.664  17.225  35.374  1.00  0.00     0.003 C 
ATOM      6  C   UNL     1      14.188  17.474  35.302  1.00  0.00     0.004 C 
ATOM      7  C   UNL     1      13.889  18.901  35.822  1.00  0.00     0.024 C 
ATOM      8  C   UNL     1      12.641  18.287  36.499  1.00  0.00    -0.022 C 
ATOM      9  C   UNL     1      13.026  17.606  37.843  1.00  0.00     0.008 C 
ATOM     10  C   UNL     1      14.437  16.961  37.809  1.00  0.00     0.005 C 
ATOM     11  C   UNL     1      14.955  16.631  36.367  1.00  0.00    -0.005 C 
ATOM     12  C   UNL     1      11.375  19.161  36.668  1.00  0.00     0.012 C 
ENDROOT
BRANCH  11  13
ATOM     13  C   UNL     1      14.935  15.092  36.081  1.00  0.00    -0.014 C 
ATOM     14  C   UNL     1      16.317  14.432  36.243  1.00  0.00     0.007 C 
ATOM     15  C   UNL     1      13.939  14.371  37.009  1.00  0.00     0.007 C 
ENDBRANCH  11  13
TORSDOF 1
ENDMDL
MODEL 7
REMARK VINA RESULT:    -4.406      1.928      3.248
REMARK INTER + INTRA:          -4.945
REMARK INTER:                  -4.668
REMARK INTRA:                  -0.277
REMARK UNBOUND:                -0.282
REMARK SMILES CC1=CC[C@H]2[C@H]3[C@@H]1[C@]2(C)CC[C@H]3C(C)C
REMARK SMILES IDX 1 1 2 2 3 3 4 4 5 5 6 6 7 7 8 8 10 9 11 10 12 11 9 12 13 13
REMARK SMILES IDX 14 14 15 15
REMARK H PARENT
REMARK Flexibility Score: inf
ROOT
ATOM      1  C   UNL     1      13.850  20.252  35.504  1.00  0.00     0.039 C 
ATOM      2  C   UNL     1      13.860  19.231  36.602  1.00  0.00    -0.073 C 
ATOM      3  C   UNL     1      13.055  19.334  37.693  1.00  0.00    -0.027 C 
ATOM      4  C   UNL     1      13.125  18.244  38.769  1.00  0.00     0.031 C 
ATOM      5  C   UNL     1      14.146  17.135  38.356  1.00  0.00     0.003 C 
ATOM      6  C   UNL     1      13.863  16.775  36.880  1.00  0.00     0.004 C 
ATOM      7  C   UNL     1      14.749  17.990  36.508  1.00  0.00     0.024 C 
ATOM      8  C   UNL     1      15.474  17.747  37.852  1.00  0.00    -0.022 C 
ATOM      9  C   UNL     1      16.529  16.612  37.708  1.00  0.00     0.008 C 
ATOM     10  C   UNL     1      16.092  15.506  36.711  1.00  0.00     0.005 C 
ATOM     11  C   UNL     1      14.544  15.431  36.478  1.00  0.00    -0.005 C 
ATOM     12  C   UNL     1      16.069  18.957  38.611  1.00  0.00     0.012 C 
ENDROOT
BRANCH  11  13
ATOM     13  C   UNL     1      13.913  14.177  37.170  1.00  0.00    -0.014 C 
ATOM     14  C   UNL     1      12.373  14.201  37.170  1.00  0.00     0.007 C 
ATOM     15  C   UNL     1      14.380  12.877  36.488  1.00  0.00     0.007 C 
ENDBRANCH  11  13
TORSDOF 1
ENDMDL
MODEL 8
REMARK VINA RESULT:    -4.405     10.722     13.517
REMARK INTER + INTRA:          -4.945
REMARK INTER:                  -4.656
REMARK INTRA:                  -0.289
REMARK UNBOUND:                -0.282
REMARK SMILES CC1=CC[C@H]2[C@H]3[C@@H]1[C@]2(C)CC[C@H]3C(C)C
REMARK SMILES IDX 1 1 2 2 3 3 4 4 5 5 6 6 7 7 8 8 10 9 11 10 12 11 9 12 13 13
REMARK SMILES IDX 14 14 15 15
REMARK H PARENT
REMARK Flexibility Score: inf
ROOT
ATOM      1  C   UNL     1      10.929  22.711  27.801  1.00  0.00     0.039 C 
ATOM      2  C   UNL     1      10.808  21.365  27.151  1.00  0.00    -0.073 C 
ATOM      3  C   UNL     1      10.807  20.211  27.871  1.00  0.00    -0.027 C 
ATOM      4  C   UNL     1      10.677  18.876  27.129  1.00  0.00     0.031 C 
ATOM      5  C   UNL     1      10.519  19.119  25.593  1.00  0.00     0.003 C 
ATOM      6  C   UNL     1       9.467  20.236  25.409  1.00  0.00     0.004 C 
ATOM      7  C   UNL     1      10.623  21.240  25.638  1.00  0.00     0.024 C 
ATOM      8  C   UNL     1      11.555  20.143  25.072  1.00  0.00    -0.022 C 
ATOM      9  C   UNL     1      11.524  20.145  23.517  1.00  0.00     0.008 C 
ATOM     10  C   UNL     1      10.133  20.524  22.944  1.00  0.00     0.005 C 
ATOM     11  C   UNL     1       8.946  20.294  23.940  1.00  0.00    -0.005 C 
ATOM     12  C   UNL     1      13.010  20.057  25.593  1.00  0.00     0.012 C 
ENDROOT
BRANCH  11  13
ATOM     13  C   UNL     1       8.077  19.057  23.533  1.00  0.00    -0.014 C 
ATOM     14  C   UNL     1       6.564  19.331  23.618  1.00  0.00     0.007 C 
ATOM     15  C   UNL     1       8.410  18.596  22.101  1.00  0.00     0.007 C 
ENDBRANCH  11  13
TORSDOF 1
ENDMDL
MODEL 9
REMARK VINA RESULT:    -4.361     14.378     17.162
REMARK INTER + INTRA:          -4.898
REMARK INTER:                  -4.609
REMARK INTRA:                  -0.289
REMARK UNBOUND:                -0.282
REMARK SMILES CC1=CC[C@H]2[C@H]3[C@@H]1[C@]2(C)CC[C@H]3C(C)C
REMARK SMILES IDX 1 1 2 2 3 3 4 4 5 5 6 6 7 7 8 8 10 9 11 10 12 11 9 12 13 13
REMARK SMILES IDX 14 14 15 15
REMARK H PARENT
REMARK Flexibility Score: inf
ROOT
ATOM      1  C   UNL     1       2.574  22.241  25.084  1.00  0.00     0.039 C 
ATOM      2  C   UNL     1       3.611  22.128  24.007  1.00  0.00    -0.073 C 
ATOM      3  C   UNL     1       4.178  23.221  23.431  1.00  0.00    -0.027 C 
ATOM      4  C   UNL     1       5.234  23.018  22.339  1.00  0.00     0.031 C 
ATOM      5  C   UNL     1       5.500  21.494  22.114  1.00  0.00     0.003 C 
ATOM      6  C   UNL     1       5.663  20.845  23.507  1.00  0.00     0.004 C 
ATOM      7  C   UNL     1       4.118  20.759  23.550  1.00  0.00     0.024 C 
ATOM      8  C   UNL     1       4.177  20.698  22.005  1.00  0.00    -0.022 C 
ATOM      9  C   UNL     1       4.496  19.253  21.526  1.00  0.00     0.008 C 
ATOM     10  C   UNL     1       5.445  18.494  22.491  1.00  0.00     0.005 C 
ATOM     11  C   UNL     1       6.309  19.428  23.405  1.00  0.00    -0.005 C 
ATOM     12  C   UNL     1       3.011  21.304  21.187  1.00  0.00     0.012 C 
ENDROOT
BRANCH  11  13
ATOM     13  C   UNL     1       7.809  19.453  22.959  1.00  0.00    -0.014 C 
ATOM     14  C   UNL     1       8.783  19.644  24.135  1.00  0.00     0.007 C 
ATOM     15  C   UNL     1       8.186  18.156  22.219  1.00  0.00     0.007 C 
ENDBRANCH  11  13
TORSDOF 1
ENDMDL
