MODEL 1
REMARK VINA RESULT:    -3.289      0.000      0.000
REMARK INTER + INTRA:          -3.481
REMARK INTER:                  -3.481
REMARK INTRA:                   0.000
REMARK UNBOUND:                 0.000
REMARK SMILES O=c1ccc2cc(O)c(O)cc2o1
REMARK SMILES IDX 4 1 3 2 2 3 1 4 13 5 12 6 11 7 9 8 7 9 6 10 5 11 8 12 10 14
REMARK H PARENT 8 13 10 15
REMARK Flexibility Score: inf
ROOT
ATOM      1  C   UNL     1      -9.454  -6.712 121.170  1.00  0.00     0.019 A 
ATOM      2  C   UNL     1     -10.125  -7.826 121.673  1.00  0.00     0.094 A 
ATOM      3  C   UNL     1      -9.535  -9.088 121.545  1.00  0.00     0.336 A 
ATOM      4  O   UNL     1     -10.125 -10.107 121.992  1.00  0.00    -0.246 OA
ATOM      5  O   UNL     1      -8.351  -9.221 120.950  1.00  0.00    -0.423 OA
ATOM      6  C   UNL     1      -7.678  -8.184 120.456  1.00  0.00     0.142 A 
ATOM      7  C   UNL     1      -6.439  -8.385 119.842  1.00  0.00     0.098 A 
ATOM      8  C   UNL     1      -5.724  -7.296 119.319  1.00  0.00     0.161 A 
ATOM      9  C   UNL     1      -6.257  -5.997 119.414  1.00  0.00     0.158 A 
ATOM     10  C   UNL     1      -7.498  -5.794 120.029  1.00  0.00     0.062 A 
ATOM     11  C   UNL     1      -8.212  -6.881 120.551  1.00  0.00     0.022 A 
ENDROOT
BRANCH   9  12
ATOM     12  O   UNL     1      -5.567  -4.898 118.904  1.00  0.00    -0.504 OA
ATOM     13  H   UNL     1      -5.352  -4.807 117.918  1.00  0.00     0.293 HD
ENDBRANCH   9  12
BRANCH   8  14
ATOM     14  O   UNL     1      -4.488  -7.500 118.709  1.00  0.00    -0.504 OA
ATOM     15  H   UNL     1      -4.363  -8.198 117.985  1.00  0.00     0.293 HD
ENDBRANCH   8  14
TORSDOF 2
ENDMDL
MODEL 2
REMARK VINA RESULT:    -3.260      2.450      3.960
REMARK INTER + INTRA:          -3.450
REMARK INTER:                  -3.450
REMARK INTRA:                   0.000
REMARK UNBOUND:                 0.000
REMARK SMILES O=c1ccc2cc(O)c(O)cc2o1
REMARK SMILES IDX 4 1 3 2 2 3 1 4 13 5 12 6 11 7 9 8 7 9 6 10 5 11 8 12 10 14
REMARK H PARENT 8 13 10 15
REMARK Flexibility Score: inf
ROOT
ATOM      1  C   UNL     1      -6.705  -4.343 120.336  1.00  0.00     0.019 A 
ATOM      2  C   UNL     1      -7.019  -3.555 121.443  1.00  0.00     0.094 A 
ATOM      3  C   UNL     1      -7.698  -4.138 122.518  1.00  0.00     0.336 A 
ATOM      4  O   UNL     1      -7.992  -3.444 123.527  1.00  0.00    -0.246 OA
ATOM      5  O   UNL     1      -8.040  -5.424 122.482  1.00  0.00    -0.423 OA
ATOM      6  C   UNL     1      -7.760  -6.210 121.445  1.00  0.00     0.142 A 
ATOM      7  C   UNL     1      -8.144  -7.553 121.463  1.00  0.00     0.098 A 
ATOM      8  C   UNL     1      -7.852  -8.387 120.373  1.00  0.00     0.161 A 
ATOM      9  C   UNL     1      -7.170  -7.869 119.256  1.00  0.00     0.158 A 
ATOM     10  C   UNL     1      -6.783  -6.523 119.236  1.00  0.00     0.062 A 
ATOM     11  C   UNL     1      -7.076  -5.691 120.325  1.00  0.00     0.022 A 
ENDROOT
BRANCH   9  12
ATOM     12  O   UNL     1      -6.866  -8.675 118.160  1.00  0.00    -0.504 OA
ATOM     13  H   UNL     1      -5.927  -8.744 117.786  1.00  0.00     0.293 HD
ENDBRANCH   9  12
BRANCH   8  14
ATOM     14  O   UNL     1      -8.235  -9.727 120.395  1.00  0.00    -0.504 OA
ATOM     15  H   UNL     1      -9.189 -10.002 120.598  1.00  0.00     0.293 HD
ENDBRANCH   8  14
TORSDOF 2
ENDMDL
MODEL 3
REMARK VINA RESULT:    -3.242      1.907      3.242
REMARK INTER + INTRA:          -3.431
REMARK INTER:                  -3.431
REMARK INTRA:                   0.000
REMARK UNBOUND:                 0.000
REMARK SMILES O=c1ccc2cc(O)c(O)cc2o1
REMARK SMILES IDX 4 1 3 2 2 3 1 4 13 5 12 6 11 7 9 8 7 9 6 10 5 11 8 12 10 14
REMARK H PARENT 8 13 10 15
REMARK Flexibility Score: inf
ROOT
ATOM      1  C   UNL     1      -9.422  -7.027 121.280  1.00  0.00     0.019 A 
ATOM      2  C   UNL     1      -9.973  -5.764 121.494  1.00  0.00     0.094 A 
ATOM      3  C   UNL     1      -9.264  -4.635 121.070  1.00  0.00     0.336 A 
ATOM      4  O   UNL     1      -9.744  -3.485 121.254  1.00  0.00    -0.246 OA
ATOM      5  O   UNL     1      -8.082  -4.767 120.471  1.00  0.00    -0.423 OA
ATOM      6  C   UNL     1      -7.522  -5.953 120.248  1.00  0.00     0.142 A 
ATOM      7  C   UNL     1      -6.278  -6.030 119.615  1.00  0.00     0.098 A 
ATOM      8  C   UNL     1      -5.682  -7.278 119.377  1.00  0.00     0.161 A 
ATOM      9  C   UNL     1      -6.338  -8.457 119.777  1.00  0.00     0.158 A 
ATOM     10  C   UNL     1      -7.585  -8.382 120.410  1.00  0.00     0.062 A 
ATOM     11  C   UNL     1      -8.180  -7.136 120.649  1.00  0.00     0.022 A 
ENDROOT
BRANCH   9  12
ATOM     12  O   UNL     1      -5.768  -9.709 119.551  1.00  0.00    -0.504 OA
ATOM     13  H   UNL     1      -6.003 -10.517 120.116  1.00  0.00     0.293 HD
ENDBRANCH   9  12
BRANCH   8  14
ATOM     14  O   UNL     1      -4.442  -7.351 118.745  1.00  0.00    -0.504 OA
ATOM     15  H   UNL     1      -3.646  -6.817 119.075  1.00  0.00     0.293 HD
ENDBRANCH   8  14
TORSDOF 2
ENDMDL
MODEL 4
REMARK VINA RESULT:    -3.227      2.154      3.447
REMARK INTER + INTRA:          -3.415
REMARK INTER:                  -3.415
REMARK INTRA:                   0.000
REMARK UNBOUND:                 0.000
REMARK SMILES O=c1ccc2cc(O)c(O)cc2o1
REMARK SMILES IDX 4 1 3 2 2 3 1 4 13 5 12 6 11 7 9 8 7 9 6 10 5 11 8 12 10 14
REMARK H PARENT 8 13 10 15
REMARK Flexibility Score: inf
ROOT
ATOM      1  C   UNL     1      -4.858 -10.210 120.123  1.00  0.00     0.019 A 
ATOM      2  C   UNL     1      -5.264 -11.379 120.766  1.00  0.00     0.094 A 
ATOM      3  C   UNL     1      -6.542 -11.432 121.334  1.00  0.00     0.336 A 
ATOM      4  O   UNL     1      -6.927 -12.478 121.919  1.00  0.00    -0.246 OA
ATOM      5  O   UNL     1      -7.355 -10.380 121.261  1.00  0.00    -0.423 OA
ATOM      6  C   UNL     1      -7.006  -9.246 120.657  1.00  0.00     0.142 A 
ATOM      7  C   UNL     1      -7.903  -8.175 120.612  1.00  0.00     0.098 A 
ATOM      8  C   UNL     1      -7.542  -6.977 119.977  1.00  0.00     0.161 A 
ATOM      9  C   UNL     1      -6.272  -6.853 119.383  1.00  0.00     0.158 A 
ATOM     10  C   UNL     1      -5.373  -7.925 119.426  1.00  0.00     0.062 A 
ATOM     11  C   UNL     1      -5.733  -9.122 120.061  1.00  0.00     0.022 A 
ENDROOT
BRANCH   9  12
ATOM     12  O   UNL     1      -5.888  -5.674 118.745  1.00  0.00    -0.504 OA
ATOM     13  H   UNL     1      -5.877  -5.587 117.736  1.00  0.00     0.293 HD
ENDBRANCH   9  12
BRANCH   8  14
ATOM     14  O   UNL     1      -8.439  -5.911 119.933  1.00  0.00    -0.504 OA
ATOM     15  H   UNL     1      -8.156  -4.970 120.179  1.00  0.00     0.293 HD
ENDBRANCH   8  14
TORSDOF 2
ENDMDL
MODEL 5
REMARK VINA RESULT:    -3.225      1.946      4.258
REMARK INTER + INTRA:          -3.413
REMARK INTER:                  -3.413
REMARK INTRA:                   0.000
REMARK UNBOUND:                 0.000
REMARK SMILES O=c1ccc2cc(O)c(O)cc2o1
REMARK SMILES IDX 4 1 3 2 2 3 1 4 13 5 12 6 11 7 9 8 7 9 6 10 5 11 8 12 10 14
REMARK H PARENT 8 13 10 15
REMARK Flexibility Score: inf
ROOT
ATOM      1  C   UNL     1      -7.916  -5.309 122.435  1.00  0.00     0.019 A 
ATOM      2  C   UNL     1      -7.480  -3.987 122.366  1.00  0.00     0.094 A 
ATOM      3  C   UNL     1      -6.795  -3.558 121.224  1.00  0.00     0.336 A 
ATOM      4  O   UNL     1      -6.392  -2.367 121.142  1.00  0.00    -0.246 OA
ATOM      5  O   UNL     1      -6.564  -4.401 120.220  1.00  0.00    -0.423 OA
ATOM      6  C   UNL     1      -6.964  -5.671 120.246  1.00  0.00     0.142 A 
ATOM      7  C   UNL     1      -6.693  -6.510 119.162  1.00  0.00     0.098 A 
ATOM      8  C   UNL     1      -7.111  -7.849 119.183  1.00  0.00     0.161 A 
ATOM      9  C   UNL     1      -7.806  -8.350 120.299  1.00  0.00     0.158 A 
ATOM     10  C   UNL     1      -8.079  -7.510 121.387  1.00  0.00     0.062 A 
ATOM     11  C   UNL     1      -7.660  -6.173 121.365  1.00  0.00     0.022 A 
ENDROOT
BRANCH   9  12
ATOM     12  O   UNL     1      -8.233  -9.676 120.346  1.00  0.00    -0.504 OA
ATOM     13  H   UNL     1      -8.290 -10.194 121.215  1.00  0.00     0.293 HD
ENDBRANCH   9  12
BRANCH   8  14
ATOM     14  O   UNL     1      -6.840  -8.683 118.099  1.00  0.00    -0.504 OA
ATOM     15  H   UNL     1      -7.072  -8.413 117.151  1.00  0.00     0.293 HD
ENDBRANCH   8  14
TORSDOF 2
ENDMDL
MODEL 6
REMARK VINA RESULT:    -3.204      2.382      2.927
REMARK INTER + INTRA:          -3.392
REMARK INTER:                  -3.392
REMARK INTRA:                   0.000
REMARK UNBOUND:                 0.000
REMARK SMILES O=c1ccc2cc(O)c(O)cc2o1
REMARK SMILES IDX 4 1 3 2 2 3 1 4 13 5 12 6 11 7 9 8 7 9 6 10 5 11 8 12 10 14
REMARK H PARENT 8 13 10 15
REMARK Flexibility Score: inf
ROOT
ATOM      1  C   UNL     1      -8.191 -10.071 121.527  1.00  0.00     0.019 A 
ATOM      2  C   UNL     1      -7.860 -11.091 122.419  1.00  0.00     0.094 A 
ATOM      3  C   UNL     1      -6.511 -11.403 122.621  1.00  0.00     0.336 A 
ATOM      4  O   UNL     1      -6.190 -12.321 123.421  1.00  0.00    -0.246 OA
ATOM      5  O   UNL     1      -5.561 -10.736 121.969  1.00  0.00    -0.423 OA
ATOM      6  C   UNL     1      -5.834  -9.756 121.111  1.00  0.00     0.142 A 
ATOM      7  C   UNL     1      -4.794  -9.091 120.456  1.00  0.00     0.098 A 
ATOM      8  C   UNL     1      -5.076  -8.058 119.549  1.00  0.00     0.161 A 
ATOM      9  C   UNL     1      -6.410  -7.690 119.297  1.00  0.00     0.158 A 
ATOM     10  C   UNL     1      -7.454  -8.355 119.953  1.00  0.00     0.062 A 
ATOM     11  C   UNL     1      -7.172  -9.387 120.858  1.00  0.00     0.022 A 
ENDROOT
BRANCH   9  12
ATOM     12  O   UNL     1      -6.718  -6.666 118.402  1.00  0.00    -0.504 OA
ATOM     13  H   UNL     1      -6.393  -5.717 118.537  1.00  0.00     0.293 HD
ENDBRANCH   9  12
BRANCH   8  14
ATOM     14  O   UNL     1      -4.036  -7.396 118.899  1.00  0.00    -0.504 OA
ATOM     15  H   UNL     1      -3.559  -7.807 118.105  1.00  0.00     0.293 HD
ENDBRANCH   8  14
TORSDOF 2
ENDMDL
MODEL 7
REMARK VINA RESULT:    -3.153      2.484      4.700
REMARK INTER + INTRA:          -3.338
REMARK INTER:                  -3.338
REMARK INTRA:                   0.000
REMARK UNBOUND:                 0.000
REMARK SMILES O=c1ccc2cc(O)c(O)cc2o1
REMARK SMILES IDX 4 1 3 2 2 3 1 4 13 5 12 6 11 7 9 8 7 9 6 10 5 11 8 12 10 14
REMARK H PARENT 8 13 10 15
REMARK Flexibility Score: inf
ROOT
ATOM      1  C   UNL     1      -5.334  -7.880 119.408  1.00  0.00     0.019 A 
ATOM      2  C   UNL     1      -6.111  -6.723 119.376  1.00  0.00     0.094 A 
ATOM      3  C   UNL     1      -7.351  -6.721 120.023  1.00  0.00     0.336 A 
ATOM      4  O   UNL     1      -8.068  -5.685 120.006  1.00  0.00    -0.246 OA
ATOM      5  O   UNL     1      -7.781  -7.809 120.658  1.00  0.00    -0.423 OA
ATOM      6  C   UNL     1      -7.071  -8.933 120.712  1.00  0.00     0.142 A 
ATOM      7  C   UNL     1      -7.575 -10.045 121.394  1.00  0.00     0.098 A 
ATOM      8  C   UNL     1      -6.831 -11.233 121.455  1.00  0.00     0.161 A 
ATOM      9  C   UNL     1      -5.574 -11.307 120.827  1.00  0.00     0.158 A 
ATOM     10  C   UNL     1      -5.068 -10.195 120.143  1.00  0.00     0.062 A 
ATOM     11  C   UNL     1      -5.811  -9.008 120.083  1.00  0.00     0.022 A 
ENDROOT
BRANCH   9  12
ATOM     12  O   UNL     1      -4.814 -12.476 120.872  1.00  0.00    -0.504 OA
ATOM     13  H   UNL     1      -3.925 -12.558 120.395  1.00  0.00     0.293 HD
ENDBRANCH   9  12
BRANCH   8  14
ATOM     14  O   UNL     1      -7.335 -12.339 122.137  1.00  0.00    -0.504 OA
ATOM     15  H   UNL     1      -7.881 -13.050 121.664  1.00  0.00     0.293 HD
ENDBRANCH   8  14
TORSDOF 2
ENDMDL
MODEL 8
REMARK VINA RESULT:    -3.129     22.519     23.000
REMARK INTER + INTRA:          -3.312
REMARK INTER:                  -3.312
REMARK INTRA:                   0.000
REMARK UNBOUND:                 0.000
REMARK SMILES O=c1ccc2cc(O)c(O)cc2o1
REMARK SMILES IDX 4 1 3 2 2 3 1 4 13 5 12 6 11 7 9 8 7 9 6 10 5 11 8 12 10 14
REMARK H PARENT 8 13 10 15
REMARK Flexibility Score: inf
ROOT
ATOM      1  C   UNL     1       7.488  -3.671 136.493  1.00  0.00     0.019 A 
ATOM      2  C   UNL     1       8.068  -2.745 135.626  1.00  0.00     0.094 A 
ATOM      3  C   UNL     1       9.071  -3.174 134.749  1.00  0.00     0.336 A 
ATOM      4  O   UNL     1       9.608  -2.354 133.959  1.00  0.00    -0.246 OA
ATOM      5  O   UNL     1       9.464  -4.446 134.746  1.00  0.00    -0.423 OA
ATOM      6  C   UNL     1       8.936  -5.360 135.556  1.00  0.00     0.142 A 
ATOM      7  C   UNL     1       9.389  -6.681 135.507  1.00  0.00     0.098 A 
ATOM      8  C   UNL     1       8.837  -7.650 136.359  1.00  0.00     0.161 A 
ATOM      9  C   UNL     1       7.824  -7.291 137.267  1.00  0.00     0.158 A 
ATOM     10  C   UNL     1       7.368  -5.968 137.317  1.00  0.00     0.062 A 
ATOM     11  C   UNL     1       7.920  -5.000 136.467  1.00  0.00     0.022 A 
ENDROOT
BRANCH   9  12
ATOM     12  O   UNL     1       7.258  -8.234 138.124  1.00  0.00    -0.504 OA
ATOM     13  H   UNL     1       7.513  -9.214 138.091  1.00  0.00     0.293 HD
ENDBRANCH   9  12
BRANCH   8  14
ATOM     14  O   UNL     1       9.291  -8.967 136.307  1.00  0.00    -0.504 OA
ATOM     15  H   UNL     1      10.008  -9.307 136.938  1.00  0.00     0.293 HD
ENDBRANCH   8  14
TORSDOF 2
ENDMDL
MODEL 9
REMARK VINA RESULT:    -3.087     21.611     22.235
REMARK INTER + INTRA:          -3.268
REMARK INTER:                  -3.268
REMARK INTRA:                   0.000
REMARK UNBOUND:                 0.000
REMARK SMILES O=c1ccc2cc(O)c(O)cc2o1
REMARK SMILES IDX 4 1 3 2 2 3 1 4 13 5 12 6 11 7 9 8 7 9 6 10 5 11 8 12 10 14
REMARK H PARENT 8 13 10 15
REMARK Flexibility Score: inf
ROOT
ATOM      1  C   UNL     1       5.950  -9.913 136.560  1.00  0.00     0.019 A 
ATOM      2  C   UNL     1       6.392 -11.012 135.823  1.00  0.00     0.094 A 
ATOM      3  C   UNL     1       7.623 -10.934 135.164  1.00  0.00     0.336 A 
ATOM      4  O   UNL     1       8.040 -11.915 134.492  1.00  0.00    -0.246 OA
ATOM      5  O   UNL     1       8.360  -9.828 135.240  1.00  0.00    -0.423 OA
ATOM      6  C   UNL     1       7.975  -8.758 135.932  1.00  0.00     0.142 A 
ATOM      7  C   UNL     1       8.791  -7.624 135.976  1.00  0.00     0.098 A 
ATOM      8  C   UNL     1       8.391  -6.493 136.704  1.00  0.00     0.161 A 
ATOM      9  C   UNL     1       7.164  -6.500 137.393  1.00  0.00     0.158 A 
ATOM     10  C   UNL     1       6.345  -7.636 137.351  1.00  0.00     0.062 A 
ATOM     11  C   UNL     1       6.745  -8.765 136.623  1.00  0.00     0.022 A 
ENDROOT
BRANCH   9  12
ATOM     12  O   UNL     1       6.743  -5.390 138.125  1.00  0.00    -0.504 OA
ATOM     13  H   UNL     1       7.054  -4.451 137.905  1.00  0.00     0.293 HD
ENDBRANCH   9  12
BRANCH   8  14
ATOM     14  O   UNL     1       9.208  -5.364 136.746  1.00  0.00    -0.504 OA
ATOM     15  H   UNL     1       9.005  -4.586 137.363  1.00  0.00     0.293 HD
ENDBRANCH   8  14
TORSDOF 2
ENDMDL
