MODEL 1
REMARK VINA RESULT:    -4.773      0.000      0.000
REMARK INTER + INTRA:          -9.516
REMARK INTER:                  -8.401
REMARK INTRA:                  -1.115
REMARK UNBOUND:                -1.115
REMARK SMILES CCCCCCCCCCCCCCC(=O)[O-]
REMARK SMILES IDX 9 1 10 2 11 3 12 4 13 5 14 6 15 7 16 8 17 9 8 10 7 11 6 12
REMARK SMILES IDX 5 13 4 14 3 15 2 16 1 17
REMARK H PARENT
REMARK Flexibility Score: inf
ROOT
ATOM      1  C   UNL     1      -3.408   0.289  11.811  1.00  0.00     0.000 C 
ENDROOT
BRANCH   1   2
ATOM      2  C   UNL     1      -4.595   1.273  11.819  1.00  0.00     0.000 C 
BRANCH   2   3
ATOM      3  C   UNL     1      -5.383   1.331  13.141  1.00  0.00     0.000 C 
BRANCH   3   4
ATOM      4  C   UNL     1      -4.472   1.374  14.376  1.00  0.00     0.000 C 
BRANCH   4   5
ATOM      5  C   UNL     1      -4.890   2.503  15.326  1.00  0.00     0.006 C 
BRANCH   5   6
ATOM      6  C   UNL     1      -6.247   3.088  14.921  1.00  0.00     0.053 C 
BRANCH   6   7
ATOM      7  C   UNL     1      -7.185   3.089  16.086  1.00  0.00     0.041 C 
ATOM      8  O   UNL     1      -7.004   2.295  17.047  1.00  0.00    -0.550 OA
ATOM      9  O   UNL     1      -8.289   3.933  16.089  1.00  0.00    -0.550 OA
ENDBRANCH   6   7
ENDBRANCH   5   6
ENDBRANCH   4   5
ENDBRANCH   3   4
ENDBRANCH   2   3
ENDBRANCH   1   2
BRANCH   1  10
ATOM     10  C   UNL     1      -2.628   0.218  10.483  1.00  0.00     0.000 C 
BRANCH  10  11
ATOM     11  C   UNL     1      -3.494  -0.023   9.232  1.00  0.00    -0.000 C 
BRANCH  11  12
ATOM     12  C   UNL     1      -4.137  -1.423   9.141  1.00  0.00    -0.000 C 
BRANCH  12  13
ATOM     13  C   UNL     1      -3.251  -2.505   8.497  1.00  0.00    -0.000 C 
BRANCH  13  14
ATOM     14  C   UNL     1      -3.040  -3.766   9.357  1.00  0.00    -0.000 C 
BRANCH  14  15
ATOM     15  C   UNL     1      -2.938  -3.476  10.870  1.00  0.00    -0.000 C 
BRANCH  15  16
ATOM     16  C   UNL     1      -4.074  -4.131  11.670  1.00  0.00    -0.003 C 
ATOM     17  C   UNL     1      -4.888  -5.079  10.795  1.00  0.00     0.004 C 
ENDBRANCH  15  16
ENDBRANCH  14  15
ENDBRANCH  13  14
ENDBRANCH  12  13
ENDBRANCH  11  12
ENDBRANCH  10  11
ENDBRANCH   1  10
TORSDOF 13
ENDMDL
MODEL 2
REMARK VINA RESULT:    -4.540      1.083      1.712
REMARK INTER + INTRA:          -9.105
REMARK INTER:                  -7.474
REMARK INTRA:                  -1.631
REMARK UNBOUND:                -1.115
REMARK SMILES CCCCCCCCCCCCCCC(=O)[O-]
REMARK SMILES IDX 9 1 10 2 11 3 12 4 13 5 14 6 15 7 16 8 17 9 8 10 7 11 6 12
REMARK SMILES IDX 5 13 4 14 3 15 2 16 1 17
REMARK H PARENT
REMARK Flexibility Score: inf
ROOT
ATOM      1  C   UNL     1      -2.653   1.207  11.028  1.00  0.00     0.000 C 
ENDROOT
BRANCH   1   2
ATOM      2  C   UNL     1      -3.143   0.842  12.444  1.00  0.00     0.000 C 
BRANCH   2   3
ATOM      3  C   UNL     1      -4.589   0.320  12.518  1.00  0.00     0.000 C 
BRANCH   3   4
ATOM      4  C   UNL     1      -5.580   1.379  13.023  1.00  0.00     0.000 C 
BRANCH   4   5
ATOM      5  C   UNL     1      -4.853   2.484  13.800  1.00  0.00     0.006 C 
BRANCH   5   6
ATOM      6  C   UNL     1      -5.030   2.300  15.310  1.00  0.00     0.053 C 
BRANCH   6   7
ATOM      7  C   UNL     1      -6.305   2.934  15.769  1.00  0.00     0.041 C 
ATOM      8  O   UNL     1      -6.880   2.521  16.811  1.00  0.00    -0.550 OA
ATOM      9  O   UNL     1      -6.886   3.950  15.019  1.00  0.00    -0.550 OA
ENDBRANCH   6   7
ENDBRANCH   5   6
ENDBRANCH   4   5
ENDBRANCH   3   4
ENDBRANCH   2   3
ENDBRANCH   1   2
BRANCH   1  10
ATOM     10  C   UNL     1      -3.664   0.931   9.897  1.00  0.00     0.000 C 
BRANCH  10  11
ATOM     11  C   UNL     1      -3.242  -0.167   8.901  1.00  0.00    -0.000 C 
BRANCH  11  12
ATOM     12  C   UNL     1      -4.221  -1.354   8.784  1.00  0.00    -0.000 C 
BRANCH  12  13
ATOM     13  C   UNL     1      -3.560  -2.745   8.787  1.00  0.00    -0.000 C 
BRANCH  13  14
ATOM     14  C   UNL     1      -3.957  -3.649   9.970  1.00  0.00    -0.000 C 
BRANCH  14  15
ATOM     15  C   UNL     1      -3.561  -3.078  11.349  1.00  0.00    -0.000 C 
BRANCH  15  16
ATOM     16  C   UNL     1      -2.123  -3.446  11.745  1.00  0.00    -0.003 C 
ATOM     17  C   UNL     1      -1.216  -2.219  11.727  1.00  0.00     0.004 C 
ENDBRANCH  15  16
ENDBRANCH  14  15
ENDBRANCH  13  14
ENDBRANCH  12  13
ENDBRANCH  11  12
ENDBRANCH  10  11
ENDBRANCH   1  10
TORSDOF 13
ENDMDL
MODEL 3
REMARK VINA RESULT:    -4.511      1.461      2.551
REMARK INTER + INTRA:          -9.055
REMARK INTER:                  -7.956
REMARK INTRA:                  -1.099
REMARK UNBOUND:                -1.115
REMARK SMILES CCCCCCCCCCCCCCC(=O)[O-]
REMARK SMILES IDX 9 1 10 2 11 3 12 4 13 5 14 6 15 7 16 8 17 9 8 10 7 11 6 12
REMARK SMILES IDX 5 13 4 14 3 15 2 16 1 17
REMARK H PARENT
REMARK Flexibility Score: inf
ROOT
ATOM      1  C   UNL     1      -5.328   1.162  12.996  1.00  0.00     0.000 C 
ENDROOT
BRANCH   1   2
ATOM      2  C   UNL     1      -4.911   1.466  14.449  1.00  0.00     0.000 C 
BRANCH   2   3
ATOM      3  C   UNL     1      -4.585   2.943  14.736  1.00  0.00     0.000 C 
BRANCH   3   4
ATOM      4  C   UNL     1      -5.116   3.418  16.097  1.00  0.00     0.000 C 
BRANCH   4   5
ATOM      5  C   UNL     1      -6.556   2.940  16.320  1.00  0.00     0.006 C 
BRANCH   5   6
ATOM      6  C   UNL     1      -7.528   4.122  16.352  1.00  0.00     0.053 C 
BRANCH   6   7
ATOM      7  C   UNL     1      -8.036   4.419  14.977  1.00  0.00     0.041 C 
ATOM      8  O   UNL     1      -7.366   5.146  14.196  1.00  0.00    -0.550 OA
ATOM      9  O   UNL     1      -9.274   3.933  14.572  1.00  0.00    -0.550 OA
ENDBRANCH   6   7
ENDBRANCH   5   6
ENDBRANCH   4   5
ENDBRANCH   3   4
ENDBRANCH   2   3
ENDBRANCH   1   2
BRANCH   1  10
ATOM     10  C   UNL     1      -4.350   0.264  12.211  1.00  0.00     0.000 C 
BRANCH  10  11
ATOM     11  C   UNL     1      -3.328   1.021  11.341  1.00  0.00    -0.000 C 
BRANCH  11  12
ATOM     12  C   UNL     1      -3.699   1.135   9.847  1.00  0.00    -0.000 C 
BRANCH  12  13
ATOM     13  C   UNL     1      -3.201  -0.023   8.963  1.00  0.00    -0.000 C 
BRANCH  13  14
ATOM     14  C   UNL     1      -4.190  -1.196   8.814  1.00  0.00    -0.000 C 
BRANCH  14  15
ATOM     15  C   UNL     1      -3.551  -2.581   9.048  1.00  0.00    -0.000 C 
BRANCH  15  16
ATOM     16  C   UNL     1      -3.669  -3.043  10.508  1.00  0.00    -0.003 C 
ATOM     17  C   UNL     1      -2.364  -2.812  11.266  1.00  0.00     0.004 C 
ENDBRANCH  15  16
ENDBRANCH  14  15
ENDBRANCH  13  14
ENDBRANCH  12  13
ENDBRANCH  11  12
ENDBRANCH  10  11
ENDBRANCH   1  10
TORSDOF 13
ENDMDL
MODEL 4
REMARK VINA RESULT:    -4.491      1.489      3.024
REMARK INTER + INTRA:          -9.019
REMARK INTER:                  -7.425
REMARK INTRA:                  -1.594
REMARK UNBOUND:                -1.115
REMARK SMILES CCCCCCCCCCCCCCC(=O)[O-]
REMARK SMILES IDX 9 1 10 2 11 3 12 4 13 5 14 6 15 7 16 8 17 9 8 10 7 11 6 12
REMARK SMILES IDX 5 13 4 14 3 15 2 16 1 17
REMARK H PARENT
REMARK Flexibility Score: inf
ROOT
ATOM      1  C   UNL     1      -4.064  -1.072   9.183  1.00  0.00     0.000 C 
ENDROOT
BRANCH   1   2
ATOM      2  C   UNL     1      -3.295   0.110   9.806  1.00  0.00     0.000 C 
BRANCH   2   3
ATOM      3  C   UNL     1      -4.118   0.990  10.764  1.00  0.00     0.000 C 
BRANCH   3   4
ATOM      4  C   UNL     1      -4.363   0.321  12.125  1.00  0.00     0.000 C 
BRANCH   4   5
ATOM      5  C   UNL     1      -5.107   1.269  13.074  1.00  0.00     0.006 C 
BRANCH   5   6
ATOM      6  C   UNL     1      -4.366   1.403  14.408  1.00  0.00     0.053 C 
BRANCH   6   7
ATOM      7  C   UNL     1      -4.900   2.562  15.189  1.00  0.00     0.041 C 
ATOM      8  O   UNL     1      -4.118   3.448  15.624  1.00  0.00    -0.550 OA
ATOM      9  O   UNL     1      -6.257   2.640  15.478  1.00  0.00    -0.550 OA
ENDBRANCH   6   7
ENDBRANCH   5   6
ENDBRANCH   4   5
ENDBRANCH   3   4
ENDBRANCH   2   3
ENDBRANCH   1   2
BRANCH   1  10
ATOM     10  C   UNL     1      -3.234  -1.970   8.244  1.00  0.00     0.000 C 
BRANCH  10  11
ATOM     11  C   UNL     1      -3.079  -3.431   8.709  1.00  0.00    -0.000 C 
BRANCH  11  12
ATOM     12  C   UNL     1      -4.325  -4.037   9.387  1.00  0.00    -0.000 C 
BRANCH  12  13
ATOM     13  C   UNL     1      -4.093  -4.580  10.809  1.00  0.00    -0.000 C 
BRANCH  13  14
ATOM     14  C   UNL     1      -3.582  -3.539  11.824  1.00  0.00    -0.000 C 
BRANCH  14  15
ATOM     15  C   UNL     1      -2.051  -3.559  12.019  1.00  0.00    -0.000 C 
BRANCH  15  16
ATOM     16  C   UNL     1      -1.435  -2.153  11.974  1.00  0.00    -0.003 C 
ATOM     17  C   UNL     1      -0.440  -2.024  10.824  1.00  0.00     0.004 C 
ENDBRANCH  15  16
ENDBRANCH  14  15
ENDBRANCH  13  14
ENDBRANCH  12  13
ENDBRANCH  11  12
ENDBRANCH  10  11
ENDBRANCH   1  10
TORSDOF 13
ENDMDL
MODEL 5
REMARK VINA RESULT:    -4.479      3.439      7.883
REMARK INTER + INTRA:          -8.997
REMARK INTER:                  -8.008
REMARK INTRA:                  -0.989
REMARK UNBOUND:                -1.115
REMARK SMILES CCCCCCCCCCCCCCC(=O)[O-]
REMARK SMILES IDX 9 1 10 2 11 3 12 4 13 5 14 6 15 7 16 8 17 9 8 10 7 11 6 12
REMARK SMILES IDX 5 13 4 14 3 15 2 16 1 17
REMARK H PARENT
REMARK Flexibility Score: inf
ROOT
ATOM      1  C   UNL     1      -3.092   1.108  11.531  1.00  0.00     0.000 C 
ENDROOT
BRANCH   1   2
ATOM      2  C   UNL     1      -3.855  -0.099  10.949  1.00  0.00     0.000 C 
BRANCH   2   3
ATOM      3  C   UNL     1      -3.928  -0.143   9.412  1.00  0.00     0.000 C 
BRANCH   3   4
ATOM      4  C   UNL     1      -4.345  -1.519   8.874  1.00  0.00     0.000 C 
BRANCH   4   5
ATOM      5  C   UNL     1      -3.132  -2.449   8.748  1.00  0.00     0.006 C 
BRANCH   5   6
ATOM      6  C   UNL     1      -3.548  -3.917   8.884  1.00  0.00     0.053 C 
BRANCH   6   7
ATOM      7  C   UNL     1      -3.992  -4.206  10.283  1.00  0.00     0.041 C 
ATOM      8  O   UNL     1      -5.021  -4.902  10.491  1.00  0.00    -0.550 OA
ATOM      9  O   UNL     1      -3.296  -3.669  11.359  1.00  0.00    -0.550 OA
ENDBRANCH   6   7
ENDBRANCH   5   6
ENDBRANCH   4   5
ENDBRANCH   3   4
ENDBRANCH   2   3
ENDBRANCH   1   2
BRANCH   1  10
ATOM     10  C   UNL     1      -3.977   2.184  12.191  1.00  0.00     0.000 C 
BRANCH  10  11
ATOM     11  C   UNL     1      -5.130   1.637  13.055  1.00  0.00    -0.000 C 
BRANCH  11  12
ATOM     12  C   UNL     1      -4.787   1.427  14.545  1.00  0.00    -0.000 C 
BRANCH  12  13
ATOM     13  C   UNL     1      -4.119   2.631  15.235  1.00  0.00    -0.000 C 
BRANCH  13  14
ATOM     14  C   UNL     1      -5.083   3.552  16.007  1.00  0.00    -0.000 C 
BRANCH  14  15
ATOM     15  C   UNL     1      -6.447   2.900  16.323  1.00  0.00    -0.000 C 
BRANCH  15  16
ATOM     16  C   UNL     1      -7.612   3.896  16.216  1.00  0.00    -0.003 C 
ATOM     17  C   UNL     1      -8.044   4.082  14.764  1.00  0.00     0.004 C 
ENDBRANCH  15  16
ENDBRANCH  14  15
ENDBRANCH  13  14
ENDBRANCH  12  13
ENDBRANCH  11  12
ENDBRANCH  10  11
ENDBRANCH   1  10
TORSDOF 13
ENDMDL
MODEL 6
REMARK VINA RESULT:    -4.445      3.178      4.789
REMARK INTER + INTRA:          -8.938
REMARK INTER:                  -7.051
REMARK INTRA:                  -1.887
REMARK UNBOUND:                -1.115
REMARK SMILES CCCCCCCCCCCCCCC(=O)[O-]
REMARK SMILES IDX 9 1 10 2 11 3 12 4 13 5 14 6 15 7 16 8 17 9 8 10 7 11 6 12
REMARK SMILES IDX 5 13 4 14 3 15 2 16 1 17
REMARK H PARENT
REMARK Flexibility Score: inf
ROOT
ATOM      1  C   UNL     1      -3.627   4.346  11.023  1.00  0.00     0.000 C 
ENDROOT
BRANCH   1   2
ATOM      2  C   UNL     1      -3.555   4.589  12.544  1.00  0.00     0.000 C 
BRANCH   2   3
ATOM      3  C   UNL     1      -4.639   5.527  13.106  1.00  0.00     0.000 C 
BRANCH   3   4
ATOM      4  C   UNL     1      -5.433   4.897  14.259  1.00  0.00     0.000 C 
BRANCH   4   5
ATOM      5  C   UNL     1      -6.931   5.198  14.121  1.00  0.00     0.006 C 
BRANCH   5   6
ATOM      6  C   UNL     1      -7.775   4.072  14.725  1.00  0.00     0.053 C 
BRANCH   6   7
ATOM      7  C   UNL     1      -7.481   3.923  16.184  1.00  0.00     0.041 C 
ATOM      8  O   UNL     1      -7.063   2.824  16.638  1.00  0.00    -0.550 OA
ATOM      9  O   UNL     1      -7.714   4.982  17.053  1.00  0.00    -0.550 OA
ENDBRANCH   6   7
ENDBRANCH   5   6
ENDBRANCH   4   5
ENDBRANCH   3   4
ENDBRANCH   2   3
ENDBRANCH   1   2
BRANCH   1  10
ATOM     10  C   UNL     1      -3.232   2.926  10.569  1.00  0.00     0.000 C 
BRANCH  10  11
ATOM     11  C   UNL     1      -4.371   1.889  10.611  1.00  0.00    -0.000 C 
BRANCH  11  12
ATOM     12  C   UNL     1      -4.311   0.899  11.793  1.00  0.00    -0.000 C 
BRANCH  12  13
ATOM     13  C   UNL     1      -5.257   1.226  12.964  1.00  0.00    -0.000 C 
BRANCH  13  14
ATOM     14  C   UNL     1      -4.558   1.436  14.321  1.00  0.00    -0.000 C 
BRANCH  14  15
ATOM     15  C   UNL     1      -3.017   1.438  14.233  1.00  0.00    -0.000 C 
BRANCH  15  16
ATOM     16  C   UNL     1      -2.354   1.814  15.567  1.00  0.00    -0.003 C 
ATOM     17  C   UNL     1      -1.946   3.285  15.583  1.00  0.00     0.004 C 
ENDBRANCH  15  16
ENDBRANCH  14  15
ENDBRANCH  13  14
ENDBRANCH  12  13
ENDBRANCH  11  12
ENDBRANCH  10  11
ENDBRANCH   1  10
TORSDOF 13
ENDMDL
MODEL 7
REMARK VINA RESULT:    -4.437      3.580      8.486
REMARK INTER + INTRA:          -8.925
REMARK INTER:                  -8.257
REMARK INTRA:                  -0.668
REMARK UNBOUND:                -1.115
REMARK SMILES CCCCCCCCCCCCCCC(=O)[O-]
REMARK SMILES IDX 9 1 10 2 11 3 12 4 13 5 14 6 15 7 16 8 17 9 8 10 7 11 6 12
REMARK SMILES IDX 5 13 4 14 3 15 2 16 1 17
REMARK H PARENT
REMARK Flexibility Score: inf
ROOT
ATOM      1  C   UNL     1      -4.474   1.144  11.927  1.00  0.00     0.000 C 
ENDROOT
BRANCH   1   2
ATOM      2  C   UNL     1      -3.973  -0.143  11.239  1.00  0.00     0.000 C 
BRANCH   2   3
ATOM      3  C   UNL     1      -3.919  -0.080   9.702  1.00  0.00     0.000 C 
BRANCH   3   4
ATOM      4  C   UNL     1      -4.013  -1.464   9.045  1.00  0.00     0.000 C 
BRANCH   4   5
ATOM      5  C   UNL     1      -3.317  -2.527   9.904  1.00  0.00     0.006 C 
BRANCH   5   6
ATOM      6  C   UNL     1      -3.742  -3.937   9.484  1.00  0.00     0.053 C 
BRANCH   6   7
ATOM      7  C   UNL     1      -4.515  -4.600  10.580  1.00  0.00     0.041 C 
ATOM      8  O   UNL     1      -5.416  -5.436  10.305  1.00  0.00    -0.550 OA
ATOM      9  O   UNL     1      -4.274  -4.259  11.905  1.00  0.00    -0.550 OA
ENDBRANCH   6   7
ENDBRANCH   5   6
ENDBRANCH   4   5
ENDBRANCH   3   4
ENDBRANCH   2   3
ENDBRANCH   1   2
BRANCH   1  10
ATOM     10  C   UNL     1      -5.093   0.938  13.324  1.00  0.00     0.000 C 
BRANCH  10  11
ATOM     11  C   UNL     1      -4.474   1.799  14.443  1.00  0.00    -0.000 C 
BRANCH  11  12
ATOM     12  C   UNL     1      -5.486   2.609  15.280  1.00  0.00    -0.000 C 
BRANCH  12  13
ATOM     13  C   UNL     1      -6.677   3.178  14.487  1.00  0.00    -0.000 C 
BRANCH  13  14
ATOM     14  C   UNL     1      -7.130   4.586  14.919  1.00  0.00    -0.000 C 
BRANCH  14  15
ATOM     15  C   UNL     1      -7.578   4.670  16.394  1.00  0.00    -0.000 C 
BRANCH  15  16
ATOM     16  C   UNL     1      -6.948   5.860  17.132  1.00  0.00    -0.003 C 
ATOM     17  C   UNL     1      -5.768   6.431  16.350  1.00  0.00     0.004 C 
ENDBRANCH  15  16
ENDBRANCH  14  15
ENDBRANCH  13  14
ENDBRANCH  12  13
ENDBRANCH  11  12
ENDBRANCH  10  11
ENDBRANCH   1  10
TORSDOF 13
ENDMDL
MODEL 8
REMARK VINA RESULT:    -4.290      3.118      5.414
REMARK INTER + INTRA:          -8.665
REMARK INTER:                  -7.127
REMARK INTRA:                  -1.538
REMARK UNBOUND:                -1.115
REMARK SMILES CCCCCCCCCCCCCCC(=O)[O-]
REMARK SMILES IDX 9 1 10 2 11 3 12 4 13 5 14 6 15 7 16 8 17 9 8 10 7 11 6 12
REMARK SMILES IDX 5 13 4 14 3 15 2 16 1 17
REMARK H PARENT
REMARK Flexibility Score: inf
ROOT
ATOM      1  C   UNL     1      -4.159   1.634  14.356  1.00  0.00     0.000 C 
ENDROOT
BRANCH   1   2
ATOM      2  C   UNL     1      -4.827   2.546  15.406  1.00  0.00     0.000 C 
BRANCH   2   3
ATOM      3  C   UNL     1      -6.313   2.855  15.149  1.00  0.00     0.000 C 
BRANCH   3   4
ATOM      4  C   UNL     1      -7.085   3.182  16.435  1.00  0.00     0.000 C 
BRANCH   4   5
ATOM      5  C   UNL     1      -7.661   4.602  16.382  1.00  0.00     0.006 C 
BRANCH   5   6
ATOM      6  C   UNL     1      -6.732   5.598  17.082  1.00  0.00     0.053 C 
BRANCH   6   7
ATOM      7  C   UNL     1      -6.132   6.541  16.089  1.00  0.00     0.041 C 
ATOM      8  O   UNL     1      -5.480   7.545  16.480  1.00  0.00    -0.550 OA
ATOM      9  O   UNL     1      -6.332   6.339  14.728  1.00  0.00    -0.550 OA
ENDBRANCH   6   7
ENDBRANCH   5   6
ENDBRANCH   4   5
ENDBRANCH   3   4
ENDBRANCH   2   3
ENDBRANCH   1   2
BRANCH   1  10
ATOM     10  C   UNL     1      -5.039   1.290  13.137  1.00  0.00     0.000 C 
BRANCH  10  11
ATOM     11  C   UNL     1      -4.379   0.359  12.101  1.00  0.00    -0.000 C 
BRANCH  11  12
ATOM     12  C   UNL     1      -4.075   1.011  10.736  1.00  0.00    -0.000 C 
BRANCH  12  13
ATOM     13  C   UNL     1      -3.170   2.255  10.796  1.00  0.00    -0.000 C 
BRANCH  13  14
ATOM     14  C   UNL     1      -3.732   3.500  10.083  1.00  0.00    -0.000 C 
BRANCH  14  15
ATOM     15  C   UNL     1      -3.505   4.816  10.858  1.00  0.00    -0.000 C 
BRANCH  15  16
ATOM     16  C   UNL     1      -4.043   4.751  12.295  1.00  0.00    -0.003 C 
ATOM     17  C   UNL     1      -2.938   5.034  13.309  1.00  0.00     0.004 C 
ENDBRANCH  15  16
ENDBRANCH  14  15
ENDBRANCH  13  14
ENDBRANCH  12  13
ENDBRANCH  11  12
ENDBRANCH  10  11
ENDBRANCH   1  10
TORSDOF 13
ENDMDL
MODEL 9
REMARK VINA RESULT:    -4.268      4.261      6.893
REMARK INTER + INTRA:          -8.626
REMARK INTER:                  -6.744
REMARK INTRA:                  -1.882
REMARK UNBOUND:                -1.115
REMARK SMILES CCCCCCCCCCCCCCC(=O)[O-]
REMARK SMILES IDX 9 1 10 2 11 3 12 4 13 5 14 6 15 7 16 8 17 9 8 10 7 11 6 12
REMARK SMILES IDX 5 13 4 14 3 15 2 16 1 17
REMARK H PARENT
REMARK Flexibility Score: inf
ROOT
ATOM      1  C   UNL     1      -0.037   0.002  12.335  1.00  0.00     0.000 C 
ENDROOT
BRANCH   1   2
ATOM      2  C   UNL     1      -0.882  -1.165  11.784  1.00  0.00     0.000 C 
BRANCH   2   3
ATOM      3  C   UNL     1      -0.398  -2.568  12.190  1.00  0.00     0.000 C 
BRANCH   3   4
ATOM      4  C   UNL     1      -1.536  -3.596  12.259  1.00  0.00     0.000 C 
BRANCH   4   5
ATOM      5  C   UNL     1      -2.761  -3.110  11.473  1.00  0.00     0.006 C 
BRANCH   5   6
ATOM      6  C   UNL     1      -3.940  -4.073  11.644  1.00  0.00     0.053 C 
BRANCH   6   7
ATOM      7  C   UNL     1      -4.395  -4.584  10.313  1.00  0.00     0.041 C 
ATOM      8  O   UNL     1      -3.776  -4.263   9.265  1.00  0.00    -0.550 OA
ATOM      9  O   UNL     1      -5.533  -5.377  10.225  1.00  0.00    -0.550 OA
ENDBRANCH   6   7
ENDBRANCH   5   6
ENDBRANCH   4   5
ENDBRANCH   3   4
ENDBRANCH   2   3
ENDBRANCH   1   2
BRANCH   1  10
ATOM     10  C   UNL     1      -0.848   1.196  12.878  1.00  0.00     0.000 C 
BRANCH  10  11
ATOM     11  C   UNL     1      -1.585   0.932  14.205  1.00  0.00    -0.000 C 
BRANCH  11  12
ATOM     12  C   UNL     1      -3.091   1.270  14.195  1.00  0.00    -0.000 C 
BRANCH  12  13
ATOM     13  C   UNL     1      -3.674   1.603  12.809  1.00  0.00    -0.000 C 
BRANCH  13  14
ATOM     14  C   UNL     1      -4.373   0.426  12.101  1.00  0.00    -0.000 C 
BRANCH  14  15
ATOM     15  C   UNL     1      -3.976   0.268  10.618  1.00  0.00    -0.000 C 
BRANCH  15  16
ATOM     16  C   UNL     1      -3.376   1.555  10.030  1.00  0.00    -0.003 C 
ATOM     17  C   UNL     1      -2.067   1.268   9.301  1.00  0.00     0.004 C 
ENDBRANCH  15  16
ENDBRANCH  14  15
ENDBRANCH  13  14
ENDBRANCH  12  13
ENDBRANCH  11  12
ENDBRANCH  10  11
ENDBRANCH   1  10
TORSDOF 13
ENDMDL
