MODEL 1
REMARK VINA RESULT:    -3.933      0.000      0.000
REMARK INTER + INTRA:          -5.330
REMARK INTER:                  -4.852
REMARK INTRA:                  -0.477
REMARK UNBOUND:                -0.477
REMARK SMILES C=CC[C@H](C)C(=O)CC
REMARK SMILES IDX 4 1 5 2 6 3 7 4 8 5 9 6 3 7 2 8 1 9
REMARK H PARENT
REMARK Flexibility Score: inf
ROOT
ATOM      1  C   UNL     1      12.690 -29.422  22.838  1.00  0.00     0.057 C 
ATOM      2  C   UNL     1      11.778 -30.343  22.019  1.00  0.00     0.016 C 
ENDROOT
BRANCH   1   3
ATOM      3  C   UNL     1      13.858 -30.211  23.393  1.00  0.00     0.135 C 
ATOM      4  O   UNL     1      13.651 -31.149  24.151  1.00  0.00    -0.299 OA
BRANCH   3   5
ATOM      5  C   UNL     1      15.277 -29.874  23.013  1.00  0.00     0.072 C 
ATOM      6  C   UNL     1      15.312 -28.797  21.934  1.00  0.00     0.012 C 
ENDBRANCH   3   5
ENDBRANCH   1   3
BRANCH   1   7
ATOM      7  C   UNL     1      11.891 -28.738  23.967  1.00  0.00     0.038 C 
BRANCH   7   8
ATOM      8  C   UNL     1      12.764 -27.874  24.839  1.00  0.00    -0.034 C 
ATOM      9  C   UNL     1      13.258 -26.710  24.406  1.00  0.00     0.004 C 
ENDBRANCH   7   8
ENDBRANCH   1   7
TORSDOF 4
ENDMDL
MODEL 2
REMARK VINA RESULT:    -3.929      2.173      3.980
REMARK INTER + INTRA:          -5.325
REMARK INTER:                  -5.152
REMARK INTRA:                  -0.173
REMARK UNBOUND:                -0.477
REMARK SMILES C=CC[C@H](C)C(=O)CC
REMARK SMILES IDX 4 1 5 2 6 3 7 4 8 5 9 6 3 7 2 8 1 9
REMARK H PARENT
REMARK Flexibility Score: inf
ROOT
ATOM      1  C   UNL     1      12.001 -30.486  22.287  1.00  0.00     0.057 C 
ATOM      2  C   UNL     1      10.876 -30.495  21.246  1.00  0.00     0.016 C 
ENDROOT
BRANCH   1   3
ATOM      3  C   UNL     1      11.938 -29.212  23.105  1.00  0.00     0.135 C 
ATOM      4  O   UNL     1      11.086 -28.372  22.854  1.00  0.00    -0.299 OA
BRANCH   3   5
ATOM      5  C   UNL     1      12.898 -28.967  24.240  1.00  0.00     0.072 C 
ATOM      6  C   UNL     1      13.010 -27.478  24.549  1.00  0.00     0.012 C 
ENDBRANCH   3   5
ENDBRANCH   1   3
BRANCH   1   7
ATOM      7  C   UNL     1      13.373 -30.641  21.599  1.00  0.00     0.038 C 
BRANCH   7   8
ATOM      8  C   UNL     1      13.388 -31.777  20.609  1.00  0.00    -0.034 C 
ATOM      9  C   UNL     1      14.125 -32.874  20.808  1.00  0.00     0.004 C 
ENDBRANCH   7   8
ENDBRANCH   1   7
TORSDOF 4
ENDMDL
MODEL 3
REMARK VINA RESULT:    -3.904      1.089      2.099
REMARK INTER + INTRA:          -5.295
REMARK INTER:                  -5.106
REMARK INTRA:                  -0.189
REMARK UNBOUND:                -0.477
REMARK SMILES C=CC[C@H](C)C(=O)CC
REMARK SMILES IDX 4 1 5 2 6 3 7 4 8 5 9 6 3 7 2 8 1 9
REMARK H PARENT
REMARK Flexibility Score: inf
ROOT
ATOM      1  C   UNL     1      13.765 -29.306  23.465  1.00  0.00     0.057 C 
ATOM      2  C   UNL     1      14.722 -28.738  22.411  1.00  0.00     0.016 C 
ENDROOT
BRANCH   1   3
ATOM      3  C   UNL     1      13.248 -30.659  23.019  1.00  0.00     0.135 C 
ATOM      4  O   UNL     1      13.418 -31.638  23.732  1.00  0.00    -0.299 OA
BRANCH   3   5
ATOM      5  C   UNL     1      12.508 -30.820  21.717  1.00  0.00     0.072 C 
ATOM      6  C   UNL     1      13.301 -31.683  20.741  1.00  0.00     0.012 C 
ENDBRANCH   3   5
ENDBRANCH   1   3
BRANCH   1   7
ATOM      7  C   UNL     1      12.605 -28.323  23.726  1.00  0.00     0.038 C 
BRANCH   7   8
ATOM      8  C   UNL     1      12.795 -27.545  25.002  1.00  0.00    -0.034 C 
ATOM      9  C   UNL     1      13.605 -26.484  25.065  1.00  0.00     0.004 C 
ENDBRANCH   7   8
ENDBRANCH   1   7
TORSDOF 4
ENDMDL
MODEL 4
REMARK VINA RESULT:    -3.893      1.370      1.680
REMARK INTER + INTRA:          -5.280
REMARK INTER:                  -5.019
REMARK INTRA:                  -0.261
REMARK UNBOUND:                -0.477
REMARK SMILES C=CC[C@H](C)C(=O)CC
REMARK SMILES IDX 4 1 5 2 6 3 7 4 8 5 9 6 3 7 2 8 1 9
REMARK H PARENT
REMARK Flexibility Score: inf
ROOT
ATOM      1  C   UNL     1      12.366 -28.861  23.003  1.00  0.00     0.057 C 
ATOM      2  C   UNL     1      10.875 -28.725  22.672  1.00  0.00     0.016 C 
ENDROOT
BRANCH   1   3
ATOM      3  C   UNL     1      12.780 -30.317  22.936  1.00  0.00     0.135 C 
ATOM      4  O   UNL     1      12.294 -31.047  22.083  1.00  0.00    -0.299 OA
BRANCH   3   5
ATOM      5  C   UNL     1      13.798 -30.882  23.892  1.00  0.00     0.072 C 
ATOM      6  C   UNL     1      15.216 -30.641  23.385  1.00  0.00     0.012 C 
ENDBRANCH   3   5
ENDBRANCH   1   3
BRANCH   1   7
ATOM      7  C   UNL     1      12.667 -28.257  24.390  1.00  0.00     0.038 C 
BRANCH   7   8
ATOM      8  C   UNL     1      13.494 -27.001  24.297  1.00  0.00    -0.034 C 
ATOM      9  C   UNL     1      13.869 -26.323  25.385  1.00  0.00     0.004 C 
ENDBRANCH   7   8
ENDBRANCH   1   7
TORSDOF 4
ENDMDL
MODEL 5
REMARK VINA RESULT:    -3.890      1.870      3.425
REMARK INTER + INTRA:          -5.277
REMARK INTER:                  -4.898
REMARK INTRA:                  -0.379
REMARK UNBOUND:                -0.477
REMARK SMILES C=CC[C@H](C)C(=O)CC
REMARK SMILES IDX 4 1 5 2 6 3 7 4 8 5 9 6 3 7 2 8 1 9
REMARK H PARENT
REMARK Flexibility Score: inf
ROOT
ATOM      1  C   UNL     1      12.019 -30.082  22.634  1.00  0.00     0.057 C 
ATOM      2  C   UNL     1      10.977 -30.316  21.533  1.00  0.00     0.016 C 
ENDROOT
BRANCH   1   3
ATOM      3  C   UNL     1      11.801 -28.725  23.271  1.00  0.00     0.135 C 
ATOM      4  O   UNL     1      11.022 -27.932  22.759  1.00  0.00    -0.299 OA
BRANCH   3   5
ATOM      5  C   UNL     1      12.512 -28.337  24.541  1.00  0.00     0.072 C 
ATOM      6  C   UNL     1      13.263 -27.021  24.367  1.00  0.00     0.012 C 
ENDBRANCH   3   5
ENDBRANCH   1   3
BRANCH   1   7
ATOM      7  C   UNL     1      13.446 -30.208  22.061  1.00  0.00     0.038 C 
BRANCH   7   8
ATOM      8  C   UNL     1      14.273 -31.220  22.810  1.00  0.00    -0.034 C 
ATOM      9  C   UNL     1      13.815 -31.827  23.909  1.00  0.00     0.004 C 
ENDBRANCH   7   8
ENDBRANCH   1   7
TORSDOF 4
ENDMDL
MODEL 6
REMARK VINA RESULT:    -3.855      2.215      2.732
REMARK INTER + INTRA:          -5.234
REMARK INTER:                  -5.014
REMARK INTRA:                  -0.220
REMARK UNBOUND:                -0.477
REMARK SMILES C=CC[C@H](C)C(=O)CC
REMARK SMILES IDX 4 1 5 2 6 3 7 4 8 5 9 6 3 7 2 8 1 9
REMARK H PARENT
REMARK Flexibility Score: inf
ROOT
ATOM      1  C   UNL     1      12.874 -30.872  22.707  1.00  0.00     0.057 C 
ATOM      2  C   UNL     1      13.771 -31.268  23.885  1.00  0.00     0.016 C 
ENDROOT
BRANCH   1   3
ATOM      3  C   UNL     1      13.654 -30.962  21.411  1.00  0.00     0.135 C 
ATOM      4  O   UNL     1      14.538 -30.150  21.178  1.00  0.00    -0.299 OA
BRANCH   3   5
ATOM      5  C   UNL     1      13.373 -32.049  20.406  1.00  0.00     0.072 C 
ATOM      6  C   UNL     1      14.343 -33.213  20.575  1.00  0.00     0.012 C 
ENDBRANCH   3   5
ENDBRANCH   1   3
BRANCH   1   7
ATOM      7  C   UNL     1      12.300 -29.456  22.918  1.00  0.00     0.038 C 
BRANCH   7   8
ATOM      8  C   UNL     1      12.651 -28.896  24.272  1.00  0.00    -0.034 C 
ATOM      9  C   UNL     1      12.822 -27.585  24.468  1.00  0.00     0.004 C 
ENDBRANCH   7   8
ENDBRANCH   1   7
TORSDOF 4
ENDMDL
MODEL 7
REMARK VINA RESULT:    -3.841      8.857     10.762
REMARK INTER + INTRA:          -5.217
REMARK INTER:                  -4.988
REMARK INTRA:                  -0.229
REMARK UNBOUND:                -0.477
REMARK SMILES C=CC[C@H](C)C(=O)CC
REMARK SMILES IDX 4 1 5 2 6 3 7 4 8 5 9 6 3 7 2 8 1 9
REMARK H PARENT
REMARK Flexibility Score: inf
ROOT
ATOM      1  C   UNL     1      22.603 -25.725  19.704  1.00  0.00     0.057 C 
ATOM      2  C   UNL     1      23.342 -26.976  20.192  1.00  0.00     0.016 C 
ENDROOT
BRANCH   1   3
ATOM      3  C   UNL     1      23.315 -24.479  20.192  1.00  0.00     0.135 C 
ATOM      4  O   UNL     1      24.040 -23.857  19.429  1.00  0.00    -0.299 OA
BRANCH   3   5
ATOM      5  C   UNL     1      23.133 -23.979  21.602  1.00  0.00     0.072 C 
ATOM      6  C   UNL     1      23.973 -22.731  21.851  1.00  0.00     0.012 C 
ENDBRANCH   3   5
ENDBRANCH   1   3
BRANCH   1   7
ATOM      7  C   UNL     1      21.134 -25.749  20.176  1.00  0.00     0.038 C 
BRANCH   7   8
ATOM      8  C   UNL     1      20.774 -27.048  20.849  1.00  0.00    -0.034 C 
ATOM      9  C   UNL     1      19.641 -27.697  20.564  1.00  0.00     0.004 C 
ENDBRANCH   7   8
ENDBRANCH   1   7
TORSDOF 4
ENDMDL
MODEL 8
REMARK VINA RESULT:    -3.740      1.832      2.373
REMARK INTER + INTRA:          -5.092
REMARK INTER:                  -4.886
REMARK INTRA:                  -0.206
REMARK UNBOUND:                -0.477
REMARK SMILES C=CC[C@H](C)C(=O)CC
REMARK SMILES IDX 4 1 5 2 6 3 7 4 8 5 9 6 3 7 2 8 1 9
REMARK H PARENT
REMARK Flexibility Score: inf
ROOT
ATOM      1  C   UNL     1      13.205 -30.350  22.415  1.00  0.00     0.057 C 
ATOM      2  C   UNL     1      11.778 -30.539  21.891  1.00  0.00     0.016 C 
ENDROOT
BRANCH   1   3
ATOM      3  C   UNL     1      13.981 -31.646  22.285  1.00  0.00     0.135 C 
ATOM      4  O   UNL     1      13.815 -32.355  21.302  1.00  0.00    -0.299 OA
BRANCH   3   5
ATOM      5  C   UNL     1      14.970 -32.071  23.338  1.00  0.00     0.072 C 
ATOM      6  C   UNL     1      14.441 -33.257  24.138  1.00  0.00     0.012 C 
ENDBRANCH   3   5
ENDBRANCH   1   3
BRANCH   1   7
ATOM      7  C   UNL     1      13.182 -29.858  23.877  1.00  0.00     0.038 C 
BRANCH   7   8
ATOM      8  C   UNL     1      12.328 -28.628  24.050  1.00  0.00    -0.034 C 
ATOM      9  C   UNL     1      12.642 -27.671  24.928  1.00  0.00     0.004 C 
ENDBRANCH   7   8
ENDBRANCH   1   7
TORSDOF 4
ENDMDL
MODEL 9
REMARK VINA RESULT:    -3.733      1.835      3.910
REMARK INTER + INTRA:          -5.083
REMARK INTER:                  -4.782
REMARK INTRA:                  -0.301
REMARK UNBOUND:                -0.477
REMARK SMILES C=CC[C@H](C)C(=O)CC
REMARK SMILES IDX 4 1 5 2 6 3 7 4 8 5 9 6 3 7 2 8 1 9
REMARK H PARENT
REMARK Flexibility Score: inf
ROOT
ATOM      1  C   UNL     1      13.441 -29.605  22.749  1.00  0.00     0.057 C 
ATOM      2  C   UNL     1      14.594 -28.678  22.349  1.00  0.00     0.016 C 
ENDROOT
BRANCH   1   3
ATOM      3  C   UNL     1      12.231 -28.784  23.148  1.00  0.00     0.135 C 
ATOM      4  O   UNL     1      12.355 -27.876  23.957  1.00  0.00    -0.299 OA
BRANCH   3   5
ATOM      5  C   UNL     1      10.875 -29.053  22.549  1.00  0.00     0.072 C 
ATOM      6  C   UNL     1      10.917 -30.265  21.624  1.00  0.00     0.012 C 
ENDBRANCH   3   5
ENDBRANCH   1   3
BRANCH   1   7
ATOM      7  C   UNL     1      13.878 -30.547  23.890  1.00  0.00     0.038 C 
BRANCH   7   8
ATOM      8  C   UNL     1      13.875 -31.993  23.467  1.00  0.00    -0.034 C 
ATOM      9  C   UNL     1      13.903 -32.987  24.359  1.00  0.00     0.004 C 
ENDBRANCH   7   8
ENDBRANCH   1   7
TORSDOF 4
ENDMDL
