MODEL 1
REMARK VINA RESULT:    -6.331      0.000      0.000
REMARK INTER + INTRA:          -9.460
REMARK INTER:                  -8.367
REMARK INTRA:                  -1.094
REMARK UNBOUND:                -1.094
REMARK SMILES CC[C@@H](C=C[C@@H](C)[C@H]1CC[C@H]2[C@H]3CC=C4C[C@H](O)CC[C@@]4(C)[C@H]3CC[C@]12C)C(C)C
REMARK SMILES IDX 6 1 7 2 5 3 4 4 3 5 2 6 1 7 28 8 29 9 30 10 8 11 9 12 26 13
REMARK SMILES IDX 10 14 11 15 25 16 27 17 12 18 24 19 23 20 13 21 21 22 14 23
REMARK SMILES IDX 15 24 20 25 22 26 16 27 19 28 17 29 18 30
REMARK H PARENT 18 31
REMARK Flexibility Score: inf
ROOT
ATOM      1  C   UNL     1     126.318 131.011 112.309  1.00  0.00     0.012 C 
ATOM      2  C   UNL     1     125.647 130.828 113.680  1.00  0.00     0.012 C 
ENDROOT
BRANCH   1   3
ATOM      3  C   UNL     1     125.287 131.439 111.281  1.00  0.00    -0.028 C 
ATOM      4  C   UNL     1     124.233 132.219 111.596  1.00  0.00    -0.027 C 
BRANCH   4   5
ATOM      5  C   UNL     1     123.072 132.541 110.665  1.00  0.00     0.014 C 
BRANCH   5   6
ATOM      6  C   UNL     1     123.135 134.020 110.205  1.00  0.00     0.004 C 
ATOM      7  C   UNL     1     124.122 134.853 111.025  1.00  0.00     0.004 C 
ENDBRANCH   5   6
BRANCH   5   8
ATOM      8  C   UNL     1     121.665 132.118 111.213  1.00  0.00    -0.011 C 
ATOM      9  C   UNL     1     121.600 132.001 112.753  1.00  0.00     0.008 C 
ATOM     10  C   UNL     1     120.575 133.088 110.735  1.00  0.00     0.008 C 
ENDBRANCH   5   8
ENDBRANCH   4   5
ENDBRANCH   1   3
BRANCH   1  11
ATOM     11  C   UNL     1     127.075 129.733 111.821  1.00  0.00     0.002 C 
ATOM     12  C   UNL     1     126.745 129.411 110.336  1.00  0.00     0.005 C 
ATOM     13  C   UNL     1     128.638 129.696 111.867  1.00  0.00    -0.026 C 
ATOM     14  C   UNL     1     127.976 128.716 109.731  1.00  0.00     0.005 C 
ATOM     15  C   UNL     1     128.871 128.486 110.931  1.00  0.00    -0.001 C 
ATOM     16  C   UNL     1     129.267 129.339 113.235  1.00  0.00     0.007 C 
ATOM     17  C   UNL     1     129.219 131.052 111.363  1.00  0.00     0.012 C 
ATOM     18  C   UNL     1     130.323 127.989 110.727  1.00  0.00     0.000 C 
ATOM     19  C   UNL     1     130.757 128.916 113.103  1.00  0.00     0.005 C 
ATOM     20  C   UNL     1     130.974 127.725 112.119  1.00  0.00     0.003 C 
ATOM     21  C   UNL     1     131.185 128.851 109.795  1.00  0.00     0.031 C 
ATOM     22  C   UNL     1     132.462 127.186 111.986  1.00  0.00    -0.008 C 
ATOM     23  C   UNL     1     132.633 128.468 109.811  1.00  0.00    -0.027 C 
ATOM     24  C   UNL     1     133.242 127.851 110.844  1.00  0.00    -0.065 C 
ATOM     25  C   UNL     1     133.267 127.388 113.311  1.00  0.00     0.014 C 
ATOM     26  C   UNL     1     132.384 125.662 111.679  1.00  0.00     0.016 C 
ATOM     27  C   UNL     1     134.734 127.588 110.736  1.00  0.00     0.063 C 
ATOM     28  C   UNL     1     134.746 126.992 113.203  1.00  0.00     0.033 C 
ATOM     29  C   UNL     1     135.442 127.779 112.082  1.00  0.00     0.118 C 
BRANCH  29  30
ATOM     30  O   UNL     1     136.771 127.351 111.959  1.00  0.00    -0.393 OA
ATOM     31  H   UNL     1     137.142 127.795 111.152  1.00  0.00     0.210 HD
ENDBRANCH  29  30
ENDBRANCH   1  11
TORSDOF 6
ENDMDL
MODEL 2
REMARK VINA RESULT:    -6.275      0.811      1.440
REMARK INTER + INTRA:          -9.386
REMARK INTER:                  -8.191
REMARK INTRA:                  -1.195
REMARK UNBOUND:                -1.094
REMARK SMILES CC[C@@H](C=C[C@@H](C)[C@H]1CC[C@H]2[C@H]3CC=C4C[C@H](O)CC[C@@]4(C)[C@H]3CC[C@]12C)C(C)C
REMARK SMILES IDX 6 1 7 2 5 3 4 4 3 5 2 6 1 7 28 8 29 9 30 10 8 11 9 12 26 13
REMARK SMILES IDX 10 14 11 15 25 16 27 17 12 18 24 19 23 20 13 21 21 22 14 23
REMARK SMILES IDX 15 24 20 25 22 26 16 27 19 28 17 29 18 30
REMARK H PARENT 18 31
REMARK Flexibility Score: inf
ROOT
ATOM      1  C   UNL     1     126.073 131.056 112.129  1.00  0.00     0.012 C 
ATOM      2  C   UNL     1     125.400 130.891 113.501  1.00  0.00     0.012 C 
ENDROOT
BRANCH   1   3
ATOM      3  C   UNL     1     125.045 131.471 111.094  1.00  0.00    -0.028 C 
ATOM      4  C   UNL     1     123.923 132.144 111.419  1.00  0.00    -0.027 C 
BRANCH   4   5
ATOM      5  C   UNL     1     122.770 132.437 110.468  1.00  0.00     0.014 C 
BRANCH   5   6
ATOM      6  C   UNL     1     121.436 132.558 111.249  1.00  0.00     0.004 C 
ATOM      7  C   UNL     1     121.544 132.045 112.686  1.00  0.00     0.004 C 
ENDBRANCH   5   6
BRANCH   5   8
ATOM      8  C   UNL     1     122.685 131.471 109.235  1.00  0.00    -0.011 C 
ATOM      9  C   UNL     1     121.259 130.950 108.943  1.00  0.00     0.008 C 
ATOM     10  C   UNL     1     123.246 132.140 107.972  1.00  0.00     0.008 C 
ENDBRANCH   5   8
ENDBRANCH   4   5
ENDBRANCH   1   3
BRANCH   1  11
ATOM     11  C   UNL     1     126.831 129.771 111.659  1.00  0.00     0.002 C 
ATOM     12  C   UNL     1     126.518 129.441 110.172  1.00  0.00     0.005 C 
ATOM     13  C   UNL     1     128.393 129.726 111.727  1.00  0.00    -0.026 C 
ATOM     14  C   UNL     1     127.754 128.736 109.588  1.00  0.00     0.005 C 
ATOM     15  C   UNL     1     128.632 128.509 110.802  1.00  0.00    -0.001 C 
ATOM     16  C   UNL     1     129.001 129.375 113.105  1.00  0.00     0.007 C 
ATOM     17  C   UNL     1     128.987 131.076 111.222  1.00  0.00     0.012 C 
ATOM     18  C   UNL     1     130.084 128.003 110.621  1.00  0.00     0.000 C 
ATOM     19  C   UNL     1     130.490 128.943 112.996  1.00  0.00     0.005 C 
ATOM     20  C   UNL     1     130.715 127.745 112.023  1.00  0.00     0.003 C 
ATOM     21  C   UNL     1     130.963 128.855 109.694  1.00  0.00     0.031 C 
ATOM     22  C   UNL     1     132.202 127.197 111.913  1.00  0.00    -0.008 C 
ATOM     23  C   UNL     1     132.409 128.465 109.733  1.00  0.00    -0.027 C 
ATOM     24  C   UNL     1     133.000 127.852 110.777  1.00  0.00    -0.065 C 
ATOM     25  C   UNL     1     132.990 127.404 113.248  1.00  0.00     0.014 C 
ATOM     26  C   UNL     1     132.120 125.672 111.614  1.00  0.00     0.016 C 
ATOM     27  C   UNL     1     134.493 127.581 110.691  1.00  0.00     0.063 C 
ATOM     28  C   UNL     1     134.468 127.000 113.162  1.00  0.00     0.033 C 
ATOM     29  C   UNL     1     135.183 127.777 112.046  1.00  0.00     0.118 C 
BRANCH  29  30
ATOM     30  O   UNL     1     136.512 127.341 111.943  1.00  0.00    -0.393 OA
ATOM     31  H   UNL     1     136.630 126.998 111.019  1.00  0.00     0.210 HD
ENDBRANCH  29  30
ENDBRANCH   1  11
TORSDOF 6
ENDMDL
MODEL 3
REMARK VINA RESULT:    -5.979      3.430      9.999
REMARK INTER + INTRA:          -8.995
REMARK INTER:                  -7.972
REMARK INTRA:                  -1.023
REMARK UNBOUND:                -1.094
REMARK SMILES CC[C@@H](C=C[C@@H](C)[C@H]1CC[C@H]2[C@H]3CC=C4C[C@H](O)CC[C@@]4(C)[C@H]3CC[C@]12C)C(C)C
REMARK SMILES IDX 6 1 7 2 5 3 4 4 3 5 2 6 1 7 28 8 29 9 30 10 8 11 9 12 26 13
REMARK SMILES IDX 10 14 11 15 25 16 27 17 12 18 24 19 23 20 13 21 21 22 14 23
REMARK SMILES IDX 15 24 20 25 22 26 16 27 19 28 17 29 18 30
REMARK H PARENT 18 31
REMARK Flexibility Score: inf
ROOT
ATOM      1  C   UNL     1     130.467 128.465 110.899  1.00  0.00     0.012 C 
ATOM      2  C   UNL     1     130.718 128.065 112.361  1.00  0.00     0.012 C 
ENDROOT
BRANCH   1   3
ATOM      3  C   UNL     1     131.781 128.516 110.142  1.00  0.00    -0.028 C 
ATOM      4  C   UNL     1     132.855 127.787 110.509  1.00  0.00    -0.027 C 
BRANCH   4   5
ATOM      5  C   UNL     1     134.249 127.918 109.910  1.00  0.00     0.014 C 
BRANCH   5   6
ATOM      6  C   UNL     1     134.591 126.675 109.048  1.00  0.00     0.004 C 
ATOM      7  C   UNL     1     133.983 125.385 109.602  1.00  0.00     0.004 C 
ENDBRANCH   5   6
BRANCH   5   8
ATOM      8  C   UNL     1     135.368 128.283 110.946  1.00  0.00    -0.011 C 
ATOM      9  C   UNL     1     135.013 127.924 112.408  1.00  0.00     0.008 C 
ATOM     10  C   UNL     1     136.701 127.617 110.573  1.00  0.00     0.008 C 
ENDBRANCH   5   8
ENDBRANCH   4   5
ENDBRANCH   1   3
BRANCH   1  11
ATOM     11  C   UNL     1     129.705 129.823 110.756  1.00  0.00     0.002 C 
ATOM     12  C   UNL     1     129.847 130.406 109.321  1.00  0.00     0.005 C 
ATOM     13  C   UNL     1     128.166 129.878 111.027  1.00  0.00    -0.026 C 
ATOM     14  C   UNL     1     128.575 131.220 109.028  1.00  0.00     0.005 C 
ATOM     15  C   UNL     1     127.860 131.243 110.364  1.00  0.00    -0.001 C 
ATOM     16  C   UNL     1     127.742 129.990 112.511  1.00  0.00     0.007 C 
ATOM     17  C   UNL     1     127.466 128.647 110.375  1.00  0.00     0.012 C 
ATOM     18  C   UNL     1     126.417 131.793 110.456  1.00  0.00     0.000 C 
ATOM     19  C   UNL     1     126.267 130.457 112.665  1.00  0.00     0.005 C 
ATOM     20  C   UNL     1     125.970 131.810 111.950  1.00  0.00     0.003 C 
ATOM     21  C   UNL     1     125.402 131.131 109.515  1.00  0.00     0.031 C 
ATOM     22  C   UNL     1     124.502 132.390 112.124  1.00  0.00    -0.008 C 
ATOM     23  C   UNL     1     123.986 131.529 109.801  1.00  0.00    -0.027 C 
ATOM     24  C   UNL     1     123.548 131.957 111.002  1.00  0.00    -0.065 C 
ATOM     25  C   UNL     1     123.874 131.964 113.492  1.00  0.00     0.014 C 
ATOM     26  C   UNL     1     124.601 133.943 112.086  1.00  0.00     0.016 C 
ATOM     27  C   UNL     1     122.067 132.261 111.153  1.00  0.00     0.063 C 
ATOM     28  C   UNL     1     122.412 132.398 113.663  1.00  0.00     0.033 C 
ATOM     29  C   UNL     1     121.540 131.840 112.529  1.00  0.00     0.118 C 
BRANCH  29  30
ATOM     30  O   UNL     1     120.225 132.306 112.671  1.00  0.00    -0.393 OA
ATOM     31  H   UNL     1     119.669 131.797 112.025  1.00  0.00     0.210 HD
ENDBRANCH  29  30
ENDBRANCH   1  11
TORSDOF 6
ENDMDL
MODEL 4
REMARK VINA RESULT:    -5.765      6.093      7.701
REMARK INTER + INTRA:          -8.712
REMARK INTER:                  -7.444
REMARK INTRA:                  -1.268
REMARK UNBOUND:                -1.094
REMARK SMILES CC[C@@H](C=C[C@@H](C)[C@H]1CC[C@H]2[C@H]3CC=C4C[C@H](O)CC[C@@]4(C)[C@H]3CC[C@]12C)C(C)C
REMARK SMILES IDX 6 1 7 2 5 3 4 4 3 5 2 6 1 7 28 8 29 9 30 10 8 11 9 12 26 13
REMARK SMILES IDX 10 14 11 15 25 16 27 17 12 18 24 19 23 20 13 21 21 22 14 23
REMARK SMILES IDX 15 24 20 25 22 26 16 27 19 28 17 29 18 30
REMARK H PARENT 18 31
REMARK Flexibility Score: inf
ROOT
ATOM      1  C   UNL     1     126.592 121.601 109.378  1.00  0.00     0.012 C 
ATOM      2  C   UNL     1     125.960 120.488 110.228  1.00  0.00     0.012 C 
ENDROOT
BRANCH   1   3
ATOM      3  C   UNL     1     126.029 121.561 107.970  1.00  0.00    -0.028 C 
ATOM      4  C   UNL     1     125.604 122.669 107.330  1.00  0.00    -0.027 C 
BRANCH   4   5
ATOM      5  C   UNL     1     124.870 122.683 105.996  1.00  0.00     0.014 C 
BRANCH   5   6
ATOM      6  C   UNL     1     125.789 122.160 104.862  1.00  0.00     0.004 C 
ATOM      7  C   UNL     1     127.131 122.892 104.803  1.00  0.00     0.004 C 
ENDBRANCH   5   6
BRANCH   5   8
ATOM      8  C   UNL     1     124.172 124.046 105.653  1.00  0.00    -0.011 C 
ATOM      9  C   UNL     1     122.635 123.949 105.521  1.00  0.00     0.008 C 
ATOM     10  C   UNL     1     124.522 125.119 106.694  1.00  0.00     0.008 C 
ENDBRANCH   5   8
ENDBRANCH   4   5
ENDBRANCH   1   3
BRANCH   1  11
ATOM     11  C   UNL     1     128.154 121.533 109.341  1.00  0.00     0.002 C 
ATOM     12  C   UNL     1     128.674 121.199 107.914  1.00  0.00     0.005 C 
ATOM     13  C   UNL     1     128.992 122.787 109.755  1.00  0.00    -0.026 C 
ATOM     14  C   UNL     1     130.053 121.861 107.760  1.00  0.00     0.005 C 
ATOM     15  C   UNL     1     130.356 122.364 109.157  1.00  0.00    -0.001 C 
ATOM     16  C   UNL     1     129.206 122.987 111.274  1.00  0.00     0.007 C 
ATOM     17  C   UNL     1     128.364 124.075 109.142  1.00  0.00     0.012 C 
ATOM     18  C   UNL     1     131.576 123.286 109.398  1.00  0.00     0.000 C 
ATOM     19  C   UNL     1     130.367 123.976 111.577  1.00  0.00     0.005 C 
ATOM     20  C   UNL     1     131.721 123.556 110.927  1.00  0.00     0.003 C 
ATOM     21  C   UNL     1     131.615 124.557 108.539  1.00  0.00     0.031 C 
ATOM     22  C   UNL     1     132.973 124.477 111.251  1.00  0.00    -0.008 C 
ATOM     23  C   UNL     1     132.678 125.523 108.966  1.00  0.00    -0.027 C 
ATOM     24  C   UNL     1     133.187 125.586 110.213  1.00  0.00    -0.065 C 
ATOM     25  C   UNL     1     132.846 125.143 112.660  1.00  0.00     0.014 C 
ATOM     26  C   UNL     1     134.239 123.571 111.242  1.00  0.00     0.016 C 
ATOM     27  C   UNL     1     134.215 126.666 110.508  1.00  0.00     0.063 C 
ATOM     28  C   UNL     1     133.972 126.136 112.978  1.00  0.00     0.033 C 
ATOM     29  C   UNL     1     134.039 127.245 111.916  1.00  0.00     0.118 C 
BRANCH  29  30
ATOM     30  O   UNL     1     135.116 128.098 112.192  1.00  0.00    -0.393 OA
ATOM     31  H   UNL     1     134.848 129.005 111.888  1.00  0.00     0.210 HD
ENDBRANCH  29  30
ENDBRANCH   1  11
TORSDOF 6
ENDMDL
MODEL 5
REMARK VINA RESULT:    -5.491      1.460      2.818
REMARK INTER + INTRA:          -8.350
REMARK INTER:                  -7.085
REMARK INTRA:                  -1.264
REMARK UNBOUND:                -1.094
REMARK SMILES CC[C@@H](C=C[C@@H](C)[C@H]1CC[C@H]2[C@H]3CC=C4C[C@H](O)CC[C@@]4(C)[C@H]3CC[C@]12C)C(C)C
REMARK SMILES IDX 6 1 7 2 5 3 4 4 3 5 2 6 1 7 28 8 29 9 30 10 8 11 9 12 26 13
REMARK SMILES IDX 10 14 11 15 25 16 27 17 12 18 24 19 23 20 13 21 21 22 14 23
REMARK SMILES IDX 15 24 20 25 22 26 16 27 19 28 17 29 18 30
REMARK H PARENT 18 31
REMARK Flexibility Score: inf
ROOT
ATOM      1  C   UNL     1     127.349 130.506 109.698  1.00  0.00     0.012 C 
ATOM      2  C   UNL     1     127.644 131.906 109.136  1.00  0.00     0.012 C 
ENDROOT
BRANCH   1   3
ATOM      3  C   UNL     1     125.941 130.460 110.261  1.00  0.00    -0.028 C 
ATOM      4  C   UNL     1     125.217 131.575 110.490  1.00  0.00    -0.027 C 
BRANCH   4   5
ATOM      5  C   UNL     1     123.877 131.617 111.211  1.00  0.00     0.014 C 
BRANCH   5   6
ATOM      6  C   UNL     1     122.959 132.705 110.596  1.00  0.00     0.004 C 
ATOM      7  C   UNL     1     123.746 133.811 109.891  1.00  0.00     0.004 C 
ENDBRANCH   5   6
BRANCH   5   8
ATOM      8  C   UNL     1     123.984 131.703 112.774  1.00  0.00    -0.011 C 
ATOM      9  C   UNL     1     125.144 132.592 113.276  1.00  0.00     0.008 C 
ATOM     10  C   UNL     1     122.666 132.199 113.388  1.00  0.00     0.008 C 
ENDBRANCH   5   8
ENDBRANCH   4   5
ENDBRANCH   1   3
BRANCH   1  11
ATOM     11  C   UNL     1     128.382 130.050 110.780  1.00  0.00     0.002 C 
ATOM     12  C   UNL     1     127.676 129.368 111.986  1.00  0.00     0.005 C 
ATOM     13  C   UNL     1     129.511 129.039 110.393  1.00  0.00    -0.026 C 
ATOM     14  C   UNL     1     128.657 128.338 112.571  1.00  0.00     0.005 C 
ATOM     15  C   UNL     1     129.942 128.613 111.817  1.00  0.00    -0.001 C 
ATOM     16  C   UNL     1     130.756 129.645 109.704  1.00  0.00     0.007 C 
ATOM     17  C   UNL     1     128.924 127.900 109.504  1.00  0.00     0.012 C 
ATOM     18  C   UNL     1     131.142 127.646 111.959  1.00  0.00     0.000 C 
ATOM     19  C   UNL     1     131.973 128.678 109.738  1.00  0.00     0.005 C 
ATOM     20  C   UNL     1     132.362 128.225 111.178  1.00  0.00     0.003 C 
ATOM     21  C   UNL     1     130.841 126.177 111.633  1.00  0.00     0.031 C 
ATOM     22  C   UNL     1     133.642 127.294 111.302  1.00  0.00    -0.008 C 
ATOM     23  C   UNL     1     132.072 125.326 111.557  1.00  0.00    -0.027 C 
ATOM     24  C   UNL     1     133.302 125.798 111.271  1.00  0.00    -0.065 C 
ATOM     25  C   UNL     1     134.676 127.585 110.165  1.00  0.00     0.014 C 
ATOM     26  C   UNL     1     134.314 127.597 112.673  1.00  0.00     0.016 C 
ATOM     27  C   UNL     1     134.441 124.798 111.166  1.00  0.00     0.063 C 
ATOM     28  C   UNL     1     135.880 126.634 110.165  1.00  0.00     0.033 C 
ATOM     29  C   UNL     1     135.421 125.172 110.049  1.00  0.00     0.118 C 
BRANCH  29  30
ATOM     30  O   UNL     1     136.534 124.321 110.120  1.00  0.00    -0.393 OA
ATOM     31  H   UNL     1     136.670 124.108 111.080  1.00  0.00     0.210 HD
ENDBRANCH  29  30
ENDBRANCH   1  11
TORSDOF 6
ENDMDL
MODEL 6
REMARK VINA RESULT:    -5.484      5.500     10.089
REMARK INTER + INTRA:          -8.341
REMARK INTER:                  -7.249
REMARK INTRA:                  -1.092
REMARK UNBOUND:                -1.094
REMARK SMILES CC[C@@H](C=C[C@@H](C)[C@H]1CC[C@H]2[C@H]3CC=C4C[C@H](O)CC[C@@]4(C)[C@H]3CC[C@]12C)C(C)C
REMARK SMILES IDX 6 1 7 2 5 3 4 4 3 5 2 6 1 7 28 8 29 9 30 10 8 11 9 12 26 13
REMARK SMILES IDX 10 14 11 15 25 16 27 17 12 18 24 19 23 20 13 21 21 22 14 23
REMARK SMILES IDX 15 24 20 25 22 26 16 27 19 28 17 29 18 30
REMARK H PARENT 18 31
REMARK Flexibility Score: inf
ROOT
ATOM      1  C   UNL     1     129.794 135.930 109.061  1.00  0.00     0.012 C 
ATOM      2  C   UNL     1     129.047 137.201 108.627  1.00  0.00     0.012 C 
ENDROOT
BRANCH   1   3
ATOM      3  C   UNL     1     131.085 135.794 108.276  1.00  0.00    -0.028 C 
ATOM      4  C   UNL     1     131.104 135.628 106.938  1.00  0.00    -0.027 C 
BRANCH   4   5
ATOM      5  C   UNL     1     132.343 135.310 106.112  1.00  0.00     0.014 C 
BRANCH   5   6
ATOM      6  C   UNL     1     131.957 135.024 104.637  1.00  0.00     0.004 C 
ATOM      7  C   UNL     1     130.452 134.822 104.449  1.00  0.00     0.004 C 
ENDBRANCH   5   6
BRANCH   5   8
ATOM      8  C   UNL     1     133.274 134.213 106.735  1.00  0.00    -0.011 C 
ATOM      9  C   UNL     1     132.675 132.788 106.703  1.00  0.00     0.008 C 
ATOM     10  C   UNL     1     134.646 134.199 106.044  1.00  0.00     0.008 C 
ENDBRANCH   5   8
ENDBRANCH   4   5
ENDBRANCH   1   3
BRANCH   1  11
ATOM     11  C   UNL     1     128.932 134.633 108.918  1.00  0.00     0.002 C 
ATOM     12  C   UNL     1     129.753 133.363 109.281  1.00  0.00     0.005 C 
ATOM     13  C   UNL     1     127.622 134.479 109.759  1.00  0.00    -0.026 C 
ATOM     14  C   UNL     1     128.768 132.324 109.843  1.00  0.00     0.005 C 
ATOM     15  C   UNL     1     127.414 132.955 109.590  1.00  0.00    -0.001 C 
ATOM     16  C   UNL     1     126.364 135.175 109.188  1.00  0.00     0.007 C 
ATOM     17  C   UNL     1     127.868 134.962 111.221  1.00  0.00     0.012 C 
ATOM     18  C   UNL     1     126.141 132.319 110.200  1.00  0.00     0.000 C 
ATOM     19  C   UNL     1     125.054 134.637 109.830  1.00  0.00     0.005 C 
ATOM     20  C   UNL     1     124.887 133.093 109.689  1.00  0.00     0.003 C 
ATOM     21  C   UNL     1     126.171 132.127 111.723  1.00  0.00     0.031 C 
ATOM     22  C   UNL     1     123.538 132.477 110.256  1.00  0.00    -0.008 C 
ATOM     23  C   UNL     1     124.843 131.730 112.292  1.00  0.00    -0.027 C 
ATOM     24  C   UNL     1     123.657 132.007 111.712  1.00  0.00    -0.065 C 
ATOM     25  C   UNL     1     122.358 133.499 110.167  1.00  0.00     0.014 C 
ATOM     26  C   UNL     1     123.186 131.234 109.387  1.00  0.00     0.016 C 
ATOM     27  C   UNL     1     122.393 131.595 112.447  1.00  0.00     0.063 C 
ATOM     28  C   UNL     1     121.056 132.999 110.809  1.00  0.00     0.033 C 
ATOM     29  C   UNL     1     121.279 132.636 112.285  1.00  0.00     0.118 C 
BRANCH  29  30
ATOM     30  O   UNL     1     120.094 132.118 112.828  1.00  0.00    -0.393 OA
ATOM     31  H   UNL     1     119.355 132.412 112.233  1.00  0.00     0.210 HD
ENDBRANCH  29  30
ENDBRANCH   1  11
TORSDOF 6
ENDMDL
MODEL 7
REMARK VINA RESULT:    -5.429      1.936      3.182
REMARK INTER + INTRA:          -8.268
REMARK INTER:                  -7.366
REMARK INTRA:                  -0.903
REMARK UNBOUND:                -1.094
REMARK SMILES CC[C@@H](C=C[C@@H](C)[C@H]1CC[C@H]2[C@H]3CC=C4C[C@H](O)CC[C@@]4(C)[C@H]3CC[C@]12C)C(C)C
REMARK SMILES IDX 6 1 7 2 5 3 4 4 3 5 2 6 1 7 28 8 29 9 30 10 8 11 9 12 26 13
REMARK SMILES IDX 10 14 11 15 25 16 27 17 12 18 24 19 23 20 13 21 21 22 14 23
REMARK SMILES IDX 15 24 20 25 22 26 16 27 19 28 17 29 18 30
REMARK H PARENT 18 31
REMARK Flexibility Score: inf
ROOT
ATOM      1  C   UNL     1     126.726 131.852 110.078  1.00  0.00     0.012 C 
ATOM      2  C   UNL     1     126.809 133.376 110.255  1.00  0.00     0.012 C 
ENDROOT
BRANCH   1   3
ATOM      3  C   UNL     1     125.295 131.386 110.268  1.00  0.00    -0.028 C 
ATOM      4  C   UNL     1     124.266 132.247 110.403  1.00  0.00    -0.027 C 
BRANCH   4   5
ATOM      5  C   UNL     1     122.840 131.859 110.771  1.00  0.00     0.014 C 
BRANCH   5   6
ATOM      6  C   UNL     1     121.860 132.237 109.630  1.00  0.00     0.004 C 
ATOM      7  C   UNL     1     121.488 131.042 108.750  1.00  0.00     0.004 C 
ENDBRANCH   5   6
BRANCH   5   8
ATOM      8  C   UNL     1     122.375 132.359 112.183  1.00  0.00    -0.011 C 
ATOM      9  C   UNL     1     120.858 132.204 112.435  1.00  0.00     0.008 C 
ATOM     10  C   UNL     1     123.147 131.643 113.301  1.00  0.00     0.008 C 
ENDBRANCH   5   8
ENDBRANCH   4   5
ENDBRANCH   1   3
BRANCH   1  11
ATOM     11  C   UNL     1     127.684 131.069 111.035  1.00  0.00     0.002 C 
ATOM     12  C   UNL     1     126.955 130.636 112.338  1.00  0.00     0.005 C 
ATOM     13  C   UNL     1     128.365 129.752 110.538  1.00  0.00    -0.026 C 
ATOM     14  C   UNL     1     127.615 129.336 112.824  1.00  0.00     0.005 C 
ATOM     15  C   UNL     1     128.813 129.190 111.909  1.00  0.00    -0.001 C 
ATOM     16  C   UNL     1     129.641 129.930 109.682  1.00  0.00     0.007 C 
ATOM     17  C   UNL     1     127.334 128.878 109.762  1.00  0.00     0.012 C 
ATOM     18  C   UNL     1     129.643 127.883 111.926  1.00  0.00     0.000 C 
ATOM     19  C   UNL     1     130.474 128.620 109.591  1.00  0.00     0.005 C 
ATOM     20  C   UNL     1     130.875 128.046 110.984  1.00  0.00     0.003 C 
ATOM     21  C   UNL     1     128.843 126.596 111.682  1.00  0.00     0.031 C 
ATOM     22  C   UNL     1     131.789 126.747 110.972  1.00  0.00    -0.008 C 
ATOM     23  C   UNL     1     129.712 125.393 111.477  1.00  0.00    -0.027 C 
ATOM     24  C   UNL     1     130.981 125.444 111.026  1.00  0.00    -0.065 C 
ATOM     25  C   UNL     1     132.707 126.703 109.707  1.00  0.00     0.014 C 
ATOM     26  C   UNL     1     132.691 126.796 112.240  1.00  0.00     0.016 C 
ATOM     27  C   UNL     1     131.712 124.129 110.808  1.00  0.00     0.063 C 
ATOM     28  C   UNL     1     133.528 125.412 109.584  1.00  0.00     0.033 C 
ATOM     29  C   UNL     1     132.610 124.180 109.567  1.00  0.00     0.118 C 
BRANCH  29  30
ATOM     30  O   UNL     1     133.387 123.013 109.523  1.00  0.00    -0.393 OA
ATOM     31  H   UNL     1     132.754 122.249 109.499  1.00  0.00     0.210 HD
ENDBRANCH  29  30
ENDBRANCH   1  11
TORSDOF 6
ENDMDL
MODEL 8
REMARK VINA RESULT:    -5.401      5.954      8.360
REMARK INTER + INTRA:          -8.231
REMARK INTER:                  -7.081
REMARK INTRA:                  -1.150
REMARK UNBOUND:                -1.094
REMARK SMILES CC[C@@H](C=C[C@@H](C)[C@H]1CC[C@H]2[C@H]3CC=C4C[C@H](O)CC[C@@]4(C)[C@H]3CC[C@]12C)C(C)C
REMARK SMILES IDX 6 1 7 2 5 3 4 4 3 5 2 6 1 7 28 8 29 9 30 10 8 11 9 12 26 13
REMARK SMILES IDX 10 14 11 15 25 16 27 17 12 18 24 19 23 20 13 21 21 22 14 23
REMARK SMILES IDX 15 24 20 25 22 26 16 27 19 28 17 29 18 30
REMARK H PARENT 18 31
REMARK Flexibility Score: inf
ROOT
ATOM      1  C   UNL     1     127.664 123.561 108.122  1.00  0.00     0.012 C 
ATOM      2  C   UNL     1     126.401 124.418 108.300  1.00  0.00     0.012 C 
ENDROOT
BRANCH   1   3
ATOM      3  C   UNL     1     127.283 122.166 107.665  1.00  0.00    -0.028 C 
ATOM      4  C   UNL     1     126.006 121.811 107.414  1.00  0.00    -0.027 C 
BRANCH   4   5
ATOM      5  C   UNL     1     125.531 120.393 107.124  1.00  0.00     0.014 C 
BRANCH   5   6
ATOM      6  C   UNL     1     126.650 119.368 107.440  1.00  0.00     0.004 C 
ATOM      7  C   UNL     1     127.380 118.884 106.185  1.00  0.00     0.004 C 
ENDBRANCH   5   6
BRANCH   5   8
ATOM      8  C   UNL     1     124.892 120.200 105.705  1.00  0.00    -0.011 C 
ATOM      9  C   UNL     1     123.742 119.167 105.669  1.00  0.00     0.008 C 
ATOM     10  C   UNL     1     124.386 121.537 105.143  1.00  0.00     0.008 C 
ENDBRANCH   5   8
ENDBRANCH   4   5
ENDBRANCH   1   3
BRANCH   1  11
ATOM     11  C   UNL     1     128.543 123.488 109.413  1.00  0.00     0.002 C 
ATOM     12  C   UNL     1     128.824 122.015 109.826  1.00  0.00     0.005 C 
ATOM     13  C   UNL     1     129.959 124.151 109.422  1.00  0.00    -0.026 C 
ATOM     14  C   UNL     1     130.189 121.989 110.534  1.00  0.00     0.005 C 
ATOM     15  C   UNL     1     130.534 123.457 110.680  1.00  0.00    -0.001 C 
ATOM     16  C   UNL     1     129.993 125.674 109.690  1.00  0.00     0.007 C 
ATOM     17  C   UNL     1     130.703 123.838 108.088  1.00  0.00     0.012 C 
ATOM     18  C   UNL     1     131.944 123.873 111.164  1.00  0.00     0.000 C 
ATOM     19  C   UNL     1     131.410 126.167 110.096  1.00  0.00     0.005 C 
ATOM     20  C   UNL     1     131.990 125.422 111.337  1.00  0.00     0.003 C 
ATOM     21  C   UNL     1     133.112 123.308 110.343  1.00  0.00     0.031 C 
ATOM     22  C   UNL     1     133.405 125.920 111.859  1.00  0.00    -0.008 C 
ATOM     23  C   UNL     1     134.433 123.918 110.701  1.00  0.00    -0.027 C 
ATOM     24  C   UNL     1     134.578 125.142 111.247  1.00  0.00    -0.065 C 
ATOM     25  C   UNL     1     133.622 127.441 111.568  1.00  0.00     0.014 C 
ATOM     26  C   UNL     1     133.444 125.698 113.399  1.00  0.00     0.016 C 
ATOM     27  C   UNL     1     135.990 125.649 111.492  1.00  0.00     0.063 C 
ATOM     28  C   UNL     1     135.020 127.950 111.945  1.00  0.00     0.033 C 
ATOM     29  C   UNL     1     136.108 127.151 111.212  1.00  0.00     0.118 C 
BRANCH  29  30
ATOM     30  O   UNL     1     137.374 127.589 111.625  1.00  0.00    -0.393 OA
ATOM     31  H   UNL     1     137.268 128.529 111.926  1.00  0.00     0.210 HD
ENDBRANCH  29  30
ENDBRANCH   1  11
TORSDOF 6
ENDMDL
MODEL 9
REMARK VINA RESULT:    -5.323      3.513      9.875
REMARK INTER + INTRA:          -8.128
REMARK INTER:                  -6.949
REMARK INTRA:                  -1.178
REMARK UNBOUND:                -1.094
REMARK SMILES CC[C@@H](C=C[C@@H](C)[C@H]1CC[C@H]2[C@H]3CC=C4C[C@H](O)CC[C@@]4(C)[C@H]3CC[C@]12C)C(C)C
REMARK SMILES IDX 6 1 7 2 5 3 4 4 3 5 2 6 1 7 28 8 29 9 30 10 8 11 9 12 26 13
REMARK SMILES IDX 10 14 11 15 25 16 27 17 12 18 24 19 23 20 13 21 21 22 14 23
REMARK SMILES IDX 15 24 20 25 22 26 16 27 19 28 17 29 18 30
REMARK H PARENT 18 31
REMARK Flexibility Score: inf
ROOT
ATOM      1  C   UNL     1     129.833 129.100 112.589  1.00  0.00     0.012 C 
ATOM      2  C   UNL     1     130.483 129.322 113.964  1.00  0.00     0.012 C 
ENDROOT
BRANCH   1   3
ATOM      3  C   UNL     1     130.872 128.606 111.600  1.00  0.00    -0.028 C 
ATOM      4  C   UNL     1     131.790 127.671 111.921  1.00  0.00    -0.027 C 
BRANCH   4   5
ATOM      5  C   UNL     1     132.964 127.258 111.044  1.00  0.00     0.014 C 
BRANCH   5   6
ATOM      6  C   UNL     1     134.206 126.932 111.913  1.00  0.00     0.004 C 
ATOM      7  C   UNL     1     134.233 127.719 113.225  1.00  0.00     0.004 C 
ENDBRANCH   5   6
BRANCH   5   8
ATOM      8  C   UNL     1     133.271 128.244 109.864  1.00  0.00    -0.011 C 
ATOM      9  C   UNL     1     134.768 128.602 109.718  1.00  0.00     0.008 C 
ATOM     10  C   UNL     1     132.754 127.684 108.531  1.00  0.00     0.008 C 
ENDBRANCH   5   8
ENDBRANCH   4   5
ENDBRANCH   1   3
BRANCH   1  11
ATOM     11  C   UNL     1     129.119 130.375 112.035  1.00  0.00     0.002 C 
ATOM     12  C   UNL     1     129.766 130.856 110.705  1.00  0.00     0.005 C 
ATOM     13  C   UNL     1     127.591 130.323 111.704  1.00  0.00    -0.026 C 
ATOM     14  C   UNL     1     128.663 131.537 109.877  1.00  0.00     0.005 C 
ATOM     15  C   UNL     1     127.495 131.602 110.839  1.00  0.00    -0.001 C 
ATOM     16  C   UNL     1     126.631 130.512 112.902  1.00  0.00     0.007 C 
ATOM     17  C   UNL     1     127.250 128.991 110.967  1.00  0.00     0.012 C 
ATOM     18  C   UNL     1     126.099 132.036 110.329  1.00  0.00     0.000 C 
ATOM     19  C   UNL     1     125.187 130.865 112.446  1.00  0.00     0.005 C 
ATOM     20  C   UNL     1     125.118 132.130 111.538  1.00  0.00     0.003 C 
ATOM     21  C   UNL     1     125.551 131.222 109.149  1.00  0.00     0.031 C 
ATOM     22  C   UNL     1     123.668 132.598 111.091  1.00  0.00    -0.008 C 
ATOM     23  C   UNL     1     124.114 131.521 108.844  1.00  0.00    -0.027 C 
ATOM     24  C   UNL     1     123.234 132.003 109.745  1.00  0.00    -0.065 C 
ATOM     25  C   UNL     1     122.590 132.226 112.161  1.00  0.00     0.014 C 
ATOM     26  C   UNL     1     123.700 134.146 110.934  1.00  0.00     0.016 C 
ATOM     27  C   UNL     1     121.793 132.193 109.299  1.00  0.00     0.063 C 
ATOM     28  C   UNL     1     121.153 132.549 111.729  1.00  0.00     0.033 C 
ATOM     29  C   UNL     1     120.804 131.836 110.414  1.00  0.00     0.118 C 
BRANCH  29  30
ATOM     30  O   UNL     1     119.513 132.201 110.007  1.00  0.00    -0.393 OA
ATOM     31  H   UNL     1     118.882 131.796 110.659  1.00  0.00     0.210 HD
ENDBRANCH  29  30
ENDBRANCH   1  11
TORSDOF 6
ENDMDL
