MODEL 1
REMARK VINA RESULT:   102.733      0.000      0.000
REMARK INTER + INTRA:         168.741
REMARK INTER:                 162.791
REMARK INTRA:                   5.949
REMARK UNBOUND:                 5.949
REMARK SMILES C[C@@H]1O[C@@H](O[C@@H]2CC[C@@]3(C)[C@@H](CC[C@]4(C)[C@@H]3C=C[C@]35OC[C@@]6(CCC(C)(C)C[C@@H]63)[C@H](O)C[C@@]54C)[C@@]2(C)CO)[C@H](O)[C@H](O[C@H]2O[C@@H](CO)[C@@H](O)[C@@H](O)[C@H]2O)[C@H]1O
REMARK SMILES IDX 1 1 2 2 54 3 41 4 39 5 4 6 3 7 55 8 42 10 43 11 52 12 44 13
REMARK SMILES IDX 50 14 45 15 48 16 53 17 51 19 46 21 47 22 49 24 5 26 6 27
REMARK SMILES IDX 7 28 35 29 8 30 11 31 36 32 9 33 12 34 10 35 16 36 13 37
REMARK SMILES IDX 14 38 17 39 15 40 33 41 18 42 19 43 32 44 34 45 29 46 20 47
REMARK SMILES IDX 30 48 22 49 28 50 21 51 23 52 25 53 24 54 26 55 27 56 37 57
REMARK SMILES IDX 38 58 31 60 40 62
REMARK H PARENT 55 9 53 18 51 20 47 23 49 25 38 59 31 61 40 63
REMARK Flexibility Score: inf
ROOT
ATOM      1  C   UNL     1     -14.118  36.278  -1.915  1.00  0.00     0.041 C 
ATOM      2  C   UNL     1     -12.990  36.339  -2.937  1.00  0.00     0.150 C 
ATOM      3  C   UNL     1     -11.610  35.954  -2.382  1.00  0.00     0.175 C 
ATOM      4  C   UNL     1     -10.684  36.888  -3.194  1.00  0.00     0.186 C 
ATOM      5  C   UNL     1     -10.908  36.427  -4.676  1.00  0.00     0.202 C 
ATOM      6  C   UNL     1     -12.318  35.767  -5.062  1.00  0.00     0.282 C 
ATOM      7  O   UNL     1     -13.188  35.426  -3.999  1.00  0.00    -0.344 OA
ENDROOT
BRANCH   3   8
ATOM      8  O   UNL     1     -11.567  36.076  -0.986  1.00  0.00    -0.388 OA
ATOM      9  H   UNL     1     -11.709  37.054  -0.835  1.00  0.00     0.211 HD
ENDBRANCH   3   8
BRANCH   4  10
ATOM     10  O   UNL     1      -9.300  36.788  -2.864  1.00  0.00    -0.341 OA
BRANCH  10  11
ATOM     11  C   UNL     1      -9.084  37.275  -1.531  1.00  0.00     0.282 C 
ATOM     12  C   UNL     1      -7.564  37.672  -1.177  1.00  0.00     0.202 C 
ATOM     13  O   UNL     1      -9.721  36.446  -0.550  1.00  0.00    -0.341 OA
ATOM     14  C   UNL     1      -7.410  37.492   0.350  1.00  0.00     0.179 C 
ATOM     15  C   UNL     1      -8.910  35.406  -0.031  1.00  0.00     0.178 C 
ATOM     16  C   UNL     1      -7.555  35.976   0.661  1.00  0.00     0.177 C 
BRANCH  12  17
ATOM     17  O   UNL     1      -6.605  36.890  -1.829  1.00  0.00    -0.385 OA
ATOM     18  H   UNL     1      -5.689  37.246  -1.693  1.00  0.00     0.211 HD
ENDBRANCH  12  17
BRANCH  14  19
ATOM     19  O   UNL     1      -6.212  38.124   0.789  1.00  0.00    -0.387 OA
ATOM     20  H   UNL     1      -6.395  39.111   0.875  1.00  0.00     0.211 HD
ENDBRANCH  14  19
BRANCH  15  21
ATOM     21  C   UNL     1      -8.859  34.233  -1.055  1.00  0.00     0.191 C 
BRANCH  21  22
ATOM     22  O   UNL     1      -8.609  33.084  -0.290  1.00  0.00    -0.394 OA
ATOM     23  H   UNL     1      -7.976  32.498  -0.795  1.00  0.00     0.210 HD
ENDBRANCH  21  22
ENDBRANCH  15  21
BRANCH  16  24
ATOM     24  O   UNL     1      -6.450  35.279   0.191  1.00  0.00    -0.387 OA
ATOM     25  H   UNL     1      -6.616  35.162  -0.796  1.00  0.00     0.211 HD
ENDBRANCH  16  24
ENDBRANCH  10  11
ENDBRANCH   4  10
BRANCH   6  26
ATOM     26  O   UNL     1     -12.993  36.575  -5.997  1.00  0.00    -0.346 OA
BRANCH  26  27
ATOM     27  C   UNL     1     -12.389  36.464  -7.297  1.00  0.00     0.130 C 
ATOM     28  C   UNL     1     -13.150  37.502  -8.177  1.00  0.00     0.033 C 
ATOM     29  C   UNL     1     -12.351  34.956  -7.696  1.00  0.00     0.020 C 
ATOM     30  C   UNL     1     -14.518  36.958  -8.656  1.00  0.00     0.010 C 
ATOM     31  C   UNL     1     -13.811  34.613  -8.161  1.00  0.00     0.006 C 
ATOM     32  C   UNL     1     -12.011  34.106  -6.415  1.00  0.00     0.017 C 
ATOM     33  C   UNL     1     -14.410  35.518  -9.298  1.00  0.00    -0.022 C 
ATOM     34  C   UNL     1     -14.228  33.097  -8.132  1.00  0.00     0.005 C 
ATOM     35  C   UNL     1     -13.567  35.619 -10.578  1.00  0.00     0.012 C 
ATOM     36  C   UNL     1     -15.822  34.947  -9.615  1.00  0.00     0.024 C 
ATOM     37  C   UNL     1     -14.809  32.553  -9.440  1.00  0.00     0.008 C 
ATOM     38  C   UNL     1     -15.908  33.455 -10.092  1.00  0.00    -0.017 C 
ATOM     39  C   UNL     1     -16.626  35.791 -10.579  1.00  0.00    -0.024 C 
ATOM     40  C   UNL     1     -15.647  33.340 -11.642  1.00  0.00     0.013 C 
ATOM     41  C   UNL     1     -17.425  32.965  -9.840  1.00  0.00     0.009 C 
ATOM     42  C   UNL     1     -17.859  35.352 -10.899  1.00  0.00     0.005 C 
ATOM     43  C   UNL     1     -18.470  34.147 -10.209  1.00  0.00     0.096 C 
ATOM     44  C   UNL     1     -17.691  32.481  -8.375  1.00  0.00     0.043 C 
ATOM     45  C   UNL     1     -17.654  31.699 -10.692  1.00  0.00     0.015 C 
ATOM     46  C   UNL     1     -19.271  34.604  -8.946  1.00  0.00     0.037 C 
ATOM     47  O   UNL     1     -19.429  33.580 -11.061  1.00  0.00    -0.369 OA
ATOM     48  C   UNL     1     -19.204  32.336  -8.016  1.00  0.00     0.124 C 
ATOM     49  C   UNL     1     -20.150  33.355  -8.776  1.00  0.00     0.026 C 
ATOM     50  C   UNL     1     -20.042  35.935  -9.035  1.00  0.00     0.014 C 
ATOM     51  C   UNL     1     -20.432  33.014 -10.253  1.00  0.00     0.171 C 
ATOM     52  C   UNL     1     -21.472  33.569  -8.012  1.00  0.00     0.013 C 
ATOM     53  C   UNL     1     -21.252  36.090  -8.033  1.00  0.00    -0.035 C 
ATOM     54  C   UNL     1     -21.396  34.820  -7.154  1.00  0.00     0.007 C 
ATOM     55  C   UNL     1     -21.025  37.287  -7.062  1.00  0.00     0.011 C 
ATOM     56  C   UNL     1     -22.566  36.321  -8.795  1.00  0.00     0.011 C 
BRANCH  29  57
ATOM     57  C   UNL     1     -11.252  34.650  -8.769  1.00  0.00     0.165 C 
BRANCH  57  58
ATOM     58  O   UNL     1     -11.151  35.574  -9.839  1.00  0.00    -0.396 OA
ATOM     59  H   UNL     1     -11.426  36.488  -9.544  1.00  0.00     0.210 HD
ENDBRANCH  57  58
ENDBRANCH  29  57
BRANCH  48  60
ATOM     60  O   UNL     1     -19.367  32.483  -6.624  1.00  0.00    -0.392 OA
ATOM     61  H   UNL     1     -20.324  32.428  -6.420  1.00  0.00     0.210 HD
ENDBRANCH  48  60
ENDBRANCH  26  27
ENDBRANCH   6  26
BRANCH   5  62
ATOM     62  O   UNL     1      -9.895  35.554  -5.074  1.00  0.00    -0.385 OA
ATOM     63  H   UNL     1     -10.304  34.973  -5.776  1.00  0.00     0.211 HD
ENDBRANCH   5  62
TORSDOF 14
ENDMDL
