MODEL 1
REMARK VINA RESULT:    -4.266      0.000      0.000
REMARK INTER + INTRA:          -5.693
REMARK INTER:                  -5.513
REMARK INTRA:                  -0.180
REMARK UNBOUND:                -0.180
REMARK SMILES C=CC(=O)CCCCC
REMARK SMILES IDX 6 1 7 2 8 3 9 4 5 5 3 6 4 7 2 8 1 9
REMARK H PARENT
REMARK Flexibility Score: inf
ROOT
ATOM      1  C   UNL     1       0.871 -20.360  -4.909  1.00  0.00     0.008 C 
ENDROOT
BRANCH   1   2
ATOM      2  C   UNL     1       0.425 -19.929  -3.502  1.00  0.00     0.000 C 
BRANCH   2   3
ATOM      3  C   UNL     1       1.472 -20.256  -2.426  1.00  0.00    -0.003 C 
ATOM      4  C   UNL     1       2.567 -19.194  -2.326  1.00  0.00     0.004 C 
ENDBRANCH   2   3
ENDBRANCH   1   2
BRANCH   1   5
ATOM      5  C   UNL     1       0.192 -21.662  -5.360  1.00  0.00     0.080 C 
BRANCH   5   6
ATOM      6  C   UNL     1       0.779 -22.191  -6.645  1.00  0.00     0.155 C 
ATOM      7  O   UNL     1       0.438 -23.339  -7.035  1.00  0.00    -0.295 OA
BRANCH   6   8
ATOM      8  C   UNL     1       1.717 -21.417  -7.487  1.00  0.00     0.039 C 
ATOM      9  C   UNL     1       1.420 -20.952  -8.700  1.00  0.00     0.012 C 
ENDBRANCH   6   8
ENDBRANCH   5   6
ENDBRANCH   1   5
TORSDOF 5
ENDMDL
MODEL 2
REMARK VINA RESULT:    -4.177      1.795      4.685
REMARK INTER + INTRA:          -5.578
REMARK INTER:                  -5.361
REMARK INTRA:                  -0.218
REMARK UNBOUND:                -0.180
REMARK SMILES C=CC(=O)CCCCC
REMARK SMILES IDX 6 1 7 2 8 3 9 4 5 5 3 6 4 7 2 8 1 9
REMARK H PARENT
REMARK Flexibility Score: inf
ROOT
ATOM      1  C   UNL     1       1.274 -21.862  -6.126  1.00  0.00     0.008 C 
ENDROOT
BRANCH   1   2
ATOM      2  C   UNL     1       0.824 -22.040  -7.587  1.00  0.00     0.000 C 
BRANCH   2   3
ATOM      3  C   UNL     1       1.515 -21.054  -8.541  1.00  0.00    -0.003 C 
ATOM      4  C   UNL     1       2.733 -20.379  -7.911  1.00  0.00     0.004 C 
ENDBRANCH   2   3
ENDBRANCH   1   2
BRANCH   1   5
ATOM      5  C   UNL     1       0.138 -21.351  -5.227  1.00  0.00     0.080 C 
BRANCH   5   6
ATOM      6  C   UNL     1       0.623 -20.337  -4.223  1.00  0.00     0.155 C 
ATOM      7  O   UNL     1       0.995 -19.207  -4.639  1.00  0.00    -0.295 OA
BRANCH   6   8
ATOM      8  C   UNL     1       0.660 -20.592  -2.766  1.00  0.00     0.039 C 
ATOM      9  C   UNL     1       1.752 -20.457  -2.013  1.00  0.00     0.012 C 
ENDBRANCH   6   8
ENDBRANCH   5   6
ENDBRANCH   1   5
TORSDOF 5
ENDMDL
MODEL 3
REMARK VINA RESULT:    -4.160      2.037      4.533
REMARK INTER + INTRA:          -5.557
REMARK INTER:                  -5.065
REMARK INTRA:                  -0.492
REMARK UNBOUND:                -0.180
REMARK SMILES C=CC(=O)CCCCC
REMARK SMILES IDX 6 1 7 2 8 3 9 4 5 5 3 6 4 7 2 8 1 9
REMARK H PARENT
REMARK Flexibility Score: inf
ROOT
ATOM      1  C   UNL     1       2.852 -20.870  -7.587  1.00  0.00     0.008 C 
ENDROOT
BRANCH   1   2
ATOM      2  C   UNL     1       1.411 -21.113  -8.066  1.00  0.00     0.000 C 
BRANCH   2   3
ATOM      3  C   UNL     1       0.902 -22.520  -7.716  1.00  0.00    -0.003 C 
ATOM      4  C   UNL     1       0.123 -22.555  -6.402  1.00  0.00     0.004 C 
ENDBRANCH   2   3
ENDBRANCH   1   2
BRANCH   1   5
ATOM      5  C   UNL     1       2.968 -19.614  -6.710  1.00  0.00     0.080 C 
BRANCH   5   6
ATOM      6  C   UNL     1       2.500 -19.862  -5.299  1.00  0.00     0.155 C 
ATOM      7  O   UNL     1       3.234 -20.542  -4.532  1.00  0.00    -0.295 OA
BRANCH   6   8
ATOM      8  C   UNL     1       1.232 -19.325  -4.758  1.00  0.00     0.039 C 
ATOM      9  C   UNL     1       0.467 -19.968  -3.876  1.00  0.00     0.012 C 
ENDBRANCH   6   8
ENDBRANCH   5   6
ENDBRANCH   1   5
TORSDOF 5
ENDMDL
MODEL 4
REMARK VINA RESULT:    -4.137      2.015      4.758
REMARK INTER + INTRA:          -5.527
REMARK INTER:                  -5.264
REMARK INTRA:                  -0.263
REMARK UNBOUND:                -0.180
REMARK SMILES C=CC(=O)CCCCC
REMARK SMILES IDX 6 1 7 2 8 3 9 4 5 5 3 6 4 7 2 8 1 9
REMARK H PARENT
REMARK Flexibility Score: inf
ROOT
ATOM      1  C   UNL     1       0.379 -21.258  -5.034  1.00  0.00     0.008 C 
ENDROOT
BRANCH   1   2
ATOM      2  C   UNL     1       1.515 -21.299  -6.070  1.00  0.00     0.000 C 
BRANCH   2   3
ATOM      3  C   UNL     1       1.055 -21.849  -7.429  1.00  0.00    -0.003 C 
ATOM      4  C   UNL     1       1.439 -20.939  -8.595  1.00  0.00     0.004 C 
ENDBRANCH   2   3
ENDBRANCH   1   2
BRANCH   1   5
ATOM      5  C   UNL     1       0.465 -20.022  -4.127  1.00  0.00     0.080 C 
BRANCH   5   6
ATOM      6  C   UNL     1       1.086 -20.342  -2.791  1.00  0.00     0.155 C 
ATOM      7  O   UNL     1       0.460 -21.099  -2.002  1.00  0.00    -0.295 OA
BRANCH   6   8
ATOM      8  C   UNL     1       2.408 -19.831  -2.368  1.00  0.00     0.039 C 
ATOM      9  C   UNL     1       3.569 -20.292  -2.834  1.00  0.00     0.012 C 
ENDBRANCH   6   8
ENDBRANCH   5   6
ENDBRANCH   1   5
TORSDOF 5
ENDMDL
MODEL 5
REMARK VINA RESULT:    -4.109      1.735      2.292
REMARK INTER + INTRA:          -5.490
REMARK INTER:                  -5.085
REMARK INTRA:                  -0.406
REMARK UNBOUND:                -0.180
REMARK SMILES C=CC(=O)CCCCC
REMARK SMILES IDX 6 1 7 2 8 3 9 4 5 5 3 6 4 7 2 8 1 9
REMARK H PARENT
REMARK Flexibility Score: inf
ROOT
ATOM      1  C   UNL     1       1.621 -19.237  -5.624  1.00  0.00     0.008 C 
ENDROOT
BRANCH   1   2
ATOM      2  C   UNL     1       1.211 -19.168  -4.143  1.00  0.00     0.000 C 
BRANCH   2   3
ATOM      3  C   UNL     1       0.232 -20.284  -3.750  1.00  0.00    -0.003 C 
ATOM      4  C   UNL     1       0.525 -20.867  -2.368  1.00  0.00     0.004 C 
ENDBRANCH   2   3
ENDBRANCH   1   2
BRANCH   1   5
ATOM      5  C   UNL     1       2.320 -20.560  -5.972  1.00  0.00     0.080 C 
BRANCH   5   6
ATOM      6  C   UNL     1       1.890 -21.091  -7.316  1.00  0.00     0.155 C 
ATOM      7  O   UNL     1       2.438 -20.625  -8.350  1.00  0.00    -0.295 OA
BRANCH   6   8
ATOM      8  C   UNL     1       0.874 -22.153  -7.481  1.00  0.00     0.039 C 
ATOM      9  C   UNL     1       0.342 -22.839  -6.469  1.00  0.00     0.012 C 
ENDBRANCH   6   8
ENDBRANCH   5   6
ENDBRANCH   1   5
TORSDOF 5
ENDMDL
MODEL 6
REMARK VINA RESULT:    -4.081      1.476      2.009
REMARK INTER + INTRA:          -5.455
REMARK INTER:                  -4.886
REMARK INTRA:                  -0.568
REMARK UNBOUND:                -0.180
REMARK SMILES C=CC(=O)CCCCC
REMARK SMILES IDX 6 1 7 2 8 3 9 4 5 5 3 6 4 7 2 8 1 9
REMARK H PARENT
REMARK Flexibility Score: inf
ROOT
ATOM      1  C   UNL     1       1.566 -20.593  -4.906  1.00  0.00     0.008 C 
ENDROOT
BRANCH   1   2
ATOM      2  C   UNL     1       1.252 -19.090  -4.816  1.00  0.00     0.000 C 
BRANCH   2   3
ATOM      3  C   UNL     1       1.983 -18.270  -5.889  1.00  0.00    -0.003 C 
ATOM      4  C   UNL     1       3.360 -18.839  -6.231  1.00  0.00     0.004 C 
ENDBRANCH   2   3
ENDBRANCH   1   2
BRANCH   1   5
ATOM      5  C   UNL     1       0.366 -21.407  -5.414  1.00  0.00     0.080 C 
BRANCH   5   6
ATOM      6  C   UNL     1       0.719 -22.245  -6.617  1.00  0.00     0.155 C 
ATOM      7  O   UNL     1       0.209 -23.392  -6.723  1.00  0.00    -0.295 OA
BRANCH   6   8
ATOM      8  C   UNL     1       1.617 -21.777  -7.696  1.00  0.00     0.039 C 
ATOM      9  C   UNL     1       1.270 -20.876  -8.616  1.00  0.00     0.012 C 
ENDBRANCH   6   8
ENDBRANCH   5   6
ENDBRANCH   1   5
TORSDOF 5
ENDMDL
MODEL 7
REMARK VINA RESULT:    -3.982      9.971     11.557
REMARK INTER + INTRA:          -5.326
REMARK INTER:                  -4.698
REMARK INTRA:                  -0.628
REMARK UNBOUND:                -0.180
REMARK SMILES C=CC(=O)CCCCC
REMARK SMILES IDX 6 1 7 2 8 3 9 4 5 5 3 6 4 7 2 8 1 9
REMARK H PARENT
REMARK Flexibility Score: inf
ROOT
ATOM      1  C   UNL     1      -5.155 -28.313  -3.669  1.00  0.00     0.008 C 
ENDROOT
BRANCH   1   2
ATOM      2  C   UNL     1      -6.465 -29.013  -4.069  1.00  0.00     0.000 C 
BRANCH   2   3
ATOM      3  C   UNL     1      -6.664 -30.352  -3.342  1.00  0.00    -0.003 C 
ATOM      4  C   UNL     1      -7.797 -30.303  -2.316  1.00  0.00     0.004 C 
ENDBRANCH   2   3
ENDBRANCH   1   2
BRANCH   1   5
ATOM      5  C   UNL     1      -5.403 -26.932  -3.044  1.00  0.00     0.080 C 
BRANCH   5   6
ATOM      6  C   UNL     1      -6.068 -27.032  -1.695  1.00  0.00     0.155 C 
ATOM      7  O   UNL     1      -5.497 -27.696  -0.790  1.00  0.00    -0.295 OA
BRANCH   6   8
ATOM      8  C   UNL     1      -7.348 -26.365  -1.371  1.00  0.00     0.039 C 
ATOM      9  C   UNL     1      -8.488 -26.581  -2.028  1.00  0.00     0.012 C 
ENDBRANCH   6   8
ENDBRANCH   5   6
ENDBRANCH   1   5
TORSDOF 5
ENDMDL
MODEL 8
REMARK VINA RESULT:    -3.872      9.488     10.956
REMARK INTER + INTRA:          -5.184
REMARK INTER:                  -4.890
REMARK INTRA:                  -0.294
REMARK UNBOUND:                -0.180
REMARK SMILES C=CC(=O)CCCCC
REMARK SMILES IDX 6 1 7 2 8 3 9 4 5 5 3 6 4 7 2 8 1 9
REMARK H PARENT
REMARK Flexibility Score: inf
ROOT
ATOM      1  C   UNL     1      -5.397 -26.941  -3.367  1.00  0.00     0.008 C 
ENDROOT
BRANCH   1   2
ATOM      2  C   UNL     1      -5.078 -28.438  -3.509  1.00  0.00     0.000 C 
BRANCH   2   3
ATOM      3  C   UNL     1      -6.258 -29.334  -3.104  1.00  0.00    -0.003 C 
ATOM      4  C   UNL     1      -7.000 -29.913  -4.308  1.00  0.00     0.004 C 
ENDBRANCH   2   3
ENDBRANCH   1   2
BRANCH   1   5
ATOM      5  C   UNL     1      -6.320 -26.655  -2.173  1.00  0.00     0.080 C 
BRANCH   5   6
ATOM      6  C   UNL     1      -7.577 -25.934  -2.589  1.00  0.00     0.155 C 
ATOM      7  O   UNL     1      -8.294 -26.444  -3.490  1.00  0.00    -0.295 OA
BRANCH   6   8
ATOM      8  C   UNL     1      -8.027 -24.667  -1.972  1.00  0.00     0.039 C 
ATOM      9  C   UNL     1      -7.407 -23.497  -2.133  1.00  0.00     0.012 C 
ENDBRANCH   6   8
ENDBRANCH   5   6
ENDBRANCH   1   5
TORSDOF 5
ENDMDL
MODEL 9
REMARK VINA RESULT:    -3.863      2.746      4.514
REMARK INTER + INTRA:          -5.172
REMARK INTER:                  -4.734
REMARK INTRA:                  -0.438
REMARK UNBOUND:                -0.180
REMARK SMILES C=CC(=O)CCCCC
REMARK SMILES IDX 6 1 7 2 8 3 9 4 5 5 3 6 4 7 2 8 1 9
REMARK H PARENT
REMARK Flexibility Score: inf
ROOT
ATOM      1  C   UNL     1       2.698 -20.603  -7.929  1.00  0.00     0.008 C 
ENDROOT
BRANCH   1   2
ATOM      2  C   UNL     1       1.263 -21.071  -8.229  1.00  0.00     0.000 C 
BRANCH   2   3
ATOM      3  C   UNL     1       0.937 -22.424  -7.579  1.00  0.00    -0.003 C 
ATOM      4  C   UNL     1       0.150 -22.279  -6.277  1.00  0.00     0.004 C 
ENDBRANCH   2   3
ENDBRANCH   1   2
BRANCH   1   5
ATOM      5  C   UNL     1       2.757 -19.638  -6.736  1.00  0.00     0.080 C 
BRANCH   5   6
ATOM      6  C   UNL     1       3.208 -20.327  -5.473  1.00  0.00     0.155 C 
ATOM      7  O   UNL     1       2.697 -19.971  -4.377  1.00  0.00    -0.295 OA
BRANCH   6   8
ATOM      8  C   UNL     1       4.203 -21.421  -5.457  1.00  0.00     0.039 C 
ATOM      9  C   UNL     1       5.520 -21.231  -5.536  1.00  0.00     0.012 C 
ENDBRANCH   6   8
ENDBRANCH   5   6
ENDBRANCH   1   5
TORSDOF 5
ENDMDL
