MODEL 1
REMARK VINA RESULT:   131.286      0.000      0.000
REMARK INTER + INTRA:         150.188
REMARK INTER:                 150.474
REMARK INTRA:                  -0.286
REMARK UNBOUND:                -0.286
REMARK SMILES C=C(C)[C@H]1CC[C@]2(C(=O)[O-])CC[C@@]3(C)[C@@H](CC[C@@H]4[C@@]5(C)CC[C@H](O)C(C)(C)[C@H]5CC[C@@]43C)[C@H]12
REMARK SMILES IDX 7 1 6 2 33 3 11 4 5 5 15 6 4 7 12 8 16 9 13 10 17 11 31 12
REMARK SMILES IDX 14 13 18 14 30 15 32 16 19 17 29 18 21 19 20 20 28 21 22 22
REMARK SMILES IDX 25 23 23 24 26 25 27 26 8 27 9 28 10 29 2 30 3 31 1 32 24 33
REMARK H PARENT 24 34
REMARK Flexibility Score: inf
ROOT
ATOM      1  C   UNL     1      -2.795  14.407   6.098  1.00  0.00     0.014 C 
ATOM      2  C   UNL     1      -2.060  15.745   6.291  1.00  0.00     0.014 C 
ATOM      3  C   UNL     1      -1.817  13.600   5.169  1.00  0.00     0.012 C 
ATOM      4  C   UNL     1      -3.142  13.772   7.485  1.00  0.00     0.014 C 
ATOM      5  C   UNL     1      -1.443  16.053   4.941  1.00  0.00     0.009 C 
ATOM      6  C   UNL     1      -0.857  12.669   5.975  1.00  0.00     0.000 C 
ATOM      7  C   UNL     1      -0.998  14.694   4.402  1.00  0.00     0.018 C 
ATOM      8  C   UNL     1      -2.150  12.740   8.054  1.00  0.00     0.008 C 
ATOM      9  C   UNL     1       0.097  11.859   5.095  1.00  0.00     0.005 C 
ATOM     10  C   UNL     1      -1.571  11.730   7.002  1.00  0.00    -0.024 C 
ATOM     11  C   UNL     1       1.287  11.370   5.931  1.00  0.00     0.005 C 
ATOM     12  C   UNL     1      -0.511  10.644   7.652  1.00  0.00    -0.024 C 
ATOM     13  C   UNL     1      -2.787  10.985   6.353  1.00  0.00     0.012 C 
ATOM     14  C   UNL     1       0.988  11.125   7.461  1.00  0.00     0.002 C 
ATOM     15  C   UNL     1      -0.613   9.200   7.027  1.00  0.00     0.008 C 
ATOM     16  C   UNL     1      -0.863  10.464   9.151  1.00  0.00     0.012 C 
ATOM     17  C   UNL     1       2.113  10.217   8.169  1.00  0.00    -0.026 C 
ATOM     18  C   UNL     1       0.670   8.335   7.021  1.00  0.00     0.005 C 
ATOM     19  C   UNL     1       2.336  10.726   9.633  1.00  0.00     0.010 C 
ATOM     20  C   UNL     1       3.505  10.462   7.480  1.00  0.00     0.012 C 
ATOM     21  C   UNL     1       1.771   8.652   8.078  1.00  0.00     0.003 C 
ATOM     22  C   UNL     1       2.976   9.693  10.547  1.00  0.00     0.033 C 
ATOM     23  C   UNL     1       1.788   7.723   9.408  1.00  0.00    -0.006 C 
ATOM     24  C   UNL     1       2.026   8.523  10.741  1.00  0.00     0.120 C 
ATOM     25  C   UNL     1       2.925   6.663   9.260  1.00  0.00     0.014 C 
ATOM     26  C   UNL     1       0.477   6.899   9.590  1.00  0.00     0.014 C 
ENDROOT
BRANCH   1  27
ATOM     27  C   UNL     1      -4.121  14.648   5.375  1.00  0.00     0.048 C 
ATOM     28  O   UNL     1      -5.125  15.062   6.015  1.00  0.00    -0.550 OA
ATOM     29  O   UNL     1      -4.223  14.510   3.996  1.00  0.00    -0.550 OA
ENDBRANCH   1  27
BRANCH   7  30
ATOM     30  C   UNL     1      -1.110  14.593   2.883  1.00  0.00    -0.077 C 
ATOM     31  C   UNL     1      -1.815  13.441   2.215  1.00  0.00     0.039 C 
ATOM     32  C   UNL     1      -0.581  15.551   2.104  1.00  0.00     0.008 C 
ENDBRANCH   7  30
BRANCH  24  33
ATOM     33  O   UNL     1       2.556   7.701  11.756  1.00  0.00    -0.393 OA
ATOM     34  H   UNL     1       2.741   6.810  11.358  1.00  0.00     0.210 HD
ENDBRANCH  24  33
TORSDOF 3
ENDMDL
MODEL 2
REMARK VINA RESULT:   131.444      4.112      7.858
REMARK INTER + INTRA:         150.368
REMARK INTER:                 150.397
REMARK INTRA:                  -0.029
REMARK UNBOUND:                -0.286
REMARK SMILES C=C(C)[C@H]1CC[C@]2(C(=O)[O-])CC[C@@]3(C)[C@@H](CC[C@@H]4[C@@]5(C)CC[C@H](O)C(C)(C)[C@H]5CC[C@@]43C)[C@H]12
REMARK SMILES IDX 7 1 6 2 33 3 11 4 5 5 15 6 4 7 12 8 16 9 13 10 17 11 31 12
REMARK SMILES IDX 14 13 18 14 30 15 32 16 19 17 29 18 21 19 20 20 28 21 22 22
REMARK SMILES IDX 25 23 23 24 26 25 27 26 8 27 9 28 10 29 2 30 3 31 1 32 24 33
REMARK H PARENT 24 34
REMARK Flexibility Score: inf
ROOT
ATOM      1  C   UNL     1       1.910   9.605   9.470  1.00  0.00     0.014 C 
ATOM      2  C   UNL     1       1.606   8.126   9.764  1.00  0.00     0.014 C 
ATOM      3  C   UNL     1       0.616  10.088   8.720  1.00  0.00     0.012 C 
ATOM      4  C   UNL     1       2.285  10.356  10.791  1.00  0.00     0.014 C 
ATOM      5  C   UNL     1       0.891   7.618   8.528  1.00  0.00     0.009 C 
ATOM      6  C   UNL     1      -0.421  10.751   9.680  1.00  0.00     0.000 C 
ATOM      7  C   UNL     1       0.014   8.789   8.082  1.00  0.00     0.018 C 
ATOM      8  C   UNL     1       1.153  11.100  11.523  1.00  0.00     0.008 C 
ATOM      9  C   UNL     1      -1.685  11.245   8.973  1.00  0.00     0.005 C 
ATOM     10  C   UNL     1       0.164  11.881  10.589  1.00  0.00    -0.024 C 
ATOM     11  C   UNL     1      -2.816  11.422   9.995  1.00  0.00     0.005 C 
ATOM     12  C   UNL     1      -1.035  12.662  11.413  1.00  0.00    -0.024 C 
ATOM     13  C   UNL     1       1.014  12.905   9.762  1.00  0.00     0.012 C 
ATOM     14  C   UNL     1      -2.358  11.789  11.459  1.00  0.00     0.002 C 
ATOM     15  C   UNL     1      -1.428  14.059  10.795  1.00  0.00     0.008 C 
ATOM     16  C   UNL     1      -0.514  12.980  12.838  1.00  0.00     0.012 C 
ATOM     17  C   UNL     1      -3.561  12.383  12.350  1.00  0.00    -0.026 C 
ATOM     18  C   UNL     1      -2.882  14.545  11.005  1.00  0.00     0.005 C 
ATOM     19  C   UNL     1      -3.404  11.881  13.825  1.00  0.00     0.010 C 
ATOM     20  C   UNL     1      -4.924  11.749  11.890  1.00  0.00     0.012 C 
ATOM     21  C   UNL     1      -3.675  13.978  12.222  1.00  0.00     0.003 C 
ATOM     22  C   UNL     1      -4.148  12.734  14.840  1.00  0.00     0.033 C 
ATOM     23  C   UNL     1      -3.734  14.912  13.548  1.00  0.00    -0.006 C 
ATOM     24  C   UNL     1      -3.533  14.123  14.893  1.00  0.00     0.120 C 
ATOM     25  C   UNL     1      -5.124  15.621  13.595  1.00  0.00     0.014 C 
ATOM     26  C   UNL     1      -2.684  16.064  13.526  1.00  0.00     0.014 C 
ENDROOT
BRANCH   1  27
ATOM     27  C   UNL     1       3.120   9.707   8.542  1.00  0.00     0.048 C 
ATOM     28  O   UNL     1       4.130  10.377   8.889  1.00  0.00    -0.550 OA
ATOM     29  O   UNL     1       3.175   8.992   7.351  1.00  0.00    -0.550 OA
ENDBRANCH   1  27
BRANCH   7  30
ATOM     30  C   UNL     1      -0.146   8.866   6.566  1.00  0.00    -0.077 C 
ATOM     31  C   UNL     1      -0.645  10.113   5.884  1.00  0.00     0.039 C 
ATOM     32  C   UNL     1       0.170   7.807   5.801  1.00  0.00     0.008 C 
ENDBRANCH   7  30
BRANCH  24  33
ATOM     33  O   UNL     1      -4.100  14.804  15.988  1.00  0.00    -0.393 OA
ATOM     34  H   UNL     1      -5.068  14.585  16.012  1.00  0.00     0.210 HD
ENDBRANCH  24  33
TORSDOF 3
ENDMDL
