MODEL 1
REMARK VINA RESULT:    -4.366      0.000      0.000
REMARK INTER + INTRA:          -6.331
REMARK INTER:                  -6.026
REMARK INTRA:                  -0.305
REMARK UNBOUND:                -0.305
REMARK SMILES CCCCCCCCO
REMARK SMILES IDX 5 1 4 2 3 3 2 4 1 5 6 6 7 7 8 8 9 9
REMARK H PARENT 9 10
REMARK Flexibility Score: inf
ROOT
ATOM      1  C   UNL     1      19.430  12.780  21.731  1.00  0.00     0.000 C 
ENDROOT
BRANCH   1   2
ATOM      2  C   UNL     1      19.543  12.301  23.193  1.00  0.00    -0.000 C 
BRANCH   2   3
ATOM      3  C   UNL     1      18.948  13.257  24.241  1.00  0.00    -0.000 C 
BRANCH   3   4
ATOM      4  C   UNL     1      20.018  14.063  24.989  1.00  0.00    -0.003 C 
ATOM      5  C   UNL     1      20.739  13.198  26.019  1.00  0.00     0.004 C 
ENDBRANCH   3   4
ENDBRANCH   2   3
ENDBRANCH   1   2
BRANCH   1   6
ATOM      6  C   UNL     1      18.427  13.922  21.493  1.00  0.00     0.002 C 
BRANCH   6   7
ATOM      7  C   UNL     1      17.256  13.509  20.587  1.00  0.00     0.028 C 
BRANCH   7   8
ATOM      8  C   UNL     1      16.081  12.959  21.397  1.00  0.00     0.156 C 
BRANCH   8   9
ATOM      9  O   UNL     1      16.270  11.596  21.657  1.00  0.00    -0.396 OA
ATOM     10  H   UNL     1      16.409  11.521  22.637  1.00  0.00     0.210 HD
ENDBRANCH   8   9
ENDBRANCH   7   8
ENDBRANCH   6   7
ENDBRANCH   1   6
TORSDOF 7
ENDMDL
MODEL 2
REMARK VINA RESULT:    -4.344      0.661      1.272
REMARK INTER + INTRA:          -6.300
REMARK INTER:                  -6.014
REMARK INTRA:                  -0.287
REMARK UNBOUND:                -0.305
REMARK SMILES CCCCCCCCO
REMARK SMILES IDX 5 1 4 2 3 3 2 4 1 5 6 6 7 7 8 8 9 9
REMARK H PARENT 9 10
REMARK Flexibility Score: inf
ROOT
ATOM      1  C   UNL     1      18.469  14.119  21.625  1.00  0.00     0.000 C 
ENDROOT
BRANCH   1   2
ATOM      2  C   UNL     1      19.311  12.827  21.667  1.00  0.00    -0.000 C 
BRANCH   2   3
ATOM      3  C   UNL     1      19.337  12.109  23.028  1.00  0.00    -0.000 C 
BRANCH   3   4
ATOM      4  C   UNL     1      19.228  13.077  24.215  1.00  0.00    -0.003 C 
ATOM      5  C   UNL     1      20.331  12.820  25.237  1.00  0.00     0.004 C 
ENDBRANCH   3   4
ENDBRANCH   2   3
ENDBRANCH   1   2
BRANCH   1   6
ATOM      6  C   UNL     1      17.697  14.354  20.315  1.00  0.00     0.002 C 
BRANCH   6   7
ATOM      7  C   UNL     1      16.759  13.189  19.959  1.00  0.00     0.028 C 
BRANCH   7   8
ATOM      8  C   UNL     1      15.759  12.904  21.081  1.00  0.00     0.156 C 
BRANCH   8   9
ATOM      9  O   UNL     1      16.036  11.664  21.671  1.00  0.00    -0.396 OA
ATOM     10  H   UNL     1      15.377  11.556  22.404  1.00  0.00     0.210 HD
ENDBRANCH   8   9
ENDBRANCH   7   8
ENDBRANCH   6   7
ENDBRANCH   1   6
TORSDOF 7
ENDMDL
MODEL 3
REMARK VINA RESULT:    -4.281      8.645      9.912
REMARK INTER + INTRA:          -6.213
REMARK INTER:                  -5.736
REMARK INTRA:                  -0.477
REMARK UNBOUND:                -0.305
REMARK SMILES CCCCCCCCO
REMARK SMILES IDX 5 1 4 2 3 3 2 4 1 5 6 6 7 7 8 8 9 9
REMARK H PARENT 9 10
REMARK Flexibility Score: inf
ROOT
ATOM      1  C   UNL     1      13.177  13.310  30.550  1.00  0.00     0.000 C 
ENDROOT
BRANCH   1   2
ATOM      2  C   UNL     1      13.915  13.148  29.205  1.00  0.00    -0.000 C 
BRANCH   2   3
ATOM      3  C   UNL     1      13.985  14.419  28.341  1.00  0.00    -0.000 C 
BRANCH   3   4
ATOM      4  C   UNL     1      12.875  14.481  27.282  1.00  0.00    -0.003 C 
ATOM      5  C   UNL     1      11.663  15.248  27.801  1.00  0.00     0.004 C 
ENDBRANCH   3   4
ENDBRANCH   2   3
ENDBRANCH   1   2
BRANCH   1   6
ATOM      6  C   UNL     1      13.781  14.353  31.506  1.00  0.00     0.002 C 
BRANCH   6   7
ATOM      7  C   UNL     1      12.764  15.416  31.949  1.00  0.00     0.028 C 
BRANCH   7   8
ATOM      8  C   UNL     1      12.861  16.683  31.097  1.00  0.00     0.156 C 
BRANCH   8   9
ATOM      9  O   UNL     1      14.200  16.950  30.781  1.00  0.00    -0.396 OA
ATOM     10  H   UNL     1      14.195  17.797  30.264  1.00  0.00     0.210 HD
ENDBRANCH   8   9
ENDBRANCH   7   8
ENDBRANCH   6   7
ENDBRANCH   1   6
TORSDOF 7
ENDMDL
MODEL 4
REMARK VINA RESULT:    -4.162      9.873     11.480
REMARK INTER + INTRA:          -6.048
REMARK INTER:                  -5.769
REMARK INTRA:                  -0.279
REMARK UNBOUND:                -0.305
REMARK SMILES CCCCCCCCO
REMARK SMILES IDX 5 1 4 2 3 3 2 4 1 5 6 6 7 7 8 8 9 9
REMARK H PARENT 9 10
REMARK Flexibility Score: inf
ROOT
ATOM      1  C   UNL     1      13.418  14.426  32.502  1.00  0.00     0.000 C 
ENDROOT
BRANCH   1   2
ATOM      2  C   UNL     1      12.785  14.133  31.126  1.00  0.00    -0.000 C 
BRANCH   2   3
ATOM      3  C   UNL     1      13.590  13.180  30.226  1.00  0.00    -0.000 C 
BRANCH   3   4
ATOM      4  C   UNL     1      13.772  13.717  28.800  1.00  0.00    -0.003 C 
ATOM      5  C   UNL     1      13.815  15.243  28.789  1.00  0.00     0.004 C 
ENDBRANCH   3   4
ENDBRANCH   2   3
ENDBRANCH   1   2
BRANCH   1   6
ATOM      6  C   UNL     1      14.526  15.493  32.498  1.00  0.00     0.002 C 
BRANCH   6   7
ATOM      7  C   UNL     1      15.413  15.435  33.752  1.00  0.00     0.028 C 
BRANCH   7   8
ATOM      8  C   UNL     1      14.604  15.667  35.030  1.00  0.00     0.156 C 
BRANCH   8   9
ATOM      9  O   UNL     1      15.180  16.697  35.785  1.00  0.00    -0.396 OA
ATOM     10  H   UNL     1      14.438  17.313  36.018  1.00  0.00     0.210 HD
ENDBRANCH   8   9
ENDBRANCH   7   8
ENDBRANCH   6   7
ENDBRANCH   1   6
TORSDOF 7
ENDMDL
MODEL 5
REMARK VINA RESULT:    -4.108      8.689      9.542
REMARK INTER + INTRA:          -5.974
REMARK INTER:                  -5.455
REMARK INTRA:                  -0.519
REMARK UNBOUND:                -0.305
REMARK SMILES CCCCCCCCO
REMARK SMILES IDX 5 1 4 2 3 3 2 4 1 5 6 6 7 7 8 8 9 9
REMARK H PARENT 9 10
REMARK Flexibility Score: inf
ROOT
ATOM      1  C   UNL     1      13.159  13.225  30.401  1.00  0.00     0.000 C 
ENDROOT
BRANCH   1   2
ATOM      2  C   UNL     1      13.592  14.294  31.426  1.00  0.00    -0.000 C 
BRANCH   2   3
ATOM      3  C   UNL     1      12.438  15.009  32.150  1.00  0.00    -0.000 C 
BRANCH   3   4
ATOM      4  C   UNL     1      11.496  15.745  31.186  1.00  0.00    -0.003 C 
ATOM      5  C   UNL     1      12.167  16.983  30.599  1.00  0.00     0.004 C 
ENDBRANCH   3   4
ENDBRANCH   2   3
ENDBRANCH   1   2
BRANCH   1   6
ATOM      6  C   UNL     1      13.955  13.221  29.085  1.00  0.00     0.002 C 
BRANCH   6   7
ATOM      7  C   UNL     1      13.924  14.580  28.366  1.00  0.00     0.028 C 
BRANCH   7   8
ATOM      8  C   UNL     1      12.687  14.723  27.479  1.00  0.00     0.156 C 
BRANCH   8   9
ATOM      9  O   UNL     1      12.484  16.069  27.146  1.00  0.00    -0.396 OA
ATOM     10  H   UNL     1      12.875  16.596  27.891  1.00  0.00     0.210 HD
ENDBRANCH   8   9
ENDBRANCH   7   8
ENDBRANCH   6   7
ENDBRANCH   1   6
TORSDOF 7
ENDMDL
MODEL 6
REMARK VINA RESULT:    -4.102      8.835      9.663
REMARK INTER + INTRA:          -5.966
REMARK INTER:                  -5.368
REMARK INTRA:                  -0.598
REMARK UNBOUND:                -0.305
REMARK SMILES CCCCCCCCO
REMARK SMILES IDX 5 1 4 2 3 3 2 4 1 5 6 6 7 7 8 8 9 9
REMARK H PARENT 9 10
REMARK Flexibility Score: inf
ROOT
ATOM      1  C   UNL     1      13.254  13.234  30.229  1.00  0.00     0.000 C 
ENDROOT
BRANCH   1   2
ATOM      2  C   UNL     1      13.642  14.001  31.510  1.00  0.00    -0.000 C 
BRANCH   2   3
ATOM      3  C   UNL     1      12.499  14.794  32.167  1.00  0.00    -0.000 C 
BRANCH   3   4
ATOM      4  C   UNL     1      12.279  16.169  31.521  1.00  0.00    -0.003 C 
ATOM      5  C   UNL     1      10.948  16.222  30.778  1.00  0.00     0.004 C 
ENDBRANCH   3   4
ENDBRANCH   2   3
ENDBRANCH   1   2
BRANCH   1   6
ATOM      6  C   UNL     1      13.930  13.732  28.940  1.00  0.00     0.002 C 
BRANCH   6   7
ATOM      7  C   UNL     1      12.948  14.422  27.980  1.00  0.00     0.028 C 
BRANCH   7   8
ATOM      8  C   UNL     1      13.228  15.921  27.864  1.00  0.00     0.156 C 
BRANCH   8   9
ATOM      9  O   UNL     1      14.389  16.251  28.574  1.00  0.00    -0.396 OA
ATOM     10  H   UNL     1      14.881  16.901  28.008  1.00  0.00     0.210 HD
ENDBRANCH   8   9
ENDBRANCH   7   8
ENDBRANCH   6   7
ENDBRANCH   1   6
TORSDOF 7
ENDMDL
MODEL 7
REMARK VINA RESULT:    -4.079      7.915      8.472
REMARK INTER + INTRA:          -5.934
REMARK INTER:                  -5.656
REMARK INTRA:                  -0.278
REMARK UNBOUND:                -0.305
REMARK SMILES CCCCCCCCO
REMARK SMILES IDX 5 1 4 2 3 3 2 4 1 5 6 6 7 7 8 8 9 9
REMARK H PARENT 9 10
REMARK Flexibility Score: inf
ROOT
ATOM      1  C   UNL     1      11.899  18.021  25.261  1.00  0.00     0.000 C 
ENDROOT
BRANCH   1   2
ATOM      2  C   UNL     1      10.947  16.927  24.737  1.00  0.00    -0.000 C 
BRANCH   2   3
ATOM      3  C   UNL     1      10.908  15.638  25.576  1.00  0.00    -0.000 C 
BRANCH   3   4
ATOM      4  C   UNL     1      12.174  15.439  26.421  1.00  0.00    -0.003 C 
ATOM      5  C   UNL     1      11.823  15.127  27.873  1.00  0.00     0.004 C 
ENDBRANCH   3   4
ENDBRANCH   2   3
ENDBRANCH   1   2
BRANCH   1   6
ATOM      6  C   UNL     1      13.138  18.284  24.388  1.00  0.00     0.002 C 
BRANCH   6   7
ATOM      7  C   UNL     1      12.828  18.235  22.883  1.00  0.00     0.028 C 
BRANCH   7   8
ATOM      8  C   UNL     1      13.437  19.425  22.140  1.00  0.00     0.156 C 
BRANCH   8   9
ATOM      9  O   UNL     1      14.457  20.002  22.908  1.00  0.00    -0.396 OA
ATOM     10  H   UNL     1      14.193  20.949  23.046  1.00  0.00     0.210 HD
ENDBRANCH   8   9
ENDBRANCH   7   8
ENDBRANCH   6   7
ENDBRANCH   1   6
TORSDOF 7
ENDMDL
MODEL 8
REMARK VINA RESULT:    -3.943      9.156     10.212
REMARK INTER + INTRA:          -5.747
REMARK INTER:                  -5.263
REMARK INTRA:                  -0.484
REMARK UNBOUND:                -0.305
REMARK SMILES CCCCCCCCO
REMARK SMILES IDX 5 1 4 2 3 3 2 4 1 5 6 6 7 7 8 8 9 9
REMARK H PARENT 9 10
REMARK Flexibility Score: inf
ROOT
ATOM      1  C   UNL     1      13.562  14.149  31.500  1.00  0.00     0.000 C 
ENDROOT
BRANCH   1   2
ATOM      2  C   UNL     1      13.087  13.240  30.347  1.00  0.00    -0.000 C 
BRANCH   2   3
ATOM      3  C   UNL     1      13.990  13.242  29.101  1.00  0.00    -0.000 C 
BRANCH   3   4
ATOM      4  C   UNL     1      13.915  14.557  28.313  1.00  0.00    -0.003 C 
ATOM      5  C   UNL     1      12.666  14.604  27.438  1.00  0.00     0.004 C 
ENDBRANCH   3   4
ENDBRANCH   2   3
ENDBRANCH   1   2
BRANCH   1   6
ATOM      6  C   UNL     1      12.481  15.068  32.095  1.00  0.00     0.002 C 
BRANCH   6   7
ATOM      7  C   UNL     1      11.821  15.973  31.042  1.00  0.00     0.028 C 
BRANCH   7   8
ATOM      8  C   UNL     1      10.306  15.768  30.989  1.00  0.00     0.156 C 
BRANCH   8   9
ATOM      9  O   UNL     1       9.985  14.783  30.046  1.00  0.00    -0.396 OA
ATOM     10  H   UNL     1      10.767  14.174  30.009  1.00  0.00     0.210 HD
ENDBRANCH   8   9
ENDBRANCH   7   8
ENDBRANCH   6   7
ENDBRANCH   1   6
TORSDOF 7
ENDMDL
MODEL 9
REMARK VINA RESULT:    -3.923      2.325      4.896
REMARK INTER + INTRA:          -5.718
REMARK INTER:                  -5.487
REMARK INTRA:                  -0.231
REMARK UNBOUND:                -0.305
REMARK SMILES CCCCCCCCO
REMARK SMILES IDX 5 1 4 2 3 3 2 4 1 5 6 6 7 7 8 8 9 9
REMARK H PARENT 9 10
REMARK Flexibility Score: inf
ROOT
ATOM      1  C   UNL     1      19.240  12.112  23.198  1.00  0.00     0.000 C 
ENDROOT
BRANCH   1   2
ATOM      2  C   UNL     1      19.295  12.679  21.765  1.00  0.00    -0.000 C 
BRANCH   2   3
ATOM      3  C   UNL     1      18.200  13.706  21.427  1.00  0.00    -0.000 C 
BRANCH   3   4
ATOM      4  C   UNL     1      16.883  13.050  20.988  1.00  0.00    -0.003 C 
ATOM      5  C   UNL     1      15.873  13.025  22.132  1.00  0.00     0.004 C 
ENDBRANCH   3   4
ENDBRANCH   2   3
ENDBRANCH   1   2
BRANCH   1   6
ATOM      6  C   UNL     1      19.503  13.134  24.317  1.00  0.00     0.002 C 
BRANCH   6   7
ATOM      7  C   UNL     1      20.598  12.680  25.296  1.00  0.00     0.028 C 
BRANCH   7   8
ATOM      8  C   UNL     1      20.671  13.587  26.525  1.00  0.00     0.156 C 
BRANCH   8   9
ATOM      9  O   UNL     1      19.928  14.755  26.308  1.00  0.00    -0.396 OA
ATOM     10  H   UNL     1      20.128  15.037  25.377  1.00  0.00     0.210 HD
ENDBRANCH   8   9
ENDBRANCH   7   8
ENDBRANCH   6   7
ENDBRANCH   1   6
TORSDOF 7
ENDMDL
