MODEL 1
REMARK VINA RESULT:    -4.779      0.000      0.000
REMARK INTER + INTRA:          -5.896
REMARK INTER:                  -5.618
REMARK INTRA:                  -0.279
REMARK UNBOUND:                -0.279
REMARK SMILES O=c1cc(-c2ccc(O)c(O)c2)oc2cc(O)cc(O)c12
REMARK SMILES IDX 4 1 3 2 2 3 1 4 21 5 19 6 18 7 16 8 15 9 14 10 13 11 5 12
REMARK SMILES IDX 6 13 7 14 8 15 12 16 10 17 9 18 11 20 20 22 17 24
REMARK H PARENT 9 19 11 21 20 23 17 25
REMARK Flexibility Score: inf
ROOT
ATOM      1  C   UNL     1     -53.891  37.607  28.288  1.00  0.00     0.138 A 
ATOM      2  C   UNL     1     -53.365  36.818  29.320  1.00  0.00     0.100 A 
ATOM      3  C   UNL     1     -53.311  35.433  29.170  1.00  0.00     0.197 A 
ATOM      4  O   UNL     1     -52.776  34.757  30.088  1.00  0.00    -0.289 OA
ATOM      5  C   UNL     1     -53.815  34.832  27.992  1.00  0.00     0.107 A 
ATOM      6  C   UNL     1     -53.849  33.426  27.747  1.00  0.00     0.134 A 
ATOM      7  C   UNL     1     -54.264  32.954  26.496  1.00  0.00     0.093 A 
ATOM      8  C   UNL     1     -54.704  33.831  25.504  1.00  0.00     0.123 A 
ATOM      9  C   UNL     1     -54.725  35.204  25.752  1.00  0.00     0.094 A 
ATOM     10  C   UNL     1     -54.284  35.708  26.977  1.00  0.00     0.146 A 
ATOM     11  O   UNL     1     -54.307  37.023  27.170  1.00  0.00    -0.456 OA
ENDROOT
BRANCH   1  12
ATOM     12  C   UNL     1     -53.973  39.087  28.394  1.00  0.00     0.021 A 
ATOM     13  C   UNL     1     -55.078  39.804  27.895  1.00  0.00     0.016 A 
ATOM     14  C   UNL     1     -55.125  41.195  28.001  1.00  0.00     0.051 A 
ATOM     15  C   UNL     1     -54.072  41.897  28.595  1.00  0.00     0.157 A 
ATOM     16  C   UNL     1     -52.911  39.799  28.979  1.00  0.00     0.062 A 
ATOM     17  C   UNL     1     -52.958  41.197  29.086  1.00  0.00     0.158 A 
BRANCH  15  18
ATOM     18  O   UNL     1     -54.149  43.287  28.686  1.00  0.00    -0.504 OA
ATOM     19  H   UNL     1     -54.751  43.749  29.356  1.00  0.00     0.293 HD
ENDBRANCH  15  18
BRANCH  17  20
ATOM     20  O   UNL     1     -51.903  41.891  29.676  1.00  0.00    -0.504 OA
ATOM     21  H   UNL     1     -51.004  41.451  29.838  1.00  0.00     0.293 HD
ENDBRANCH  17  20
ENDBRANCH   1  12
BRANCH   6  22
ATOM     22  O   UNL     1     -53.513  32.459  28.699  1.00  0.00    -0.507 OA
ATOM     23  H   UNL     1     -54.048  31.624  28.885  1.00  0.00     0.293 HD
ENDBRANCH   6  22
BRANCH   8  24
ATOM     24  O   UNL     1     -55.124  33.324  24.277  1.00  0.00    -0.508 OA
ATOM     25  H   UNL     1     -54.511  32.761  23.698  1.00  0.00     0.293 HD
ENDBRANCH   8  24
TORSDOF 5
ENDMDL
MODEL 2
REMARK VINA RESULT:    -3.930      2.234      3.842
REMARK INTER + INTRA:          -4.898
REMARK INTER:                  -4.580
REMARK INTRA:                  -0.317
REMARK UNBOUND:                -0.279
REMARK SMILES O=c1cc(-c2ccc(O)c(O)c2)oc2cc(O)cc(O)c12
REMARK SMILES IDX 4 1 3 2 2 3 1 4 21 5 19 6 18 7 16 8 15 9 14 10 13 11 5 12
REMARK SMILES IDX 6 13 7 14 8 15 12 16 10 17 9 18 11 20 20 22 17 24
REMARK H PARENT 9 19 11 21 20 23 17 25
REMARK Flexibility Score: inf
ROOT
ATOM      1  C   UNL     1     -53.421  34.152  28.165  1.00  0.00     0.138 A 
ATOM      2  C   UNL     1     -52.661  33.492  29.140  1.00  0.00     0.100 A 
ATOM      3  C   UNL     1     -52.501  32.108  29.069  1.00  0.00     0.197 A 
ATOM      4  O   UNL     1     -51.762  31.551  29.923  1.00  0.00    -0.289 OA
ATOM      5  C   UNL     1     -53.132  31.379  28.034  1.00  0.00     0.107 A 
ATOM      6  C   UNL     1     -53.072  29.960  27.885  1.00  0.00     0.134 A 
ATOM      7  C   UNL     1     -53.640  29.360  26.755  1.00  0.00     0.093 A 
ATOM      8  C   UNL     1     -54.317  30.118  25.800  1.00  0.00     0.123 A 
ATOM      9  C   UNL     1     -54.428  31.499  25.962  1.00  0.00     0.094 A 
ATOM     10  C   UNL     1     -53.842  32.131  27.061  1.00  0.00     0.146 A 
ATOM     11  O   UNL     1     -53.958  33.451  27.172  1.00  0.00    -0.456 OA
ENDROOT
BRANCH   1  12
ATOM     12  C   UNL     1     -53.625  35.623  28.192  1.00  0.00     0.021 A 
ATOM     13  C   UNL     1     -53.212  36.407  29.287  1.00  0.00     0.016 A 
ATOM     14  C   UNL     1     -53.425  37.787  29.290  1.00  0.00     0.051 A 
ATOM     15  C   UNL     1     -54.059  38.409  28.211  1.00  0.00     0.157 A 
ATOM     16  C   UNL     1     -54.275  36.253  27.115  1.00  0.00     0.062 A 
ATOM     17  C   UNL     1     -54.488  37.639  27.118  1.00  0.00     0.158 A 
BRANCH  15  18
ATOM     18  O   UNL     1     -54.256  39.789  28.243  1.00  0.00    -0.504 OA
ATOM     19  H   UNL     1     -54.171  40.325  29.098  1.00  0.00     0.293 HD
ENDBRANCH  15  18
BRANCH  17  20
ATOM     20  O   UNL     1     -55.125  38.252  26.040  1.00  0.00    -0.504 OA
ATOM     21  H   UNL     1     -54.908  39.204  25.767  1.00  0.00     0.293 HD
ENDBRANCH  17  20
ENDBRANCH   1  12
BRANCH   6  22
ATOM     22  O   UNL     1     -52.495  29.100  28.824  1.00  0.00    -0.507 OA
ATOM     23  H   UNL     1     -51.627  29.274  29.308  1.00  0.00     0.293 HD
ENDBRANCH   6  22
BRANCH   8  24
ATOM     24  O   UNL     1     -54.883  29.485  24.695  1.00  0.00    -0.508 OA
ATOM     25  H   UNL     1     -55.332  30.011  23.955  1.00  0.00     0.293 HD
ENDBRANCH   8  24
TORSDOF 5
ENDMDL
MODEL 3
REMARK VINA RESULT:    -3.742      2.038      7.669
REMARK INTER + INTRA:          -4.677
REMARK INTER:                  -4.384
REMARK INTRA:                  -0.293
REMARK UNBOUND:                -0.279
REMARK SMILES O=c1cc(-c2ccc(O)c(O)c2)oc2cc(O)cc(O)c12
REMARK SMILES IDX 4 1 3 2 2 3 1 4 21 5 19 6 18 7 16 8 15 9 14 10 13 11 5 12
REMARK SMILES IDX 6 13 7 14 8 15 12 16 10 17 9 18 11 20 20 22 17 24
REMARK H PARENT 9 19 11 21 20 23 17 25
REMARK Flexibility Score: inf
ROOT
ATOM      1  C   UNL     1     -53.542  34.445  28.029  1.00  0.00     0.138 A 
ATOM      2  C   UNL     1     -54.265  34.780  26.876  1.00  0.00     0.100 A 
ATOM      3  C   UNL     1     -54.517  36.121  26.584  1.00  0.00     0.197 A 
ATOM      4  O   UNL     1     -55.114  36.393  25.510  1.00  0.00    -0.289 OA
ATOM      5  C   UNL     1     -54.070  37.129  27.471  1.00  0.00     0.107 A 
ATOM      6  C   UNL     1     -54.305  38.527  27.297  1.00  0.00     0.134 A 
ATOM      7  C   UNL     1     -53.714  39.441  28.178  1.00  0.00     0.093 A 
ATOM      8  C   UNL     1     -52.948  39.006  29.260  1.00  0.00     0.123 A 
ATOM      9  C   UNL     1     -52.756  37.640  29.470  1.00  0.00     0.094 A 
ATOM     10  C   UNL     1     -53.303  36.706  28.589  1.00  0.00     0.146 A 
ATOM     11  O   UNL     1     -53.086  35.414  28.816  1.00  0.00    -0.456 OA
ENDROOT
BRANCH   1  12
ATOM     12  C   UNL     1     -53.245  33.035  28.387  1.00  0.00     0.021 A 
ATOM     13  C   UNL     1     -52.695  32.689  29.637  1.00  0.00     0.016 A 
ATOM     14  C   UNL     1     -52.417  31.356  29.944  1.00  0.00     0.051 A 
ATOM     15  C   UNL     1     -52.674  30.345  29.012  1.00  0.00     0.157 A 
ATOM     16  C   UNL     1     -53.489  32.016  27.449  1.00  0.00     0.062 A 
ATOM     17  C   UNL     1     -53.210  30.676  27.758  1.00  0.00     0.158 A 
BRANCH  15  18
ATOM     18  O   UNL     1     -52.386  29.023  29.349  1.00  0.00    -0.504 OA
ATOM     19  H   UNL     1     -52.911  28.522  30.055  1.00  0.00     0.293 HD
ENDBRANCH  15  18
BRANCH  17  20
ATOM     20  O   UNL     1     -53.465  29.674  26.822  1.00  0.00    -0.504 OA
ATOM     21  H   UNL     1     -52.761  29.383  26.153  1.00  0.00     0.293 HD
ENDBRANCH  17  20
ENDBRANCH   1  12
BRANCH   6  22
ATOM     22  O   UNL     1     -55.125  39.063  26.300  1.00  0.00    -0.507 OA
ATOM     23  H   UNL     1     -55.889  39.701  26.464  1.00  0.00     0.293 HD
ENDBRANCH   6  22
BRANCH   8  24
ATOM     24  O   UNL     1     -52.387  39.944  30.125  1.00  0.00    -0.508 OA
ATOM     25  H   UNL     1     -51.645  39.694  30.768  1.00  0.00     0.293 HD
ENDBRANCH   8  24
TORSDOF 5
ENDMDL
MODEL 4
REMARK VINA RESULT:    -3.392      1.798      2.622
REMARK INTER + INTRA:          -4.266
REMARK INTER:                  -3.977
REMARK INTRA:                  -0.288
REMARK UNBOUND:                -0.279
REMARK SMILES O=c1cc(-c2ccc(O)c(O)c2)oc2cc(O)cc(O)c12
REMARK SMILES IDX 4 1 3 2 2 3 1 4 21 5 19 6 18 7 16 8 15 9 14 10 13 11 5 12
REMARK SMILES IDX 6 13 7 14 8 15 12 16 10 17 9 18 11 20 20 22 17 24
REMARK H PARENT 9 19 11 21 20 23 17 25
REMARK Flexibility Score: inf
ROOT
ATOM      1  C   UNL     1     -53.667  40.214  28.376  1.00  0.00     0.138 A 
ATOM      2  C   UNL     1     -52.910  39.547  29.349  1.00  0.00     0.100 A 
ATOM      3  C   UNL     1     -52.750  38.163  29.269  1.00  0.00     0.197 A 
ATOM      4  O   UNL     1     -52.015  37.600  30.121  1.00  0.00    -0.289 OA
ATOM      5  C   UNL     1     -53.378  37.442  28.226  1.00  0.00     0.107 A 
ATOM      6  C   UNL     1     -53.317  36.024  28.067  1.00  0.00     0.134 A 
ATOM      7  C   UNL     1     -53.881  35.432  26.930  1.00  0.00     0.093 A 
ATOM      8  C   UNL     1     -54.554  36.198  25.978  1.00  0.00     0.123 A 
ATOM      9  C   UNL     1     -54.665  37.578  26.150  1.00  0.00     0.094 A 
ATOM     10  C   UNL     1     -54.084  38.202  27.256  1.00  0.00     0.146 A 
ATOM     11  O   UNL     1     -54.200  39.521  27.376  1.00  0.00    -0.456 OA
ENDROOT
BRANCH   1  12
ATOM     12  C   UNL     1     -53.871  41.685  28.413  1.00  0.00     0.021 A 
ATOM     13  C   UNL     1     -54.961  42.297  27.765  1.00  0.00     0.016 A 
ATOM     14  C   UNL     1     -55.123  43.684  27.809  1.00  0.00     0.051 A 
ATOM     15  C   UNL     1     -54.200  44.484  28.489  1.00  0.00     0.157 A 
ATOM     16  C   UNL     1     -52.938  42.497  29.085  1.00  0.00     0.062 A 
ATOM     17  C   UNL     1     -53.101  43.889  29.129  1.00  0.00     0.158 A 
BRANCH  15  18
ATOM     18  O   UNL     1     -54.390  45.866  28.514  1.00  0.00    -0.504 OA
ATOM     19  H   UNL     1     -54.820  46.335  29.302  1.00  0.00     0.293 HD
ENDBRANCH  15  18
BRANCH  17  20
ATOM     20  O   UNL     1     -52.175  44.682  29.805  1.00  0.00    -0.504 OA
ATOM     21  H   UNL     1     -52.456  45.520  30.300  1.00  0.00     0.293 HD
ENDBRANCH  17  20
ENDBRANCH   1  12
BRANCH   6  22
ATOM     22  O   UNL     1     -52.743  35.157  29.002  1.00  0.00    -0.507 OA
ATOM     23  H   UNL     1     -52.533  34.185  28.833  1.00  0.00     0.293 HD
ENDBRANCH   6  22
BRANCH   8  24
ATOM     24  O   UNL     1     -55.115  35.573  24.867  1.00  0.00    -0.508 OA
ATOM     25  H   UNL     1     -54.562  34.987  24.252  1.00  0.00     0.293 HD
ENDBRANCH   8  24
TORSDOF 5
ENDMDL
MODEL 5
REMARK VINA RESULT:    -2.894      3.726      9.093
REMARK INTER + INTRA:          -3.680
REMARK INTER:                  -3.415
REMARK INTRA:                  -0.265
REMARK UNBOUND:                -0.279
REMARK SMILES O=c1cc(-c2ccc(O)c(O)c2)oc2cc(O)cc(O)c12
REMARK SMILES IDX 4 1 3 2 2 3 1 4 21 5 19 6 18 7 16 8 15 9 14 10 13 11 5 12
REMARK SMILES IDX 6 13 7 14 8 15 12 16 10 17 9 18 11 20 20 22 17 24
REMARK H PARENT 9 19 11 21 20 23 17 25
REMARK Flexibility Score: inf
ROOT
ATOM      1  C   UNL     1     -54.208  43.150  28.372  1.00  0.00     0.138 A 
ATOM      2  C   UNL     1     -54.221  44.074  29.427  1.00  0.00     0.100 A 
ATOM      3  C   UNL     1     -54.386  45.432  29.152  1.00  0.00     0.197 A 
ATOM      4  O   UNL     1     -54.455  46.229  30.123  1.00  0.00    -0.289 OA
ATOM      5  C   UNL     1     -54.506  45.869  27.812  1.00  0.00     0.107 A 
ATOM      6  C   UNL     1     -54.638  47.233  27.410  1.00  0.00     0.134 A 
ATOM      7  C   UNL     1     -54.867  47.537  26.063  1.00  0.00     0.093 A 
ATOM      8  C   UNL     1     -54.910  46.533  25.095  1.00  0.00     0.123 A 
ATOM      9  C   UNL     1     -54.729  45.201  25.469  1.00  0.00     0.094 A 
ATOM     10  C   UNL     1     -54.533  44.863  26.810  1.00  0.00     0.146 A 
ATOM     11  O   UNL     1     -54.379  43.581  27.127  1.00  0.00    -0.456 OA
ENDROOT
BRANCH   1  12
ATOM     12  C   UNL     1     -54.036  41.694  28.607  1.00  0.00     0.021 A 
ATOM     13  C   UNL     1     -55.034  40.765  28.255  1.00  0.00     0.016 A 
ATOM     14  C   UNL     1     -54.849  39.402  28.496  1.00  0.00     0.051 A 
ATOM     15  C   UNL     1     -53.674  38.941  29.098  1.00  0.00     0.157 A 
ATOM     16  C   UNL     1     -52.862  41.226  29.224  1.00  0.00     0.062 A 
ATOM     17  C   UNL     1     -52.676  39.857  29.466  1.00  0.00     0.158 A 
BRANCH  15  18
ATOM     18  O   UNL     1     -53.519  37.574  29.324  1.00  0.00    -0.504 OA
ATOM     19  H   UNL     1     -53.039  37.215  30.140  1.00  0.00     0.293 HD
ENDBRANCH  15  18
BRANCH  17  20
ATOM     20  O   UNL     1     -51.503  39.405  30.070  1.00  0.00    -0.504 OA
ATOM     21  H   UNL     1     -51.429  39.309  31.077  1.00  0.00     0.293 HD
ENDBRANCH  17  20
ENDBRANCH   1  12
BRANCH   6  22
ATOM     22  O   UNL     1     -54.526  48.319  28.284  1.00  0.00    -0.507 OA
ATOM     23  H   UNL     1     -54.398  48.245  29.282  1.00  0.00     0.293 HD
ENDBRANCH   6  22
BRANCH   8  24
ATOM     24  O   UNL     1     -55.125  46.873  23.762  1.00  0.00    -0.508 OA
ATOM     25  H   UNL     1     -54.694  47.692  23.347  1.00  0.00     0.293 HD
ENDBRANCH   8  24
TORSDOF 5
ENDMDL
