MODEL 1
REMARK VINA RESULT:    -6.748      0.000      0.000
REMARK INTER + INTRA:          -7.340
REMARK INTER:                  -7.340
REMARK INTRA:                   0.000
REMARK UNBOUND:                 0.000
REMARK SMILES Cc1cc(O)c2c(c1)C(=O)c1cc(O)cc(O)c1C2=O
REMARK SMILES IDX 1 1 2 2 8 3 7 4 6 5 4 6 3 7 19 8 20 9 18 10 11 11 9 12 10 13
REMARK SMILES IDX 12 14 13 15 15 16 16 17 5 18 17 20 14 22
REMARK H PARENT 5 19 17 21 14 23
REMARK Flexibility Score: inf
ROOT
ATOM      1  C   UNL     1      13.545  -3.879  13.165  1.00  0.00     0.044 C 
ATOM      2  C   UNL     1      14.304  -5.164  13.012  1.00  0.00    -0.047 A 
ATOM      3  C   UNL     1      13.637  -6.390  13.091  1.00  0.00     0.016 A 
ATOM      4  C   UNL     1      14.334  -7.599  12.925  1.00  0.00     0.038 A 
ATOM      5  C   UNL     1      15.726  -7.581  12.676  1.00  0.00     0.076 A 
ATOM      6  C   UNL     1      16.377  -6.330  12.499  1.00  0.00     0.127 A 
ATOM      7  C   UNL     1      15.666  -5.142  12.696  1.00  0.00     0.050 A 
ATOM      8  C   UNL     1      16.461  -8.877  12.664  1.00  0.00     0.201 C 
ATOM      9  O   UNL     1      17.705  -8.901  12.862  1.00  0.00    -0.288 OA
ATOM     10  C   UNL     1      15.716 -10.156  12.533  1.00  0.00     0.076 A 
ATOM     11  C   UNL     1      14.316 -10.158  12.717  1.00  0.00     0.041 A 
ATOM     12  C   UNL     1      13.608  -8.890  12.999  1.00  0.00     0.194 C 
ATOM     13  O   UNL     1      12.380  -8.906  13.287  1.00  0.00    -0.289 OA
ATOM     14  C   UNL     1      13.603 -11.367  12.633  1.00  0.00     0.059 A 
ATOM     15  C   UNL     1      14.267 -12.567  12.362  1.00  0.00     0.120 A 
ATOM     16  C   UNL     1      15.649 -12.567  12.173  1.00  0.00     0.093 A 
ATOM     17  C   UNL     1      16.379 -11.374  12.254  1.00  0.00     0.131 A 
ENDROOT
BRANCH   6  18
ATOM     18  O   UNL     1      17.709  -6.216  12.092  1.00  0.00    -0.507 OA
ATOM     19  H   UNL     1      18.285  -5.408  12.281  1.00  0.00     0.293 HD
ENDBRANCH   6  18
BRANCH  17  20
ATOM     20  O   UNL     1      17.759 -11.402  12.046  1.00  0.00    -0.507 OA
ATOM     21  H   UNL     1      18.189 -10.925  11.263  1.00  0.00     0.293 HD
ENDBRANCH  17  20
BRANCH  15  22
ATOM     22  O   UNL     1      13.562 -13.765  12.278  1.00  0.00    -0.508 OA
ATOM     23  H   UNL     1      12.727 -13.851  11.709  1.00  0.00     0.293 HD
ENDBRANCH  15  22
TORSDOF 3
ENDMDL
MODEL 2
REMARK VINA RESULT:    -6.664      1.610      3.529
REMARK INTER + INTRA:          -7.248
REMARK INTER:                  -7.248
REMARK INTRA:                   0.000
REMARK UNBOUND:                 0.000
REMARK SMILES Cc1cc(O)c2c(c1)C(=O)c1cc(O)cc(O)c1C2=O
REMARK SMILES IDX 1 1 2 2 8 3 7 4 6 5 4 6 3 7 19 8 20 9 18 10 11 11 9 12 10 13
REMARK SMILES IDX 12 14 13 15 15 16 16 17 5 18 17 20 14 22
REMARK H PARENT 5 19 17 21 14 23
REMARK Flexibility Score: inf
ROOT
ATOM      1  C   UNL     1      18.843  -6.294  12.221  1.00  0.00     0.044 C 
ATOM      2  C   UNL     1      17.550  -7.046  12.349  1.00  0.00    -0.047 A 
ATOM      3  C   UNL     1      17.532  -8.440  12.237  1.00  0.00     0.016 A 
ATOM      4  C   UNL     1      16.332  -9.156  12.380  1.00  0.00     0.038 A 
ATOM      5  C   UNL     1      15.125  -8.464  12.640  1.00  0.00     0.076 A 
ATOM      6  C   UNL     1      15.170  -7.060  12.852  1.00  0.00     0.127 A 
ATOM      7  C   UNL     1      16.372  -6.368  12.677  1.00  0.00     0.050 A 
ATOM      8  C   UNL     1      13.850  -9.234  12.628  1.00  0.00     0.201 C 
ATOM      9  O   UNL     1      12.754  -8.641  12.439  1.00  0.00    -0.288 OA
ATOM     10  C   UNL     1      13.872 -10.717  12.723  1.00  0.00     0.076 A 
ATOM     11  C   UNL     1      15.093 -11.400  12.528  1.00  0.00     0.041 A 
ATOM     12  C   UNL     1      16.332 -10.634  12.270  1.00  0.00     0.194 C 
ATOM     13  O   UNL     1      17.397 -11.244  11.972  1.00  0.00    -0.289 OA
ATOM     14  C   UNL     1      15.122 -12.805  12.578  1.00  0.00     0.059 A 
ATOM     15  C   UNL     1      13.954 -13.532  12.826  1.00  0.00     0.120 A 
ATOM     16  C   UNL     1      12.748 -12.859  13.026  1.00  0.00     0.093 A 
ATOM     17  C   UNL     1      12.696 -11.461  12.979  1.00  0.00     0.131 A 
ENDROOT
BRANCH   6  18
ATOM     18  O   UNL     1      14.063  -6.318  13.271  1.00  0.00    -0.507 OA
ATOM     19  H   UNL     1      13.460  -5.806  12.643  1.00  0.00     0.293 HD
ENDBRANCH   6  18
BRANCH  17  20
ATOM     20  O   UNL     1      11.479 -10.814  13.196  1.00  0.00    -0.507 OA
ATOM     21  H   UNL     1      11.424  -9.940  13.704  1.00  0.00     0.293 HD
ENDBRANCH  17  20
BRANCH  15  22
ATOM     22  O   UNL     1      13.981 -14.924  12.877  1.00  0.00    -0.508 OA
ATOM     23  H   UNL     1      14.167 -15.419  13.742  1.00  0.00     0.293 HD
ENDBRANCH  15  22
TORSDOF 3
ENDMDL
MODEL 3
REMARK VINA RESULT:    -6.442      1.241      5.484
REMARK INTER + INTRA:          -7.007
REMARK INTER:                  -7.007
REMARK INTRA:                   0.000
REMARK UNBOUND:                 0.000
REMARK SMILES Cc1cc(O)c2c(c1)C(=O)c1cc(O)cc(O)c1C2=O
REMARK SMILES IDX 1 1 2 2 8 3 7 4 6 5 4 6 3 7 19 8 20 9 18 10 11 11 9 12 10 13
REMARK SMILES IDX 12 14 13 15 15 16 16 17 5 18 17 20 14 22
REMARK H PARENT 5 19 17 21 14 23
REMARK Flexibility Score: inf
ROOT
ATOM      1  C   UNL     1      13.461 -13.730  12.264  1.00  0.00     0.044 C 
ATOM      2  C   UNL     1      14.228 -12.441  12.321  1.00  0.00    -0.047 A 
ATOM      3  C   UNL     1      13.561 -11.234  12.546  1.00  0.00     0.016 A 
ATOM      4  C   UNL     1      14.272 -10.024  12.625  1.00  0.00     0.038 A 
ATOM      5  C   UNL     1      15.678 -10.023  12.477  1.00  0.00     0.076 A 
ATOM      6  C   UNL     1      16.357 -11.264  12.349  1.00  0.00     0.127 A 
ATOM      7  C   UNL     1      15.624 -12.451  12.245  1.00  0.00     0.050 A 
ATOM      8  C   UNL     1      16.383  -8.712  12.408  1.00  0.00     0.201 C 
ATOM      9  O   UNL     1      17.523  -8.633  11.876  1.00  0.00    -0.288 OA
ATOM     10  C   UNL     1      15.699  -7.472  12.859  1.00  0.00     0.076 A 
ATOM     11  C   UNL     1      14.303  -7.495  13.070  1.00  0.00     0.041 A 
ATOM     12  C   UNL     1      13.549  -8.754  12.876  1.00  0.00     0.194 C 
ATOM     13  O   UNL     1      12.289  -8.749  12.943  1.00  0.00    -0.289 OA
ATOM     14  C   UNL     1      13.636  -6.321  13.462  1.00  0.00     0.059 A 
ATOM     15  C   UNL     1      14.345  -5.131  13.650  1.00  0.00     0.120 A 
ATOM     16  C   UNL     1      15.725  -5.107  13.449  1.00  0.00     0.093 A 
ATOM     17  C   UNL     1      16.408  -6.264  13.058  1.00  0.00     0.131 A 
ENDROOT
BRANCH   6  18
ATOM     18  O   UNL     1      17.750 -11.375  12.358  1.00  0.00    -0.507 OA
ATOM     19  H   UNL     1      18.334 -11.175  11.559  1.00  0.00     0.293 HD
ENDBRANCH   6  18
BRANCH  17  20
ATOM     20  O   UNL     1      17.791  -6.214  12.877  1.00  0.00    -0.507 OA
ATOM     21  H   UNL     1      18.247  -5.403  12.477  1.00  0.00     0.293 HD
ENDBRANCH  17  20
BRANCH  15  22
ATOM     22  O   UNL     1      13.687  -3.966  14.039  1.00  0.00    -0.508 OA
ATOM     23  H   UNL     1      14.060  -3.363  14.764  1.00  0.00     0.293 HD
ENDBRANCH  15  22
TORSDOF 3
ENDMDL
MODEL 4
REMARK VINA RESULT:    -6.418      1.647      6.035
REMARK INTER + INTRA:          -6.980
REMARK INTER:                  -6.980
REMARK INTRA:                   0.000
REMARK UNBOUND:                 0.000
REMARK SMILES Cc1cc(O)c2c(c1)C(=O)c1cc(O)cc(O)c1C2=O
REMARK SMILES IDX 1 1 2 2 8 3 7 4 6 5 4 6 3 7 19 8 20 9 18 10 11 11 9 12 10 13
REMARK SMILES IDX 12 14 13 15 15 16 16 17 5 18 17 20 14 22
REMARK H PARENT 5 19 17 21 14 23
REMARK Flexibility Score: inf
ROOT
ATOM      1  C   UNL     1      14.002 -13.859  12.599  1.00  0.00     0.044 C 
ATOM      2  C   UNL     1      14.104 -12.362  12.636  1.00  0.00    -0.047 A 
ATOM      3  C   UNL     1      15.356 -11.741  12.634  1.00  0.00     0.016 A 
ATOM      4  C   UNL     1      15.463 -10.340  12.644  1.00  0.00     0.038 A 
ATOM      5  C   UNL     1      14.294  -9.545  12.654  1.00  0.00     0.076 A 
ATOM      6  C   UNL     1      13.028 -10.182  12.554  1.00  0.00     0.127 A 
ATOM      7  C   UNL     1      12.948 -11.578  12.574  1.00  0.00     0.050 A 
ATOM      8  C   UNL     1      14.440  -8.072  12.824  1.00  0.00     0.201 C 
ATOM      9  O   UNL     1      13.472  -7.384  13.249  1.00  0.00    -0.288 OA
ATOM     10  C   UNL     1      15.758  -7.422  12.605  1.00  0.00     0.076 A 
ATOM     11  C   UNL     1      16.916  -8.226  12.528  1.00  0.00     0.041 A 
ATOM     12  C   UNL     1      16.799  -9.698  12.630  1.00  0.00     0.194 C 
ATOM     13  O   UNL     1      17.841 -10.409  12.687  1.00  0.00    -0.289 OA
ATOM     14  C   UNL     1      18.175  -7.623  12.358  1.00  0.00     0.059 A 
ATOM     15  C   UNL     1      18.289  -6.234  12.258  1.00  0.00     0.120 A 
ATOM     16  C   UNL     1      17.146  -5.437  12.326  1.00  0.00     0.093 A 
ATOM     17  C   UNL     1      15.883  -6.017  12.497  1.00  0.00     0.131 A 
ENDROOT
BRANCH   6  18
ATOM     18  O   UNL     1      11.831  -9.478  12.396  1.00  0.00    -0.507 OA
ATOM     19  H   UNL     1      11.421  -8.900  13.116  1.00  0.00     0.293 HD
ENDBRANCH   6  18
BRANCH  17  20
ATOM     20  O   UNL     1      14.755  -5.197  12.547  1.00  0.00    -0.507 OA
ATOM     21  H   UNL     1      14.222  -5.076  13.400  1.00  0.00     0.293 HD
ENDBRANCH  17  20
BRANCH  15  22
ATOM     22  O   UNL     1      19.535  -5.634  12.089  1.00  0.00    -0.508 OA
ATOM     23  H   UNL     1      19.726  -5.019  11.305  1.00  0.00     0.293 HD
ENDBRANCH  15  22
TORSDOF 3
ENDMDL
MODEL 5
REMARK VINA RESULT:    -6.407      1.546      5.358
REMARK INTER + INTRA:          -6.969
REMARK INTER:                  -6.969
REMARK INTRA:                   0.000
REMARK UNBOUND:                 0.000
REMARK SMILES Cc1cc(O)c2c(c1)C(=O)c1cc(O)cc(O)c1C2=O
REMARK SMILES IDX 1 1 2 2 8 3 7 4 6 5 4 6 3 7 19 8 20 9 18 10 11 11 9 12 10 13
REMARK SMILES IDX 12 14 13 15 15 16 16 17 5 18 17 20 14 22
REMARK H PARENT 5 19 17 21 14 23
REMARK Flexibility Score: inf
ROOT
ATOM      1  C   UNL     1      10.426 -12.500  11.893  1.00  0.00     0.044 C 
ATOM      2  C   UNL     1      11.851 -12.069  12.081  1.00  0.00    -0.047 A 
ATOM      3  C   UNL     1      12.161 -10.717  12.252  1.00  0.00     0.016 A 
ATOM      4  C   UNL     1      13.489 -10.304  12.453  1.00  0.00     0.038 A 
ATOM      5  C   UNL     1      14.527 -11.264  12.486  1.00  0.00     0.076 A 
ATOM      6  C   UNL     1      14.192 -12.643  12.412  1.00  0.00     0.127 A 
ATOM      7  C   UNL     1      12.867 -13.025  12.184  1.00  0.00     0.050 A 
ATOM      8  C   UNL     1      15.936 -10.782  12.542  1.00  0.00     0.201 C 
ATOM      9  O   UNL     1      16.877 -11.530  12.162  1.00  0.00    -0.288 OA
ATOM     10  C   UNL     1      16.231  -9.380  12.935  1.00  0.00     0.076 A 
ATOM     11  C   UNL     1      15.178  -8.439  12.966  1.00  0.00     0.041 A 
ATOM     12  C   UNL     1      13.798  -8.867  12.644  1.00  0.00     0.194 C 
ATOM     13  O   UNL     1      12.880  -8.007  12.550  1.00  0.00    -0.289 OA
ATOM     14  C   UNL     1      15.448  -7.100  13.301  1.00  0.00     0.059 A 
ATOM     15  C   UNL     1      16.749  -6.693  13.610  1.00  0.00     0.120 A 
ATOM     16  C   UNL     1      17.789  -7.622  13.587  1.00  0.00     0.093 A 
ATOM     17  C   UNL     1      17.543  -8.960  13.255  1.00  0.00     0.131 A 
ENDROOT
BRANCH   6  18
ATOM     18  O   UNL     1      15.127 -13.665  12.596  1.00  0.00    -0.507 OA
ATOM     19  H   UNL     1      14.977 -14.459  13.201  1.00  0.00     0.293 HD
ENDBRANCH   6  18
BRANCH  17  20
ATOM     20  O   UNL     1      18.601  -9.870  13.254  1.00  0.00    -0.507 OA
ATOM     21  H   UNL     1      18.719 -10.549  12.512  1.00  0.00     0.293 HD
ENDBRANCH  17  20
BRANCH  15  22
ATOM     22  O   UNL     1      17.018  -5.368  13.942  1.00  0.00    -0.508 OA
ATOM     23  H   UNL     1      16.330  -4.636  13.806  1.00  0.00     0.293 HD
ENDBRANCH  15  22
TORSDOF 3
ENDMDL
