MODEL 1
REMARK VINA RESULT:    -4.570      0.000      0.000
REMARK INTER + INTRA:          -6.384
REMARK INTER:                  -6.174
REMARK INTRA:                  -0.210
REMARK UNBOUND:                -0.210
REMARK SMILES CCCCCCC=CC(=O)[O-]
REMARK SMILES IDX 5 1 6 2 7 3 8 4 9 5 10 6 11 7 4 8 3 9 2 10 1 11
REMARK H PARENT
REMARK Flexibility Score: inf
ROOT
ATOM      1  C   UNL     1      -1.855  -8.031  -3.397  1.00  0.00     0.004 C 
ENDROOT
BRANCH   1   2
ATOM      2  C   UNL     1      -0.762  -7.231  -2.672  1.00  0.00     0.027 C 
BRANCH   2   3
ATOM      3  C   UNL     1       0.624  -7.702  -3.016  1.00  0.00    -0.025 C 
ATOM      4  C   UNL     1       1.706  -6.987  -2.692  1.00  0.00     0.020 C 
BRANCH   4   5
ATOM      5  C   UNL     1       3.067  -7.441  -3.017  1.00  0.00     0.064 C 
ATOM      6  O   UNL     1       4.043  -7.005  -2.352  1.00  0.00    -0.545 OA
ATOM      7  O   UNL     1       3.293  -8.346  -4.048  1.00  0.00    -0.545 OA
ENDBRANCH   4   5
ENDBRANCH   2   3
ENDBRANCH   1   2
BRANCH   1   8
ATOM      8  C   UNL     1      -3.246  -7.368  -3.372  1.00  0.00     0.000 C 
BRANCH   8   9
ATOM      9  C   UNL     1      -3.328  -6.072  -4.204  1.00  0.00    -0.000 C 
BRANCH   9  10
ATOM     10  C   UNL     1      -4.344  -6.178  -5.350  1.00  0.00    -0.003 C 
ATOM     11  C   UNL     1      -5.589  -6.945  -4.914  1.00  0.00     0.004 C 
ENDBRANCH   9  10
ENDBRANCH   8   9
ENDBRANCH   1   8
TORSDOF 6
ENDMDL
MODEL 2
REMARK VINA RESULT:    -4.522      2.056      3.574
REMARK INTER + INTRA:          -6.318
REMARK INTER:                  -6.157
REMARK INTRA:                  -0.161
REMARK UNBOUND:                -0.210
REMARK SMILES CCCCCCC=CC(=O)[O-]
REMARK SMILES IDX 5 1 6 2 7 3 8 4 9 5 10 6 11 7 4 8 3 9 2 10 1 11
REMARK H PARENT
REMARK Flexibility Score: inf
ROOT
ATOM      1  C   UNL     1       1.585  -7.134  -2.598  1.00  0.00     0.004 C 
ENDROOT
BRANCH   1   2
ATOM      2  C   UNL     1       2.885  -7.710  -3.182  1.00  0.00     0.027 C 
BRANCH   2   3
ATOM      3  C   UNL     1       4.068  -7.502  -2.278  1.00  0.00    -0.025 C 
ATOM      4  C   UNL     1       4.001  -7.765  -0.968  1.00  0.00     0.020 C 
BRANCH   4   5
ATOM      5  C   UNL     1       5.153  -7.573  -0.075  1.00  0.00     0.064 C 
ATOM      6  O   UNL     1       5.408  -8.437   0.805  1.00  0.00    -0.545 OA
ATOM      7  O   UNL     1       5.968  -6.452  -0.187  1.00  0.00    -0.545 OA
ENDBRANCH   4   5
ENDBRANCH   2   3
ENDBRANCH   1   2
BRANCH   1   8
ATOM      8  C   UNL     1       0.314  -7.906  -3.003  1.00  0.00     0.000 C 
BRANCH   8   9
ATOM      9  C   UNL     1      -0.988  -7.106  -2.788  1.00  0.00    -0.000 C 
BRANCH   9  10
ATOM     10  C   UNL     1      -2.222  -7.847  -3.322  1.00  0.00    -0.003 C 
ATOM     11  C   UNL     1      -3.244  -6.872  -3.900  1.00  0.00     0.004 C 
ENDBRANCH   9  10
ENDBRANCH   8   9
ENDBRANCH   1   8
TORSDOF 6
ENDMDL
MODEL 3
REMARK VINA RESULT:    -4.363      4.215      6.500
REMARK INTER + INTRA:          -6.104
REMARK INTER:                  -5.801
REMARK INTRA:                  -0.302
REMARK UNBOUND:                -0.210
REMARK SMILES CCCCCCC=CC(=O)[O-]
REMARK SMILES IDX 5 1 6 2 7 3 8 4 9 5 10 6 11 7 4 8 3 9 2 10 1 11
REMARK H PARENT
REMARK Flexibility Score: inf
ROOT
ATOM      1  C   UNL     1      -3.750  -6.296  -4.222  1.00  0.00     0.004 C 
ENDROOT
BRANCH   1   2
ATOM      2  C   UNL     1      -5.130  -6.205  -4.893  1.00  0.00     0.027 C 
BRANCH   2   3
ATOM      3  C   UNL     1      -5.040  -6.113  -6.391  1.00  0.00    -0.025 C 
ATOM      4  C   UNL     1      -4.033  -6.675  -7.067  1.00  0.00     0.020 C 
BRANCH   4   5
ATOM      5  C   UNL     1      -3.938  -6.598  -8.532  1.00  0.00     0.064 C 
ATOM      6  O   UNL     1      -4.146  -5.499  -9.111  1.00  0.00    -0.545 OA
ATOM      7  O   UNL     1      -3.621  -7.720  -9.290  1.00  0.00    -0.545 OA
ENDBRANCH   4   5
ENDBRANCH   2   3
ENDBRANCH   1   2
BRANCH   1   8
ATOM      8  C   UNL     1      -3.557  -7.543  -3.339  1.00  0.00     0.000 C 
BRANCH   8   9
ATOM      9  C   UNL     1      -2.109  -8.076  -3.330  1.00  0.00    -0.000 C 
BRANCH   9  10
ATOM     10  C   UNL     1      -1.098  -7.007  -2.891  1.00  0.00    -0.003 C 
ATOM     11  C   UNL     1       0.312  -7.585  -2.802  1.00  0.00     0.004 C 
ENDBRANCH   9  10
ENDBRANCH   8   9
ENDBRANCH   1   8
TORSDOF 6
ENDMDL
MODEL 4
REMARK VINA RESULT:    -4.250      1.481      2.442
REMARK INTER + INTRA:          -5.951
REMARK INTER:                  -5.528
REMARK INTRA:                  -0.423
REMARK UNBOUND:                -0.210
REMARK SMILES CCCCCCC=CC(=O)[O-]
REMARK SMILES IDX 5 1 6 2 7 3 8 4 9 5 10 6 11 7 4 8 3 9 2 10 1 11
REMARK H PARENT
REMARK Flexibility Score: inf
ROOT
ATOM      1  C   UNL     1      -3.361  -6.204  -4.040  1.00  0.00     0.004 C 
ENDROOT
BRANCH   1   2
ATOM      2  C   UNL     1      -3.128  -7.579  -3.393  1.00  0.00     0.027 C 
BRANCH   2   3
ATOM      3  C   UNL     1      -1.672  -7.948  -3.327  1.00  0.00    -0.025 C 
ATOM      4  C   UNL     1      -0.777  -7.159  -2.723  1.00  0.00     0.020 C 
BRANCH   4   5
ATOM      5  C   UNL     1       0.648  -7.513  -2.646  1.00  0.00     0.064 C 
ATOM      6  O   UNL     1       1.519  -6.608  -2.736  1.00  0.00    -0.545 OA
ATOM      7  O   UNL     1       1.050  -8.833  -2.475  1.00  0.00    -0.545 OA
ENDBRANCH   4   5
ENDBRANCH   2   3
ENDBRANCH   1   2
BRANCH   1   8
ATOM      8  C   UNL     1      -4.428  -6.201  -5.151  1.00  0.00     0.000 C 
BRANCH   8   9
ATOM      9  C   UNL     1      -4.493  -7.520  -5.949  1.00  0.00    -0.000 C 
BRANCH   9  10
ATOM     10  C   UNL     1      -5.916  -8.091  -6.017  1.00  0.00    -0.003 C 
ATOM     11  C   UNL     1      -6.597  -8.039  -4.652  1.00  0.00     0.004 C 
ENDBRANCH   9  10
ENDBRANCH   8   9
ENDBRANCH   1   8
TORSDOF 6
ENDMDL
MODEL 5
REMARK VINA RESULT:    -4.204      1.260      2.050
REMARK INTER + INTRA:          -5.888
REMARK INTER:                  -5.750
REMARK INTRA:                  -0.138
REMARK UNBOUND:                -0.210
REMARK SMILES CCCCCCC=CC(=O)[O-]
REMARK SMILES IDX 5 1 6 2 7 3 8 4 9 5 10 6 11 7 4 8 3 9 2 10 1 11
REMARK H PARENT
REMARK Flexibility Score: inf
ROOT
ATOM      1  C   UNL     1      -0.002  -7.962  -3.016  1.00  0.00     0.004 C 
ENDROOT
BRANCH   1   2
ATOM      2  C   UNL     1       1.249  -7.123  -2.709  1.00  0.00     0.027 C 
BRANCH   2   3
ATOM      3  C   UNL     1       2.526  -7.868  -2.979  1.00  0.00    -0.025 C 
ATOM      4  C   UNL     1       3.709  -7.245  -3.004  1.00  0.00     0.020 C 
BRANCH   4   5
ATOM      5  C   UNL     1       4.965  -7.964  -3.260  1.00  0.00     0.064 C 
ATOM      6  O   UNL     1       5.895  -7.911  -2.414  1.00  0.00    -0.545 OA
ATOM      7  O   UNL     1       5.142  -8.704  -4.424  1.00  0.00    -0.545 OA
ENDBRANCH   4   5
ENDBRANCH   2   3
ENDBRANCH   1   2
BRANCH   1   8
ATOM      8  C   UNL     1      -1.329  -7.193  -2.876  1.00  0.00     0.000 C 
BRANCH   8   9
ATOM      9  C   UNL     1      -2.551  -7.966  -3.415  1.00  0.00    -0.000 C 
BRANCH   9  10
ATOM     10  C   UNL     1      -3.821  -7.103  -3.445  1.00  0.00    -0.003 C 
ATOM     11  C   UNL     1      -3.627  -5.866  -4.318  1.00  0.00     0.004 C 
ENDBRANCH   9  10
ENDBRANCH   8   9
ENDBRANCH   1   8
TORSDOF 6
ENDMDL
MODEL 6
REMARK VINA RESULT:    -4.179      3.710      6.640
REMARK INTER + INTRA:          -5.855
REMARK INTER:                  -5.711
REMARK INTRA:                  -0.143
REMARK UNBOUND:                -0.210
REMARK SMILES CCCCCCC=CC(=O)[O-]
REMARK SMILES IDX 5 1 6 2 7 3 8 4 9 5 10 6 11 7 4 8 3 9 2 10 1 11
REMARK H PARENT
REMARK Flexibility Score: inf
ROOT
ATOM      1  C   UNL     1      -0.754  -7.126  -2.887  1.00  0.00     0.004 C 
ENDROOT
BRANCH   1   2
ATOM      2  C   UNL     1      -2.011  -8.010  -2.918  1.00  0.00     0.027 C 
BRANCH   2   3
ATOM      3  C   UNL     1      -2.958  -7.631  -4.021  1.00  0.00    -0.025 C 
ATOM      4  C   UNL     1      -3.342  -6.364  -4.210  1.00  0.00     0.020 C 
BRANCH   4   5
ATOM      5  C   UNL     1      -4.262  -5.981  -5.291  1.00  0.00     0.064 C 
ATOM      6  O   UNL     1      -5.474  -5.763  -5.027  1.00  0.00    -0.545 OA
ATOM      7  O   UNL     1      -3.815  -5.854  -6.601  1.00  0.00    -0.545 OA
ENDBRANCH   4   5
ENDBRANCH   2   3
ENDBRANCH   1   2
BRANCH   1   8
ATOM      8  C   UNL     1       0.557  -7.899  -2.647  1.00  0.00     0.000 C 
BRANCH   8   9
ATOM      9  C   UNL     1       1.810  -6.998  -2.622  1.00  0.00    -0.000 C 
BRANCH   9  10
ATOM     10  C   UNL     1       3.052  -7.740  -2.108  1.00  0.00    -0.003 C 
ATOM     11  C   UNL     1       4.304  -7.310  -2.867  1.00  0.00     0.004 C 
ENDBRANCH   9  10
ENDBRANCH   8   9
ENDBRANCH   1   8
TORSDOF 6
ENDMDL
MODEL 7
REMARK VINA RESULT:    -4.057     15.226     16.594
REMARK INTER + INTRA:          -5.690
REMARK INTER:                  -5.519
REMARK INTRA:                  -0.170
REMARK UNBOUND:                -0.210
REMARK SMILES CCCCCCC=CC(=O)[O-]
REMARK SMILES IDX 5 1 6 2 7 3 8 4 9 5 10 6 11 7 4 8 3 9 2 10 1 11
REMARK H PARENT
REMARK Flexibility Score: inf
ROOT
ATOM      1  C   UNL     1      -8.624   5.075   2.229  1.00  0.00     0.004 C 
ENDROOT
BRANCH   1   2
ATOM      2  C   UNL     1      -9.525   6.317   2.326  1.00  0.00     0.027 C 
BRANCH   2   3
ATOM      3  C   UNL     1      -8.953   7.504   1.601  1.00  0.00    -0.025 C 
ATOM      4  C   UNL     1      -7.791   7.429   0.945  1.00  0.00     0.020 C 
BRANCH   4   5
ATOM      5  C   UNL     1      -7.226   8.581   0.226  1.00  0.00     0.064 C 
ATOM      6  O   UNL     1      -6.343   8.394  -0.652  1.00  0.00    -0.545 OA
ATOM      7  O   UNL     1      -7.652   9.876   0.501  1.00  0.00    -0.545 OA
ENDBRANCH   4   5
ENDBRANCH   2   3
ENDBRANCH   1   2
BRANCH   1   8
ATOM      8  C   UNL     1      -9.391   3.739   2.191  1.00  0.00     0.000 C 
BRANCH   8   9
ATOM      9  C   UNL     1      -8.685   2.600   2.956  1.00  0.00    -0.000 C 
BRANCH   9  10
ATOM     10  C   UNL     1      -9.669   1.525   3.439  1.00  0.00    -0.003 C 
ATOM     11  C   UNL     1      -8.995   0.158   3.524  1.00  0.00     0.004 C 
ENDBRANCH   9  10
ENDBRANCH   8   9
ENDBRANCH   1   8
TORSDOF 6
ENDMDL
MODEL 8
REMARK VINA RESULT:    -4.037      3.533      6.916
REMARK INTER + INTRA:          -5.663
REMARK INTER:                  -5.537
REMARK INTRA:                  -0.126
REMARK UNBOUND:                -0.210
REMARK SMILES CCCCCCC=CC(=O)[O-]
REMARK SMILES IDX 5 1 6 2 7 3 8 4 9 5 10 6 11 7 4 8 3 9 2 10 1 11
REMARK H PARENT
REMARK Flexibility Score: inf
ROOT
ATOM      1  C   UNL     1       1.153  -7.224  -3.015  1.00  0.00     0.004 C 
ENDROOT
BRANCH   1   2
ATOM      2  C   UNL     1      -0.135  -7.967  -2.628  1.00  0.00     0.027 C 
BRANCH   2   3
ATOM      3  C   UNL     1      -1.376  -7.189  -2.966  1.00  0.00    -0.025 C 
ATOM      4  C   UNL     1      -2.480  -7.793  -3.417  1.00  0.00     0.020 C 
BRANCH   4   5
ATOM      5  C   UNL     1      -3.702  -7.043  -3.744  1.00  0.00     0.064 C 
ATOM      6  O   UNL     1      -4.821  -7.616  -3.673  1.00  0.00    -0.545 OA
ATOM      7  O   UNL     1      -3.641  -5.709  -4.130  1.00  0.00    -0.545 OA
ENDBRANCH   4   5
ENDBRANCH   2   3
ENDBRANCH   1   2
BRANCH   1   8
ATOM      8  C   UNL     1       2.380  -7.597  -2.161  1.00  0.00     0.000 C 
BRANCH   8   9
ATOM      9  C   UNL     1       3.686  -6.920  -2.626  1.00  0.00    -0.000 C 
BRANCH   9  10
ATOM     10  C   UNL     1       4.650  -7.910  -3.295  1.00  0.00    -0.003 C 
ATOM     11  C   UNL     1       5.708  -8.400  -2.311  1.00  0.00     0.004 C 
ENDBRANCH   9  10
ENDBRANCH   8   9
ENDBRANCH   1   8
TORSDOF 6
ENDMDL
MODEL 9
REMARK VINA RESULT:    -3.946     12.801     15.040
REMARK INTER + INTRA:          -5.540
REMARK INTER:                  -4.820
REMARK INTRA:                  -0.720
REMARK UNBOUND:                -0.210
REMARK SMILES CCCCCCC=CC(=O)[O-]
REMARK SMILES IDX 5 1 6 2 7 3 8 4 9 5 10 6 11 7 4 8 3 9 2 10 1 11
REMARK H PARENT
REMARK Flexibility Score: inf
ROOT
ATOM      1  C   UNL     1       8.494   6.036  -1.616  1.00  0.00     0.004 C 
ENDROOT
BRANCH   1   2
ATOM      2  C   UNL     1       9.000   5.279  -2.855  1.00  0.00     0.027 C 
BRANCH   2   3
ATOM      3  C   UNL     1       8.334   3.942  -3.028  1.00  0.00    -0.025 C 
ATOM      4  C   UNL     1       8.920   2.811  -2.623  1.00  0.00     0.020 C 
BRANCH   4   5
ATOM      5  C   UNL     1       8.275   1.499  -2.781  1.00  0.00     0.064 C 
ATOM      6  O   UNL     1       7.553   1.046  -1.854  1.00  0.00    -0.545 OA
ATOM      7  O   UNL     1       8.450   0.749  -3.939  1.00  0.00    -0.545 OA
ENDBRANCH   4   5
ENDBRANCH   2   3
ENDBRANCH   1   2
BRANCH   1   8
ATOM      8  C   UNL     1       9.539   6.181  -0.494  1.00  0.00     0.000 C 
BRANCH   8   9
ATOM      9  C   UNL     1       9.157   5.441   0.805  1.00  0.00    -0.000 C 
BRANCH   9  10
ATOM     10  C   UNL     1       7.752   4.827   0.735  1.00  0.00    -0.003 C 
ATOM     11  C   UNL     1       7.807   3.307   0.865  1.00  0.00     0.004 C 
ENDBRANCH   9  10
ENDBRANCH   8   9
ENDBRANCH   1   8
TORSDOF 6
ENDMDL
