MODEL 1
REMARK VINA RESULT:    -5.287      0.000      0.000
REMARK INTER + INTRA:          -6.873
REMARK INTER:                  -6.368
REMARK INTRA:                  -0.505
REMARK UNBOUND:                -0.505
REMARK SMILES CCCCc1oc(O)c2ccccc12
REMARK SMILES IDX 4 1 5 2 7 3 6 4 9 5 14 6 10 7 13 8 11 9 12 10 8 11 3 13 2 14
REMARK SMILES IDX 1 15
REMARK H PARENT 8 12
REMARK Flexibility Score: inf
ROOT
ATOM      1  C   UNL     1       8.893 -16.231  -4.558  1.00  0.00     0.076 C 
ENDROOT
BRANCH   1   2
ATOM      2  C   UNL     1       7.851 -15.542  -5.388  1.00  0.00     0.116 A 
ATOM      3  C   UNL     1       6.875 -14.715  -7.109  1.00  0.00     0.290 A 
ATOM      4  O   UNL     1       7.974 -15.307  -6.682  1.00  0.00    -0.430 OA
ATOM      5  C   UNL     1       5.995 -14.557  -6.060  1.00  0.00     0.066 A 
ATOM      6  C   UNL     1       6.616 -15.086  -4.960  1.00  0.00     0.027 A 
ATOM      7  C   UNL     1       4.716 -14.004  -5.989  1.00  0.00     0.016 A 
ATOM      8  C   UNL     1       6.004 -15.102  -3.707  1.00  0.00     0.012 A 
ATOM      9  C   UNL     1       4.072 -14.005  -4.738  1.00  0.00     0.001 A 
ATOM     10  C   UNL     1       4.713 -14.552  -3.602  1.00  0.00     0.001 A 
BRANCH   3  11
ATOM     11  O   UNL     1       6.668 -14.325  -8.428  1.00  0.00    -0.480 OA
ATOM     12  H   UNL     1       7.221 -14.713  -9.183  1.00  0.00     0.297 HD
ENDBRANCH   3  11
ENDBRANCH   1   2
BRANCH   1  13
ATOM     13  C   UNL     1      10.228 -15.469  -4.559  1.00  0.00     0.008 C 
BRANCH  13  14
ATOM     14  C   UNL     1      10.152 -14.062  -3.938  1.00  0.00    -0.003 C 
ATOM     15  C   UNL     1       9.575 -14.068  -2.523  1.00  0.00     0.004 C 
ENDBRANCH  13  14
ENDBRANCH   1  13
TORSDOF 4
ENDMDL
MODEL 2
REMARK VINA RESULT:    -5.274      1.988      4.672
REMARK INTER + INTRA:          -6.859
REMARK INTER:                  -6.351
REMARK INTRA:                  -0.507
REMARK UNBOUND:                -0.505
REMARK SMILES CCCCc1oc(O)c2ccccc12
REMARK SMILES IDX 4 1 5 2 7 3 6 4 9 5 14 6 10 7 13 8 11 9 12 10 8 11 3 13 2 14
REMARK SMILES IDX 1 15
REMARK H PARENT 8 12
REMARK Flexibility Score: inf
ROOT
ATOM      1  C   UNL     1       6.127 -14.393  -3.756  1.00  0.00     0.076 C 
ENDROOT
BRANCH   1   2
ATOM      2  C   UNL     1       7.458 -14.795  -4.318  1.00  0.00     0.116 A 
ATOM      3  C   UNL     1       9.447 -15.593  -4.402  1.00  0.00     0.290 A 
ATOM      4  O   UNL     1       8.429 -15.335  -3.603  1.00  0.00    -0.430 OA
ATOM      5  C   UNL     1       9.135 -15.213  -5.689  1.00  0.00     0.066 A 
ATOM      6  C   UNL     1       7.864 -14.704  -5.638  1.00  0.00     0.027 A 
ATOM      7  C   UNL     1       9.854 -15.278  -6.883  1.00  0.00     0.016 A 
ATOM      8  C   UNL     1       7.218 -14.223  -6.777  1.00  0.00     0.012 A 
ATOM      9  C   UNL     1       9.229 -14.800  -8.049  1.00  0.00     0.001 A 
ATOM     10  C   UNL     1       7.918 -14.275  -7.996  1.00  0.00     0.001 A 
BRANCH   3  11
ATOM     11  O   UNL     1      10.640 -16.167  -3.974  1.00  0.00    -0.480 OA
ATOM     12  H   UNL     1      10.763 -16.471  -3.016  1.00  0.00     0.297 HD
ENDBRANCH   3  11
ENDBRANCH   1   2
BRANCH   1  13
ATOM     13  C   UNL     1       5.117 -15.551  -3.781  1.00  0.00     0.008 C 
BRANCH  13  14
ATOM     14  C   UNL     1       4.067 -15.449  -4.903  1.00  0.00    -0.003 C 
ATOM     15  C   UNL     1       3.832 -14.012  -5.367  1.00  0.00     0.004 C 
ENDBRANCH  13  14
ENDBRANCH   1  13
TORSDOF 4
ENDMDL
MODEL 3
REMARK VINA RESULT:    -5.217      1.634      4.715
REMARK INTER + INTRA:          -6.789
REMARK INTER:                  -6.577
REMARK INTRA:                  -0.212
REMARK UNBOUND:                -0.505
REMARK SMILES CCCCc1oc(O)c2ccccc12
REMARK SMILES IDX 4 1 5 2 7 3 6 4 9 5 14 6 10 7 13 8 11 9 12 10 8 11 3 13 2 14
REMARK SMILES IDX 1 15
REMARK H PARENT 8 12
REMARK Flexibility Score: inf
ROOT
ATOM      1  C   UNL     1       5.406 -13.241  -2.997  1.00  0.00     0.076 C 
ENDROOT
BRANCH   1   2
ATOM      2  C   UNL     1       6.064 -14.210  -3.932  1.00  0.00     0.116 A 
ATOM      3  C   UNL     1       6.299 -15.600  -5.549  1.00  0.00     0.290 A 
ATOM      4  O   UNL     1       5.430 -14.851  -4.898  1.00  0.00    -0.430 OA
ATOM      5  C   UNL     1       7.552 -15.446  -4.994  1.00  0.00     0.066 A 
ATOM      6  C   UNL     1       7.404 -14.558  -3.963  1.00  0.00     0.027 A 
ATOM      7  C   UNL     1       8.790 -16.003  -5.315  1.00  0.00     0.016 A 
ATOM      8  C   UNL     1       8.484 -14.160  -3.175  1.00  0.00     0.012 A 
ATOM      9  C   UNL     1       9.899 -15.622  -4.537  1.00  0.00     0.001 A 
ATOM     10  C   UNL     1       9.746 -14.705  -3.473  1.00  0.00     0.001 A 
BRANCH   3  11
ATOM     11  O   UNL     1       5.966 -16.410  -6.630  1.00  0.00    -0.480 OA
ATOM     12  H   UNL     1       5.229 -16.150  -7.274  1.00  0.00     0.297 HD
ENDBRANCH   3  11
ENDBRANCH   1   2
BRANCH   1  13
ATOM     13  C   UNL     1       3.982 -12.879  -3.449  1.00  0.00     0.008 C 
BRANCH  13  14
ATOM     14  C   UNL     1       2.891 -13.827  -2.918  1.00  0.00    -0.003 C 
ATOM     15  C   UNL     1       1.848 -14.182  -3.977  1.00  0.00     0.004 C 
ENDBRANCH  13  14
ENDBRANCH   1  13
TORSDOF 4
ENDMDL
MODEL 4
REMARK VINA RESULT:    -5.129      2.621      4.125
REMARK INTER + INTRA:          -6.683
REMARK INTER:                  -6.175
REMARK INTRA:                  -0.508
REMARK UNBOUND:                -0.505
REMARK SMILES CCCCc1oc(O)c2ccccc12
REMARK SMILES IDX 4 1 5 2 7 3 6 4 9 5 14 6 10 7 13 8 11 9 12 10 8 11 3 13 2 14
REMARK SMILES IDX 1 15
REMARK H PARENT 8 12
REMARK Flexibility Score: inf
ROOT
ATOM      1  C   UNL     1      10.881 -14.750  -6.631  1.00  0.00     0.076 C 
ENDROOT
BRANCH   1   2
ATOM      2  C   UNL     1      10.084 -14.678  -5.363  1.00  0.00     0.116 A 
ATOM      3  C   UNL     1       9.620 -14.346  -3.295  1.00  0.00     0.290 A 
ATOM      4  O   UNL     1      10.588 -14.336  -4.191  1.00  0.00    -0.430 OA
ATOM      5  C   UNL     1       8.433 -14.704  -3.899  1.00  0.00     0.066 A 
ATOM      6  C   UNL     1       8.727 -14.915  -5.219  1.00  0.00     0.027 A 
ATOM      7  C   UNL     1       7.139 -14.852  -3.400  1.00  0.00     0.016 A 
ATOM      8  C   UNL     1       7.748 -15.290  -6.140  1.00  0.00     0.012 A 
ATOM      9  C   UNL     1       6.129 -15.230  -4.304  1.00  0.00     0.001 A 
ATOM     10  C   UNL     1       6.433 -15.448  -5.667  1.00  0.00     0.001 A 
BRANCH   3  11
ATOM     11  O   UNL     1       9.804 -14.033  -1.952  1.00  0.00    -0.480 OA
ATOM     12  H   UNL     1      10.323 -13.210  -1.671  1.00  0.00     0.297 HD
ENDBRANCH   3  11
ENDBRANCH   1   2
BRANCH   1  13
ATOM     13  C   UNL     1      10.745 -13.469  -7.470  1.00  0.00     0.008 C 
BRANCH  13  14
ATOM     14  C   UNL     1      10.034 -13.672  -8.821  1.00  0.00    -0.003 C 
ATOM     15  C   UNL     1       9.889 -15.145  -9.200  1.00  0.00     0.004 C 
ENDBRANCH  13  14
ENDBRANCH   1  13
TORSDOF 4
ENDMDL
MODEL 5
REMARK VINA RESULT:    -5.036     10.668     12.001
REMARK INTER + INTRA:          -6.571
REMARK INTER:                  -6.405
REMARK INTRA:                  -0.166
REMARK UNBOUND:                -0.505
REMARK SMILES CCCCc1oc(O)c2ccccc12
REMARK SMILES IDX 4 1 5 2 7 3 6 4 9 5 14 6 10 7 13 8 11 9 12 10 8 11 3 13 2 14
REMARK SMILES IDX 1 15
REMARK H PARENT 8 12
REMARK Flexibility Score: inf
ROOT
ATOM      1  C   UNL     1       1.494 -22.622   2.372  1.00  0.00     0.076 C 
ENDROOT
BRANCH   1   2
ATOM      2  C   UNL     1       1.636 -22.887   0.903  1.00  0.00     0.116 A 
ATOM      3  C   UNL     1       1.851 -22.507  -1.197  1.00  0.00     0.290 A 
ATOM      4  O   UNL     1       1.700 -21.940  -0.016  1.00  0.00    -0.430 OA
ATOM      5  C   UNL     1       1.891 -23.878  -1.052  1.00  0.00     0.066 A 
ATOM      6  C   UNL     1       1.756 -24.122   0.288  1.00  0.00     0.027 A 
ATOM      7  C   UNL     1       2.040 -24.911  -1.977  1.00  0.00     0.016 A 
ATOM      8  C   UNL     1       1.759 -25.418   0.804  1.00  0.00     0.012 A 
ATOM      9  C   UNL     1       2.047 -26.230  -1.488  1.00  0.00     0.001 A 
ATOM     10  C   UNL     1       1.907 -26.482  -0.105  1.00  0.00     0.001 A 
BRANCH   3  11
ATOM     11  O   UNL     1       1.953 -21.798  -2.390  1.00  0.00    -0.480 OA
ATOM     12  H   UNL     1       1.273 -21.091  -2.640  1.00  0.00     0.297 HD
ENDBRANCH   3  11
ENDBRANCH   1   2
BRANCH   1  13
ATOM     13  C   UNL     1       0.876 -21.243   2.652  1.00  0.00     0.008 C 
BRANCH  13  14
ATOM     14  C   UNL     1       1.144 -20.706   4.070  1.00  0.00    -0.003 C 
ATOM     15  C   UNL     1       1.229 -19.181   4.121  1.00  0.00     0.004 C 
ENDBRANCH  13  14
ENDBRANCH   1  13
TORSDOF 4
ENDMDL
MODEL 6
REMARK VINA RESULT:    -4.906     10.841     12.119
REMARK INTER + INTRA:          -6.415
REMARK INTER:                  -6.180
REMARK INTRA:                  -0.236
REMARK UNBOUND:                -0.505
REMARK SMILES CCCCc1oc(O)c2ccccc12
REMARK SMILES IDX 4 1 5 2 7 3 6 4 9 5 14 6 10 7 13 8 11 9 12 10 8 11 3 13 2 14
REMARK SMILES IDX 1 15
REMARK H PARENT 8 12
REMARK Flexibility Score: inf
ROOT
ATOM      1  C   UNL     1       2.390 -23.025   2.102  1.00  0.00     0.076 C 
ENDROOT
BRANCH   1   2
ATOM      2  C   UNL     1       2.097 -23.904   0.922  1.00  0.00     0.116 A 
ATOM      3  C   UNL     1       1.472 -25.621  -0.200  1.00  0.00     0.290 A 
ATOM      4  O   UNL     1       1.651 -25.144   1.017  1.00  0.00    -0.430 OA
ATOM      5  C   UNL     1       1.809 -24.661  -1.130  1.00  0.00     0.066 A 
ATOM      6  C   UNL     1       2.206 -23.563  -0.415  1.00  0.00     0.027 A 
ATOM      7  C   UNL     1       1.791 -24.665  -2.525  1.00  0.00     0.016 A 
ATOM      8  C   UNL     1       2.616 -22.386  -1.043  1.00  0.00     0.012 A 
ATOM      9  C   UNL     1       2.199 -23.493  -3.187  1.00  0.00     0.001 A 
ATOM     10  C   UNL     1       2.609 -22.359  -2.449  1.00  0.00     0.001 A 
BRANCH   3  11
ATOM     11  O   UNL     1       1.009 -26.906  -0.467  1.00  0.00    -0.480 OA
ATOM     12  H   UNL     1       1.158 -27.341  -1.369  1.00  0.00     0.297 HD
ENDBRANCH   3  11
ENDBRANCH   1   2
BRANCH   1  13
ATOM     13  C   UNL     1       1.202 -22.113   2.450  1.00  0.00     0.008 C 
BRANCH  13  14
ATOM     14  C   UNL     1       1.313 -21.429   3.825  1.00  0.00    -0.003 C 
ATOM     15  C   UNL     1       1.221 -19.906   3.739  1.00  0.00     0.004 C 
ENDBRANCH  13  14
ENDBRANCH   1  13
TORSDOF 4
ENDMDL
MODEL 7
REMARK VINA RESULT:    -4.872      2.213      4.054
REMARK INTER + INTRA:          -6.374
REMARK INTER:                  -5.858
REMARK INTRA:                  -0.516
REMARK UNBOUND:                -0.505
REMARK SMILES CCCCc1oc(O)c2ccccc12
REMARK SMILES IDX 4 1 5 2 7 3 6 4 9 5 14 6 10 7 13 8 11 9 12 10 8 11 3 13 2 14
REMARK SMILES IDX 1 15
REMARK H PARENT 8 12
REMARK Flexibility Score: inf
ROOT
ATOM      1  C   UNL     1       8.134 -15.676  -4.723  1.00  0.00     0.076 C 
ENDROOT
BRANCH   1   2
ATOM      2  C   UNL     1       8.201 -15.225  -6.151  1.00  0.00     0.116 A 
ATOM      3  C   UNL     1       7.551 -14.702  -8.127  1.00  0.00     0.290 A 
ATOM      4  O   UNL     1       7.155 -15.163  -6.956  1.00  0.00    -0.430 OA
ATOM      5  C   UNL     1       8.905 -14.447  -8.092  1.00  0.00     0.066 A 
ATOM      6  C   UNL     1       9.321 -14.779  -6.830  1.00  0.00     0.027 A 
ATOM      7  C   UNL     1       9.787 -13.952  -9.052  1.00  0.00     0.016 A 
ATOM      8  C   UNL     1      10.652 -14.640  -6.435  1.00  0.00     0.012 A 
ATOM      9  C   UNL     1      11.137 -13.801  -8.684  1.00  0.00     0.001 A 
ATOM     10  C   UNL     1      11.567 -14.144  -7.382  1.00  0.00     0.001 A 
BRANCH   3  11
ATOM     11  O   UNL     1       6.700 -14.511  -9.211  1.00  0.00    -0.480 OA
ATOM     12  H   UNL     1       7.061 -14.265 -10.125  1.00  0.00     0.297 HD
ENDBRANCH   3  11
ENDBRANCH   1   2
BRANCH   1  13
ATOM     13  C   UNL     1       7.816 -14.516  -3.765  1.00  0.00     0.008 C 
BRANCH  13  14
ATOM     14  C   UNL     1       9.042 -13.961  -3.016  1.00  0.00    -0.003 C 
ATOM     15  C   UNL     1      10.093 -15.032  -2.724  1.00  0.00     0.004 C 
ENDBRANCH  13  14
ENDBRANCH   1  13
TORSDOF 4
ENDMDL
MODEL 8
REMARK VINA RESULT:    -4.837     10.211     11.441
REMARK INTER + INTRA:          -6.331
REMARK INTER:                  -5.987
REMARK INTRA:                  -0.345
REMARK UNBOUND:                -0.505
REMARK SMILES CCCCc1oc(O)c2ccccc12
REMARK SMILES IDX 4 1 5 2 7 3 6 4 9 5 14 6 10 7 13 8 11 9 12 10 8 11 3 13 2 14
REMARK SMILES IDX 1 15
REMARK H PARENT 8 12
REMARK Flexibility Score: inf
ROOT
ATOM      1  C   UNL     1       1.812 -24.260   1.124  1.00  0.00     0.076 C 
ENDROOT
BRANCH   1   2
ATOM      2  C   UNL     1       2.573 -23.560   0.038  1.00  0.00     0.116 A 
ATOM      3  C   UNL     1       4.177 -22.542  -0.958  1.00  0.00     0.290 A 
ATOM      4  O   UNL     1       3.787 -23.061   0.190  1.00  0.00    -0.430 OA
ATOM      5  C   UNL     1       3.186 -22.707  -1.902  1.00  0.00     0.066 A 
ATOM      6  C   UNL     1       2.162 -23.359  -1.268  1.00  0.00     0.027 A 
ATOM      7  C   UNL     1       3.108 -22.347  -3.248  1.00  0.00     0.016 A 
ATOM      8  C   UNL     1       0.984 -23.699  -1.933  1.00  0.00     0.012 A 
ATOM      9  C   UNL     1       1.932 -22.676  -3.946  1.00  0.00     0.001 A 
ATOM     10  C   UNL     1       0.875 -23.349  -3.291  1.00  0.00     0.001 A 
BRANCH   3  11
ATOM     11  O   UNL     1       5.411 -21.929  -1.152  1.00  0.00    -0.480 OA
ATOM     12  H   UNL     1       5.576 -21.320  -1.944  1.00  0.00     0.297 HD
ENDBRANCH   3  11
ENDBRANCH   1   2
BRANCH   1  13
ATOM     13  C   UNL     1       1.293 -25.634   0.670  1.00  0.00     0.008 C 
BRANCH  13  14
ATOM     14  C   UNL     1       2.402 -26.655   0.354  1.00  0.00    -0.003 C 
ATOM     15  C   UNL     1       2.368 -27.136  -1.096  1.00  0.00     0.004 C 
ENDBRANCH  13  14
ENDBRANCH   1  13
TORSDOF 4
ENDMDL
MODEL 9
REMARK VINA RESULT:    -4.699      2.117      4.618
REMARK INTER + INTRA:          -6.165
REMARK INTER:                  -5.697
REMARK INTRA:                  -0.468
REMARK UNBOUND:                -0.505
REMARK SMILES CCCCc1oc(O)c2ccccc12
REMARK SMILES IDX 4 1 5 2 7 3 6 4 9 5 14 6 10 7 13 8 11 9 12 10 8 11 3 13 2 14
REMARK SMILES IDX 1 15
REMARK H PARENT 8 12
REMARK Flexibility Score: inf
ROOT
ATOM      1  C   UNL     1       6.901 -13.396  -7.359  1.00  0.00     0.076 C 
ENDROOT
BRANCH   1   2
ATOM      2  C   UNL     1       7.039 -13.874  -5.945  1.00  0.00     0.116 A 
ATOM      3  C   UNL     1       6.490 -14.641  -4.019  1.00  0.00     0.290 A 
ATOM      4  O   UNL     1       6.024 -14.255  -5.191  1.00  0.00    -0.430 OA
ATOM      5  C   UNL     1       7.863 -14.513  -4.000  1.00  0.00     0.066 A 
ATOM      6  C   UNL     1       8.215 -14.025  -5.230  1.00  0.00     0.027 A 
ATOM      7  C   UNL     1       8.813 -14.789  -3.017  1.00  0.00     0.016 A 
ATOM      8  C   UNL     1       9.546 -13.776  -5.569  1.00  0.00     0.012 A 
ATOM      9  C   UNL     1      10.164 -14.548  -3.329  1.00  0.00     0.001 A 
ATOM     10  C   UNL     1      10.528 -14.044  -4.598  1.00  0.00     0.001 A 
BRANCH   3  11
ATOM     11  O   UNL     1       5.688 -15.105  -2.981  1.00  0.00    -0.480 OA
ATOM     12  H   UNL     1       5.710 -16.076  -2.694  1.00  0.00     0.297 HD
ENDBRANCH   3  11
ENDBRANCH   1   2
BRANCH   1  13
ATOM     13  C   UNL     1       7.373 -14.451  -8.373  1.00  0.00     0.008 C 
BRANCH  13  14
ATOM     14  C   UNL     1       8.645 -14.058  -9.147  1.00  0.00    -0.003 C 
ATOM     15  C   UNL     1       9.745 -15.114  -9.055  1.00  0.00     0.004 C 
ENDBRANCH  13  14
ENDBRANCH   1  13
TORSDOF 4
ENDMDL
