MODEL 1
REMARK VINA RESULT:    -4.183      0.000      0.000
REMARK INTER + INTRA:         -13.432
REMARK INTER:                  -9.564
REMARK INTRA:                  -3.868
REMARK UNBOUND:                -3.868
REMARK SMILES CCCCCCCCCCCCCCCCCCCCCCCC(=O)[O-]
REMARK SMILES IDX 13 1 14 2 15 3 16 4 17 5 18 6 19 7 20 8 21 9 22 10 23 11
REMARK SMILES IDX 24 12 25 13 26 14 12 15 11 16 10 17 9 18 8 19 7 20 6 21 5 22
REMARK SMILES IDX 4 23 3 24 2 25 1 26
REMARK H PARENT
REMARK Flexibility Score: inf
ROOT
ATOM      1  C   UNL     1      59.134  33.502  79.327  1.00  0.00     0.000 C 
ENDROOT
BRANCH   1   2
ATOM      2  C   UNL     1      58.299  34.162  80.436  1.00  0.00     0.000 C 
BRANCH   2   3
ATOM      3  C   UNL     1      59.076  35.276  81.164  1.00  0.00     0.000 C 
BRANCH   3   4
ATOM      4  C   UNL     1      58.356  36.637  81.118  1.00  0.00     0.000 C 
BRANCH   4   5
ATOM      5  C   UNL     1      57.571  36.898  79.812  1.00  0.00     0.000 C 
BRANCH   5   6
ATOM      6  C   UNL     1      58.435  37.328  78.611  1.00  0.00     0.000 C 
BRANCH   6   7
ATOM      7  C   UNL     1      57.611  37.565  77.336  1.00  0.00     0.000 C 
BRANCH   7   8
ATOM      8  C   UNL     1      56.222  36.920  77.461  1.00  0.00     0.000 C 
BRANCH   8   9
ATOM      9  C   UNL     1      55.680  36.419  76.112  1.00  0.00     0.000 C 
BRANCH   9  10
ATOM     10  C   UNL     1      56.463  36.982  74.914  1.00  0.00     0.006 C 
BRANCH  10  11
ATOM     11  C   UNL     1      55.521  37.668  73.920  1.00  0.00     0.053 C 
BRANCH  11  12
ATOM     12  C   UNL     1      55.313  36.808  72.715  1.00  0.00     0.041 C 
ATOM     13  O   UNL     1      55.496  35.565  72.784  1.00  0.00    -0.550 OA
ATOM     14  O   UNL     1      54.958  37.385  71.502  1.00  0.00    -0.550 OA
ENDBRANCH  11  12
ENDBRANCH  10  11
ENDBRANCH   9  10
ENDBRANCH   8   9
ENDBRANCH   7   8
ENDBRANCH   6   7
ENDBRANCH   5   6
ENDBRANCH   4   5
ENDBRANCH   3   4
ENDBRANCH   2   3
ENDBRANCH   1   2
BRANCH   1  15
ATOM     15  C   UNL     1      58.250  32.742  78.326  1.00  0.00     0.000 C 
BRANCH  15  16
ATOM     16  C   UNL     1      57.596  33.698  77.317  1.00  0.00     0.000 C 
BRANCH  16  17
ATOM     17  C   UNL     1      58.349  33.752  75.973  1.00  0.00     0.000 C 
BRANCH  17  18
ATOM     18  C   UNL     1      57.514  33.335  74.747  1.00  0.00    -0.000 C 
BRANCH  18  19
ATOM     19  C   UNL     1      58.376  32.813  73.587  1.00  0.00    -0.000 C 
BRANCH  19  20
ATOM     20  C   UNL     1      59.848  32.700  74.007  1.00  0.00    -0.000 C 
BRANCH  20  21
ATOM     21  C   UNL     1      60.282  31.230  74.095  1.00  0.00    -0.000 C 
BRANCH  21  22
ATOM     22  C   UNL     1      60.709  30.826  75.519  1.00  0.00    -0.000 C 
BRANCH  22  23
ATOM     23  C   UNL     1      59.586  30.139  76.333  1.00  0.00    -0.000 C 
BRANCH  23  24
ATOM     24  C   UNL     1      58.571  29.372  75.463  1.00  0.00    -0.000 C 
BRANCH  24  25
ATOM     25  C   UNL     1      57.098  29.701  75.759  1.00  0.00    -0.003 C 
ATOM     26  C   UNL     1      56.246  29.796  74.492  1.00  0.00     0.004 C 
ENDBRANCH  24  25
ENDBRANCH  23  24
ENDBRANCH  22  23
ENDBRANCH  21  22
ENDBRANCH  20  21
ENDBRANCH  19  20
ENDBRANCH  18  19
ENDBRANCH  17  18
ENDBRANCH  16  17
ENDBRANCH  15  16
ENDBRANCH   1  15
TORSDOF 22
ENDMDL
MODEL 2
REMARK VINA RESULT:    -4.158      2.608      7.342
REMARK INTER + INTRA:         -13.374
REMARK INTER:                  -9.645
REMARK INTRA:                  -3.729
REMARK UNBOUND:                -3.868
REMARK SMILES CCCCCCCCCCCCCCCCCCCCCCCC(=O)[O-]
REMARK SMILES IDX 13 1 14 2 15 3 16 4 17 5 18 6 19 7 20 8 21 9 22 10 23 11
REMARK SMILES IDX 24 12 25 13 26 14 12 15 11 16 10 17 9 18 8 19 7 20 6 21 5 22
REMARK SMILES IDX 4 23 3 24 2 25 1 26
REMARK H PARENT
REMARK Flexibility Score: inf
ROOT
ATOM      1  C   UNL     1      56.431  37.249  73.074  1.00  0.00     0.000 C 
ENDROOT
BRANCH   1   2
ATOM      2  C   UNL     1      56.392  36.113  72.039  1.00  0.00     0.000 C 
BRANCH   2   3
ATOM      3  C   UNL     1      57.789  35.519  71.776  1.00  0.00     0.000 C 
BRANCH   3   4
ATOM      4  C   UNL     1      57.767  34.363  70.758  1.00  0.00     0.000 C 
BRANCH   4   5
ATOM      5  C   UNL     1      57.819  32.955  71.393  1.00  0.00     0.000 C 
BRANCH   5   6
ATOM      6  C   UNL     1      58.080  32.937  72.912  1.00  0.00     0.000 C 
BRANCH   6   7
ATOM      7  C   UNL     1      56.847  32.517  73.725  1.00  0.00     0.000 C 
BRANCH   7   8
ATOM      8  C   UNL     1      56.146  31.317  73.068  1.00  0.00     0.000 C 
BRANCH   8   9
ATOM      9  C   UNL     1      55.988  30.127  74.027  1.00  0.00     0.000 C 
BRANCH   9  10
ATOM     10  C   UNL     1      56.921  30.220  75.245  1.00  0.00     0.006 C 
BRANCH  10  11
ATOM     11  C   UNL     1      57.813  28.978  75.345  1.00  0.00     0.053 C 
BRANCH  11  12
ATOM     12  C   UNL     1      59.244  29.372  75.521  1.00  0.00     0.041 C 
ATOM     13  O   UNL     1      59.985  28.731  76.311  1.00  0.00    -0.550 OA
ATOM     14  O   UNL     1      59.750  30.475  74.843  1.00  0.00    -0.550 OA
ENDBRANCH  11  12
ENDBRANCH  10  11
ENDBRANCH   9  10
ENDBRANCH   8   9
ENDBRANCH   7   8
ENDBRANCH   6   7
ENDBRANCH   5   6
ENDBRANCH   4   5
ENDBRANCH   3   4
ENDBRANCH   2   3
ENDBRANCH   1   2
BRANCH   1  15
ATOM     15  C   UNL     1      55.417  37.021  74.206  1.00  0.00     0.000 C 
BRANCH  15  16
ATOM     16  C   UNL     1      56.120  36.843  75.560  1.00  0.00     0.000 C 
BRANCH  16  17
ATOM     17  C   UNL     1      57.649  36.709  75.423  1.00  0.00     0.000 C 
BRANCH  17  18
ATOM     18  C   UNL     1      58.213  35.327  75.804  1.00  0.00    -0.000 C 
BRANCH  18  19
ATOM     19  C   UNL     1      57.276  34.533  76.728  1.00  0.00    -0.000 C 
BRANCH  19  20
ATOM     20  C   UNL     1      57.974  33.278  77.268  1.00  0.00    -0.000 C 
BRANCH  20  21
ATOM     21  C   UNL     1      57.850  33.195  78.796  1.00  0.00    -0.000 C 
BRANCH  21  22
ATOM     22  C   UNL     1      59.024  33.882  79.521  1.00  0.00    -0.000 C 
BRANCH  22  23
ATOM     23  C   UNL     1      58.655  35.253  80.136  1.00  0.00    -0.000 C 
BRANCH  23  24
ATOM     24  C   UNL     1      59.212  36.456  79.350  1.00  0.00    -0.000 C 
BRANCH  24  25
ATOM     25  C   UNL     1      58.159  37.506  78.956  1.00  0.00    -0.003 C 
ATOM     26  C   UNL     1      56.744  37.116  79.391  1.00  0.00     0.004 C 
ENDBRANCH  24  25
ENDBRANCH  23  24
ENDBRANCH  22  23
ENDBRANCH  21  22
ENDBRANCH  20  21
ENDBRANCH  19  20
ENDBRANCH  18  19
ENDBRANCH  17  18
ENDBRANCH  16  17
ENDBRANCH  15  16
ENDBRANCH   1  15
TORSDOF 22
ENDMDL
MODEL 3
REMARK VINA RESULT:    -4.113      1.119      2.465
REMARK INTER + INTRA:         -13.272
REMARK INTER:                  -9.533
REMARK INTRA:                  -3.739
REMARK UNBOUND:                -3.868
REMARK SMILES CCCCCCCCCCCCCCCCCCCCCCCC(=O)[O-]
REMARK SMILES IDX 13 1 14 2 15 3 16 4 17 5 18 6 19 7 20 8 21 9 22 10 23 11
REMARK SMILES IDX 24 12 25 13 26 14 12 15 11 16 10 17 9 18 8 19 7 20 6 21 5 22
REMARK SMILES IDX 4 23 3 24 2 25 1 26
REMARK H PARENT
REMARK Flexibility Score: inf
ROOT
ATOM      1  C   UNL     1      58.137  32.490  77.589  1.00  0.00     0.000 C 
ENDROOT
BRANCH   1   2
ATOM      2  C   UNL     1      57.826  33.126  78.954  1.00  0.00     0.000 C 
BRANCH   2   3
ATOM      3  C   UNL     1      58.990  33.996  79.468  1.00  0.00     0.000 C 
BRANCH   3   4
ATOM      4  C   UNL     1      58.511  35.223  80.268  1.00  0.00     0.000 C 
BRANCH   4   5
ATOM      5  C   UNL     1      59.125  36.563  79.803  1.00  0.00     0.000 C 
BRANCH   5   6
ATOM      6  C   UNL     1      58.166  37.477  79.016  1.00  0.00     0.000 C 
BRANCH   6   7
ATOM      7  C   UNL     1      56.738  36.917  78.934  1.00  0.00     0.000 C 
BRANCH   7   8
ATOM      8  C   UNL     1      56.345  36.644  77.474  1.00  0.00     0.000 C 
BRANCH   8   9
ATOM      9  C   UNL     1      57.426  37.092  76.477  1.00  0.00     0.000 C 
BRANCH   9  10
ATOM     10  C   UNL     1      56.836  37.741  75.215  1.00  0.00     0.006 C 
BRANCH  10  11
ATOM     11  C   UNL     1      55.818  36.810  74.548  1.00  0.00     0.053 C 
BRANCH  11  12
ATOM     12  C   UNL     1      56.228  36.503  73.144  1.00  0.00     0.041 C 
ATOM     13  O   UNL     1      57.305  36.962  72.684  1.00  0.00    -0.550 OA
ATOM     14  O   UNL     1      55.398  35.744  72.327  1.00  0.00    -0.550 OA
ENDBRANCH  11  12
ENDBRANCH  10  11
ENDBRANCH   9  10
ENDBRANCH   8   9
ENDBRANCH   7   8
ENDBRANCH   6   7
ENDBRANCH   5   6
ENDBRANCH   4   5
ENDBRANCH   3   4
ENDBRANCH   2   3
ENDBRANCH   1   2
BRANCH   1  15
ATOM     15  C   UNL     1      57.869  33.467  76.433  1.00  0.00     0.000 C 
BRANCH  15  16
ATOM     16  C   UNL     1      58.931  33.334  75.331  1.00  0.00     0.000 C 
BRANCH  16  17
ATOM     17  C   UNL     1      58.417  33.788  73.951  1.00  0.00     0.000 C 
BRANCH  17  18
ATOM     18  C   UNL     1      57.965  32.646  73.022  1.00  0.00    -0.000 C 
BRANCH  18  19
ATOM     19  C   UNL     1      56.444  32.428  73.039  1.00  0.00    -0.000 C 
BRANCH  19  20
ATOM     20  C   UNL     1      56.105  30.955  73.304  1.00  0.00    -0.000 C 
BRANCH  20  21
ATOM     21  C   UNL     1      56.555  30.532  74.709  1.00  0.00    -0.000 C 
BRANCH  21  22
ATOM     22  C   UNL     1      56.849  29.023  74.806  1.00  0.00    -0.000 C 
BRANCH  22  23
ATOM     23  C   UNL     1      58.183  28.694  75.516  1.00  0.00    -0.000 C 
BRANCH  23  24
ATOM     24  C   UNL     1      59.331  29.659  75.159  1.00  0.00    -0.000 C 
BRANCH  24  25
ATOM     25  C   UNL     1      60.351  29.886  76.287  1.00  0.00    -0.003 C 
ATOM     26  C   UNL     1      61.510  30.792  75.864  1.00  0.00     0.004 C 
ENDBRANCH  24  25
ENDBRANCH  23  24
ENDBRANCH  22  23
ENDBRANCH  21  22
ENDBRANCH  20  21
ENDBRANCH  19  20
ENDBRANCH  18  19
ENDBRANCH  17  18
ENDBRANCH  16  17
ENDBRANCH  15  16
ENDBRANCH   1  15
TORSDOF 22
ENDMDL
MODEL 4
REMARK VINA RESULT:    -4.085      1.216      2.224
REMARK INTER + INTRA:         -13.206
REMARK INTER:                  -9.383
REMARK INTRA:                  -3.823
REMARK UNBOUND:                -3.868
REMARK SMILES CCCCCCCCCCCCCCCCCCCCCCCC(=O)[O-]
REMARK SMILES IDX 13 1 14 2 15 3 16 4 17 5 18 6 19 7 20 8 21 9 22 10 23 11
REMARK SMILES IDX 24 12 25 13 26 14 12 15 11 16 10 17 9 18 8 19 7 20 6 21 5 22
REMARK SMILES IDX 4 23 3 24 2 25 1 26
REMARK H PARENT
REMARK Flexibility Score: inf
ROOT
ATOM      1  C   UNL     1      58.941  33.634  79.465  1.00  0.00     0.000 C 
ENDROOT
BRANCH   1   2
ATOM      2  C   UNL     1      58.489  34.285  80.782  1.00  0.00     0.000 C 
BRANCH   2   3
ATOM      3  C   UNL     1      59.049  35.712  80.947  1.00  0.00     0.000 C 
BRANCH   3   4
ATOM      4  C   UNL     1      57.965  36.799  80.812  1.00  0.00     0.000 C 
BRANCH   4   5
ATOM      5  C   UNL     1      57.578  37.133  79.354  1.00  0.00     0.000 C 
BRANCH   5   6
ATOM      6  C   UNL     1      58.659  37.883  78.551  1.00  0.00     0.000 C 
BRANCH   6   7
ATOM      7  C   UNL     1      59.509  36.949  77.676  1.00  0.00     0.000 C 
BRANCH   7   8
ATOM      8  C   UNL     1      58.751  36.568  76.394  1.00  0.00     0.000 C 
BRANCH   8   9
ATOM      9  C   UNL     1      57.890  37.721  75.852  1.00  0.00     0.000 C 
BRANCH   9  10
ATOM     10  C   UNL     1      56.437  37.299  75.584  1.00  0.00     0.006 C 
BRANCH  10  11
ATOM     11  C   UNL     1      56.372  35.856  75.074  1.00  0.00     0.053 C 
BRANCH  11  12
ATOM     12  C   UNL     1      56.171  35.832  73.593  1.00  0.00     0.041 C 
ATOM     13  O   UNL     1      55.091  35.408  73.106  1.00  0.00    -0.550 OA
ATOM     14  O   UNL     1      57.196  36.238  72.746  1.00  0.00    -0.550 OA
ENDBRANCH  11  12
ENDBRANCH  10  11
ENDBRANCH   9  10
ENDBRANCH   8   9
ENDBRANCH   7   8
ENDBRANCH   6   7
ENDBRANCH   5   6
ENDBRANCH   4   5
ENDBRANCH   3   4
ENDBRANCH   2   3
ENDBRANCH   1   2
BRANCH   1  15
ATOM     15  C   UNL     1      57.768  33.454  78.488  1.00  0.00     0.000 C 
BRANCH  15  16
ATOM     16  C   UNL     1      58.243  32.882  77.144  1.00  0.00     0.000 C 
BRANCH  16  17
ATOM     17  C   UNL     1      58.048  31.356  77.044  1.00  0.00     0.000 C 
BRANCH  17  18
ATOM     18  C   UNL     1      59.167  30.610  76.294  1.00  0.00    -0.000 C 
BRANCH  18  19
ATOM     19  C   UNL     1      60.224  31.556  75.703  1.00  0.00    -0.000 C 
BRANCH  19  20
ATOM     20  C   UNL     1      60.677  31.074  74.318  1.00  0.00    -0.000 C 
BRANCH  20  21
ATOM     21  C   UNL     1      60.472  32.170  73.262  1.00  0.00    -0.000 C 
BRANCH  21  22
ATOM     22  C   UNL     1      59.269  33.077  73.580  1.00  0.00    -0.000 C 
BRANCH  22  23
ATOM     23  C   UNL     1      57.980  32.689  72.815  1.00  0.00    -0.000 C 
BRANCH  23  24
ATOM     24  C   UNL     1      56.818  32.265  73.734  1.00  0.00    -0.000 C 
BRANCH  24  25
ATOM     25  C   UNL     1      56.004  31.065  73.222  1.00  0.00    -0.003 C 
ATOM     26  C   UNL     1      56.038  29.873  74.182  1.00  0.00     0.004 C 
ENDBRANCH  24  25
ENDBRANCH  23  24
ENDBRANCH  22  23
ENDBRANCH  21  22
ENDBRANCH  20  21
ENDBRANCH  19  20
ENDBRANCH  18  19
ENDBRANCH  17  18
ENDBRANCH  16  17
ENDBRANCH  15  16
ENDBRANCH   1  15
TORSDOF 22
ENDMDL
MODEL 5
REMARK VINA RESULT:    -3.990      1.596      6.519
REMARK INTER + INTRA:         -12.989
REMARK INTER:                  -9.969
REMARK INTRA:                  -3.020
REMARK UNBOUND:                -3.868
REMARK SMILES CCCCCCCCCCCCCCCCCCCCCCCC(=O)[O-]
REMARK SMILES IDX 13 1 14 2 15 3 16 4 17 5 18 6 19 7 20 8 21 9 22 10 23 11
REMARK SMILES IDX 24 12 25 13 26 14 12 15 11 16 10 17 9 18 8 19 7 20 6 21 5 22
REMARK SMILES IDX 4 23 3 24 2 25 1 26
REMARK H PARENT
REMARK Flexibility Score: inf
ROOT
ATOM      1  C   UNL     1      57.715  33.622  77.723  1.00  0.00     0.000 C 
ENDROOT
BRANCH   1   2
ATOM      2  C   UNL     1      57.959  32.687  76.528  1.00  0.00     0.000 C 
BRANCH   2   3
ATOM      3  C   UNL     1      58.413  31.283  76.972  1.00  0.00     0.000 C 
BRANCH   3   4
ATOM      4  C   UNL     1      59.392  30.628  75.979  1.00  0.00     0.000 C 
BRANCH   4   5
ATOM      5  C   UNL     1      58.786  29.461  75.166  1.00  0.00     0.000 C 
BRANCH   5   6
ATOM      6  C   UNL     1      57.363  29.046  75.588  1.00  0.00     0.000 C 
BRANCH   6   7
ATOM      7  C   UNL     1      56.364  29.065  74.421  1.00  0.00     0.000 C 
BRANCH   7   8
ATOM      8  C   UNL     1      55.711  30.450  74.288  1.00  0.00     0.000 C 
BRANCH   8   9
ATOM      9  C   UNL     1      56.065  31.145  72.963  1.00  0.00     0.000 C 
BRANCH   9  10
ATOM     10  C   UNL     1      56.526  32.598  73.162  1.00  0.00     0.006 C 
BRANCH  10  11
ATOM     11  C   UNL     1      58.034  32.729  72.926  1.00  0.00     0.053 C 
BRANCH  11  12
ATOM     12  C   UNL     1      58.303  33.411  71.623  1.00  0.00     0.041 C 
ATOM     13  O   UNL     1      58.564  34.642  71.594  1.00  0.00    -0.550 OA
ATOM     14  O   UNL     1      58.224  32.695  70.434  1.00  0.00    -0.550 OA
ENDBRANCH  11  12
ENDBRANCH  10  11
ENDBRANCH   9  10
ENDBRANCH   8   9
ENDBRANCH   7   8
ENDBRANCH   6   7
ENDBRANCH   5   6
ENDBRANCH   4   5
ENDBRANCH   3   4
ENDBRANCH   2   3
ENDBRANCH   1   2
BRANCH   1  15
ATOM     15  C   UNL     1      58.591  33.246  78.928  1.00  0.00     0.000 C 
BRANCH  15  16
ATOM     16  C   UNL     1      58.034  33.839  80.231  1.00  0.00     0.000 C 
BRANCH  16  17
ATOM     17  C   UNL     1      58.922  34.962  80.802  1.00  0.00     0.000 C 
BRANCH  17  18
ATOM     18  C   UNL     1      58.847  36.297  80.036  1.00  0.00    -0.000 C 
BRANCH  18  19
ATOM     19  C   UNL     1      57.466  36.963  80.133  1.00  0.00    -0.000 C 
BRANCH  19  20
ATOM     20  C   UNL     1      56.838  37.127  78.742  1.00  0.00    -0.000 C 
BRANCH  20  21
ATOM     21  C   UNL     1      57.261  38.457  78.103  1.00  0.00    -0.000 C 
BRANCH  21  22
ATOM     22  C   UNL     1      57.549  38.322  76.595  1.00  0.00    -0.000 C 
BRANCH  22  23
ATOM     23  C   UNL     1      57.527  36.860  76.088  1.00  0.00    -0.000 C 
BRANCH  23  24
ATOM     24  C   UNL     1      56.131  36.376  75.652  1.00  0.00    -0.000 C 
BRANCH  24  25
ATOM     25  C   UNL     1      55.994  36.092  74.146  1.00  0.00    -0.003 C 
ATOM     26  C   UNL     1      56.712  37.129  73.280  1.00  0.00     0.004 C 
ENDBRANCH  24  25
ENDBRANCH  23  24
ENDBRANCH  22  23
ENDBRANCH  21  22
ENDBRANCH  20  21
ENDBRANCH  19  20
ENDBRANCH  18  19
ENDBRANCH  17  18
ENDBRANCH  16  17
ENDBRANCH  15  16
ENDBRANCH   1  15
TORSDOF 22
ENDMDL
MODEL 6
REMARK VINA RESULT:    -3.970      2.382      5.874
REMARK INTER + INTRA:         -12.944
REMARK INTER:                  -9.187
REMARK INTRA:                  -3.757
REMARK UNBOUND:                -3.868
REMARK SMILES CCCCCCCCCCCCCCCCCCCCCCCC(=O)[O-]
REMARK SMILES IDX 13 1 14 2 15 3 16 4 17 5 18 6 19 7 20 8 21 9 22 10 23 11
REMARK SMILES IDX 24 12 25 13 26 14 12 15 11 16 10 17 9 18 8 19 7 20 6 21 5 22
REMARK SMILES IDX 4 23 3 24 2 25 1 26
REMARK H PARENT
REMARK Flexibility Score: inf
ROOT
ATOM      1  C   UNL     1      59.525  37.158  78.275  1.00  0.00     0.000 C 
ENDROOT
BRANCH   1   2
ATOM      2  C   UNL     1      58.844  37.827  79.480  1.00  0.00     0.000 C 
BRANCH   2   3
ATOM      3  C   UNL     1      58.267  36.795  80.469  1.00  0.00     0.000 C 
BRANCH   3   4
ATOM      4  C   UNL     1      57.508  35.653  79.767  1.00  0.00     0.000 C 
BRANCH   4   5
ATOM      5  C   UNL     1      57.995  34.237  80.150  1.00  0.00     0.000 C 
BRANCH   5   6
ATOM      6  C   UNL     1      58.815  33.516  79.062  1.00  0.00     0.000 C 
BRANCH   6   7
ATOM      7  C   UNL     1      57.971  32.549  78.219  1.00  0.00     0.000 C 
BRANCH   7   8
ATOM      8  C   UNL     1      58.512  32.465  76.783  1.00  0.00     0.000 C 
BRANCH   8   9
ATOM      9  C   UNL     1      59.345  31.196  76.539  1.00  0.00     0.000 C 
BRANCH   9  10
ATOM     10  C   UNL     1      58.928  30.452  75.260  1.00  0.00     0.006 C 
BRANCH  10  11
ATOM     11  C   UNL     1      57.577  30.961  74.748  1.00  0.00     0.053 C 
BRANCH  11  12
ATOM     12  C   UNL     1      56.529  29.906  74.895  1.00  0.00     0.041 C 
ATOM     13  O   UNL     1      55.617  29.793  74.035  1.00  0.00    -0.550 OA
ATOM     14  O   UNL     1      56.534  29.071  76.007  1.00  0.00    -0.550 OA
ENDBRANCH  11  12
ENDBRANCH  10  11
ENDBRANCH   9  10
ENDBRANCH   8   9
ENDBRANCH   7   8
ENDBRANCH   6   7
ENDBRANCH   5   6
ENDBRANCH   4   5
ENDBRANCH   3   4
ENDBRANCH   2   3
ENDBRANCH   1   2
BRANCH   1  15
ATOM     15  C   UNL     1      59.450  38.038  77.018  1.00  0.00     0.000 C 
BRANCH  15  16
ATOM     16  C   UNL     1      58.522  39.243  77.233  1.00  0.00     0.000 C 
BRANCH  16  17
ATOM     17  C   UNL     1      58.028  39.858  75.909  1.00  0.00     0.000 C 
BRANCH  17  18
ATOM     18  C   UNL     1      58.665  39.258  74.641  1.00  0.00    -0.000 C 
BRANCH  18  19
ATOM     19  C   UNL     1      57.672  38.427  73.811  1.00  0.00    -0.000 C 
BRANCH  19  20
ATOM     20  C   UNL     1      56.232  38.661  74.286  1.00  0.00    -0.000 C 
BRANCH  20  21
ATOM     21  C   UNL     1      55.537  37.329  74.604  1.00  0.00    -0.000 C 
BRANCH  21  22
ATOM     22  C   UNL     1      55.873  36.811  76.015  1.00  0.00    -0.000 C 
BRANCH  22  23
ATOM     23  C   UNL     1      56.842  35.604  76.019  1.00  0.00    -0.000 C 
BRANCH  23  24
ATOM     24  C   UNL     1      56.654  34.654  74.820  1.00  0.00    -0.000 C 
BRANCH  24  25
ATOM     25  C   UNL     1      57.825  34.641  73.824  1.00  0.00    -0.003 C 
ATOM     26  C   UNL     1      57.378  34.882  72.380  1.00  0.00     0.004 C 
ENDBRANCH  24  25
ENDBRANCH  23  24
ENDBRANCH  22  23
ENDBRANCH  21  22
ENDBRANCH  20  21
ENDBRANCH  19  20
ENDBRANCH  18  19
ENDBRANCH  17  18
ENDBRANCH  16  17
ENDBRANCH  15  16
ENDBRANCH   1  15
TORSDOF 22
ENDMDL
MODEL 7
REMARK VINA RESULT:    -3.945      1.580      3.302
REMARK INTER + INTRA:         -12.886
REMARK INTER:                  -9.124
REMARK INTRA:                  -3.762
REMARK UNBOUND:                -3.868
REMARK SMILES CCCCCCCCCCCCCCCCCCCCCCCC(=O)[O-]
REMARK SMILES IDX 13 1 14 2 15 3 16 4 17 5 18 6 19 7 20 8 21 9 22 10 23 11
REMARK SMILES IDX 24 12 25 13 26 14 12 15 11 16 10 17 9 18 8 19 7 20 6 21 5 22
REMARK SMILES IDX 4 23 3 24 2 25 1 26
REMARK H PARENT
REMARK Flexibility Score: inf
ROOT
ATOM      1  C   UNL     1      57.928  33.613  77.403  1.00  0.00     0.000 C 
ENDROOT
BRANCH   1   2
ATOM      2  C   UNL     1      57.949  33.229  78.892  1.00  0.00     0.000 C 
BRANCH   2   3
ATOM      3  C   UNL     1      59.132  33.871  79.641  1.00  0.00     0.000 C 
BRANCH   3   4
ATOM      4  C   UNL     1      58.682  34.827  80.763  1.00  0.00     0.000 C 
BRANCH   4   5
ATOM      5  C   UNL     1      58.320  36.250  80.279  1.00  0.00     0.000 C 
BRANCH   5   6
ATOM      6  C   UNL     1      59.143  36.756  79.078  1.00  0.00     0.000 C 
BRANCH   6   7
ATOM      7  C   UNL     1      58.267  37.280  77.931  1.00  0.00     0.000 C 
BRANCH   7   8
ATOM      8  C   UNL     1      56.779  37.036  78.229  1.00  0.00     0.000 C 
BRANCH   8   9
ATOM      9  C   UNL     1      56.017  36.478  77.016  1.00  0.00     0.000 C 
BRANCH   9  10
ATOM     10  C   UNL     1      56.343  37.230  75.716  1.00  0.00     0.006 C 
BRANCH  10  11
ATOM     11  C   UNL     1      56.872  36.269  74.647  1.00  0.00     0.053 C 
BRANCH  11  12
ATOM     12  C   UNL     1      57.999  36.894  73.890  1.00  0.00     0.041 C 
ATOM     13  O   UNL     1      58.369  36.410  72.789  1.00  0.00    -0.550 OA
ATOM     14  O   UNL     1      58.670  37.989  74.422  1.00  0.00    -0.550 OA
ENDBRANCH  11  12
ENDBRANCH  10  11
ENDBRANCH   9  10
ENDBRANCH   8   9
ENDBRANCH   7   8
ENDBRANCH   6   7
ENDBRANCH   5   6
ENDBRANCH   4   5
ENDBRANCH   3   4
ENDBRANCH   2   3
ENDBRANCH   1   2
BRANCH   1  15
ATOM     15  C   UNL     1      58.537  32.510  76.523  1.00  0.00     0.000 C 
BRANCH  15  16
ATOM     16  C   UNL     1      58.169  31.112  77.043  1.00  0.00     0.000 C 
BRANCH  16  17
ATOM     17  C   UNL     1      58.454  30.001  76.014  1.00  0.00     0.000 C 
BRANCH  17  18
ATOM     18  C   UNL     1      58.049  30.341  74.567  1.00  0.00    -0.000 C 
BRANCH  18  19
ATOM     19  C   UNL     1      56.527  30.339  74.356  1.00  0.00    -0.000 C 
BRANCH  19  20
ATOM     20  C   UNL     1      56.131  31.282  73.212  1.00  0.00    -0.000 C 
BRANCH  20  21
ATOM     21  C   UNL     1      56.844  32.636  73.347  1.00  0.00    -0.000 C 
BRANCH  21  22
ATOM     22  C   UNL     1      57.396  33.147  72.003  1.00  0.00    -0.000 C 
BRANCH  22  23
ATOM     23  C   UNL     1      58.920  32.933  71.836  1.00  0.00    -0.000 C 
BRANCH  23  24
ATOM     24  C   UNL     1      59.726  33.182  73.126  1.00  0.00    -0.000 C 
BRANCH  24  25
ATOM     25  C   UNL     1      61.155  32.615  73.107  1.00  0.00    -0.003 C 
ATOM     26  C   UNL     1      61.490  31.809  74.364  1.00  0.00     0.004 C 
ENDBRANCH  24  25
ENDBRANCH  23  24
ENDBRANCH  22  23
ENDBRANCH  21  22
ENDBRANCH  20  21
ENDBRANCH  19  20
ENDBRANCH  18  19
ENDBRANCH  17  18
ENDBRANCH  16  17
ENDBRANCH  15  16
ENDBRANCH   1  15
TORSDOF 22
ENDMDL
MODEL 8
REMARK VINA RESULT:    -3.930      2.286      3.278
REMARK INTER + INTRA:         -12.854
REMARK INTER:                 -10.749
REMARK INTRA:                  -2.105
REMARK UNBOUND:                -3.868
REMARK SMILES CCCCCCCCCCCCCCCCCCCCCCCC(=O)[O-]
REMARK SMILES IDX 13 1 14 2 15 3 16 4 17 5 18 6 19 7 20 8 21 9 22 10 23 11
REMARK SMILES IDX 24 12 25 13 26 14 12 15 11 16 10 17 9 18 8 19 7 20 6 21 5 22
REMARK SMILES IDX 4 23 3 24 2 25 1 26
REMARK H PARENT
REMARK Flexibility Score: inf
ROOT
ATOM      1  C   UNL     1      57.863  33.720  78.787  1.00  0.00     0.000 C 
ENDROOT
BRANCH   1   2
ATOM      2  C   UNL     1      59.068  33.876  79.728  1.00  0.00     0.000 C 
BRANCH   2   3
ATOM      3  C   UNL     1      58.819  34.934  80.821  1.00  0.00     0.000 C 
BRANCH   3   4
ATOM      4  C   UNL     1      58.816  36.373  80.271  1.00  0.00     0.000 C 
BRANCH   4   5
ATOM      5  C   UNL     1      57.514  37.158  80.551  1.00  0.00     0.000 C 
BRANCH   5   6
ATOM      6  C   UNL     1      56.595  37.347  79.328  1.00  0.00     0.000 C 
BRANCH   6   7
ATOM      7  C   UNL     1      57.339  37.896  78.101  1.00  0.00     0.000 C 
BRANCH   7   8
ATOM      8  C   UNL     1      57.494  36.806  77.028  1.00  0.00     0.000 C 
BRANCH   8   9
ATOM      9  C   UNL     1      56.147  36.379  76.422  1.00  0.00     0.000 C 
BRANCH   9  10
ATOM     10  C   UNL     1      55.814  37.136  75.127  1.00  0.00     0.006 C 
BRANCH  10  11
ATOM     11  C   UNL     1      56.610  36.573  73.945  1.00  0.00     0.053 C 
BRANCH  11  12
ATOM     12  C   UNL     1      55.719  35.787  73.039  1.00  0.00     0.041 C 
ATOM     13  O   UNL     1      55.318  36.286  71.955  1.00  0.00    -0.550 OA
ATOM     14  O   UNL     1      55.295  34.517  73.410  1.00  0.00    -0.550 OA
ENDBRANCH  11  12
ENDBRANCH  10  11
ENDBRANCH   9  10
ENDBRANCH   8   9
ENDBRANCH   7   8
ENDBRANCH   6   7
ENDBRANCH   5   6
ENDBRANCH   4   5
ENDBRANCH   3   4
ENDBRANCH   2   3
ENDBRANCH   1   2
BRANCH   1  15
ATOM     15  C   UNL     1      58.049  32.544  77.815  1.00  0.00     0.000 C 
BRANCH  15  16
ATOM     16  C   UNL     1      57.998  33.013  76.353  1.00  0.00     0.000 C 
BRANCH  16  17
ATOM     17  C   UNL     1      57.979  31.840  75.353  1.00  0.00     0.000 C 
BRANCH  17  18
ATOM     18  C   UNL     1      57.514  30.495  75.942  1.00  0.00    -0.000 C 
BRANCH  18  19
ATOM     19  C   UNL     1      58.547  29.372  75.755  1.00  0.00    -0.000 C 
BRANCH  19  20
ATOM     20  C   UNL     1      59.969  29.887  76.015  1.00  0.00    -0.000 C 
BRANCH  20  21
ATOM     21  C   UNL     1      60.976  28.728  76.040  1.00  0.00    -0.000 C 
BRANCH  21  22
ATOM     22  C   UNL     1      60.305  27.370  76.321  1.00  0.00    -0.000 C 
BRANCH  22  23
ATOM     23  C   UNL     1      61.094  26.481  77.312  1.00  0.00    -0.000 C 
BRANCH  23  24
ATOM     24  C   UNL     1      61.809  27.275  78.423  1.00  0.00    -0.000 C 
BRANCH  24  25
ATOM     25  C   UNL     1      61.805  26.592  79.801  1.00  0.00    -0.003 C 
ATOM     26  C   UNL     1      63.197  26.527  80.434  1.00  0.00     0.004 C 
ENDBRANCH  24  25
ENDBRANCH  23  24
ENDBRANCH  22  23
ENDBRANCH  21  22
ENDBRANCH  20  21
ENDBRANCH  19  20
ENDBRANCH  18  19
ENDBRANCH  17  18
ENDBRANCH  16  17
ENDBRANCH  15  16
ENDBRANCH   1  15
TORSDOF 22
ENDMDL
MODEL 9
REMARK VINA RESULT:    -3.901      2.554      3.774
REMARK INTER + INTRA:         -12.786
REMARK INTER:                  -8.617
REMARK INTRA:                  -4.169
REMARK UNBOUND:                -3.868
REMARK SMILES CCCCCCCCCCCCCCCCCCCCCCCC(=O)[O-]
REMARK SMILES IDX 13 1 14 2 15 3 16 4 17 5 18 6 19 7 20 8 21 9 22 10 23 11
REMARK SMILES IDX 24 12 25 13 26 14 12 15 11 16 10 17 9 18 8 19 7 20 6 21 5 22
REMARK SMILES IDX 4 23 3 24 2 25 1 26
REMARK H PARENT
REMARK Flexibility Score: inf
ROOT
ATOM      1  C   UNL     1      58.420  34.545  80.382  1.00  0.00     0.000 C 
ENDROOT
BRANCH   1   2
ATOM      2  C   UNL     1      59.008  35.789  79.697  1.00  0.00     0.000 C 
BRANCH   2   3
ATOM      3  C   UNL     1      58.319  37.087  80.160  1.00  0.00     0.000 C 
BRANCH   3   4
ATOM      4  C   UNL     1      56.890  37.238  79.604  1.00  0.00     0.000 C 
BRANCH   4   5
ATOM      5  C   UNL     1      56.827  37.578  78.098  1.00  0.00     0.000 C 
BRANCH   5   6
ATOM      6  C   UNL     1      55.897  36.672  77.266  1.00  0.00     0.000 C 
BRANCH   6   7
ATOM      7  C   UNL     1      56.325  36.566  75.795  1.00  0.00     0.000 C 
BRANCH   7   8
ATOM      8  C   UNL     1      57.221  37.751  75.404  1.00  0.00     0.000 C 
BRANCH   8   9
ATOM      9  C   UNL     1      58.521  37.306  74.714  1.00  0.00     0.000 C 
BRANCH   9  10
ATOM     10  C   UNL     1      59.485  36.590  75.673  1.00  0.00     0.006 C 
BRANCH  10  11
ATOM     11  C   UNL     1      60.182  37.594  76.597  1.00  0.00     0.053 C 
BRANCH  11  12
ATOM     12  C   UNL     1      60.989  38.567  75.800  1.00  0.00     0.041 C 
ATOM     13  O   UNL     1      60.691  39.790  75.802  1.00  0.00    -0.550 OA
ATOM     14  O   UNL     1      62.048  38.118  75.019  1.00  0.00    -0.550 OA
ENDBRANCH  11  12
ENDBRANCH  10  11
ENDBRANCH   9  10
ENDBRANCH   8   9
ENDBRANCH   7   8
ENDBRANCH   6   7
ENDBRANCH   5   6
ENDBRANCH   4   5
ENDBRANCH   3   4
ENDBRANCH   2   3
ENDBRANCH   1   2
BRANCH   1  15
ATOM     15  C   UNL     1      57.997  33.479  79.358  1.00  0.00     0.000 C 
BRANCH  15  16
ATOM     16  C   UNL     1      58.060  34.025  77.924  1.00  0.00     0.000 C 
BRANCH  16  17
ATOM     17  C   UNL     1      57.998  32.911  76.860  1.00  0.00     0.000 C 
BRANCH  17  18
ATOM     18  C   UNL     1      58.369  31.507  77.372  1.00  0.00    -0.000 C 
BRANCH  18  19
ATOM     19  C   UNL     1      59.375  30.786  76.461  1.00  0.00    -0.000 C 
BRANCH  19  20
ATOM     20  C   UNL     1      59.213  31.236  75.003  1.00  0.00    -0.000 C 
BRANCH  20  21
ATOM     21  C   UNL     1      60.476  31.956  74.507  1.00  0.00    -0.000 C 
BRANCH  21  22
ATOM     22  C   UNL     1      60.154  33.260  73.753  1.00  0.00    -0.000 C 
BRANCH  22  23
ATOM     23  C   UNL     1      58.925  33.150  72.820  1.00  0.00    -0.000 C 
BRANCH  23  24
ATOM     24  C   UNL     1      57.772  34.102  73.195  1.00  0.00    -0.000 C 
BRANCH  24  25
ATOM     25  C   UNL     1      56.402  33.420  73.345  1.00  0.00    -0.003 C 
ATOM     26  C   UNL     1      56.432  31.940  72.959  1.00  0.00     0.004 C 
ENDBRANCH  24  25
ENDBRANCH  23  24
ENDBRANCH  22  23
ENDBRANCH  21  22
ENDBRANCH  20  21
ENDBRANCH  19  20
ENDBRANCH  18  19
ENDBRANCH  17  18
ENDBRANCH  16  17
ENDBRANCH  15  16
ENDBRANCH   1  15
TORSDOF 22
ENDMDL
