MODEL 1
REMARK VINA RESULT:    -3.658      0.000      0.000
REMARK INTER + INTRA:          -4.420
REMARK INTER:                  -4.299
REMARK INTRA:                  -0.121
REMARK UNBOUND:                -0.121
REMARK SMILES O=C([O-])CCC(=O)[O-]
REMARK SMILES IDX 4 1 2 2 1 3 3 4 5 5 6 6 7 7 8 8
REMARK H PARENT
REMARK Flexibility Score: inf
ROOT
ATOM      1  C   UNL     1       6.737  -2.557   8.880  1.00  0.00     0.059 C 
ENDROOT
BRANCH   1   2
ATOM      2  C   UNL     1       5.303  -2.444   9.300  1.00  0.00     0.042 C 
ATOM      3  O   UNL     1       4.979  -2.626  10.504  1.00  0.00    -0.550 OA
ATOM      4  O   UNL     1       4.331  -2.096   8.371  1.00  0.00    -0.550 OA
ENDBRANCH   1   2
BRANCH   1   5
ATOM      5  C   UNL     1       6.986  -1.866   7.536  1.00  0.00     0.059 C 
BRANCH   5   6
ATOM      6  C   UNL     1       7.389  -0.434   7.718  1.00  0.00     0.042 C 
ATOM      7  O   UNL     1       8.509  -0.150   8.218  1.00  0.00    -0.550 OA
ATOM      8  O   UNL     1       6.544   0.584   7.296  1.00  0.00    -0.550 OA
ENDBRANCH   5   6
ENDBRANCH   1   5
TORSDOF 3
ENDMDL
MODEL 2
REMARK VINA RESULT:    -3.657      0.887      4.011
REMARK INTER + INTRA:          -4.418
REMARK INTER:                  -4.389
REMARK INTRA:                  -0.030
REMARK UNBOUND:                -0.121
REMARK SMILES O=C([O-])CCC(=O)[O-]
REMARK SMILES IDX 4 1 2 2 1 3 3 4 5 5 6 6 7 7 8 8
REMARK H PARENT
REMARK Flexibility Score: inf
ROOT
ATOM      1  C   UNL     1       6.632  -1.710   7.860  1.00  0.00     0.059 C 
ENDROOT
BRANCH   1   2
ATOM      2  C   UNL     1       7.235  -0.345   7.718  1.00  0.00     0.042 C 
ATOM      3  O   UNL     1       6.542   0.611   7.278  1.00  0.00    -0.550 OA
ATOM      4  O   UNL     1       8.548  -0.120   8.109  1.00  0.00    -0.550 OA
ENDBRANCH   1   2
BRANCH   1   5
ATOM      5  C   UNL     1       5.208  -1.641   8.420  1.00  0.00     0.059 C 
BRANCH   5   6
ATOM      6  C   UNL     1       4.849  -2.889   9.169  1.00  0.00     0.042 C 
ATOM      7  O   UNL     1       4.892  -2.908  10.426  1.00  0.00    -0.550 OA
ATOM      8  O   UNL     1       4.426  -4.016   8.476  1.00  0.00    -0.550 OA
ENDBRANCH   5   6
ENDBRANCH   1   5
TORSDOF 3
ENDMDL
MODEL 3
REMARK VINA RESULT:    -3.638      1.050      3.831
REMARK INTER + INTRA:          -4.397
REMARK INTER:                  -4.298
REMARK INTRA:                  -0.099
REMARK UNBOUND:                -0.121
REMARK SMILES O=C([O-])CCC(=O)[O-]
REMARK SMILES IDX 4 1 2 2 1 3 3 4 5 5 6 6 7 7 8 8
REMARK H PARENT
REMARK Flexibility Score: inf
ROOT
ATOM      1  C   UNL     1       6.897  -1.882   7.622  1.00  0.00     0.059 C 
ENDROOT
BRANCH   1   2
ATOM      2  C   UNL     1       7.326  -0.450   7.726  1.00  0.00     0.042 C 
ATOM      3  O   UNL     1       8.463  -0.160   8.184  1.00  0.00    -0.550 OA
ATOM      4  O   UNL     1       6.486   0.562   7.279  1.00  0.00    -0.550 OA
ENDBRANCH   1   2
BRANCH   1   5
ATOM      5  C   UNL     1       6.057  -2.308   8.830  1.00  0.00     0.059 C 
BRANCH   5   6
ATOM      6  C   UNL     1       4.675  -2.719   8.425  1.00  0.00     0.042 C 
ATOM      7  O   UNL     1       3.824  -1.849   8.103  1.00  0.00    -0.550 OA
ATOM      8  O   UNL     1       4.340  -4.066   8.363  1.00  0.00    -0.550 OA
ENDBRANCH   5   6
ENDBRANCH   1   5
TORSDOF 3
ENDMDL
MODEL 4
REMARK VINA RESULT:    -3.406      1.554      2.114
REMARK INTER + INTRA:          -4.123
REMARK INTER:                  -4.040
REMARK INTRA:                  -0.084
REMARK UNBOUND:                -0.121
REMARK SMILES O=C([O-])CCC(=O)[O-]
REMARK SMILES IDX 4 1 2 2 1 3 3 4 5 5 6 6 7 7 8 8
REMARK H PARENT
REMARK Flexibility Score: inf
ROOT
ATOM      1  C   UNL     1       5.573  -2.341   9.205  1.00  0.00     0.059 C 
ENDROOT
BRANCH   1   2
ATOM      2  C   UNL     1       5.147  -3.614   8.538  1.00  0.00     0.042 C 
ATOM      3  O   UNL     1       3.961  -3.752   8.134  1.00  0.00    -0.550 OA
ATOM      4  O   UNL     1       6.069  -4.630   8.324  1.00  0.00    -0.550 OA
ENDBRANCH   1   2
BRANCH   1   5
ATOM      5  C   UNL     1       5.330  -1.125   8.307  1.00  0.00     0.059 C 
BRANCH   5   6
ATOM      6  C   UNL     1       6.617  -0.522   7.835  1.00  0.00     0.042 C 
ATOM      7  O   UNL     1       6.617   0.587   7.238  1.00  0.00    -0.550 OA
ATOM      8  O   UNL     1       7.821  -1.165   8.091  1.00  0.00    -0.550 OA
ENDBRANCH   5   6
ENDBRANCH   1   5
TORSDOF 3
ENDMDL
MODEL 5
REMARK VINA RESULT:    -3.347      2.034      3.780
REMARK INTER + INTRA:          -4.054
REMARK INTER:                  -3.943
REMARK INTRA:                  -0.111
REMARK UNBOUND:                -0.121
REMARK SMILES O=C([O-])CCC(=O)[O-]
REMARK SMILES IDX 4 1 2 2 1 3 3 4 5 5 6 6 7 7 8 8
REMARK H PARENT
REMARK Flexibility Score: inf
ROOT
ATOM      1  C   UNL     1       6.190  -1.477   8.120  1.00  0.00     0.059 C 
ENDROOT
BRANCH   1   2
ATOM      2  C   UNL     1       6.993  -0.277   7.719  1.00  0.00     0.042 C 
ATOM      3  O   UNL     1       6.441   0.684   7.119  1.00  0.00    -0.550 OA
ATOM      4  O   UNL     1       8.341  -0.202   8.044  1.00  0.00    -0.550 OA
ENDBRANCH   1   2
BRANCH   1   5
ATOM      5  C   UNL     1       7.068  -2.552   8.769  1.00  0.00     0.059 C 
BRANCH   5   6
ATOM      6  C   UNL     1       7.330  -3.690   7.831  1.00  0.00     0.042 C 
ATOM      7  O   UNL     1       7.980  -3.500   6.770  1.00  0.00    -0.550 OA
ATOM      8  O   UNL     1       6.893  -4.969   8.151  1.00  0.00    -0.550 OA
ENDBRANCH   5   6
ENDBRANCH   1   5
TORSDOF 3
ENDMDL
MODEL 6
REMARK VINA RESULT:    -3.331     13.678     14.324
REMARK INTER + INTRA:          -4.036
REMARK INTER:                  -3.893
REMARK INTRA:                  -0.143
REMARK UNBOUND:                -0.121
REMARK SMILES O=C([O-])CCC(=O)[O-]
REMARK SMILES IDX 4 1 2 2 1 3 3 4 5 5 6 6 7 7 8 8
REMARK H PARENT
REMARK Flexibility Score: inf
ROOT
ATOM      1  C   UNL     1      -3.811   2.968  -1.432  1.00  0.00     0.059 C 
ENDROOT
BRANCH   1   2
ATOM      2  C   UNL     1      -5.002   2.557  -0.621  1.00  0.00     0.042 C 
ATOM      3  O   UNL     1      -5.124   1.364  -0.233  1.00  0.00    -0.550 OA
ATOM      4  O   UNL     1      -5.956   3.499  -0.259  1.00  0.00    -0.550 OA
ENDBRANCH   1   2
BRANCH   1   5
ATOM      5  C   UNL     1      -2.570   3.157  -0.554  1.00  0.00     0.059 C 
BRANCH   5   6
ATOM      6  C   UNL     1      -2.700   4.355   0.336  1.00  0.00     0.042 C 
ATOM      7  O   UNL     1      -2.701   4.218   1.587  1.00  0.00    -0.550 OA
ATOM      8  O   UNL     1      -2.779   5.627  -0.218  1.00  0.00    -0.550 OA
ENDBRANCH   5   6
ENDBRANCH   1   5
TORSDOF 3
ENDMDL
MODEL 7
REMARK VINA RESULT:    -3.295     13.774     14.674
REMARK INTER + INTRA:          -3.993
REMARK INTER:                  -3.829
REMARK INTRA:                  -0.164
REMARK UNBOUND:                -0.121
REMARK SMILES O=C([O-])CCC(=O)[O-]
REMARK SMILES IDX 4 1 2 2 1 3 3 4 5 5 6 6 7 7 8 8
REMARK H PARENT
REMARK Flexibility Score: inf
ROOT
ATOM      1  C   UNL     1      -2.655   3.275  -0.597  1.00  0.00     0.059 C 
ENDROOT
BRANCH   1   2
ATOM      2  C   UNL     1      -2.758   4.425   0.359  1.00  0.00     0.042 C 
ATOM      3  O   UNL     1      -2.650   4.230   1.599  1.00  0.00    -0.550 OA
ATOM      4  O   UNL     1      -2.932   5.716  -0.122  1.00  0.00    -0.550 OA
ENDBRANCH   1   2
BRANCH   1   5
ATOM      5  C   UNL     1      -3.916   3.142  -1.457  1.00  0.00     0.059 C 
BRANCH   5   6
ATOM      6  C   UNL     1      -5.093   2.699  -0.643  1.00  0.00     0.042 C 
ATOM      7  O   UNL     1      -5.158   1.518  -0.212  1.00  0.00    -0.550 OA
ATOM      8  O   UNL     1      -6.099   3.604  -0.327  1.00  0.00    -0.550 OA
ENDBRANCH   5   6
ENDBRANCH   1   5
TORSDOF 3
ENDMDL
MODEL 8
REMARK VINA RESULT:    -3.265     13.738     14.680
REMARK INTER + INTRA:          -3.958
REMARK INTER:                  -3.800
REMARK INTRA:                  -0.157
REMARK UNBOUND:                -0.121
REMARK SMILES O=C([O-])CCC(=O)[O-]
REMARK SMILES IDX 4 1 2 2 1 3 3 4 5 5 6 6 7 7 8 8
REMARK H PARENT
REMARK Flexibility Score: inf
ROOT
ATOM      1  C   UNL     1      -2.584   3.299  -0.747  1.00  0.00     0.059 C 
ENDROOT
BRANCH   1   2
ATOM      2  C   UNL     1      -2.675   4.439   0.222  1.00  0.00     0.042 C 
ATOM      3  O   UNL     1      -2.792   5.621  -0.199  1.00  0.00    -0.550 OA
ATOM      4  O   UNL     1      -2.673   4.192   1.588  1.00  0.00    -0.550 OA
ENDBRANCH   1   2
BRANCH   1   5
ATOM      5  C   UNL     1      -3.890   3.116  -1.527  1.00  0.00     0.059 C 
BRANCH   5   6
ATOM      6  C   UNL     1      -5.012   2.689  -0.632  1.00  0.00     0.042 C 
ATOM      7  O   UNL     1      -5.076   1.503  -0.218  1.00  0.00    -0.550 OA
ATOM      8  O   UNL     1      -5.964   3.614  -0.223  1.00  0.00    -0.550 OA
ENDBRANCH   5   6
ENDBRANCH   1   5
TORSDOF 3
ENDMDL
MODEL 9
REMARK VINA RESULT:    -3.164     11.341     12.393
REMARK INTER + INTRA:          -3.839
REMARK INTER:                  -3.806
REMARK INTRA:                  -0.034
REMARK UNBOUND:                -0.121
REMARK SMILES O=C([O-])CCC(=O)[O-]
REMARK SMILES IDX 4 1 2 2 1 3 3 4 5 5 6 6 7 7 8 8
REMARK H PARENT
REMARK Flexibility Score: inf
ROOT
ATOM      1  C   UNL     1       0.225   3.883   0.035  1.00  0.00     0.059 C 
ENDROOT
BRANCH   1   2
ATOM      2  C   UNL     1       1.236   2.788  -0.124  1.00  0.00     0.042 C 
ATOM      3  O   UNL     1       2.466   3.042  -0.033  1.00  0.00    -0.550 OA
ATOM      4  O   UNL     1       0.817   1.480  -0.331  1.00  0.00    -0.550 OA
ENDBRANCH   1   2
BRANCH   1   5
ATOM      5  C   UNL     1      -1.180   3.414  -0.354  1.00  0.00     0.059 C 
BRANCH   5   6
ATOM      6  C   UNL     1      -2.240   4.266   0.275  1.00  0.00     0.042 C 
ATOM      7  O   UNL     1      -2.873   3.850   1.281  1.00  0.00    -0.550 OA
ATOM      8  O   UNL     1      -2.498   5.536  -0.225  1.00  0.00    -0.550 OA
ENDBRANCH   5   6
ENDBRANCH   1   5
TORSDOF 3
ENDMDL
