MODEL 1
REMARK VINA RESULT:    -3.504      0.000      0.000
REMARK INTER + INTRA:          -3.872
REMARK INTER:                  -3.709
REMARK INTRA:                  -0.164
REMARK UNBOUND:                -0.164
REMARK SMILES CC(C)[C@H]1CC[C@H](C)CC1=O
REMARK SMILES IDX 8 1 7 2 6 3 5 4 4 5 10 6 11 7 9 8 2 9 1 10 3 11
REMARK H PARENT
REMARK Flexibility Score: inf
ROOT
ATOM      1  C   UNL     1     140.036 148.509 136.875  1.00  0.00     0.008 C 
ATOM      2  C   UNL     1     139.050 147.413 137.296  1.00  0.00    -0.007 C 
ATOM      3  C   UNL     1     139.797 146.235 137.948  1.00  0.00     0.004 C 
ATOM      4  C   UNL     1     138.819 145.114 138.331  1.00  0.00     0.012 C 
ATOM      5  C   UNL     1     137.739 145.617 139.319  1.00  0.00     0.058 C 
ATOM      6  C   UNL     1     137.100 146.886 138.777  1.00  0.00     0.136 C 
ATOM      7  O   UNL     1     135.897 147.078 138.865  1.00  0.00    -0.299 OA
ATOM      8  C   UNL     1     137.988 147.983 138.253  1.00  0.00     0.079 C 
ENDROOT
BRANCH   5   9
ATOM      9  C   UNL     1     136.696 144.521 139.707  1.00  0.00    -0.007 C 
ATOM     10  C   UNL     1     137.018 143.132 139.130  1.00  0.00     0.008 C 
ATOM     11  C   UNL     1     136.504 144.428 141.229  1.00  0.00     0.008 C 
ENDBRANCH   5   9
TORSDOF 1
ENDMDL
MODEL 2
REMARK VINA RESULT:    -3.492     10.965     12.802
REMARK INTER + INTRA:          -3.860
REMARK INTER:                  -3.696
REMARK INTRA:                  -0.165
REMARK UNBOUND:                -0.164
REMARK SMILES CC(C)[C@H]1CC[C@H](C)CC1=O
REMARK SMILES IDX 8 1 7 2 6 3 5 4 4 5 10 6 11 7 9 8 2 9 1 10 3 11
REMARK H PARENT
REMARK Flexibility Score: inf
ROOT
ATOM      1  C   UNL     1     141.403 133.098 136.876  1.00  0.00     0.008 C 
ATOM      2  C   UNL     1     142.422 134.156 137.315  1.00  0.00    -0.007 C 
ATOM      3  C   UNL     1     141.712 135.341 137.995  1.00  0.00     0.004 C 
ATOM      4  C   UNL     1     142.723 136.425 138.396  1.00  0.00     0.012 C 
ATOM      5  C   UNL     1     143.792 135.871 139.369  1.00  0.00     0.058 C 
ATOM      6  C   UNL     1     144.391 134.596 138.798  1.00  0.00     0.136 C 
ATOM      7  O   UNL     1     145.589 134.368 138.876  1.00  0.00    -0.299 OA
ATOM      8  C   UNL     1     143.471 133.536 138.255  1.00  0.00     0.079 C 
ENDROOT
BRANCH   5   9
ATOM      9  C   UNL     1     144.867 136.928 139.775  1.00  0.00    -0.007 C 
ATOM     10  C   UNL     1     144.597 138.332 139.208  1.00  0.00     0.008 C 
ATOM     11  C   UNL     1     145.050 137.001 141.299  1.00  0.00     0.008 C 
ENDBRANCH   5   9
TORSDOF 1
ENDMDL
MODEL 3
REMARK VINA RESULT:    -3.481      7.692      9.064
REMARK INTER + INTRA:          -3.848
REMARK INTER:                  -3.686
REMARK INTRA:                  -0.162
REMARK UNBOUND:                -0.164
REMARK SMILES CC(C)[C@H]1CC[C@H](C)CC1=O
REMARK SMILES IDX 8 1 7 2 6 3 5 4 4 5 10 6 11 7 9 8 2 9 1 10 3 11
REMARK H PARENT
REMARK Flexibility Score: inf
ROOT
ATOM      1  C   UNL     1     148.507 141.396 136.876  1.00  0.00     0.008 C 
ATOM      2  C   UNL     1     147.415 142.395 137.274  1.00  0.00    -0.007 C 
ATOM      3  C   UNL     1     146.219 141.664 137.914  1.00  0.00     0.004 C 
ATOM      4  C   UNL     1     145.103 142.655 138.273  1.00  0.00     0.012 C 
ATOM      5  C   UNL     1     145.602 143.736 139.262  1.00  0.00     0.058 C 
ATOM      6  C   UNL     1     146.884 144.359 138.736  1.00  0.00     0.136 C 
ATOM      7  O   UNL     1     147.086 145.561 138.818  1.00  0.00    -0.299 OA
ATOM      8  C   UNL     1     147.980 143.458 138.233  1.00  0.00     0.079 C 
ENDROOT
BRANCH   5   9
ATOM      9  C   UNL     1     144.510 144.792 139.627  1.00  0.00    -0.007 C 
ATOM     10  C   UNL     1     143.119 144.462 139.059  1.00  0.00     0.008 C 
ATOM     11  C   UNL     1     144.419 145.019 141.144  1.00  0.00     0.008 C 
ENDBRANCH   5   9
TORSDOF 1
ENDMDL
MODEL 4
REMARK VINA RESULT:    -3.471      7.574      8.966
REMARK INTER + INTRA:          -3.837
REMARK INTER:                  -3.672
REMARK INTRA:                  -0.165
REMARK UNBOUND:                -0.164
REMARK SMILES CC(C)[C@H]1CC[C@H](C)CC1=O
REMARK SMILES IDX 8 1 7 2 6 3 5 4 4 5 10 6 11 7 9 8 2 9 1 10 3 11
REMARK H PARENT
REMARK Flexibility Score: inf
ROOT
ATOM      1  C   UNL     1     133.131 140.208 136.875  1.00  0.00     0.008 C 
ATOM      2  C   UNL     1     134.196 139.186 137.289  1.00  0.00    -0.007 C 
ATOM      3  C   UNL     1     135.372 139.886 137.997  1.00  0.00     0.004 C 
ATOM      4  C   UNL     1     136.463 138.874 138.373  1.00  0.00     0.012 C 
ATOM      5  C   UNL     1     135.914 137.771 139.309  1.00  0.00     0.058 C 
ATOM      6  C   UNL     1     134.648 137.177 138.713  1.00  0.00     0.136 C 
ATOM      7  O   UNL     1     134.432 135.975 138.753  1.00  0.00    -0.299 OA
ATOM      8  C   UNL     1     133.582 138.103 138.193  1.00  0.00     0.079 C 
ENDROOT
BRANCH   5   9
ATOM      9  C   UNL     1     136.980 136.693 139.688  1.00  0.00    -0.007 C 
ATOM     10  C   UNL     1     138.378 136.980 139.113  1.00  0.00     0.008 C 
ATOM     11  C   UNL     1     137.067 136.486 141.208  1.00  0.00     0.008 C 
ENDBRANCH   5   9
TORSDOF 1
ENDMDL
MODEL 5
REMARK VINA RESULT:    -3.292      2.061      2.970
REMARK INTER + INTRA:          -3.648
REMARK INTER:                  -3.482
REMARK INTRA:                  -0.166
REMARK UNBOUND:                -0.164
REMARK SMILES CC(C)[C@H]1CC[C@H](C)CC1=O
REMARK SMILES IDX 8 1 7 2 6 3 5 4 4 5 10 6 11 7 9 8 2 9 1 10 3 11
REMARK H PARENT
REMARK Flexibility Score: inf
ROOT
ATOM      1  C   UNL     1     137.527 150.467 137.796  1.00  0.00     0.008 C 
ATOM      2  C   UNL     1     137.986 149.006 137.735  1.00  0.00    -0.007 C 
ATOM      3  C   UNL     1     139.507 148.925 137.510  1.00  0.00     0.004 C 
ATOM      4  C   UNL     1     139.966 147.464 137.402  1.00  0.00     0.012 C 
ATOM      5  C   UNL     1     139.617 146.665 138.681  1.00  0.00     0.058 C 
ATOM      6  C   UNL     1     138.150 146.866 139.026  1.00  0.00     0.136 C 
ATOM      7  O   UNL     1     137.457 145.938 139.416  1.00  0.00    -0.299 OA
ATOM      8  C   UNL     1     137.584 148.260 139.020  1.00  0.00     0.079 C 
ENDROOT
BRANCH   5   9
ATOM      9  C   UNL     1     140.029 145.160 138.602  1.00  0.00    -0.007 C 
ATOM     10  C   UNL     1     139.793 144.527 137.220  1.00  0.00     0.008 C 
ATOM     11  C   UNL     1     141.486 144.943 139.040  1.00  0.00     0.008 C 
ENDBRANCH   5   9
TORSDOF 1
ENDMDL
MODEL 6
REMARK VINA RESULT:    -3.269      2.356      3.791
REMARK INTER + INTRA:          -3.624
REMARK INTER:                  -3.448
REMARK INTRA:                  -0.176
REMARK UNBOUND:                -0.164
REMARK SMILES CC(C)[C@H]1CC[C@H](C)CC1=O
REMARK SMILES IDX 8 1 7 2 6 3 5 4 4 5 10 6 11 7 9 8 2 9 1 10 3 11
REMARK H PARENT
REMARK Flexibility Score: inf
ROOT
ATOM      1  C   UNL     1     135.496 150.074 139.211  1.00  0.00     0.008 C 
ATOM      2  C   UNL     1     136.734 149.171 139.156  1.00  0.00    -0.007 C 
ATOM      3  C   UNL     1     136.318 147.690 139.068  1.00  0.00     0.004 C 
ATOM      4  C   UNL     1     137.553 146.778 139.058  1.00  0.00     0.012 C 
ATOM      5  C   UNL     1     138.484 147.096 137.863  1.00  0.00     0.058 C 
ATOM      6  C   UNL     1     138.773 148.588 137.824  1.00  0.00     0.136 C 
ATOM      7  O   UNL     1     139.890 149.011 137.566  1.00  0.00    -0.299 OA
ATOM      8  C   UNL     1     137.630 149.557 137.966  1.00  0.00     0.079 C 
ENDROOT
BRANCH   5   9
ATOM      9  C   UNL     1     139.776 146.219 137.833  1.00  0.00    -0.007 C 
ATOM     10  C   UNL     1     140.316 145.869 139.231  1.00  0.00     0.008 C 
ATOM     11  C   UNL     1     139.577 144.937 137.009  1.00  0.00     0.008 C 
ENDBRANCH   5   9
TORSDOF 1
ENDMDL
MODEL 7
REMARK VINA RESULT:    -3.263      1.820      3.951
REMARK INTER + INTRA:          -3.618
REMARK INTER:                  -3.470
REMARK INTRA:                  -0.148
REMARK UNBOUND:                -0.164
REMARK SMILES CC(C)[C@H]1CC[C@H](C)CC1=O
REMARK SMILES IDX 8 1 7 2 6 3 5 4 4 5 10 6 11 7 9 8 2 9 1 10 3 11
REMARK H PARENT
REMARK Flexibility Score: inf
ROOT
ATOM      1  C   UNL     1     140.791 145.221 138.746  1.00  0.00     0.008 C 
ATOM      2  C   UNL     1     139.899 146.461 138.875  1.00  0.00    -0.007 C 
ATOM      3  C   UNL     1     139.856 147.237 137.545  1.00  0.00     0.004 C 
ATOM      4  C   UNL     1     139.001 148.505 137.681  1.00  0.00     0.012 C 
ATOM      5  C   UNL     1     137.549 148.167 138.098  1.00  0.00     0.058 C 
ATOM      6  C   UNL     1     137.565 147.255 139.315  1.00  0.00     0.136 C 
ATOM      7  O   UNL     1     136.772 147.407 140.232  1.00  0.00    -0.299 OA
ATOM      8  C   UNL     1     138.481 146.061 139.320  1.00  0.00     0.079 C 
ENDROOT
BRANCH   5   9
ATOM      9  C   UNL     1     136.650 149.430 138.289  1.00  0.00    -0.007 C 
ATOM     10  C   UNL     1     137.290 150.728 137.765  1.00  0.00     0.008 C 
ATOM     11  C   UNL     1     135.259 149.240 137.664  1.00  0.00     0.008 C 
ENDBRANCH   5   9
TORSDOF 1
ENDMDL
MODEL 8
REMARK VINA RESULT:    -3.253      8.795      9.969
REMARK INTER + INTRA:          -3.607
REMARK INTER:                  -3.438
REMARK INTRA:                  -0.169
REMARK UNBOUND:                -0.164
REMARK SMILES CC(C)[C@H]1CC[C@H](C)CC1=O
REMARK SMILES IDX 8 1 7 2 6 3 5 4 4 5 10 6 11 7 9 8 2 9 1 10 3 11
REMARK H PARENT
REMARK Flexibility Score: inf
ROOT
ATOM      1  C   UNL     1     150.474 144.001 137.983  1.00  0.00     0.008 C 
ATOM      2  C   UNL     1     149.013 143.565 137.825  1.00  0.00    -0.007 C 
ATOM      3  C   UNL     1     148.921 142.038 137.644  1.00  0.00     0.004 C 
ATOM      4  C   UNL     1     147.464 141.601 137.439  1.00  0.00     0.012 C 
ATOM      5  C   UNL     1     146.576 142.006 138.641  1.00  0.00     0.058 C 
ATOM      6  C   UNL     1     146.779 143.480 138.952  1.00  0.00     0.136 C 
ATOM      7  O   UNL     1     145.837 144.201 139.247  1.00  0.00    -0.299 OA
ATOM      8  C   UNL     1     148.180 144.022 139.035  1.00  0.00     0.079 C 
ENDROOT
BRANCH   5   9
ATOM      9  C   UNL     1     145.074 141.616 138.460  1.00  0.00    -0.007 C 
ATOM     10  C   UNL     1     144.561 141.790 137.020  1.00  0.00     0.008 C 
ATOM     11  C   UNL     1     144.791 140.189 138.953  1.00  0.00     0.008 C 
ENDBRANCH   5   9
TORSDOF 1
ENDMDL
MODEL 9
REMARK VINA RESULT:    -2.935      7.524     10.686
REMARK INTER + INTRA:          -3.270
REMARK INTER:                  -3.206
REMARK INTRA:                  -0.064
REMARK UNBOUND:                -0.164
REMARK SMILES CC(C)[C@H]1CC[C@H](C)CC1=O
REMARK SMILES IDX 8 1 7 2 6 3 5 4 4 5 10 6 11 7 9 8 2 9 1 10 3 11
REMARK H PARENT
REMARK Flexibility Score: inf
ROOT
ATOM      1  C   UNL     1     133.517 133.564 139.620  1.00  0.00     0.008 C 
ATOM      2  C   UNL     1     133.493 135.096 139.587  1.00  0.00    -0.007 C 
ATOM      3  C   UNL     1     134.919 135.657 139.429  1.00  0.00     0.004 C 
ATOM      4  C   UNL     1     134.906 137.192 139.441  1.00  0.00     0.012 C 
ATOM      5  C   UNL     1     134.028 137.761 138.301  1.00  0.00     0.058 C 
ATOM      6  C   UNL     1     132.661 137.095 138.328  1.00  0.00     0.136 C 
ATOM      7  O   UNL     1     131.639 137.737 138.136  1.00  0.00    -0.299 OA
ATOM      8  C   UNL     1     132.581 135.597 138.453  1.00  0.00     0.079 C 
ENDROOT
BRANCH   5   9
ATOM      9  C   UNL     1     133.951 139.321 138.298  1.00  0.00    -0.007 C 
ATOM     10  C   UNL     1     135.133 139.998 139.014  1.00  0.00     0.008 C 
ATOM     11  C   UNL     1     133.805 139.882 136.875  1.00  0.00     0.008 C 
ENDBRANCH   5   9
TORSDOF 1
ENDMDL
