MODEL 1
REMARK VINA RESULT:    -3.715      0.000      0.000
REMARK INTER + INTRA:          -4.417
REMARK INTER:                  -4.366
REMARK INTRA:                  -0.051
REMARK UNBOUND:                -0.051
REMARK SMILES CCCCC(=O)[O-]
REMARK SMILES IDX 4 1 5 2 6 3 7 4 3 5 2 6 1 7
REMARK H PARENT
REMARK Flexibility Score: inf
ROOT
ATOM      1  C   UNL     1      -3.193  36.146  16.939  1.00  0.00     0.053 C 
ENDROOT
BRANCH   1   2
ATOM      2  C   UNL     1      -3.109  37.099  18.092  1.00  0.00     0.041 C 
ATOM      3  O   UNL     1      -4.150  37.433  18.715  1.00  0.00    -0.550 OA
ATOM      4  O   UNL     1      -1.884  37.642  18.456  1.00  0.00    -0.550 OA
ENDBRANCH   1   2
BRANCH   1   5
ATOM      5  C   UNL     1      -2.187  36.496  15.837  1.00  0.00     0.006 C 
BRANCH   5   6
ATOM      6  C   UNL     1      -2.822  36.468  14.439  1.00  0.00    -0.003 C 
ATOM      7  C   UNL     1      -3.915  37.524  14.310  1.00  0.00     0.004 C 
ENDBRANCH   5   6
ENDBRANCH   1   5
TORSDOF 3
ENDMDL
MODEL 2
REMARK VINA RESULT:    -3.533      2.122      2.783
REMARK INTER + INTRA:          -4.203
REMARK INTER:                  -4.111
REMARK INTRA:                  -0.092
REMARK UNBOUND:                -0.051
REMARK SMILES CCCCC(=O)[O-]
REMARK SMILES IDX 4 1 5 2 6 3 7 4 3 5 2 6 1 7
REMARK H PARENT
REMARK Flexibility Score: inf
ROOT
ATOM      1  C   UNL     1      -4.050  37.163  18.953  1.00  0.00     0.053 C 
ENDROOT
BRANCH   1   2
ATOM      2  C   UNL     1      -4.248  35.752  19.417  1.00  0.00     0.041 C 
ATOM      3  O   UNL     1      -3.893  35.410  20.575  1.00  0.00    -0.550 OA
ATOM      4  O   UNL     1      -4.795  34.809  18.557  1.00  0.00    -0.550 OA
ENDBRANCH   1   2
BRANCH   1   5
ATOM      5  C   UNL     1      -2.769  37.315  18.125  1.00  0.00     0.006 C 
BRANCH   5   6
ATOM      6  C   UNL     1      -3.036  37.203  16.617  1.00  0.00    -0.003 C 
ATOM      7  C   UNL     1      -2.147  36.139  15.979  1.00  0.00     0.004 C 
ENDBRANCH   5   6
ENDBRANCH   1   5
TORSDOF 3
ENDMDL
MODEL 3
REMARK VINA RESULT:    -3.429      2.243      3.954
REMARK INTER + INTRA:          -4.081
REMARK INTER:                  -4.017
REMARK INTRA:                  -0.064
REMARK UNBOUND:                -0.051
REMARK SMILES CCCCC(=O)[O-]
REMARK SMILES IDX 4 1 5 2 6 3 7 4 3 5 2 6 1 7
REMARK H PARENT
REMARK Flexibility Score: inf
ROOT
ATOM      1  C   UNL     1      -2.532  37.294  17.951  1.00  0.00     0.053 C 
ENDROOT
BRANCH   1   2
ATOM      2  C   UNL     1      -2.708  36.849  16.531  1.00  0.00     0.041 C 
ATOM      3  O   UNL     1      -2.184  35.776  16.134  1.00  0.00    -0.550 OA
ATOM      4  O   UNL     1      -3.425  37.638  15.641  1.00  0.00    -0.550 OA
ENDBRANCH   1   2
BRANCH   1   5
ATOM      5  C   UNL     1      -3.855  37.257  18.727  1.00  0.00     0.006 C 
BRANCH   5   6
ATOM      6  C   UNL     1      -4.234  35.835  19.163  1.00  0.00    -0.003 C 
ATOM      7  C   UNL     1      -4.271  35.717  20.683  1.00  0.00     0.004 C 
ENDBRANCH   5   6
ENDBRANCH   1   5
TORSDOF 3
ENDMDL
MODEL 4
REMARK VINA RESULT:    -3.356      2.580      4.629
REMARK INTER + INTRA:          -3.996
REMARK INTER:                  -3.942
REMARK INTRA:                  -0.053
REMARK UNBOUND:                -0.051
REMARK SMILES CCCCC(=O)[O-]
REMARK SMILES IDX 4 1 5 2 6 3 7 4 3 5 2 6 1 7
REMARK H PARENT
REMARK Flexibility Score: inf
ROOT
ATOM      1  C   UNL     1      -3.927  36.458  19.145  1.00  0.00     0.053 C 
ENDROOT
BRANCH   1   2
ATOM      2  C   UNL     1      -3.012  37.279  18.288  1.00  0.00     0.041 C 
ATOM      3  O   UNL     1      -3.222  37.379  17.051  1.00  0.00    -0.550 OA
ATOM      4  O   UNL     1      -1.911  37.908  18.854  1.00  0.00    -0.550 OA
ENDBRANCH   1   2
BRANCH   1   5
ATOM      5  C   UNL     1      -5.001  37.320  19.819  1.00  0.00     0.006 C 
BRANCH   5   6
ATOM      6  C   UNL     1      -4.618  37.709  21.254  1.00  0.00    -0.003 C 
ATOM      7  C   UNL     1      -4.984  36.605  22.240  1.00  0.00     0.004 C 
ENDBRANCH   5   6
ENDBRANCH   1   5
TORSDOF 3
ENDMDL
MODEL 5
REMARK VINA RESULT:    -3.354      5.182      7.130
REMARK INTER + INTRA:          -3.993
REMARK INTER:                  -3.928
REMARK INTRA:                  -0.065
REMARK UNBOUND:                -0.051
REMARK SMILES CCCCC(=O)[O-]
REMARK SMILES IDX 4 1 5 2 6 3 7 4 3 5 2 6 1 7
REMARK H PARENT
REMARK Flexibility Score: inf
ROOT
ATOM      1  C   UNL     1      -6.125  35.420  21.913  1.00  0.00     0.053 C 
ENDROOT
BRANCH   1   2
ATOM      2  C   UNL     1      -5.113  36.068  21.018  1.00  0.00     0.041 C 
ATOM      3  O   UNL     1      -5.326  37.216  20.548  1.00  0.00    -0.550 OA
ATOM      4  O   UNL     1      -3.950  35.389  20.680  1.00  0.00    -0.550 OA
ENDBRANCH   1   2
BRANCH   1   5
ATOM      5  C   UNL     1      -5.512  34.999  23.254  1.00  0.00     0.006 C 
BRANCH   5   6
ATOM      6  C   UNL     1      -6.013  35.866  24.419  1.00  0.00    -0.003 C 
ATOM      7  C   UNL     1      -5.006  36.958  24.765  1.00  0.00     0.004 C 
ENDBRANCH   5   6
ENDBRANCH   1   5
TORSDOF 3
ENDMDL
MODEL 6
REMARK VINA RESULT:    -3.351      5.174      6.508
REMARK INTER + INTRA:          -3.990
REMARK INTER:                  -3.888
REMARK INTRA:                  -0.102
REMARK UNBOUND:                -0.051
REMARK SMILES CCCCC(=O)[O-]
REMARK SMILES IDX 4 1 5 2 6 3 7 4 3 5 2 6 1 7
REMARK H PARENT
REMARK Flexibility Score: inf
ROOT
ATOM      1  C   UNL     1      -5.479  36.109  23.368  1.00  0.00     0.053 C 
ENDROOT
BRANCH   1   2
ATOM      2  C   UNL     1      -5.076  37.340  24.122  1.00  0.00     0.041 C 
ATOM      3  O   UNL     1      -5.094  38.464  23.555  1.00  0.00    -0.550 OA
ATOM      4  O   UNL     1      -4.651  37.239  25.440  1.00  0.00    -0.550 OA
ENDBRANCH   1   2
BRANCH   1   5
ATOM      5  C   UNL     1      -4.682  35.953  22.067  1.00  0.00     0.006 C 
BRANCH   5   6
ATOM      6  C   UNL     1      -5.562  36.134  20.822  1.00  0.00    -0.003 C 
ATOM      7  C   UNL     1      -5.127  37.352  20.012  1.00  0.00     0.004 C 
ENDBRANCH   5   6
ENDBRANCH   1   5
TORSDOF 3
ENDMDL
MODEL 7
REMARK VINA RESULT:    -3.322      3.788      5.730
REMARK INTER + INTRA:          -3.955
REMARK INTER:                  -3.842
REMARK INTRA:                  -0.112
REMARK UNBOUND:                -0.051
REMARK SMILES CCCCC(=O)[O-]
REMARK SMILES IDX 4 1 5 2 6 3 7 4 3 5 2 6 1 7
REMARK H PARENT
REMARK Flexibility Score: inf
ROOT
ATOM      1  C   UNL     1      -4.816  35.776  20.174  1.00  0.00     0.053 C 
ENDROOT
BRANCH   1   2
ATOM      2  C   UNL     1      -4.763  37.155  19.591  1.00  0.00     0.041 C 
ATOM      3  O   UNL     1      -5.510  38.062  20.041  1.00  0.00    -0.550 OA
ATOM      4  O   UNL     1      -3.910  37.428  18.529  1.00  0.00    -0.550 OA
ENDBRANCH   1   2
BRANCH   1   5
ATOM      5  C   UNL     1      -5.847  35.675  21.304  1.00  0.00     0.006 C 
BRANCH   5   6
ATOM      6  C   UNL     1      -5.186  35.539  22.683  1.00  0.00    -0.003 C 
ATOM      7  C   UNL     1      -5.182  36.873  23.425  1.00  0.00     0.004 C 
ENDBRANCH   5   6
ENDBRANCH   1   5
TORSDOF 3
ENDMDL
MODEL 8
REMARK VINA RESULT:    -3.319      4.693      6.818
REMARK INTER + INTRA:          -3.952
REMARK INTER:                  -3.912
REMARK INTRA:                  -0.041
REMARK UNBOUND:                -0.051
REMARK SMILES CCCCC(=O)[O-]
REMARK SMILES IDX 4 1 5 2 6 3 7 4 3 5 2 6 1 7
REMARK H PARENT
REMARK Flexibility Score: inf
ROOT
ATOM      1  C   UNL     1      -4.617  36.050  21.639  1.00  0.00     0.053 C 
ENDROOT
BRANCH   1   2
ATOM      2  C   UNL     1      -5.269  36.308  20.315  1.00  0.00     0.041 C 
ATOM      3  O   UNL     1      -5.780  35.358  19.665  1.00  0.00    -0.550 OA
ATOM      4  O   UNL     1      -5.282  37.591  19.785  1.00  0.00    -0.550 OA
ENDBRANCH   1   2
BRANCH   1   5
ATOM      5  C   UNL     1      -5.615  36.172  22.797  1.00  0.00     0.006 C 
BRANCH   5   6
ATOM      6  C   UNL     1      -5.366  37.424  23.650  1.00  0.00    -0.003 C 
ATOM      7  C   UNL     1      -4.977  37.050  25.077  1.00  0.00     0.004 C 
ENDBRANCH   5   6
ENDBRANCH   1   5
TORSDOF 3
ENDMDL
MODEL 9
REMARK VINA RESULT:    -3.299      3.201      4.050
REMARK INTER + INTRA:          -3.928
REMARK INTER:                  -3.868
REMARK INTRA:                  -0.060
REMARK UNBOUND:                -0.051
REMARK SMILES CCCCC(=O)[O-]
REMARK SMILES IDX 4 1 5 2 6 3 7 4 3 5 2 6 1 7
REMARK H PARENT
REMARK Flexibility Score: inf
ROOT
ATOM      1  C   UNL     1      -5.026  37.638  20.016  1.00  0.00     0.053 C 
ENDROOT
BRANCH   1   2
ATOM      2  C   UNL     1      -4.645  37.617  21.465  1.00  0.00     0.041 C 
ATOM      3  O   UNL     1      -4.664  36.536  22.110  1.00  0.00    -0.550 OA
ATOM      4  O   UNL     1      -4.300  38.798  22.108  1.00  0.00    -0.550 OA
ENDBRANCH   1   2
BRANCH   1   5
ATOM      5  C   UNL     1      -4.320  36.529  19.226  1.00  0.00     0.006 C 
BRANCH   5   6
ATOM      6  C   UNL     1      -3.423  37.088  18.113  1.00  0.00    -0.003 C 
ATOM      7  C   UNL     1      -2.098  37.593  18.676  1.00  0.00     0.004 C 
ENDBRANCH   5   6
ENDBRANCH   1   5
TORSDOF 3
ENDMDL
