MODEL 1
REMARK VINA RESULT:    -4.637      0.000      0.000
REMARK INTER + INTRA:          -5.702
REMARK INTER:                  -5.450
REMARK INTRA:                  -0.252
REMARK UNBOUND:                -0.252
REMARK SMILES COc1ccc(C=CC(=O)[O-])cc1
REMARK SMILES IDX 6 1 5 2 12 3 4 4 13 5 3 6 7 7 8 8 9 9 10 10 11 11 2 12 1 13
REMARK H PARENT
REMARK Flexibility Score: inf
ROOT
ATOM      1  C   UNL     1       9.581 -16.901   7.242  1.00  0.00    -0.025 A 
ATOM      2  C   UNL     1       9.705 -15.515   7.053  1.00  0.00     0.012 A 
ATOM      3  C   UNL     1      10.633 -17.607   7.842  1.00  0.00     0.012 A 
ATOM      4  C   UNL     1      10.841 -14.839   7.506  1.00  0.00     0.047 A 
ATOM      5  C   UNL     1      11.769 -16.930   8.296  1.00  0.00     0.047 A 
ATOM      6  C   UNL     1      11.883 -15.544   8.136  1.00  0.00     0.118 A 
ENDROOT
BRANCH   1   7
ATOM      7  C   UNL     1       8.414 -17.645   6.724  1.00  0.00     0.010 C 
ATOM      8  C   UNL     1       7.216 -17.729   7.325  1.00  0.00     0.025 C 
BRANCH   8   9
ATOM      9  C   UNL     1       6.898 -17.253   8.685  1.00  0.00     0.064 C 
ATOM     10  O   UNL     1       6.666 -18.056   9.626  1.00  0.00    -0.545 OA
ATOM     11  O   UNL     1       6.785 -15.889   8.915  1.00  0.00    -0.545 OA
ENDBRANCH   8   9
ENDBRANCH   1   7
BRANCH   6  12
ATOM     12  O   UNL     1      13.042 -14.912   8.611  1.00  0.00    -0.497 OA
ATOM     13  C   UNL     1      13.860 -14.046   7.832  1.00  0.00     0.278 C 
ENDBRANCH   6  12
TORSDOF 3
ENDMDL
MODEL 2
REMARK VINA RESULT:    -4.593      0.102      1.346
REMARK INTER + INTRA:          -5.651
REMARK INTER:                  -5.382
REMARK INTRA:                  -0.269
REMARK UNBOUND:                -0.252
REMARK SMILES COc1ccc(C=CC(=O)[O-])cc1
REMARK SMILES IDX 6 1 5 2 12 3 4 4 13 5 3 6 7 7 8 8 9 9 10 10 11 11 2 12 1 13
REMARK H PARENT
REMARK Flexibility Score: inf
ROOT
ATOM      1  C   UNL     1       9.611 -16.989   7.176  1.00  0.00    -0.025 A 
ATOM      2  C   UNL     1      10.599 -17.691   7.885  1.00  0.00     0.012 A 
ATOM      3  C   UNL     1       9.729 -15.600   7.032  1.00  0.00     0.012 A 
ATOM      4  C   UNL     1      11.714 -17.021   8.396  1.00  0.00     0.047 A 
ATOM      5  C   UNL     1      10.844 -14.929   7.542  1.00  0.00     0.047 A 
ATOM      6  C   UNL     1      11.846 -15.630   8.224  1.00  0.00     0.118 A 
ENDROOT
BRANCH   1   7
ATOM      7  C   UNL     1       8.399 -17.669   6.674  1.00  0.00     0.010 C 
ATOM      8  C   UNL     1       7.216 -17.717   7.307  1.00  0.00     0.025 C 
BRANCH   8   9
ATOM      9  C   UNL     1       6.956 -17.261   8.687  1.00  0.00     0.064 C 
ATOM     10  O   UNL     1       6.788 -18.079   9.629  1.00  0.00    -0.545 OA
ATOM     11  O   UNL     1       6.827 -15.902   8.937  1.00  0.00    -0.545 OA
ENDBRANCH   8   9
ENDBRANCH   1   7
BRANCH   6  12
ATOM     12  O   UNL     1      12.947 -14.911   8.714  1.00  0.00    -0.497 OA
ATOM     13  C   UNL     1      13.810 -14.116   7.908  1.00  0.00     0.278 C 
ENDBRANCH   6  12
TORSDOF 3
ENDMDL
MODEL 3
REMARK VINA RESULT:    -4.445      1.594      1.938
REMARK INTER + INTRA:          -5.477
REMARK INTER:                  -5.240
REMARK INTRA:                  -0.237
REMARK UNBOUND:                -0.252
REMARK SMILES COc1ccc(C=CC(=O)[O-])cc1
REMARK SMILES IDX 6 1 5 2 12 3 4 4 13 5 3 6 7 7 8 8 9 9 10 10 11 11 2 12 1 13
REMARK H PARENT
REMARK Flexibility Score: inf
ROOT
ATOM      1  C   UNL     1      10.730 -17.391   8.284  1.00  0.00    -0.025 A 
ATOM      2  C   UNL     1      11.158 -16.284   9.034  1.00  0.00     0.012 A 
ATOM      3  C   UNL     1      11.429 -17.744   7.122  1.00  0.00     0.012 A 
ATOM      4  C   UNL     1      12.301 -15.574   8.655  1.00  0.00     0.047 A 
ATOM      5  C   UNL     1      12.572 -17.034   6.744  1.00  0.00     0.047 A 
ATOM      6  C   UNL     1      13.021 -15.948   7.505  1.00  0.00     0.118 A 
ENDROOT
BRANCH   1   7
ATOM      7  C   UNL     1       9.495 -18.124   8.636  1.00  0.00     0.010 C 
ATOM      8  C   UNL     1       8.245 -17.717   8.364  1.00  0.00     0.025 C 
BRANCH   8   9
ATOM      9  C   UNL     1       7.865 -16.394   7.830  1.00  0.00     0.064 C 
ATOM     10  O   UNL     1       7.259 -15.548   8.539  1.00  0.00    -0.545 OA
ATOM     11  O   UNL     1       8.122 -16.103   6.498  1.00  0.00    -0.545 OA
ENDBRANCH   8   9
ENDBRANCH   1   7
BRANCH   6  12
ATOM     12  O   UNL     1      14.174 -15.270   7.084  1.00  0.00    -0.497 OA
ATOM     13  C   UNL     1      14.411 -13.882   7.292  1.00  0.00     0.278 C 
ENDBRANCH   6  12
TORSDOF 3
ENDMDL
MODEL 4
REMARK VINA RESULT:    -4.420      1.914      2.540
REMARK INTER + INTRA:          -5.447
REMARK INTER:                  -5.168
REMARK INTRA:                  -0.279
REMARK UNBOUND:                -0.252
REMARK SMILES COc1ccc(C=CC(=O)[O-])cc1
REMARK SMILES IDX 6 1 5 2 12 3 4 4 13 5 3 6 7 7 8 8 9 9 10 10 11 11 2 12 1 13
REMARK H PARENT
REMARK Flexibility Score: inf
ROOT
ATOM      1  C   UNL     1      10.750 -17.390   8.053  1.00  0.00    -0.025 A 
ATOM      2  C   UNL     1      11.722 -17.912   7.184  1.00  0.00     0.012 A 
ATOM      3  C   UNL     1      11.033 -16.223   8.776  1.00  0.00     0.012 A 
ATOM      4  C   UNL     1      12.937 -17.246   7.002  1.00  0.00     0.047 A 
ATOM      5  C   UNL     1      12.248 -15.557   8.593  1.00  0.00     0.047 A 
ATOM      6  C   UNL     1      13.208 -16.057   7.705  1.00  0.00     0.118 A 
ENDROOT
BRANCH   1   7
ATOM      7  C   UNL     1       9.481 -18.106   8.302  1.00  0.00     0.010 C 
ATOM      8  C   UNL     1       8.409 -18.092   7.493  1.00  0.00     0.025 C 
BRANCH   8   9
ATOM      9  C   UNL     1       8.232 -17.229   6.309  1.00  0.00     0.064 C 
ATOM     10  O   UNL     1       8.075 -15.985   6.420  1.00  0.00    -0.545 OA
ATOM     11  O   UNL     1       8.171 -17.811   5.051  1.00  0.00    -0.545 OA
ENDBRANCH   8   9
ENDBRANCH   1   7
BRANCH   6  12
ATOM     12  O   UNL     1      14.410 -15.349   7.555  1.00  0.00    -0.497 OA
ATOM     13  C   UNL     1      14.494 -13.983   7.164  1.00  0.00     0.278 C 
ENDBRANCH   6  12
TORSDOF 3
ENDMDL
MODEL 5
REMARK VINA RESULT:    -4.415      1.489      5.435
REMARK INTER + INTRA:          -5.441
REMARK INTER:                  -5.461
REMARK INTRA:                   0.020
REMARK UNBOUND:                -0.252
REMARK SMILES COc1ccc(C=CC(=O)[O-])cc1
REMARK SMILES IDX 6 1 5 2 12 3 4 4 13 5 3 6 7 7 8 8 9 9 10 10 11 11 2 12 1 13
REMARK H PARENT
REMARK Flexibility Score: inf
ROOT
ATOM      1  C   UNL     1      11.650 -17.068   7.230  1.00  0.00    -0.025 A 
ATOM      2  C   UNL     1      10.798 -18.070   7.722  1.00  0.00     0.012 A 
ATOM      3  C   UNL     1      11.206 -15.738   7.218  1.00  0.00     0.012 A 
ATOM      4  C   UNL     1       9.543 -17.740   8.241  1.00  0.00     0.047 A 
ATOM      5  C   UNL     1       9.952 -15.407   7.738  1.00  0.00     0.047 A 
ATOM      6  C   UNL     1       9.112 -16.400   8.257  1.00  0.00     0.118 A 
ENDROOT
BRANCH   1   7
ATOM      7  C   UNL     1      12.958 -17.401   6.627  1.00  0.00     0.010 C 
ATOM      8  C   UNL     1      14.139 -16.881   6.997  1.00  0.00     0.025 C 
BRANCH   8   9
ATOM      9  C   UNL     1      14.333 -15.762   7.939  1.00  0.00     0.064 C 
ATOM     10  O   UNL     1      14.180 -15.912   9.179  1.00  0.00    -0.545 OA
ATOM     11  O   UNL     1      14.623 -14.500   7.439  1.00  0.00    -0.545 OA
ENDBRANCH   8   9
ENDBRANCH   1   7
BRANCH   6  12
ATOM     12  O   UNL     1       7.864 -16.016   8.770  1.00  0.00    -0.497 OA
ATOM     13  C   UNL     1       6.710 -16.848   8.780  1.00  0.00     0.278 C 
ENDBRANCH   6  12
TORSDOF 3
ENDMDL
MODEL 6
REMARK VINA RESULT:    -4.360      1.903      5.536
REMARK INTER + INTRA:          -5.376
REMARK INTER:                  -5.095
REMARK INTRA:                  -0.281
REMARK UNBOUND:                -0.252
REMARK SMILES COc1ccc(C=CC(=O)[O-])cc1
REMARK SMILES IDX 6 1 5 2 12 3 4 4 13 5 3 6 7 7 8 8 9 9 10 10 11 11 2 12 1 13
REMARK H PARENT
REMARK Flexibility Score: inf
ROOT
ATOM      1  C   UNL     1      11.238 -16.233   8.405  1.00  0.00    -0.025 A 
ATOM      2  C   UNL     1      10.398 -15.408   7.640  1.00  0.00     0.012 A 
ATOM      3  C   UNL     1      10.806 -17.523   8.744  1.00  0.00     0.012 A 
ATOM      4  C   UNL     1       9.169 -15.885   7.176  1.00  0.00     0.047 A 
ATOM      5  C   UNL     1       9.577 -18.001   8.279  1.00  0.00     0.047 A 
ATOM      6  C   UNL     1       8.751 -17.192   7.491  1.00  0.00     0.118 A 
ENDROOT
BRANCH   1   7
ATOM      7  C   UNL     1      12.517 -15.731   8.951  1.00  0.00     0.010 C 
ATOM      8  C   UNL     1      13.726 -15.925   8.401  1.00  0.00     0.025 C 
BRANCH   8   9
ATOM      9  C   UNL     1      14.024 -16.816   7.263  1.00  0.00     0.064 C 
ATOM     10  O   UNL     1      13.809 -16.460   6.075  1.00  0.00    -0.545 OA
ATOM     11  O   UNL     1      14.487 -18.100   7.512  1.00  0.00    -0.545 OA
ENDBRANCH   8   9
ENDBRANCH   1   7
BRANCH   6  12
ATOM     12  O   UNL     1       7.529 -17.719   7.048  1.00  0.00    -0.497 OA
ATOM     13  C   UNL     1       6.413 -17.980   7.893  1.00  0.00     0.278 C 
ENDBRANCH   6  12
TORSDOF 3
ENDMDL
MODEL 7
REMARK VINA RESULT:    -4.287      1.291      5.237
REMARK INTER + INTRA:          -5.291
REMARK INTER:                  -5.221
REMARK INTRA:                  -0.070
REMARK UNBOUND:                -0.252
REMARK SMILES COc1ccc(C=CC(=O)[O-])cc1
REMARK SMILES IDX 6 1 5 2 12 3 4 4 13 5 3 6 7 7 8 8 9 9 10 10 11 11 2 12 1 13
REMARK H PARENT
REMARK Flexibility Score: inf
ROOT
ATOM      1  C   UNL     1      11.541 -16.848   7.197  1.00  0.00    -0.025 A 
ATOM      2  C   UNL     1      10.845 -15.628   7.199  1.00  0.00     0.012 A 
ATOM      3  C   UNL     1      10.927 -17.988   7.732  1.00  0.00     0.012 A 
ATOM      4  C   UNL     1       9.535 -15.563   7.682  1.00  0.00     0.047 A 
ATOM      5  C   UNL     1       9.616 -17.923   8.214  1.00  0.00     0.047 A 
ATOM      6  C   UNL     1       8.908 -16.716   8.191  1.00  0.00     0.118 A 
ENDROOT
BRANCH   1   7
ATOM      7  C   UNL     1      12.945 -16.928   6.740  1.00  0.00     0.010 C 
ATOM      8  C   UNL     1      13.980 -16.271   7.288  1.00  0.00     0.025 C 
BRANCH   8   9
ATOM      9  C   UNL     1      13.885 -15.220   8.320  1.00  0.00     0.064 C 
ATOM     10  O   UNL     1      13.671 -15.501   9.529  1.00  0.00    -0.545 OA
ATOM     11  O   UNL     1      13.967 -13.889   7.938  1.00  0.00    -0.545 OA
ENDBRANCH   8   9
ENDBRANCH   1   7
BRANCH   6  12
ATOM     12  O   UNL     1       7.595 -16.704   8.685  1.00  0.00    -0.497 OA
ATOM     13  C   UNL     1       6.718 -17.825   8.661  1.00  0.00     0.278 C 
ENDBRANCH   6  12
TORSDOF 3
ENDMDL
MODEL 8
REMARK VINA RESULT:    -3.940      1.780      5.689
REMARK INTER + INTRA:          -4.882
REMARK INTER:                  -4.669
REMARK INTRA:                  -0.213
REMARK UNBOUND:                -0.252
REMARK SMILES COc1ccc(C=CC(=O)[O-])cc1
REMARK SMILES IDX 6 1 5 2 12 3 4 4 13 5 3 6 7 7 8 8 9 9 10 10 11 11 2 12 1 13
REMARK H PARENT
REMARK Flexibility Score: inf
ROOT
ATOM      1  C   UNL     1      11.989 -16.475   8.556  1.00  0.00    -0.025 A 
ATOM      2  C   UNL     1      12.011 -17.677   7.829  1.00  0.00     0.012 A 
ATOM      3  C   UNL     1      10.837 -15.677   8.524  1.00  0.00     0.012 A 
ATOM      4  C   UNL     1      10.880 -18.097   7.124  1.00  0.00     0.047 A 
ATOM      5  C   UNL     1       9.705 -16.098   7.820  1.00  0.00     0.047 A 
ATOM      6  C   UNL     1       9.713 -17.310   7.119  1.00  0.00     0.118 A 
ENDROOT
BRANCH   1   7
ATOM      7  C   UNL     1      13.190 -15.985   9.263  1.00  0.00     0.010 C 
ATOM      8  C   UNL     1      13.997 -15.000   8.836  1.00  0.00     0.025 C 
BRANCH   8   9
ATOM      9  C   UNL     1      13.940 -14.352   7.511  1.00  0.00     0.064 C 
ATOM     10  O   UNL     1      14.759 -14.645   6.600  1.00  0.00    -0.545 OA
ATOM     11  O   UNL     1      13.007 -13.350   7.288  1.00  0.00    -0.545 OA
ENDBRANCH   8   9
ENDBRANCH   1   7
BRANCH   6  12
ATOM     12  O   UNL     1       8.551 -17.689   6.430  1.00  0.00    -0.497 OA
ATOM     13  C   UNL     1       7.348 -18.115   7.061  1.00  0.00     0.278 C 
ENDBRANCH   6  12
TORSDOF 3
ENDMDL
MODEL 9
REMARK VINA RESULT:    -3.504      1.338      5.322
REMARK INTER + INTRA:          -4.370
REMARK INTER:                  -4.169
REMARK INTRA:                  -0.201
REMARK UNBOUND:                -0.252
REMARK SMILES COc1ccc(C=CC(=O)[O-])cc1
REMARK SMILES IDX 6 1 5 2 12 3 4 4 13 5 3 6 7 7 8 8 9 9 10 10 11 11 2 12 1 13
REMARK H PARENT
REMARK Flexibility Score: inf
ROOT
ATOM      1  C   UNL     1       9.603 -15.517   7.503  1.00  0.00    -0.025 A 
ATOM      2  C   UNL     1       9.129 -15.552   8.824  1.00  0.00     0.012 A 
ATOM      3  C   UNL     1       9.047 -16.384   6.552  1.00  0.00     0.012 A 
ATOM      4  C   UNL     1       8.079 -16.405   9.175  1.00  0.00     0.047 A 
ATOM      5  C   UNL     1       7.996 -17.236   6.903  1.00  0.00     0.047 A 
ATOM      6  C   UNL     1       7.500 -17.253   8.213  1.00  0.00     0.118 A 
ENDROOT
BRANCH   1   7
ATOM      7  C   UNL     1      10.747 -14.662   7.121  1.00  0.00     0.010 C 
ATOM      8  C   UNL     1      12.031 -14.894   7.438  1.00  0.00     0.025 C 
BRANCH   8   9
ATOM      9  C   UNL     1      12.516 -15.934   8.367  1.00  0.00     0.064 C 
ATOM     10  O   UNL     1      12.951 -15.642   9.512  1.00  0.00    -0.545 OA
ATOM     11  O   UNL     1      12.556 -17.254   7.943  1.00  0.00    -0.545 OA
ENDBRANCH   8   9
ENDBRANCH   1   7
BRANCH   6  12
ATOM     12  O   UNL     1       6.443 -18.125   8.513  1.00  0.00    -0.497 OA
ATOM     13  C   UNL     1       5.074 -17.739   8.561  1.00  0.00     0.278 C 
ENDBRANCH   6  12
TORSDOF 3
ENDMDL
