MODEL 1
REMARK VINA RESULT:    -3.597      0.000      0.000
REMARK INTER + INTRA:          -7.569
REMARK INTER:                  -6.331
REMARK INTRA:                  -1.238
REMARK UNBOUND:                -1.238
REMARK SMILES CCCCCCC=CCCCCCCCC(=O)[O-]
REMARK SMILES IDX 10 1 11 2 12 3 13 4 14 5 15 6 16 7 17 8 18 9 9 10 8 11 7 12
REMARK SMILES IDX 6 13 5 14 4 15 3 16 2 17 1 18
REMARK H PARENT
REMARK Flexibility Score: inf
ROOT
ATOM      1  C   UNL     1      -2.447 -50.153   1.604  1.00  0.00     0.004 C 
ENDROOT
BRANCH   1   2
ATOM      2  C   UNL     1      -1.388 -50.975   2.359  1.00  0.00     0.000 C 
BRANCH   2   3
ATOM      3  C   UNL     1      -2.007 -52.091   3.217  1.00  0.00     0.000 C 
BRANCH   3   4
ATOM      4  C   UNL     1      -3.361 -51.685   3.824  1.00  0.00     0.000 C 
BRANCH   4   5
ATOM      5  C   UNL     1      -3.508 -52.123   5.290  1.00  0.00     0.006 C 
BRANCH   5   6
ATOM      6  C   UNL     1      -2.222 -51.916   6.103  1.00  0.00     0.053 C 
BRANCH   6   7
ATOM      7  C   UNL     1      -2.538 -51.317   7.437  1.00  0.00     0.041 C 
ATOM      8  O   UNL     1      -3.295 -50.313   7.517  1.00  0.00    -0.550 OA
ATOM      9  O   UNL     1      -2.035 -51.894   8.596  1.00  0.00    -0.550 OA
ENDBRANCH   6   7
ENDBRANCH   5   6
ENDBRANCH   4   5
ENDBRANCH   3   4
ENDBRANCH   2   3
ENDBRANCH   1   2
BRANCH   1  10
ATOM     10  C   UNL     1      -2.625 -50.635   0.155  1.00  0.00     0.027 C 
BRANCH  10  11
ATOM     11  C   UNL     1      -3.331 -51.968   0.089  1.00  0.00    -0.031 C 
ATOM     12  C   UNL     1      -4.663 -52.125  -0.033  1.00  0.00    -0.031 C 
BRANCH  12  13
ATOM     13  C   UNL     1      -5.664 -50.996  -0.024  1.00  0.00     0.027 C 
BRANCH  13  14
ATOM     14  C   UNL     1      -7.047 -51.457   0.460  1.00  0.00     0.004 C 
BRANCH  14  15
ATOM     15  C   UNL     1      -7.072 -51.711   1.978  1.00  0.00     0.000 C 
BRANCH  15  16
ATOM     16  C   UNL     1      -8.258 -51.021   2.679  1.00  0.00    -0.000 C 
BRANCH  16  17
ATOM     17  C   UNL     1      -8.053 -50.747   4.180  1.00  0.00    -0.003 C 
ATOM     18  C   UNL     1      -7.665 -51.996   4.970  1.00  0.00     0.004 C 
ENDBRANCH  16  17
ENDBRANCH  15  16
ENDBRANCH  14  15
ENDBRANCH  13  14
ENDBRANCH  12  13
ENDBRANCH  10  11
ENDBRANCH   1  10
TORSDOF 13
ENDMDL
MODEL 2
REMARK VINA RESULT:    -3.443      1.074      1.391
REMARK INTER + INTRA:          -7.298
REMARK INTER:                  -6.472
REMARK INTRA:                  -0.827
REMARK UNBOUND:                -1.238
REMARK SMILES CCCCCCC=CCCCCCCCC(=O)[O-]
REMARK SMILES IDX 10 1 11 2 12 3 13 4 14 5 15 6 16 7 17 8 18 9 9 10 8 11 7 12
REMARK SMILES IDX 6 13 5 14 4 15 3 16 2 17 1 18
REMARK H PARENT
REMARK Flexibility Score: inf
ROOT
ATOM      1  C   UNL     1      -3.135 -51.325   2.506  1.00  0.00     0.004 C 
ENDROOT
BRANCH   1   2
ATOM      2  C   UNL     1      -1.658 -51.182   2.915  1.00  0.00     0.000 C 
BRANCH   2   3
ATOM      3  C   UNL     1      -1.272 -52.120   4.071  1.00  0.00     0.000 C 
BRANCH   3   4
ATOM      4  C   UNL     1      -1.056 -51.366   5.395  1.00  0.00     0.000 C 
BRANCH   4   5
ATOM      5  C   UNL     1      -1.714 -52.072   6.591  1.00  0.00     0.006 C 
BRANCH   5   6
ATOM      6  C   UNL     1      -3.164 -51.625   6.821  1.00  0.00     0.053 C 
BRANCH   6   7
ATOM      7  C   UNL     1      -3.374 -51.252   8.255  1.00  0.00     0.041 C 
ATOM      8  O   UNL     1      -4.332 -50.502   8.580  1.00  0.00    -0.550 OA
ATOM      9  O   UNL     1      -2.541 -51.771   9.239  1.00  0.00    -0.550 OA
ENDBRANCH   6   7
ENDBRANCH   5   6
ENDBRANCH   4   5
ENDBRANCH   3   4
ENDBRANCH   2   3
ENDBRANCH   1   2
BRANCH   1  10
ATOM     10  C   UNL     1      -3.288 -51.932   1.102  1.00  0.00     0.027 C 
BRANCH  10  11
ATOM     11  C   UNL     1      -3.920 -50.961   0.134  1.00  0.00    -0.031 C 
ATOM     12  C   UNL     1      -5.202 -51.011  -0.275  1.00  0.00    -0.031 C 
BRANCH  12  13
ATOM     13  C   UNL     1      -6.178 -52.102   0.094  1.00  0.00     0.027 C 
BRANCH  13  14
ATOM     14  C   UNL     1      -6.786 -51.883   1.487  1.00  0.00     0.004 C 
BRANCH  14  15
ATOM     15  C   UNL     1      -8.015 -50.958   1.443  1.00  0.00     0.000 C 
BRANCH  15  16
ATOM     16  C   UNL     1      -8.973 -51.179   2.629  1.00  0.00    -0.000 C 
BRANCH  16  17
ATOM     17  C   UNL     1      -8.566 -50.468   3.932  1.00  0.00    -0.003 C 
ATOM     18  C   UNL     1      -7.916 -51.407   4.949  1.00  0.00     0.004 C 
ENDBRANCH  16  17
ENDBRANCH  15  16
ENDBRANCH  14  15
ENDBRANCH  13  14
ENDBRANCH  12  13
ENDBRANCH  10  11
ENDBRANCH   1  10
TORSDOF 13
ENDMDL
MODEL 3
REMARK VINA RESULT:    -3.296      1.896      3.096
REMARK INTER + INTRA:          -7.038
REMARK INTER:                  -6.378
REMARK INTRA:                  -0.660
REMARK UNBOUND:                -1.238
REMARK SMILES CCCCCCC=CCCCCCCCC(=O)[O-]
REMARK SMILES IDX 10 1 11 2 12 3 13 4 14 5 15 6 16 7 17 8 18 9 9 10 8 11 7 12
REMARK SMILES IDX 6 13 5 14 4 15 3 16 2 17 1 18
REMARK H PARENT
REMARK Flexibility Score: inf
ROOT
ATOM      1  C   UNL     1      -1.438 -51.856   4.394  1.00  0.00     0.004 C 
ENDROOT
BRANCH   1   2
ATOM      2  C   UNL     1      -2.162 -51.446   5.689  1.00  0.00     0.000 C 
BRANCH   2   3
ATOM      3  C   UNL     1      -1.322 -51.718   6.948  1.00  0.00     0.000 C 
BRANCH   3   4
ATOM      4  C   UNL     1      -2.121 -51.507   8.246  1.00  0.00     0.000 C 
BRANCH   4   5
ATOM      5  C   UNL     1      -3.635 -51.667   8.040  1.00  0.00     0.006 C 
BRANCH   5   6
ATOM      6  C   UNL     1      -4.461 -50.862   9.052  1.00  0.00     0.053 C 
BRANCH   6   7
ATOM      7  C   UNL     1      -5.904 -51.255   8.981  1.00  0.00     0.041 C 
ATOM      8  O   UNL     1      -6.615 -51.242  10.020  1.00  0.00    -0.550 OA
ATOM      9  O   UNL     1      -6.474 -51.589   7.759  1.00  0.00    -0.550 OA
ENDBRANCH   6   7
ENDBRANCH   5   6
ENDBRANCH   4   5
ENDBRANCH   3   4
ENDBRANCH   2   3
ENDBRANCH   1   2
BRANCH   1  10
ATOM     10  C   UNL     1      -2.421 -52.125   3.244  1.00  0.00     0.027 C 
BRANCH  10  11
ATOM     11  C   UNL     1      -2.381 -51.033   2.202  1.00  0.00    -0.031 C 
ATOM     12  C   UNL     1      -3.238 -50.927   1.169  1.00  0.00    -0.031 C 
BRANCH  12  13
ATOM     13  C   UNL     1      -4.310 -51.936   0.837  1.00  0.00     0.027 C 
BRANCH  13  14
ATOM     14  C   UNL     1      -5.537 -51.793   1.750  1.00  0.00     0.004 C 
BRANCH  14  15
ATOM     15  C   UNL     1      -6.857 -51.933   0.972  1.00  0.00     0.000 C 
BRANCH  15  16
ATOM     16  C   UNL     1      -7.994 -51.081   1.566  1.00  0.00    -0.000 C 
BRANCH  16  17
ATOM     17  C   UNL     1      -8.534 -51.572   2.921  1.00  0.00    -0.003 C 
ATOM     18  C   UNL     1      -8.168 -50.648   4.082  1.00  0.00     0.004 C 
ENDBRANCH  16  17
ENDBRANCH  15  16
ENDBRANCH  14  15
ENDBRANCH  13  14
ENDBRANCH  12  13
ENDBRANCH  10  11
ENDBRANCH   1  10
TORSDOF 13
ENDMDL
MODEL 4
REMARK VINA RESULT:    -3.277      2.067      4.593
REMARK INTER + INTRA:          -7.006
REMARK INTER:                  -5.789
REMARK INTRA:                  -1.216
REMARK UNBOUND:                -1.238
REMARK SMILES CCCCCCC=CCCCCCCCC(=O)[O-]
REMARK SMILES IDX 10 1 11 2 12 3 13 4 14 5 15 6 16 7 17 8 18 9 9 10 8 11 7 12
REMARK SMILES IDX 6 13 5 14 4 15 3 16 2 17 1 18
REMARK H PARENT
REMARK Flexibility Score: inf
ROOT
ATOM      1  C   UNL     1      -4.019 -51.126   5.116  1.00  0.00     0.004 C 
ENDROOT
BRANCH   1   2
ATOM      2  C   UNL     1      -2.938 -51.779   5.997  1.00  0.00     0.000 C 
BRANCH   2   3
ATOM      3  C   UNL     1      -2.802 -51.096   7.368  1.00  0.00     0.000 C 
BRANCH   3   4
ATOM      4  C   UNL     1      -2.586 -52.105   8.509  1.00  0.00     0.000 C 
BRANCH   4   5
ATOM      5  C   UNL     1      -3.488 -51.827   9.722  1.00  0.00     0.006 C 
BRANCH   5   6
ATOM      6  C   UNL     1      -4.530 -50.734   9.450  1.00  0.00     0.053 C 
BRANCH   6   7
ATOM      7  C   UNL     1      -5.843 -51.345   9.072  1.00  0.00     0.041 C 
ATOM      8  O   UNL     1      -6.034 -51.760   7.899  1.00  0.00    -0.550 OA
ATOM      9  O   UNL     1      -6.839 -51.499  10.029  1.00  0.00    -0.550 OA
ENDBRANCH   6   7
ENDBRANCH   5   6
ENDBRANCH   4   5
ENDBRANCH   3   4
ENDBRANCH   2   3
ENDBRANCH   1   2
BRANCH   1  10
ATOM     10  C   UNL     1      -4.486 -52.061   3.989  1.00  0.00     0.027 C 
BRANCH  10  11
ATOM     11  C   UNL     1      -5.862 -51.694   3.487  1.00  0.00    -0.031 C 
ATOM     12  C   UNL     1      -6.252 -51.763   2.200  1.00  0.00    -0.031 C 
BRANCH  12  13
ATOM     13  C   UNL     1      -5.347 -52.125   1.047  1.00  0.00     0.027 C 
BRANCH  13  14
ATOM     14  C   UNL     1      -4.997 -50.903   0.186  1.00  0.00     0.004 C 
BRANCH  14  15
ATOM     15  C   UNL     1      -3.479 -50.757  -0.021  1.00  0.00     0.000 C 
BRANCH  15  16
ATOM     16  C   UNL     1      -2.720 -50.486   1.291  1.00  0.00    -0.000 C 
BRANCH  16  17
ATOM     17  C   UNL     1      -1.557 -51.452   1.580  1.00  0.00    -0.003 C 
ATOM     18  C   UNL     1      -0.960 -52.066   0.314  1.00  0.00     0.004 C 
ENDBRANCH  16  17
ENDBRANCH  15  16
ENDBRANCH  14  15
ENDBRANCH  13  14
ENDBRANCH  12  13
ENDBRANCH  10  11
ENDBRANCH   1  10
TORSDOF 13
ENDMDL
MODEL 5
REMARK VINA RESULT:    -3.165      2.454      5.400
REMARK INTER + INTRA:          -6.809
REMARK INTER:                  -5.795
REMARK INTRA:                  -1.014
REMARK UNBOUND:                -1.238
REMARK SMILES CCCCCCC=CCCCCCCCC(=O)[O-]
REMARK SMILES IDX 10 1 11 2 12 3 13 4 14 5 15 6 16 7 17 8 18 9 9 10 8 11 7 12
REMARK SMILES IDX 6 13 5 14 4 15 3 16 2 17 1 18
REMARK H PARENT
REMARK Flexibility Score: inf
ROOT
ATOM      1  C   UNL     1      -2.562 -51.710   1.747  1.00  0.00     0.004 C 
ENDROOT
BRANCH   1   2
ATOM      2  C   UNL     1      -3.649 -50.881   1.041  1.00  0.00     0.000 C 
BRANCH   2   3
ATOM      3  C   UNL     1      -4.742 -51.757   0.407  1.00  0.00     0.000 C 
BRANCH   3   4
ATOM      4  C   UNL     1      -6.160 -51.291   0.781  1.00  0.00     0.000 C 
BRANCH   4   5
ATOM      5  C   UNL     1      -6.773 -52.121   1.921  1.00  0.00     0.006 C 
BRANCH   5   6
ATOM      6  C   UNL     1      -6.174 -51.779   3.293  1.00  0.00     0.053 C 
BRANCH   6   7
ATOM      7  C   UNL     1      -7.258 -51.419   4.261  1.00  0.00     0.041 C 
ATOM      8  O   UNL     1      -7.102 -51.631   5.492  1.00  0.00    -0.550 OA
ATOM      9  O   UNL     1      -8.420 -50.807   3.809  1.00  0.00    -0.550 OA
ENDBRANCH   6   7
ENDBRANCH   5   6
ENDBRANCH   4   5
ENDBRANCH   3   4
ENDBRANCH   2   3
ENDBRANCH   1   2
BRANCH   1  10
ATOM     10  C   UNL     1      -1.787 -50.882   2.784  1.00  0.00     0.027 C 
BRANCH  10  11
ATOM     11  C   UNL     1      -1.217 -51.747   3.884  1.00  0.00    -0.031 C 
ATOM     12  C   UNL     1      -1.889 -52.125   4.987  1.00  0.00    -0.031 C 
BRANCH  12  13
ATOM     13  C   UNL     1      -3.281 -51.665   5.345  1.00  0.00     0.027 C 
BRANCH  13  14
ATOM     14  C   UNL     1      -3.638 -51.992   6.802  1.00  0.00     0.004 C 
BRANCH  14  15
ATOM     15  C   UNL     1      -3.179 -50.889   7.772  1.00  0.00     0.000 C 
BRANCH  15  16
ATOM     16  C   UNL     1      -3.653 -51.129   9.217  1.00  0.00    -0.000 C 
BRANCH  16  17
ATOM     17  C   UNL     1      -5.130 -50.783   9.481  1.00  0.00    -0.003 C 
ATOM     18  C   UNL     1      -6.040 -52.011   9.494  1.00  0.00     0.004 C 
ENDBRANCH  16  17
ENDBRANCH  15  16
ENDBRANCH  14  15
ENDBRANCH  13  14
ENDBRANCH  12  13
ENDBRANCH  10  11
ENDBRANCH   1  10
TORSDOF 13
ENDMDL
MODEL 6
REMARK VINA RESULT:    -3.024      2.779      6.027
REMARK INTER + INTRA:          -6.559
REMARK INTER:                  -6.157
REMARK INTRA:                  -0.402
REMARK UNBOUND:                -1.238
REMARK SMILES CCCCCCC=CCCCCCCCC(=O)[O-]
REMARK SMILES IDX 10 1 11 2 12 3 13 4 14 5 15 6 16 7 17 8 18 9 9 10 8 11 7 12
REMARK SMILES IDX 6 13 5 14 4 15 3 16 2 17 1 18
REMARK H PARENT
REMARK Flexibility Score: inf
ROOT
ATOM      1  C   UNL     1      -2.170 -51.009   0.986  1.00  0.00     0.004 C 
ENDROOT
BRANCH   1   2
ATOM      2  C   UNL     1      -3.619 -50.731   0.546  1.00  0.00     0.000 C 
BRANCH   2   3
ATOM      3  C   UNL     1      -4.398 -52.019   0.230  1.00  0.00     0.000 C 
BRANCH   3   4
ATOM      4  C   UNL     1      -5.660 -51.753  -0.609  1.00  0.00     0.000 C 
BRANCH   4   5
ATOM      5  C   UNL     1      -6.956 -51.965   0.189  1.00  0.00     0.006 C 
BRANCH   5   6
ATOM      6  C   UNL     1      -6.722 -51.989   1.705  1.00  0.00     0.053 C 
BRANCH   6   7
ATOM      7  C   UNL     1      -7.952 -51.540   2.431  1.00  0.00     0.041 C 
ATOM      8  O   UNL     1      -8.242 -52.035   3.552  1.00  0.00    -0.550 OA
ATOM      9  O   UNL     1      -8.752 -50.541   1.891  1.00  0.00    -0.550 OA
ENDBRANCH   6   7
ENDBRANCH   5   6
ENDBRANCH   4   5
ENDBRANCH   3   4
ENDBRANCH   2   3
ENDBRANCH   1   2
BRANCH   1  10
ATOM     10  C   UNL     1      -2.075 -51.328   2.486  1.00  0.00     0.027 C 
BRANCH  10  11
ATOM     11  C   UNL     1      -3.426 -51.642   3.082  1.00  0.00    -0.031 C 
ATOM     12  C   UNL     1      -3.701 -51.641   4.400  1.00  0.00    -0.031 C 
BRANCH  12  13
ATOM     13  C   UNL     1      -2.680 -51.421   5.490  1.00  0.00     0.027 C 
BRANCH  13  14
ATOM     14  C   UNL     1      -3.107 -52.069   6.816  1.00  0.00     0.004 C 
BRANCH  14  15
ATOM     15  C   UNL     1      -2.664 -51.239   8.034  1.00  0.00     0.000 C 
BRANCH  15  16
ATOM     16  C   UNL     1      -3.003 -51.917   9.374  1.00  0.00    -0.000 C 
BRANCH  16  17
ATOM     17  C   UNL     1      -4.487 -51.854   9.777  1.00  0.00    -0.003 C 
ATOM     18  C   UNL     1      -5.084 -50.453   9.645  1.00  0.00     0.004 C 
ENDBRANCH  16  17
ENDBRANCH  15  16
ENDBRANCH  14  15
ENDBRANCH  13  14
ENDBRANCH  12  13
ENDBRANCH  10  11
ENDBRANCH   1  10
TORSDOF 13
ENDMDL
MODEL 7
REMARK VINA RESULT:    -2.687      2.355      4.263
REMARK INTER + INTRA:          -5.966
REMARK INTER:                  -4.805
REMARK INTRA:                  -1.162
REMARK UNBOUND:                -1.238
REMARK SMILES CCCCCCC=CCCCCCCCC(=O)[O-]
REMARK SMILES IDX 10 1 11 2 12 3 13 4 14 5 15 6 16 7 17 8 18 9 9 10 8 11 7 12
REMARK SMILES IDX 6 13 5 14 4 15 3 16 2 17 1 18
REMARK H PARENT
REMARK Flexibility Score: inf
ROOT
ATOM      1  C   UNL     1      -1.632 -50.712   5.967  1.00  0.00     0.004 C 
ENDROOT
BRANCH   1   2
ATOM      2  C   UNL     1      -2.347 -51.676   6.930  1.00  0.00     0.000 C 
BRANCH   2   3
ATOM      3  C   UNL     1      -2.561 -51.067   8.326  1.00  0.00     0.000 C 
BRANCH   3   4
ATOM      4  C   UNL     1      -2.933 -52.125   9.379  1.00  0.00     0.000 C 
BRANCH   4   5
ATOM      5  C   UNL     1      -4.374 -51.966   9.892  1.00  0.00     0.006 C 
BRANCH   5   6
ATOM      6  C   UNL     1      -5.083 -50.740   9.302  1.00  0.00     0.053 C 
BRANCH   6   7
ATOM      7  C   UNL     1      -6.525 -51.043   9.045  1.00  0.00     0.041 C 
ATOM      8  O   UNL     1      -6.912 -51.346   7.886  1.00  0.00    -0.550 OA
ATOM      9  O   UNL     1      -7.435 -51.036  10.095  1.00  0.00    -0.550 OA
ENDBRANCH   6   7
ENDBRANCH   5   6
ENDBRANCH   4   5
ENDBRANCH   3   4
ENDBRANCH   2   3
ENDBRANCH   1   2
BRANCH   1  10
ATOM     10  C   UNL     1      -0.940 -51.456   4.814  1.00  0.00     0.027 C 
BRANCH  10  11
ATOM     11  C   UNL     1      -0.916 -50.635   3.547  1.00  0.00    -0.031 C 
ATOM     12  C   UNL     1      -1.641 -50.905   2.445  1.00  0.00    -0.031 C 
BRANCH  12  13
ATOM     13  C   UNL     1      -2.514 -52.124   2.269  1.00  0.00     0.027 C 
BRANCH  13  14
ATOM     14  C   UNL     1      -4.008 -51.773   2.325  1.00  0.00     0.004 C 
BRANCH  14  15
ATOM     15  C   UNL     1      -4.514 -51.622   3.771  1.00  0.00     0.000 C 
BRANCH  15  16
ATOM     16  C   UNL     1      -6.039 -51.793   3.891  1.00  0.00    -0.000 C 
BRANCH  16  17
ATOM     17  C   UNL     1      -6.790 -51.883   2.551  1.00  0.00    -0.003 C 
ATOM     18  C   UNL     1      -8.219 -51.344   2.627  1.00  0.00     0.004 C 
ENDBRANCH  16  17
ENDBRANCH  15  16
ENDBRANCH  14  15
ENDBRANCH  13  14
ENDBRANCH  12  13
ENDBRANCH  10  11
ENDBRANCH   1  10
TORSDOF 13
ENDMDL
