MODEL 1
REMARK VINA RESULT:    -3.518      0.000      0.000
REMARK INTER + INTRA:          -7.924
REMARK INTER:                  -6.191
REMARK INTRA:                  -1.732
REMARK UNBOUND:                -1.732
REMARK SMILES CCCCCCC=CCCCCCCCC(=O)[O-]
REMARK SMILES IDX 10 1 11 2 12 3 13 4 14 5 15 6 16 7 17 8 18 9 9 10 8 11 7 12
REMARK SMILES IDX 6 13 5 14 4 15 3 16 2 17 1 18
REMARK H PARENT
REMARK Flexibility Score: inf
ROOT
ATOM      1  C   UNL     1      60.834  32.831  59.133  1.00  0.00     0.004 C 
ENDROOT
BRANCH   1   2
ATOM      2  C   UNL     1      59.815  31.688  59.049  1.00  0.00     0.000 C 
BRANCH   2   3
ATOM      3  C   UNL     1      60.112  30.607  60.100  1.00  0.00     0.000 C 
BRANCH   3   4
ATOM      4  C   UNL     1      60.684  31.188  61.402  1.00  0.00     0.000 C 
BRANCH   4   5
ATOM      5  C   UNL     1      61.952  30.457  61.870  1.00  0.00     0.006 C 
BRANCH   5   6
ATOM      6  C   UNL     1      62.310  29.314  60.913  1.00  0.00     0.053 C 
BRANCH   6   7
ATOM      7  C   UNL     1      63.764  28.980  61.017  1.00  0.00     0.041 C 
ATOM      8  O   UNL     1      64.626  29.897  61.027  1.00  0.00    -0.550 OA
ATOM      9  O   UNL     1      64.171  27.652  61.052  1.00  0.00    -0.550 OA
ENDBRANCH   6   7
ENDBRANCH   5   6
ENDBRANCH   4   5
ENDBRANCH   3   4
ENDBRANCH   2   3
ENDBRANCH   1   2
BRANCH   1  10
ATOM     10  C   UNL     1      60.331  34.071  58.385  1.00  0.00     0.027 C 
BRANCH  10  11
ATOM     11  C   UNL     1      60.848  35.335  59.015  1.00  0.00    -0.031 C 
ATOM     12  C   UNL     1      60.947  35.465  60.347  1.00  0.00    -0.031 C 
BRANCH  12  13
ATOM     13  C   UNL     1      61.449  36.735  60.980  1.00  0.00     0.027 C 
BRANCH  13  14
ATOM     14  C   UNL     1      62.909  37.043  60.608  1.00  0.00     0.004 C 
BRANCH  14  15
ATOM     15  C   UNL     1      63.906  36.910  61.777  1.00  0.00     0.000 C 
BRANCH  15  16
ATOM     16  C   UNL     1      64.810  35.661  61.725  1.00  0.00    -0.000 C 
BRANCH  16  17
ATOM     17  C   UNL     1      64.556  34.727  60.529  1.00  0.00    -0.003 C 
ATOM     18  C   UNL     1      63.934  33.392  60.939  1.00  0.00     0.004 C 
ENDBRANCH  16  17
ENDBRANCH  15  16
ENDBRANCH  14  15
ENDBRANCH  13  14
ENDBRANCH  12  13
ENDBRANCH  10  11
ENDBRANCH   1  10
TORSDOF 13
ENDMDL
MODEL 2
REMARK VINA RESULT:    -3.455      1.937      3.467
REMARK INTER + INTRA:          -7.814
REMARK INTER:                  -6.173
REMARK INTRA:                  -1.641
REMARK UNBOUND:                -1.732
REMARK SMILES CCCCCCC=CCCCCCCCC(=O)[O-]
REMARK SMILES IDX 10 1 11 2 12 3 13 4 14 5 15 6 16 7 17 8 18 9 9 10 8 11 7 12
REMARK SMILES IDX 6 13 5 14 4 15 3 16 2 17 1 18
REMARK H PARENT
REMARK Flexibility Score: inf
ROOT
ATOM      1  C   UNL     1      60.481  29.866  60.988  1.00  0.00     0.004 C 
ENDROOT
BRANCH   1   2
ATOM      2  C   UNL     1      61.553  28.771  61.042  1.00  0.00     0.000 C 
BRANCH   2   3
ATOM      3  C   UNL     1      62.758  29.135  60.161  1.00  0.00     0.000 C 
BRANCH   3   4
ATOM      4  C   UNL     1      64.026  29.418  60.981  1.00  0.00     0.000 C 
BRANCH   4   5
ATOM      5  C   UNL     1      64.717  30.727  60.569  1.00  0.00     0.006 C 
BRANCH   5   6
ATOM      6  C   UNL     1      64.367  31.101  59.125  1.00  0.00     0.053 C 
BRANCH   6   7
ATOM      7  C   UNL     1      65.500  31.838  58.485  1.00  0.00     0.041 C 
ATOM      8  O   UNL     1      65.307  32.968  57.964  1.00  0.00    -0.550 OA
ATOM      9  O   UNL     1      66.758  31.254  58.417  1.00  0.00    -0.550 OA
ENDBRANCH   6   7
ENDBRANCH   5   6
ENDBRANCH   4   5
ENDBRANCH   3   4
ENDBRANCH   2   3
ENDBRANCH   1   2
BRANCH   1  10
ATOM     10  C   UNL     1      60.912  31.095  61.796  1.00  0.00     0.027 C 
BRANCH  10  11
ATOM     11  C   UNL     1      60.860  32.344  60.958  1.00  0.00    -0.031 C 
ATOM     12  C   UNL     1      61.945  33.112  60.777  1.00  0.00    -0.031 C 
BRANCH  12  13
ATOM     13  C   UNL     1      61.891  34.371  59.954  1.00  0.00     0.027 C 
BRANCH  13  14
ATOM     14  C   UNL     1      60.867  35.385  60.492  1.00  0.00     0.004 C 
BRANCH  14  15
ATOM     15  C   UNL     1      61.462  36.759  60.857  1.00  0.00     0.000 C 
BRANCH  15  16
ATOM     16  C   UNL     1      62.964  36.924  60.545  1.00  0.00    -0.000 C 
BRANCH  16  17
ATOM     17  C   UNL     1      63.882  36.951  61.780  1.00  0.00    -0.003 C 
ATOM     18  C   UNL     1      64.815  35.743  61.853  1.00  0.00     0.004 C 
ENDBRANCH  16  17
ENDBRANCH  15  16
ENDBRANCH  14  15
ENDBRANCH  13  14
ENDBRANCH  12  13
ENDBRANCH  10  11
ENDBRANCH   1  10
TORSDOF 13
ENDMDL
MODEL 3
REMARK VINA RESULT:    -3.424      1.490      2.279
REMARK INTER + INTRA:          -7.758
REMARK INTER:                  -6.173
REMARK INTRA:                  -1.585
REMARK UNBOUND:                -1.732
REMARK SMILES CCCCCCC=CCCCCCCCC(=O)[O-]
REMARK SMILES IDX 10 1 11 2 12 3 13 4 14 5 15 6 16 7 17 8 18 9 9 10 8 11 7 12
REMARK SMILES IDX 6 13 5 14 4 15 3 16 2 17 1 18
REMARK H PARENT
REMARK Flexibility Score: inf
ROOT
ATOM      1  C   UNL     1      60.839  31.763  59.887  1.00  0.00     0.004 C 
ENDROOT
BRANCH   1   2
ATOM      2  C   UNL     1      60.816  31.594  61.411  1.00  0.00     0.000 C 
BRANCH   2   3
ATOM      3  C   UNL     1      61.806  30.507  61.860  1.00  0.00     0.000 C 
BRANCH   3   4
ATOM      4  C   UNL     1      63.266  30.872  61.550  1.00  0.00     0.000 C 
BRANCH   4   5
ATOM      5  C   UNL     1      63.965  29.821  60.674  1.00  0.00     0.006 C 
BRANCH   5   6
ATOM      6  C   UNL     1      63.350  28.434  60.886  1.00  0.00     0.053 C 
BRANCH   6   7
ATOM      7  C   UNL     1      64.362  27.365  60.622  1.00  0.00     0.041 C 
ATOM      8  O   UNL     1      63.993  26.179  60.416  1.00  0.00    -0.550 OA
ATOM      9  O   UNL     1      65.717  27.669  60.653  1.00  0.00    -0.550 OA
ENDBRANCH   6   7
ENDBRANCH   5   6
ENDBRANCH   4   5
ENDBRANCH   3   4
ENDBRANCH   2   3
ENDBRANCH   1   2
BRANCH   1  10
ATOM     10  C   UNL     1      60.792  33.246  59.500  1.00  0.00     0.027 C 
BRANCH  10  11
ATOM     11  C   UNL     1      61.874  34.025  60.195  1.00  0.00    -0.031 C 
ATOM     12  C   UNL     1      61.684  35.294  60.586  1.00  0.00    -0.031 C 
BRANCH  12  13
ATOM     13  C   UNL     1      62.772  36.082  61.267  1.00  0.00     0.027 C 
BRANCH  13  14
ATOM     14  C   UNL     1      64.038  35.244  61.517  1.00  0.00     0.004 C 
BRANCH  14  15
ATOM     15  C   UNL     1      65.357  35.966  61.177  1.00  0.00     0.000 C 
BRANCH  15  16
ATOM     16  C   UNL     1      65.369  36.700  59.820  1.00  0.00    -0.000 C 
BRANCH  16  17
ATOM     17  C   UNL     1      65.443  35.782  58.588  1.00  0.00    -0.003 C 
ATOM     18  C   UNL     1      64.156  35.789  57.763  1.00  0.00     0.004 C 
ENDBRANCH  16  17
ENDBRANCH  15  16
ENDBRANCH  14  15
ENDBRANCH  13  14
ENDBRANCH  12  13
ENDBRANCH  10  11
ENDBRANCH   1  10
TORSDOF 13
ENDMDL
MODEL 4
REMARK VINA RESULT:    -3.420      1.423      2.571
REMARK INTER + INTRA:          -7.752
REMARK INTER:                  -5.925
REMARK INTRA:                  -1.827
REMARK UNBOUND:                -1.732
REMARK SMILES CCCCCCC=CCCCCCCCC(=O)[O-]
REMARK SMILES IDX 10 1 11 2 12 3 13 4 14 5 15 6 16 7 17 8 18 9 9 10 8 11 7 12
REMARK SMILES IDX 6 13 5 14 4 15 3 16 2 17 1 18
REMARK H PARENT
REMARK Flexibility Score: inf
ROOT
ATOM      1  C   UNL     1      60.672  31.353  61.573  1.00  0.00     0.004 C 
ENDROOT
BRANCH   1   2
ATOM      2  C   UNL     1      61.785  30.345  61.884  1.00  0.00     0.000 C 
BRANCH   2   3
ATOM      3  C   UNL     1      61.807  29.211  60.849  1.00  0.00     0.000 C 
BRANCH   3   4
ATOM      4  C   UNL     1      62.599  27.985  61.330  1.00  0.00     0.000 C 
BRANCH   4   5
ATOM      5  C   UNL     1      63.599  27.477  60.279  1.00  0.00     0.006 C 
BRANCH   5   6
ATOM      6  C   UNL     1      65.024  27.930  60.615  1.00  0.00     0.053 C 
BRANCH   6   7
ATOM      7  C   UNL     1      65.486  28.969  59.643  1.00  0.00     0.041 C 
ATOM      8  O   UNL     1      66.580  29.565  59.824  1.00  0.00    -0.550 OA
ATOM      9  O   UNL     1      64.683  29.317  58.564  1.00  0.00    -0.550 OA
ENDBRANCH   6   7
ENDBRANCH   5   6
ENDBRANCH   4   5
ENDBRANCH   3   4
ENDBRANCH   2   3
ENDBRANCH   1   2
BRANCH   1  10
ATOM     10  C   UNL     1      60.539  31.574  60.062  1.00  0.00     0.027 C 
BRANCH  10  11
ATOM     11  C   UNL     1      60.922  32.978  59.681  1.00  0.00    -0.031 C 
ATOM     12  C   UNL     1      61.123  33.926  60.609  1.00  0.00    -0.031 C 
BRANCH  12  13
ATOM     13  C   UNL     1      61.489  35.336  60.230  1.00  0.00     0.027 C 
BRANCH  13  14
ATOM     14  C   UNL     1      62.615  35.910  61.107  1.00  0.00     0.004 C 
BRANCH  14  15
ATOM     15  C   UNL     1      63.869  35.018  61.198  1.00  0.00     0.000 C 
BRANCH  15  16
ATOM     16  C   UNL     1      64.593  34.770  59.858  1.00  0.00    -0.000 C 
BRANCH  16  17
ATOM     17  C   UNL     1      64.591  33.306  59.383  1.00  0.00    -0.003 C 
ATOM     18  C   UNL     1      64.421  32.309  60.528  1.00  0.00     0.004 C 
ENDBRANCH  16  17
ENDBRANCH  15  16
ENDBRANCH  14  15
ENDBRANCH  13  14
ENDBRANCH  12  13
ENDBRANCH  10  11
ENDBRANCH   1  10
TORSDOF 13
ENDMDL
MODEL 5
REMARK VINA RESULT:    -3.380     11.149     13.660
REMARK INTER + INTRA:          -7.681
REMARK INTER:                  -5.607
REMARK INTRA:                  -2.074
REMARK UNBOUND:                -1.732
REMARK SMILES CCCCCCC=CCCCCCCCC(=O)[O-]
REMARK SMILES IDX 10 1 11 2 12 3 13 4 14 5 15 6 16 7 17 8 18 9 9 10 8 11 7 12
REMARK SMILES IDX 6 13 5 14 4 15 3 16 2 17 1 18
REMARK H PARENT
REMARK Flexibility Score: inf
ROOT
ATOM      1  C   UNL     1      53.897  29.707  51.926  1.00  0.00     0.004 C 
ENDROOT
BRANCH   1   2
ATOM      2  C   UNL     1      55.252  30.355  52.237  1.00  0.00     0.000 C 
BRANCH   2   3
ATOM      3  C   UNL     1      56.316  29.289  52.539  1.00  0.00     0.000 C 
BRANCH   3   4
ATOM      4  C   UNL     1      57.579  29.454  51.679  1.00  0.00     0.000 C 
BRANCH   4   5
ATOM      5  C   UNL     1      57.336  29.114  50.201  1.00  0.00     0.006 C 
BRANCH   5   6
ATOM      6  C   UNL     1      58.509  29.581  49.332  1.00  0.00     0.053 C 
BRANCH   6   7
ATOM      7  C   UNL     1      59.682  28.669  49.501  1.00  0.00     0.041 C 
ATOM      8  O   UNL     1      60.784  29.122  49.907  1.00  0.00    -0.550 OA
ATOM      9  O   UNL     1      59.574  27.326  49.161  1.00  0.00    -0.550 OA
ENDBRANCH   6   7
ENDBRANCH   5   6
ENDBRANCH   4   5
ENDBRANCH   3   4
ENDBRANCH   2   3
ENDBRANCH   1   2
BRANCH   1  10
ATOM     10  C   UNL     1      53.553  29.845  50.438  1.00  0.00     0.027 C 
BRANCH  10  11
ATOM     11  C   UNL     1      53.238  28.507  49.826  1.00  0.00    -0.031 C 
ATOM     12  C   UNL     1      54.083  27.470  49.935  1.00  0.00    -0.031 C 
BRANCH  12  13
ATOM     13  C   UNL     1      53.777  26.136  49.308  1.00  0.00     0.027 C 
BRANCH  13  14
ATOM     14  C   UNL     1      53.284  25.101  50.334  1.00  0.00     0.004 C 
BRANCH  14  15
ATOM     15  C   UNL     1      53.348  25.577  51.799  1.00  0.00     0.000 C 
BRANCH  15  16
ATOM     16  C   UNL     1      54.438  24.903  52.658  1.00  0.00    -0.000 C 
BRANCH  16  17
ATOM     17  C   UNL     1      55.682  25.769  52.920  1.00  0.00    -0.003 C 
ATOM     18  C   UNL     1      56.725  25.664  51.807  1.00  0.00     0.004 C 
ENDBRANCH  16  17
ENDBRANCH  15  16
ENDBRANCH  14  15
ENDBRANCH  13  14
ENDBRANCH  12  13
ENDBRANCH  10  11
ENDBRANCH   1  10
TORSDOF 13
ENDMDL
MODEL 6
REMARK VINA RESULT:    -3.344      9.964     12.399
REMARK INTER + INTRA:          -7.618
REMARK INTER:                  -5.737
REMARK INTRA:                  -1.881
REMARK UNBOUND:                -1.732
REMARK SMILES CCCCCCC=CCCCCCCCC(=O)[O-]
REMARK SMILES IDX 10 1 11 2 12 3 13 4 14 5 15 6 16 7 17 8 18 9 9 10 8 11 7 12
REMARK SMILES IDX 6 13 5 14 4 15 3 16 2 17 1 18
REMARK H PARENT
REMARK Flexibility Score: inf
ROOT
ATOM      1  C   UNL     1      54.412  26.029  49.357  1.00  0.00     0.004 C 
ENDROOT
BRANCH   1   2
ATOM      2  C   UNL     1      55.239  26.076  50.648  1.00  0.00     0.000 C 
BRANCH   2   3
ATOM      3  C   UNL     1      56.706  26.423  50.350  1.00  0.00     0.000 C 
BRANCH   3   4
ATOM      4  C   UNL     1      57.164  27.711  51.053  1.00  0.00     0.000 C 
BRANCH   4   5
ATOM      5  C   UNL     1      57.217  28.917  50.102  1.00  0.00     0.006 C 
BRANCH   5   6
ATOM      6  C   UNL     1      58.539  29.677  50.255  1.00  0.00     0.053 C 
BRANCH   6   7
ATOM      7  C   UNL     1      59.698  28.739  50.152  1.00  0.00     0.041 C 
ATOM      8  O   UNL     1      60.502  28.616  51.114  1.00  0.00    -0.550 OA
ATOM      9  O   UNL     1      59.922  28.037  48.975  1.00  0.00    -0.550 OA
ENDBRANCH   6   7
ENDBRANCH   5   6
ENDBRANCH   4   5
ENDBRANCH   3   4
ENDBRANCH   2   3
ENDBRANCH   1   2
BRANCH   1  10
ATOM     10  C   UNL     1      53.205  26.970  49.444  1.00  0.00     0.027 C 
BRANCH  10  11
ATOM     11  C   UNL     1      53.450  28.079  50.431  1.00  0.00    -0.031 C 
ATOM     12  C   UNL     1      53.342  29.369  50.078  1.00  0.00    -0.031 C 
BRANCH  12  13
ATOM     13  C   UNL     1      53.604  30.480  51.059  1.00  0.00     0.027 C 
BRANCH  13  14
ATOM     14  C   UNL     1      54.553  30.055  52.192  1.00  0.00     0.004 C 
BRANCH  14  15
ATOM     15  C   UNL     1      55.228  31.228  52.932  1.00  0.00     0.000 C 
BRANCH  15  16
ATOM     16  C   UNL     1      56.608  30.909  53.542  1.00  0.00    -0.000 C 
BRANCH  16  17
ATOM     17  C   UNL     1      57.768  31.763  53.001  1.00  0.00    -0.003 C 
ATOM     18  C   UNL     1      57.756  33.192  53.542  1.00  0.00     0.004 C 
ENDBRANCH  16  17
ENDBRANCH  15  16
ENDBRANCH  14  15
ENDBRANCH  13  14
ENDBRANCH  12  13
ENDBRANCH  10  11
ENDBRANCH   1  10
TORSDOF 13
ENDMDL
MODEL 7
REMARK VINA RESULT:    -3.320      2.435      5.879
REMARK INTER + INTRA:          -7.576
REMARK INTER:                  -5.827
REMARK INTRA:                  -1.749
REMARK UNBOUND:                -1.732
REMARK SMILES CCCCCCC=CCCCCCCCC(=O)[O-]
REMARK SMILES IDX 10 1 11 2 12 3 13 4 14 5 15 6 16 7 17 8 18 9 9 10 8 11 7 12
REMARK SMILES IDX 6 13 5 14 4 15 3 16 2 17 1 18
REMARK H PARENT
REMARK Flexibility Score: inf
ROOT
ATOM      1  C   UNL     1      61.142  32.270  61.240  1.00  0.00     0.004 C 
ENDROOT
BRANCH   1   2
ATOM      2  C   UNL     1      60.915  32.548  59.749  1.00  0.00     0.000 C 
BRANCH   2   3
ATOM      3  C   UNL     1      61.307  33.990  59.392  1.00  0.00     0.000 C 
BRANCH   3   4
ATOM      4  C   UNL     1      61.260  34.934  60.603  1.00  0.00     0.000 C 
BRANCH   4   5
ATOM      5  C   UNL     1      61.846  36.320  60.296  1.00  0.00     0.006 C 
BRANCH   5   6
ATOM      6  C   UNL     1      62.953  36.681  61.292  1.00  0.00     0.053 C 
BRANCH   6   7
ATOM      7  C   UNL     1      64.155  35.819  61.074  1.00  0.00     0.041 C 
ATOM      8  O   UNL     1      64.628  35.138  62.023  1.00  0.00    -0.550 OA
ATOM      9  O   UNL     1      64.786  35.805  59.837  1.00  0.00    -0.550 OA
ENDBRANCH   6   7
ENDBRANCH   5   6
ENDBRANCH   4   5
ENDBRANCH   3   4
ENDBRANCH   2   3
ENDBRANCH   1   2
BRANCH   1  10
ATOM     10  C   UNL     1      60.338  31.048  61.699  1.00  0.00     0.027 C 
BRANCH  10  11
ATOM     11  C   UNL     1      60.951  29.771  61.191  1.00  0.00    -0.031 C 
ATOM     12  C   UNL     1      62.086  29.282  61.714  1.00  0.00    -0.031 C 
BRANCH  12  13
ATOM     13  C   UNL     1      62.710  28.014  61.196  1.00  0.00     0.027 C 
BRANCH  13  14
ATOM     14  C   UNL     1      64.074  28.258  60.527  1.00  0.00     0.004 C 
BRANCH  14  15
ATOM     15  C   UNL     1      64.176  29.590  59.758  1.00  0.00     0.000 C 
BRANCH  15  16
ATOM     16  C   UNL     1      65.004  30.687  60.459  1.00  0.00    -0.000 C 
BRANCH  16  17
ATOM     17  C   UNL     1      64.567  32.129  60.144  1.00  0.00    -0.003 C 
ATOM     18  C   UNL     1      64.619  32.453  58.651  1.00  0.00     0.004 C 
ENDBRANCH  16  17
ENDBRANCH  15  16
ENDBRANCH  14  15
ENDBRANCH  13  14
ENDBRANCH  12  13
ENDBRANCH  10  11
ENDBRANCH   1  10
TORSDOF 13
ENDMDL
MODEL 8
REMARK VINA RESULT:    -3.277     10.265     12.906
REMARK INTER + INTRA:          -7.499
REMARK INTER:                  -5.112
REMARK INTRA:                  -2.387
REMARK UNBOUND:                -1.732
REMARK SMILES CCCCCCC=CCCCCCCCC(=O)[O-]
REMARK SMILES IDX 10 1 11 2 12 3 13 4 14 5 15 6 16 7 17 8 18 9 9 10 8 11 7 12
REMARK SMILES IDX 6 13 5 14 4 15 3 16 2 17 1 18
REMARK H PARENT
REMARK Flexibility Score: inf
ROOT
ATOM      1  C   UNL     1      59.778  30.007  51.678  1.00  0.00     0.004 C 
ENDROOT
BRANCH   1   2
ATOM      2  C   UNL     1      60.158  29.696  50.225  1.00  0.00     0.000 C 
BRANCH   2   3
ATOM      3  C   UNL     1      58.905  29.481  49.361  1.00  0.00     0.000 C 
BRANCH   3   4
ATOM      4  C   UNL     1      57.605  29.548  50.178  1.00  0.00     0.000 C 
BRANCH   4   5
ATOM      5  C   UNL     1      56.834  28.220  50.172  1.00  0.00     0.006 C 
BRANCH   5   6
ATOM      6  C   UNL     1      55.444  28.390  50.795  1.00  0.00     0.053 C 
BRANCH   6   7
ATOM      7  C   UNL     1      54.411  27.689  49.971  1.00  0.00     0.041 C 
ATOM      8  O   UNL     1      54.627  26.527  49.537  1.00  0.00    -0.550 OA
ATOM      9  O   UNL     1      53.229  28.339  49.639  1.00  0.00    -0.550 OA
ENDBRANCH   6   7
ENDBRANCH   5   6
ENDBRANCH   4   5
ENDBRANCH   3   4
ENDBRANCH   2   3
ENDBRANCH   1   2
BRANCH   1  10
ATOM     10  C   UNL     1      60.802  29.412  52.651  1.00  0.00     0.027 C 
BRANCH  10  11
ATOM     11  C   UNL     1      60.443  28.000  53.025  1.00  0.00    -0.031 C 
ATOM     12  C   UNL     1      59.190  27.537  52.895  1.00  0.00    -0.031 C 
BRANCH  12  13
ATOM     13  C   UNL     1      58.825  26.130  53.285  1.00  0.00     0.027 C 
BRANCH  13  14
ATOM     14  C   UNL     1      59.252  25.096  52.229  1.00  0.00     0.004 C 
BRANCH  14  15
ATOM     15  C   UNL     1      58.804  25.431  50.792  1.00  0.00     0.000 C 
BRANCH  15  16
ATOM     16  C   UNL     1      59.925  25.936  49.859  1.00  0.00    -0.000 C 
BRANCH  16  17
ATOM     17  C   UNL     1      61.352  25.586  50.315  1.00  0.00    -0.003 C 
ATOM     18  C   UNL     1      62.346  26.724  50.082  1.00  0.00     0.004 C 
ENDBRANCH  16  17
ENDBRANCH  15  16
ENDBRANCH  14  15
ENDBRANCH  13  14
ENDBRANCH  12  13
ENDBRANCH  10  11
ENDBRANCH   1  10
TORSDOF 13
ENDMDL
MODEL 9
REMARK VINA RESULT:    -3.261     10.467     12.702
REMARK INTER + INTRA:          -7.472
REMARK INTER:                  -5.600
REMARK INTRA:                  -1.872
REMARK UNBOUND:                -1.732
REMARK SMILES CCCCCCC=CCCCCCCCC(=O)[O-]
REMARK SMILES IDX 10 1 11 2 12 3 13 4 14 5 15 6 16 7 17 8 18 9 9 10 8 11 7 12
REMARK SMILES IDX 6 13 5 14 4 15 3 16 2 17 1 18
REMARK H PARENT
REMARK Flexibility Score: inf
ROOT
ATOM      1  C   UNL     1      61.617  26.501  50.632  1.00  0.00     0.004 C 
ENDROOT
BRANCH   1   2
ATOM      2  C   UNL     1      62.795  26.965  49.765  1.00  0.00     0.000 C 
BRANCH   2   3
ATOM      3  C   UNL     1      62.940  28.494  49.806  1.00  0.00     0.000 C 
BRANCH   3   4
ATOM      4  C   UNL     1      62.412  29.104  51.113  1.00  0.00     0.000 C 
BRANCH   4   5
ATOM      5  C   UNL     1      62.817  30.576  51.285  1.00  0.00     0.006 C 
BRANCH   5   6
ATOM      6  C   UNL     1      61.838  31.502  50.556  1.00  0.00     0.053 C 
BRANCH   6   7
ATOM      7  C   UNL     1      62.545  32.278  49.490  1.00  0.00     0.041 C 
ATOM      8  O   UNL     1      63.702  31.942  49.123  1.00  0.00    -0.550 OA
ATOM      9  O   UNL     1      61.947  33.404  48.938  1.00  0.00    -0.550 OA
ENDBRANCH   6   7
ENDBRANCH   5   6
ENDBRANCH   4   5
ENDBRANCH   3   4
ENDBRANCH   2   3
ENDBRANCH   1   2
BRANCH   1  10
ATOM     10  C   UNL     1      60.364  26.275  49.778  1.00  0.00     0.027 C 
BRANCH  10  11
ATOM     11  C   UNL     1      59.339  27.351  50.020  1.00  0.00    -0.031 C 
ATOM     12  C   UNL     1      59.284  28.451  49.254  1.00  0.00    -0.031 C 
BRANCH  12  13
ATOM     13  C   UNL     1      58.271  29.536  49.505  1.00  0.00     0.027 C 
BRANCH  13  14
ATOM     14  C   UNL     1      58.030  29.783  51.004  1.00  0.00     0.004 C 
BRANCH  14  15
ATOM     15  C   UNL     1      56.707  29.201  51.540  1.00  0.00     0.000 C 
BRANCH  15  16
ATOM     16  C   UNL     1      55.643  28.897  50.465  1.00  0.00    -0.000 C 
BRANCH  16  17
ATOM     17  C   UNL     1      55.427  27.402  50.173  1.00  0.00    -0.003 C 
ATOM     18  C   UNL     1      55.943  26.497  51.291  1.00  0.00     0.004 C 
ENDBRANCH  16  17
ENDBRANCH  15  16
ENDBRANCH  14  15
ENDBRANCH  13  14
ENDBRANCH  12  13
ENDBRANCH  10  11
ENDBRANCH   1  10
TORSDOF 13
ENDMDL
