MODEL 1
REMARK VINA RESULT:    -7.039      0.000      0.000
REMARK INTER + INTRA:         -11.705
REMARK INTER:                 -10.331
REMARK INTRA:                  -1.374
REMARK UNBOUND:                -1.374
REMARK SMILES Cc1cc2c(C(C)C)c(O)c(O)c(C=O)c2c(O)c1-c1c(C)cc2c(C(C)C)c(O)c(O)c(C=O)c2c1O
REMARK SMILES IDX 1 1 2 2 3 3 4 4 16 5 13 6 11 7 9 8 5 9 17 10 19 11 20 12
REMARK SMILES IDX 37 13 21 14 36 15 23 16 22 17 24 18 33 19 25 20 31 21 29 22
REMARK SMILES IDX 38 23 34 25 35 26 26 27 27 28 28 29 32 30 30 32 18 34 6 36
REMARK SMILES IDX 7 37 8 38 14 39 15 40 10 41 12 43
REMARK H PARENT 38 24 32 31 30 33 18 35 10 42 12 44
REMARK Flexibility Score: inf
ROOT
ATOM      1  C   UNL     1      15.392  11.200  21.645  1.00  0.00     0.045 C 
ATOM      2  C   UNL     1      14.915  10.056  22.506  1.00  0.00    -0.039 A 
ATOM      3  C   UNL     1      14.733  10.257  23.875  1.00  0.00     0.013 A 
ATOM      4  C   UNL     1      14.298   9.218  24.728  1.00  0.00    -0.006 A 
ATOM      5  C   UNL     1      13.897   7.978  24.147  1.00  0.00     0.039 A 
ATOM      6  C   UNL     1      13.246   7.011  24.971  1.00  0.00     0.072 A 
ATOM      7  C   UNL     1      13.015   7.293  26.334  1.00  0.00     0.169 A 
ATOM      8  C   UNL     1      13.511   8.467  26.911  1.00  0.00     0.162 A 
ATOM      9  C   UNL     1      14.233   9.403  26.142  1.00  0.00     0.008 A 
ATOM     10  C   UNL     1      14.177   7.746  22.767  1.00  0.00     0.132 A 
ATOM     11  C   UNL     1      14.685   8.785  21.957  1.00  0.00     0.031 A 
ENDROOT
BRANCH  11  12
ATOM     12  C   UNL     1      14.974   8.543  20.518  1.00  0.00     0.031 A 
ATOM     13  C   UNL     1      14.011   8.858  19.538  1.00  0.00     0.132 A 
ATOM     14  C   UNL     1      16.195   7.958  20.143  1.00  0.00    -0.039 A 
ATOM     15  C   UNL     1      14.309   8.689  18.155  1.00  0.00     0.039 A 
ATOM     16  C   UNL     1      16.441   7.684  18.796  1.00  0.00     0.013 A 
ATOM     17  C   UNL     1      17.215   7.556  21.179  1.00  0.00     0.045 C 
ATOM     18  C   UNL     1      15.535   8.064  17.780  1.00  0.00    -0.006 A 
ATOM     19  C   UNL     1      13.394   9.072  17.133  1.00  0.00     0.072 A 
ATOM     20  C   UNL     1      15.806   7.789  16.403  1.00  0.00     0.008 A 
ATOM     21  C   UNL     1      13.587   8.630  15.816  1.00  0.00     0.169 A 
ATOM     22  C   UNL     1      14.753   7.923  15.470  1.00  0.00     0.162 A 
BRANCH  13  23
ATOM     23  O   UNL     1      12.740   9.287  19.936  1.00  0.00    -0.507 OA
ATOM     24  H   UNL     1      11.965   9.421  19.299  1.00  0.00     0.293 HD
ENDBRANCH  13  23
BRANCH  19  25
ATOM     25  C   UNL     1      12.264  10.001  17.368  1.00  0.00     0.264 C 
ATOM     26  O   UNL     1      11.087   9.567  17.480  1.00  0.00    -0.298 OA
ENDBRANCH  19  25
BRANCH  20  27
ATOM     27  C   UNL     1      17.186   7.299  15.930  1.00  0.00     0.017 C 
ATOM     28  C   UNL     1      17.166   5.793  15.644  1.00  0.00     0.012 C 
ATOM     29  C   UNL     1      17.750   8.088  14.732  1.00  0.00     0.012 C 
ENDBRANCH  20  27
BRANCH  21  30
ATOM     30  O   UNL     1      12.621   8.951  14.856  1.00  0.00    -0.504 OA
ATOM     31  H   UNL     1      12.834   9.241  13.911  1.00  0.00     0.293 HD
ENDBRANCH  21  30
BRANCH  22  32
ATOM     32  O   UNL     1      14.884   7.340  14.206  1.00  0.00    -0.504 OA
ATOM     33  H   UNL     1      15.762   7.241  13.716  1.00  0.00     0.293 HD
ENDBRANCH  22  32
ENDBRANCH  11  12
BRANCH  10  34
ATOM     34  O   UNL     1      13.975   6.479  22.207  1.00  0.00    -0.507 OA
ATOM     35  H   UNL     1      14.707   5.791  22.088  1.00  0.00     0.293 HD
ENDBRANCH  10  34
BRANCH   9  36
ATOM     36  C   UNL     1      14.919  10.595  26.833  1.00  0.00     0.017 C 
ATOM     37  C   UNL     1      13.891  11.643  27.267  1.00  0.00     0.012 C 
ATOM     38  C   UNL     1      15.834  10.187  28.002  1.00  0.00     0.012 C 
ENDBRANCH   9  36
BRANCH   6  39
ATOM     39  C   UNL     1      12.712   5.749  24.418  1.00  0.00     0.264 C 
ATOM     40  O   UNL     1      11.497   5.652  24.099  1.00  0.00    -0.298 OA
ENDBRANCH   6  39
BRANCH   8  41
ATOM     41  O   UNL     1      13.264   8.721  28.263  1.00  0.00    -0.504 OA
ATOM     42  H   UNL     1      13.989   8.708  28.970  1.00  0.00     0.293 HD
ENDBRANCH   8  41
BRANCH   7  43
ATOM     43  O   UNL     1      12.270   6.429  27.146  1.00  0.00    -0.504 OA
ATOM     44  H   UNL     1      12.660   5.890  27.907  1.00  0.00     0.293 HD
ENDBRANCH   7  43
TORSDOF 11
ENDMDL
MODEL 2
REMARK VINA RESULT:    -7.027      2.683      5.132
REMARK INTER + INTRA:         -11.687
REMARK INTER:                 -10.317
REMARK INTRA:                  -1.370
REMARK UNBOUND:                -1.374
REMARK SMILES Cc1cc2c(C(C)C)c(O)c(O)c(C=O)c2c(O)c1-c1c(C)cc2c(C(C)C)c(O)c(O)c(C=O)c2c1O
REMARK SMILES IDX 1 1 2 2 3 3 4 4 16 5 13 6 11 7 9 8 5 9 17 10 19 11 20 12
REMARK SMILES IDX 37 13 21 14 36 15 23 16 22 17 24 18 33 19 25 20 31 21 29 22
REMARK SMILES IDX 38 23 34 25 35 26 26 27 27 28 28 29 32 30 30 32 18 34 6 36
REMARK SMILES IDX 7 37 8 38 14 39 15 40 10 41 12 43
REMARK H PARENT 38 24 32 31 30 33 18 35 10 42 12 44
REMARK Flexibility Score: inf
ROOT
ATOM      1  C   UNL     1      15.371   5.893  25.245  1.00  0.00     0.045 C 
ATOM      2  C   UNL     1      14.715   6.968  26.076  1.00  0.00    -0.039 A 
ATOM      3  C   UNL     1      14.712   6.854  27.467  1.00  0.00     0.013 A 
ATOM      4  C   UNL     1      14.103   7.826  28.291  1.00  0.00    -0.006 A 
ATOM      5  C   UNL     1      13.610   9.023  27.691  1.00  0.00     0.039 A 
ATOM      6  C   UNL     1      13.204  10.100  28.535  1.00  0.00     0.072 A 
ATOM      7  C   UNL     1      13.293   9.964  29.936  1.00  0.00     0.169 A 
ATOM      8  C   UNL     1      13.675   8.746  30.510  1.00  0.00     0.162 A 
ATOM      9  C   UNL     1      14.000   7.636  29.703  1.00  0.00     0.008 A 
ATOM     10  C   UNL     1      13.526   9.090  26.267  1.00  0.00     0.132 A 
ATOM     11  C   UNL     1      14.077   8.062  25.471  1.00  0.00     0.031 A 
ENDROOT
BRANCH  11  12
ATOM     12  C   UNL     1      13.992   8.135  23.988  1.00  0.00     0.031 A 
ATOM     13  C   UNL     1      14.974   8.831  23.254  1.00  0.00     0.132 A 
ATOM     14  C   UNL     1      12.906   7.543  23.324  1.00  0.00    -0.039 A 
ATOM     15  C   UNL     1      14.932   8.848  21.829  1.00  0.00     0.039 A 
ATOM     16  C   UNL     1      12.802   7.658  21.935  1.00  0.00     0.013 A 
ATOM     17  C   UNL     1      11.811   6.846  24.093  1.00  0.00     0.045 C 
ATOM     18  C   UNL     1      13.810   8.274  21.160  1.00  0.00    -0.006 A 
ATOM     19  C   UNL     1      15.950   9.470  21.051  1.00  0.00     0.072 A 
ATOM     20  C   UNL     1      13.697   8.374  19.739  1.00  0.00     0.008 A 
ATOM     21  C   UNL     1      15.735   9.723  19.688  1.00  0.00     0.169 A 
ATOM     22  C   UNL     1      14.576   9.243  19.052  1.00  0.00     0.162 A 
BRANCH  13  23
ATOM     23  O   UNL     1      15.960   9.553  23.936  1.00  0.00    -0.507 OA
ATOM     24  H   UNL     1      16.824   9.866  23.512  1.00  0.00     0.293 HD
ENDBRANCH  13  23
BRANCH  19  25
ATOM     25  C   UNL     1      17.289   9.802  21.590  1.00  0.00     0.264 C 
ATOM     26  O   UNL     1      17.648  11.002  21.728  1.00  0.00    -0.298 OA
ENDBRANCH  19  25
BRANCH  20  27
ATOM     27  C   UNL     1      12.615   7.609  18.955  1.00  0.00     0.017 C 
ATOM     28  C   UNL     1      11.457   8.538  18.571  1.00  0.00     0.012 C 
ATOM     29  C   UNL     1      13.154   6.850  17.728  1.00  0.00     0.012 C 
ENDBRANCH  20  27
BRANCH  21  30
ATOM     30  O   UNL     1      16.720  10.415  18.974  1.00  0.00    -0.504 OA
ATOM     31  H   UNL     1      17.509   9.974  18.523  1.00  0.00     0.293 HD
ENDBRANCH  21  30
BRANCH  22  32
ATOM     32  O   UNL     1      14.272   9.623  17.742  1.00  0.00    -0.504 OA
ATOM     33  H   UNL     1      14.814   9.351  16.933  1.00  0.00     0.293 HD
ENDBRANCH  22  32
ENDBRANCH  11  12
BRANCH  10  34
ATOM     34  O   UNL     1      12.875  10.162  25.646  1.00  0.00    -0.507 OA
ATOM     35  H   UNL     1      12.382  10.889  26.146  1.00  0.00     0.293 HD
ENDBRANCH  10  34
BRANCH   9  36
ATOM     36  C   UNL     1      14.245   6.263  30.353  1.00  0.00     0.017 C 
ATOM     37  C   UNL     1      13.508   5.157  29.593  1.00  0.00     0.012 C 
ATOM     38  C   UNL     1      15.736   5.923  30.534  1.00  0.00     0.012 C 
ENDBRANCH   9  36
BRANCH   6  39
ATOM     39  C   UNL     1      12.779  11.404  27.984  1.00  0.00     0.264 C 
ATOM     40  O   UNL     1      11.569  11.751  28.019  1.00  0.00    -0.298 OA
ENDBRANCH   6  39
BRANCH   8  41
ATOM     41  O   UNL     1      13.758   8.643  31.901  1.00  0.00    -0.504 OA
ATOM     42  H   UNL     1      13.564   7.785  32.404  1.00  0.00     0.293 HD
ENDBRANCH   8  41
BRANCH   7  43
ATOM     43  O   UNL     1      13.026  11.037  30.796  1.00  0.00    -0.504 OA
ATOM     44  H   UNL     1      12.876  11.987  30.486  1.00  0.00     0.293 HD
ENDBRANCH   7  43
TORSDOF 11
ENDMDL
MODEL 3
REMARK VINA RESULT:    -6.901      0.548      9.128
REMARK INTER + INTRA:         -11.502
REMARK INTER:                 -10.232
REMARK INTRA:                  -1.270
REMARK UNBOUND:                -1.374
REMARK SMILES Cc1cc2c(C(C)C)c(O)c(O)c(C=O)c2c(O)c1-c1c(C)cc2c(C(C)C)c(O)c(O)c(C=O)c2c1O
REMARK SMILES IDX 1 1 2 2 3 3 4 4 16 5 13 6 11 7 9 8 5 9 17 10 19 11 20 12
REMARK SMILES IDX 37 13 21 14 36 15 23 16 22 17 24 18 33 19 25 20 31 21 29 22
REMARK SMILES IDX 38 23 34 25 35 26 26 27 27 28 28 29 32 30 30 32 18 34 6 36
REMARK SMILES IDX 7 37 8 38 14 39 15 40 10 41 12 43
REMARK H PARENT 38 24 32 31 30 33 18 35 10 42 12 44
REMARK Flexibility Score: inf
ROOT
ATOM      1  C   UNL     1      17.008   6.751  20.866  1.00  0.00     0.045 C 
ATOM      2  C   UNL     1      16.101   7.384  19.839  1.00  0.00    -0.039 A 
ATOM      3  C   UNL     1      16.350   7.175  18.482  1.00  0.00     0.013 A 
ATOM      4  C   UNL     1      15.539   7.752  17.480  1.00  0.00    -0.006 A 
ATOM      5  C   UNL     1      14.353   8.442  17.871  1.00  0.00     0.039 A 
ATOM      6  C   UNL     1      13.417   8.826  16.864  1.00  0.00     0.072 A 
ATOM      7  C   UNL     1      13.678   8.523  15.512  1.00  0.00     0.169 A 
ATOM      8  C   UNL     1      14.894   7.944  15.135  1.00  0.00     0.162 A 
ATOM      9  C   UNL     1      15.876   7.631  16.098  1.00  0.00     0.008 A 
ATOM     10  C   UNL     1      14.157   8.736  19.254  1.00  0.00     0.132 A 
ATOM     11  C   UNL     1      15.032   8.207  20.228  1.00  0.00     0.031 A 
ENDROOT
BRANCH  11  12
ATOM     12  C   UNL     1      14.825   8.511  21.668  1.00  0.00     0.031 A 
ATOM     13  C   UNL     1      14.050   7.651  22.471  1.00  0.00     0.132 A 
ATOM     14  C   UNL     1      15.370   9.684  22.216  1.00  0.00    -0.039 A 
ATOM     15  C   UNL     1      13.903   7.904  23.866  1.00  0.00     0.039 A 
ATOM     16  C   UNL     1      15.129   9.993  23.557  1.00  0.00     0.013 A 
ATOM     17  C   UNL     1      16.151  10.651  21.362  1.00  0.00     0.045 C 
ATOM     18  C   UNL     1      14.429   9.113  24.412  1.00  0.00    -0.006 A 
ATOM     19  C   UNL     1      13.197   7.014  24.725  1.00  0.00     0.072 A 
ATOM     20  C   UNL     1      14.202   9.435  25.786  1.00  0.00     0.008 A 
ATOM     21  C   UNL     1      12.823   7.430  26.012  1.00  0.00     0.169 A 
ATOM     22  C   UNL     1      13.260   8.670  26.511  1.00  0.00     0.162 A 
BRANCH  13  23
ATOM     23  O   UNL     1      13.379   6.575  21.878  1.00  0.00    -0.507 OA
ATOM     24  H   UNL     1      12.433   6.629  21.521  1.00  0.00     0.293 HD
ENDBRANCH  13  23
BRANCH  19  25
ATOM     25  C   UNL     1      12.895   5.610  24.361  1.00  0.00     0.264 C 
ATOM     26  O   UNL     1      11.725   5.263  24.052  1.00  0.00    -0.298 OA
ENDBRANCH  19  25
BRANCH  20  27
ATOM     27  C   UNL     1      14.907  10.621  26.468  1.00  0.00     0.017 C 
ATOM     28  C   UNL     1      13.907  11.728  26.817  1.00  0.00     0.012 C 
ATOM     29  C   UNL     1      15.750  10.222  27.695  1.00  0.00     0.012 C 
ENDBRANCH  20  27
BRANCH  21  30
ATOM     30  O   UNL     1      12.053   6.562  26.796  1.00  0.00    -0.504 OA
ATOM     31  H   UNL     1      11.863   6.704  27.778  1.00  0.00     0.293 HD
ENDBRANCH  21  30
BRANCH  22  32
ATOM     32  O   UNL     1      12.766   9.165  27.721  1.00  0.00    -0.504 OA
ATOM     33  H   UNL     1      12.365  10.086  27.836  1.00  0.00     0.293 HD
ENDBRANCH  22  32
ENDBRANCH  11  12
BRANCH  10  34
ATOM     34  O   UNL     1      13.110   9.572  19.659  1.00  0.00    -0.507 OA
ATOM     35  H   UNL     1      12.248   9.239  20.070  1.00  0.00     0.293 HD
ENDBRANCH  10  34
BRANCH   9  36
ATOM     36  C   UNL     1      17.270   7.160  15.645  1.00  0.00     0.017 C 
ATOM     37  C   UNL     1      17.228   5.709  15.158  1.00  0.00     0.012 C 
ATOM     38  C   UNL     1      17.923   8.085  14.600  1.00  0.00     0.012 C 
ENDBRANCH   9  36
BRANCH   6  39
ATOM     39  C   UNL     1      12.122   9.452  17.204  1.00  0.00     0.264 C 
ATOM     40  O   UNL     1      12.047  10.690  17.430  1.00  0.00    -0.298 OA
ENDBRANCH   6  39
BRANCH   8  41
ATOM     41  O   UNL     1      15.123   7.652  13.788  1.00  0.00    -0.504 OA
ATOM     42  H   UNL     1      14.829   8.260  13.032  1.00  0.00     0.293 HD
ENDBRANCH   8  41
BRANCH   7  43
ATOM     43  O   UNL     1      12.731   8.768  14.509  1.00  0.00    -0.504 OA
ATOM     44  H   UNL     1      12.892   8.602  13.525  1.00  0.00     0.293 HD
ENDBRANCH   7  43
TORSDOF 11
ENDMDL
MODEL 4
REMARK VINA RESULT:    -6.842      2.338      9.684
REMARK INTER + INTRA:         -11.416
REMARK INTER:                 -10.034
REMARK INTRA:                  -1.382
REMARK UNBOUND:                -1.374
REMARK SMILES Cc1cc2c(C(C)C)c(O)c(O)c(C=O)c2c(O)c1-c1c(C)cc2c(C(C)C)c(O)c(O)c(C=O)c2c1O
REMARK SMILES IDX 1 1 2 2 3 3 4 4 16 5 13 6 11 7 9 8 5 9 17 10 19 11 20 12
REMARK SMILES IDX 37 13 21 14 36 15 23 16 22 17 24 18 33 19 25 20 31 21 29 22
REMARK SMILES IDX 38 23 34 25 35 26 26 27 27 28 28 29 32 30 30 32 18 34 6 36
REMARK SMILES IDX 7 37 8 38 14 39 15 40 10 41 12 43
REMARK H PARENT 38 24 32 31 30 33 18 35 10 42 12 44
REMARK Flexibility Score: inf
ROOT
ATOM      1  C   UNL     1      11.468   9.154  23.650  1.00  0.00     0.045 C 
ATOM      2  C   UNL     1      12.688   8.895  22.800  1.00  0.00    -0.039 A 
ATOM      3  C   UNL     1      12.568   8.896  21.409  1.00  0.00     0.013 A 
ATOM      4  C   UNL     1      13.675   8.649  20.568  1.00  0.00    -0.006 A 
ATOM      5  C   UNL     1      14.972   8.543  21.153  1.00  0.00     0.039 A 
ATOM      6  C   UNL     1      16.114   8.523  20.298  1.00  0.00     0.072 A 
ATOM      7  C   UNL     1      15.944   8.605  18.900  1.00  0.00     0.169 A 
ATOM      8  C   UNL     1      14.663   8.598  18.337  1.00  0.00     0.162 A 
ATOM      9  C   UNL     1      13.514   8.533  19.154  1.00  0.00     0.008 A 
ATOM     10  C   UNL     1      15.075   8.444  22.574  1.00  0.00     0.132 A 
ATOM     11  C   UNL     1      13.933   8.619  23.386  1.00  0.00     0.031 A 
ENDROOT
BRANCH  11  12
ATOM     12  C   UNL     1      14.043   8.519  24.866  1.00  0.00     0.031 A 
ATOM     13  C   UNL     1      13.881   7.274  25.507  1.00  0.00     0.132 A 
ATOM     14  C   UNL     1      14.266   9.679  25.627  1.00  0.00    -0.039 A 
ATOM     15  C   UNL     1      14.051   7.163  26.918  1.00  0.00     0.039 A 
ATOM     16  C   UNL     1      14.316   9.589  27.020  1.00  0.00     0.013 A 
ATOM     17  C   UNL     1      14.380  11.031  24.967  1.00  0.00     0.045 C 
ATOM     18  C   UNL     1      14.243   8.347  27.690  1.00  0.00    -0.006 A 
ATOM     19  C   UNL     1      13.976   5.910  27.591  1.00  0.00     0.072 A 
ATOM     20  C   UNL     1      14.310   8.268  29.116  1.00  0.00     0.008 A 
ATOM     21  C   UNL     1      13.855   5.870  28.988  1.00  0.00     0.169 A 
ATOM     22  C   UNL     1      13.944   7.054  29.741  1.00  0.00     0.162 A 
BRANCH  13  23
ATOM     23  O   UNL     1      13.499   6.158  24.755  1.00  0.00    -0.507 OA
ATOM     24  H   UNL     1      12.716   5.561  24.990  1.00  0.00     0.293 HD
ENDBRANCH  13  23
BRANCH  19  25
ATOM     25  C   UNL     1      14.104   4.610  26.892  1.00  0.00     0.264 C 
ATOM     26  O   UNL     1      13.086   3.914  26.637  1.00  0.00    -0.298 OA
ENDBRANCH  19  25
BRANCH  20  27
ATOM     27  C   UNL     1      14.709   9.479  29.978  1.00  0.00     0.017 C 
ATOM     28  C   UNL     1      13.481  10.103  30.651  1.00  0.00     0.012 C 
ATOM     29  C   UNL     1      15.815   9.174  31.007  1.00  0.00     0.012 C 
ENDBRANCH  20  27
BRANCH  21  30
ATOM     30  O   UNL     1      13.695   4.625  29.608  1.00  0.00    -0.504 OA
ATOM     31  H   UNL     1      13.450   4.503  30.581  1.00  0.00     0.293 HD
ENDBRANCH  21  30
BRANCH  22  32
ATOM     32  O   UNL     1      13.666   7.050  31.111  1.00  0.00    -0.504 OA
ATOM     33  H   UNL     1      12.734   7.014  31.500  1.00  0.00     0.293 HD
ENDBRANCH  22  32
ENDBRANCH  11  12
BRANCH  10  34
ATOM     34  O   UNL     1      16.303   8.148  23.176  1.00  0.00    -0.507 OA
ATOM     35  H   UNL     1      17.012   8.839  23.382  1.00  0.00     0.293 HD
ENDBRANCH  10  34
BRANCH   9  36
ATOM     36  C   UNL     1      12.128   8.349  18.510  1.00  0.00     0.017 C 
ATOM     37  C   UNL     1      11.651   9.648  17.855  1.00  0.00     0.012 C 
ATOM     38  C   UNL     1      12.056   7.164  17.529  1.00  0.00     0.012 C 
ENDBRANCH   9  36
BRANCH   6  39
ATOM     39  C   UNL     1      17.490   8.517  20.836  1.00  0.00     0.264 C 
ATOM     40  O   UNL     1      18.125   9.595  20.986  1.00  0.00    -0.298 OA
ENDBRANCH   6  39
BRANCH   8  41
ATOM     41  O   UNL     1      14.526   8.684  16.950  1.00  0.00    -0.504 OA
ATOM     42  H   UNL     1      15.019   9.367  16.386  1.00  0.00     0.293 HD
ENDBRANCH   8  41
BRANCH   7  43
ATOM     43  O   UNL     1      17.039   8.715  18.033  1.00  0.00    -0.504 OA
ATOM     44  H   UNL     1      18.000   8.584  18.315  1.00  0.00     0.293 HD
ENDBRANCH   7  43
TORSDOF 11
ENDMDL
MODEL 5
REMARK VINA RESULT:    -6.756      2.672      9.673
REMARK INTER + INTRA:         -11.289
REMARK INTER:                 -10.341
REMARK INTRA:                  -0.948
REMARK UNBOUND:                -1.374
REMARK SMILES Cc1cc2c(C(C)C)c(O)c(O)c(C=O)c2c(O)c1-c1c(C)cc2c(C(C)C)c(O)c(O)c(C=O)c2c1O
REMARK SMILES IDX 1 1 2 2 3 3 4 4 16 5 13 6 11 7 9 8 5 9 17 10 19 11 20 12
REMARK SMILES IDX 37 13 21 14 36 15 23 16 22 17 24 18 33 19 25 20 31 21 29 22
REMARK SMILES IDX 38 23 34 25 35 26 26 27 27 28 28 29 32 30 30 32 18 34 6 36
REMARK SMILES IDX 7 37 8 38 14 39 15 40 10 41 12 43
REMARK H PARENT 38 24 32 31 30 33 18 35 10 42 12 44
REMARK Flexibility Score: inf
ROOT
ATOM      1  C   UNL     1      11.446   7.449  23.872  1.00  0.00     0.045 C 
ATOM      2  C   UNL     1      12.675   7.914  23.129  1.00  0.00    -0.039 A 
ATOM      3  C   UNL     1      12.654   7.966  21.734  1.00  0.00     0.013 A 
ATOM      4  C   UNL     1      13.780   8.383  20.990  1.00  0.00    -0.006 A 
ATOM      5  C   UNL     1      14.911   8.902  21.689  1.00  0.00     0.039 A 
ATOM      6  C   UNL     1      15.951   9.533  20.943  1.00  0.00     0.072 A 
ATOM      7  C   UNL     1      15.848   9.630  19.540  1.00  0.00     0.169 A 
ATOM      8  C   UNL     1      14.787   9.020  18.861  1.00  0.00     0.162 A 
ATOM      9  C   UNL     1      13.787   8.315  19.564  1.00  0.00     0.008 A 
ATOM     10  C   UNL     1      14.964   8.755  23.108  1.00  0.00     0.132 A 
ATOM     11  C   UNL     1      13.848   8.261  23.817  1.00  0.00     0.031 A 
ENDROOT
BRANCH  11  12
ATOM     12  C   UNL     1      13.904   8.112  25.296  1.00  0.00     0.031 A 
ATOM     13  C   UNL     1      13.554   9.191  26.132  1.00  0.00     0.132 A 
ATOM     14  C   UNL     1      14.349   6.903  25.856  1.00  0.00    -0.039 A 
ATOM     15  C   UNL     1      13.543   9.031  27.549  1.00  0.00     0.039 A 
ATOM     16  C   UNL     1      14.450   6.784  27.244  1.00  0.00     0.013 A 
ATOM     17  C   UNL     1      14.788   5.755  24.980  1.00  0.00     0.045 C 
ATOM     18  C   UNL     1      14.028   7.814  28.114  1.00  0.00    -0.006 A 
ATOM     19  C   UNL     1      13.117  10.072  28.423  1.00  0.00     0.072 A 
ATOM     20  C   UNL     1      14.124   7.673  29.533  1.00  0.00     0.008 A 
ATOM     21  C   UNL     1      13.393   9.991  29.796  1.00  0.00     0.169 A 
ATOM     22  C   UNL     1      13.966   8.826  30.337  1.00  0.00     0.162 A 
BRANCH  13  23
ATOM     23  O   UNL     1      13.270  10.437  25.564  1.00  0.00    -0.507 OA
ATOM     24  H   UNL     1      13.791  11.281  25.766  1.00  0.00     0.293 HD
ENDBRANCH  13  23
BRANCH  19  25
ATOM     25  C   UNL     1      12.309  11.226  27.969  1.00  0.00     0.264 C 
ATOM     26  O   UNL     1      11.116  11.070  27.594  1.00  0.00    -0.298 OA
ENDBRANCH  19  25
BRANCH  20  27
ATOM     27  C   UNL     1      14.453   6.323  30.195  1.00  0.00     0.017 C 
ATOM     28  C   UNL     1      13.539   5.214  29.661  1.00  0.00     0.012 C 
ATOM     29  C   UNL     1      15.937   5.923  30.089  1.00  0.00     0.012 C 
ENDBRANCH  20  27
BRANCH  21  30
ATOM     30  O   UNL     1      13.039  11.072  30.612  1.00  0.00    -0.504 OA
ATOM     31  H   UNL     1      13.612  11.893  30.747  1.00  0.00     0.293 HD
ENDBRANCH  21  30
BRANCH  22  32
ATOM     32  O   UNL     1      14.391   8.792  31.667  1.00  0.00    -0.504 OA
ATOM     33  H   UNL     1      14.665   9.609  32.196  1.00  0.00     0.293 HD
ENDBRANCH  22  32
ENDBRANCH  11  12
BRANCH  10  34
ATOM     34  O   UNL     1      16.133   9.075  23.809  1.00  0.00    -0.507 OA
ATOM     35  H   UNL     1      16.443  10.021  23.987  1.00  0.00     0.293 HD
ENDBRANCH  10  34
BRANCH   9  36
ATOM     36  C   UNL     1      12.732   7.507  18.788  1.00  0.00     0.017 C 
ATOM     37  C   UNL     1      11.589   8.409  18.314  1.00  0.00     0.012 C 
ATOM     38  C   UNL     1      13.318   6.684  17.626  1.00  0.00     0.012 C 
ENDBRANCH   9  36
BRANCH   6  39
ATOM     39  C   UNL     1      17.101  10.182  21.606  1.00  0.00     0.264 C 
ATOM     40  O   UNL     1      17.482  11.330  21.252  1.00  0.00    -0.298 OA
ENDBRANCH   6  39
BRANCH   8  41
ATOM     41  O   UNL     1      14.709   9.135  17.471  1.00  0.00    -0.504 OA
ATOM     42  H   UNL     1      14.529  10.014  16.998  1.00  0.00     0.293 HD
ENDBRANCH   8  41
BRANCH   7  43
ATOM     43  O   UNL     1      16.781  10.349  18.783  1.00  0.00    -0.504 OA
ATOM     44  H   UNL     1      17.213  11.211  19.086  1.00  0.00     0.293 HD
ENDBRANCH   7  43
TORSDOF 11
ENDMDL
MODEL 6
REMARK VINA RESULT:    -6.683      2.267      4.310
REMARK INTER + INTRA:         -11.182
REMARK INTER:                  -9.826
REMARK INTRA:                  -1.357
REMARK UNBOUND:                -1.374
REMARK SMILES Cc1cc2c(C(C)C)c(O)c(O)c(C=O)c2c(O)c1-c1c(C)cc2c(C(C)C)c(O)c(O)c(C=O)c2c1O
REMARK SMILES IDX 1 1 2 2 3 3 4 4 16 5 13 6 11 7 9 8 5 9 17 10 19 11 20 12
REMARK SMILES IDX 37 13 21 14 36 15 23 16 22 17 24 18 33 19 25 20 31 21 29 22
REMARK SMILES IDX 38 23 34 25 35 26 26 27 27 28 28 29 32 30 30 32 18 34 6 36
REMARK SMILES IDX 7 37 8 38 14 39 15 40 10 41 12 43
REMARK H PARENT 38 24 32 31 30 33 18 35 10 42 12 44
REMARK Flexibility Score: inf
ROOT
ATOM      1  C   UNL     1      14.371  10.962  24.876  1.00  0.00     0.045 C 
ATOM      2  C   UNL     1      14.226   9.670  25.643  1.00  0.00    -0.039 A 
ATOM      3  C   UNL     1      14.428   9.665  27.024  1.00  0.00     0.013 A 
ATOM      4  C   UNL     1      14.317   8.482  27.787  1.00  0.00    -0.006 A 
ATOM      5  C   UNL     1      13.842   7.297  27.150  1.00  0.00     0.039 A 
ATOM      6  C   UNL     1      13.510   6.167  27.956  1.00  0.00     0.072 A 
ATOM      7  C   UNL     1      13.659   6.238  29.357  1.00  0.00     0.169 A 
ATOM      8  C   UNL     1      14.228   7.367  29.956  1.00  0.00     0.162 A 
ATOM      9  C   UNL     1      14.645   8.467  29.176  1.00  0.00     0.008 A 
ATOM     10  C   UNL     1      13.732   7.282  25.726  1.00  0.00     0.132 A 
ATOM     11  C   UNL     1      13.926   8.467  24.983  1.00  0.00     0.031 A 
ENDROOT
BRANCH  11  12
ATOM     12  C   UNL     1      13.809   8.452  23.501  1.00  0.00     0.031 A 
ATOM     13  C   UNL     1      14.930   8.146  22.703  1.00  0.00     0.132 A 
ATOM     14  C   UNL     1      12.585   8.784  22.897  1.00  0.00    -0.039 A 
ATOM     15  C   UNL     1      14.806   8.065  21.286  1.00  0.00     0.039 A 
ATOM     16  C   UNL     1      12.493   8.819  21.504  1.00  0.00     0.013 A 
ATOM     17  C   UNL     1      11.389   9.175  23.729  1.00  0.00     0.045 C 
ATOM     18  C   UNL     1      13.571   8.437  20.674  1.00  0.00    -0.006 A 
ATOM     19  C   UNL     1      15.895   7.680  20.453  1.00  0.00     0.072 A 
ATOM     20  C   UNL     1      13.458   8.464  19.250  1.00  0.00     0.008 A 
ATOM     21  C   UNL     1      15.827   7.892  19.068  1.00  0.00     0.169 A 
ATOM     22  C   UNL     1      14.638   8.356  18.478  1.00  0.00     0.162 A 
BRANCH  13  23
ATOM     23  O   UNL     1      16.180   7.976  23.310  1.00  0.00    -0.507 OA
ATOM     24  H   UNL     1      16.744   8.740  23.660  1.00  0.00     0.293 HD
ENDBRANCH  13  23
BRANCH  19  25
ATOM     25  C   UNL     1      17.093   6.976  20.965  1.00  0.00     0.264 C 
ATOM     26  O   UNL     1      18.125   7.619  21.295  1.00  0.00    -0.298 OA
ENDBRANCH  19  25
BRANCH  20  27
ATOM     27  C   UNL     1      12.104   8.667  18.547  1.00  0.00     0.017 C 
ATOM     28  C   UNL     1      12.014  10.063  17.920  1.00  0.00     0.012 C 
ATOM     29  C   UNL     1      11.766   7.569  17.519  1.00  0.00     0.012 C 
ENDBRANCH  20  27
BRANCH  21  30
ATOM     30  O   UNL     1      16.950   7.583  18.291  1.00  0.00    -0.504 OA
ATOM     31  H   UNL     1      17.541   8.273  17.849  1.00  0.00     0.293 HD
ENDBRANCH  21  30
BRANCH  22  32
ATOM     32  O   UNL     1      14.606   8.723  17.130  1.00  0.00    -0.504 OA
ATOM     33  H   UNL     1      14.164   8.177  16.404  1.00  0.00     0.293 HD
ENDBRANCH  22  32
ENDBRANCH  11  12
BRANCH  10  34
ATOM     34  O   UNL     1      13.455   6.089  25.049  1.00  0.00    -0.507 OA
ATOM     35  H   UNL     1      12.594   5.568  25.152  1.00  0.00     0.293 HD
ENDBRANCH  10  34
BRANCH   9  36
ATOM     36  C   UNL     1      15.426   9.618  29.834  1.00  0.00     0.017 C 
ATOM     37  C   UNL     1      14.526  10.425  30.774  1.00  0.00     0.012 C 
ATOM     38  C   UNL     1      16.714   9.162  30.544  1.00  0.00     0.012 C 
ENDBRANCH   9  36
BRANCH   6  39
ATOM     39  C   UNL     1      12.918   4.943  27.376  1.00  0.00     0.264 C 
ATOM     40  O   UNL     1      13.605   3.894  27.254  1.00  0.00    -0.298 OA
ENDBRANCH   6  39
BRANCH   8  41
ATOM     41  O   UNL     1      14.359   7.410  31.346  1.00  0.00    -0.504 OA
ATOM     42  H   UNL     1      14.443   6.579  31.920  1.00  0.00     0.293 HD
ENDBRANCH   8  41
BRANCH   7  43
ATOM     43  O   UNL     1      13.228   5.201  30.194  1.00  0.00    -0.504 OA
ATOM     44  H   UNL     1      13.608   4.264  30.177  1.00  0.00     0.293 HD
ENDBRANCH   7  43
TORSDOF 11
ENDMDL
MODEL 7
REMARK VINA RESULT:    -6.631      1.524      9.100
REMARK INTER + INTRA:         -11.106
REMARK INTER:                  -9.822
REMARK INTRA:                  -1.284
REMARK UNBOUND:                -1.374
REMARK SMILES Cc1cc2c(C(C)C)c(O)c(O)c(C=O)c2c(O)c1-c1c(C)cc2c(C(C)C)c(O)c(O)c(C=O)c2c1O
REMARK SMILES IDX 1 1 2 2 3 3 4 4 16 5 13 6 11 7 9 8 5 9 17 10 19 11 20 12
REMARK SMILES IDX 37 13 21 14 36 15 23 16 22 17 24 18 33 19 25 20 31 21 29 22
REMARK SMILES IDX 38 23 34 25 35 26 26 27 27 28 28 29 32 30 30 32 18 34 6 36
REMARK SMILES IDX 7 37 8 38 14 39 15 40 10 41 12 43
REMARK H PARENT 38 24 32 31 30 33 18 35 10 42 12 44
REMARK Flexibility Score: inf
ROOT
ATOM      1  C   UNL     1      12.719  10.154  19.721  1.00  0.00     0.045 C 
ATOM      2  C   UNL     1      13.768   9.204  19.197  1.00  0.00    -0.039 A 
ATOM      3  C   UNL     1      13.822   8.929  17.829  1.00  0.00     0.013 A 
ATOM      4  C   UNL     1      14.776   8.039  17.288  1.00  0.00    -0.006 A 
ATOM      5  C   UNL     1      15.799   7.527  18.142  1.00  0.00     0.039 A 
ATOM      6  C   UNL     1      16.891   6.817  17.559  1.00  0.00     0.072 A 
ATOM      7  C   UNL     1      16.941   6.631  16.162  1.00  0.00     0.169 A 
ATOM      8  C   UNL     1      15.877   7.043  15.352  1.00  0.00     0.162 A 
ATOM      9  C   UNL     1      14.744   7.672  15.909  1.00  0.00     0.008 A 
ATOM     10  C   UNL     1      15.681   7.733  19.550  1.00  0.00     0.132 A 
ATOM     11  C   UNL     1      14.666   8.567  20.067  1.00  0.00     0.031 A 
ENDROOT
BRANCH  11  12
ATOM     12  C   UNL     1      14.546   8.783  21.534  1.00  0.00     0.031 A 
ATOM     13  C   UNL     1      13.829   7.866  22.329  1.00  0.00     0.132 A 
ATOM     14  C   UNL     1      15.115   9.926  22.118  1.00  0.00    -0.039 A 
ATOM     15  C   UNL     1      13.767   8.033  23.743  1.00  0.00     0.039 A 
ATOM     16  C   UNL     1      14.956  10.152  23.487  1.00  0.00     0.013 A 
ATOM     17  C   UNL     1      15.834  10.952  21.277  1.00  0.00     0.045 C 
ATOM     18  C   UNL     1      14.317   9.213  24.328  1.00  0.00    -0.006 A 
ATOM     19  C   UNL     1      13.122   7.086  24.588  1.00  0.00     0.072 A 
ATOM     20  C   UNL     1      14.172   9.450  25.730  1.00  0.00     0.008 A 
ATOM     21  C   UNL     1      12.825   7.419  25.918  1.00  0.00     0.169 A 
ATOM     22  C   UNL     1      13.283   8.632  26.464  1.00  0.00     0.162 A 
BRANCH  13  23
ATOM     23  O   UNL     1      13.131   6.821  21.714  1.00  0.00    -0.507 OA
ATOM     24  H   UNL     1      12.730   6.880  20.786  1.00  0.00     0.293 HD
ENDBRANCH  13  23
BRANCH  19  25
ATOM     25  C   UNL     1      12.809   5.703  24.159  1.00  0.00     0.264 C 
ATOM     26  O   UNL     1      11.622   5.357  23.919  1.00  0.00    -0.298 OA
ENDBRANCH  19  25
BRANCH  20  27
ATOM     27  C   UNL     1      14.910  10.601  26.439  1.00  0.00     0.017 C 
ATOM     28  C   UNL     1      13.927  11.687  26.890  1.00  0.00     0.012 C 
ATOM     29  C   UNL     1      15.808  10.141  27.603  1.00  0.00     0.012 C 
ENDBRANCH  20  27
BRANCH  21  30
ATOM     30  O   UNL     1      12.112   6.498  26.694  1.00  0.00    -0.504 OA
ATOM     31  H   UNL     1      12.453   5.579  26.940  1.00  0.00     0.293 HD
ENDBRANCH  21  30
BRANCH  22  32
ATOM     32  O   UNL     1      12.861   9.048  27.730  1.00  0.00    -0.504 OA
ATOM     33  H   UNL     1      11.899   9.239  27.973  1.00  0.00     0.293 HD
ENDBRANCH  22  32
ENDBRANCH  11  12
BRANCH  10  34
ATOM     34  O   UNL     1      16.553   7.089  20.435  1.00  0.00    -0.507 OA
ATOM     35  H   UNL     1      17.421   6.652  20.154  1.00  0.00     0.293 HD
ENDBRANCH  10  34
BRANCH   9  36
ATOM     36  C   UNL     1      13.515   7.956  15.027  1.00  0.00     0.017 C 
ATOM     37  C   UNL     1      13.880   8.871  13.855  1.00  0.00     0.012 C 
ATOM     38  C   UNL     1      12.797   6.682  14.543  1.00  0.00     0.012 C 
ENDBRANCH   9  36
BRANCH   6  39
ATOM     39  C   UNL     1      18.036   6.348  18.368  1.00  0.00     0.264 C 
ATOM     40  O   UNL     1      18.125   5.139  18.712  1.00  0.00    -0.298 OA
ENDBRANCH   6  39
BRANCH   8  41
ATOM     41  O   UNL     1      15.956   6.849  13.971  1.00  0.00    -0.504 OA
ATOM     42  H   UNL     1      16.261   7.570  13.327  1.00  0.00     0.293 HD
ENDBRANCH   8  41
BRANCH   7  43
ATOM     43  O   UNL     1      18.053   6.053  15.538  1.00  0.00    -0.504 OA
ATOM     44  H   UNL     1      18.832   5.642  16.034  1.00  0.00     0.293 HD
ENDBRANCH   7  43
TORSDOF 11
ENDMDL
MODEL 8
REMARK VINA RESULT:    -6.377      2.111      9.423
REMARK INTER + INTRA:         -10.733
REMARK INTER:                  -9.283
REMARK INTRA:                  -1.450
REMARK UNBOUND:                -1.374
REMARK SMILES Cc1cc2c(C(C)C)c(O)c(O)c(C=O)c2c(O)c1-c1c(C)cc2c(C(C)C)c(O)c(O)c(C=O)c2c1O
REMARK SMILES IDX 1 1 2 2 3 3 4 4 16 5 13 6 11 7 9 8 5 9 17 10 19 11 20 12
REMARK SMILES IDX 37 13 21 14 36 15 23 16 22 17 24 18 33 19 25 20 31 21 29 22
REMARK SMILES IDX 38 23 34 25 35 26 26 27 27 28 28 29 32 30 30 32 18 34 6 36
REMARK SMILES IDX 7 37 8 38 14 39 15 40 10 41 12 43
REMARK H PARENT 38 24 32 31 30 33 18 35 10 42 12 44
REMARK Flexibility Score: inf
ROOT
ATOM      1  C   UNL     1      17.504   8.965  18.631  1.00  0.00     0.045 C 
ATOM      2  C   UNL     1      16.442   8.283  17.804  1.00  0.00    -0.039 A 
ATOM      3  C   UNL     1      16.631   8.139  16.428  1.00  0.00     0.013 A 
ATOM      4  C   UNL     1      15.664   7.520  15.606  1.00  0.00    -0.006 A 
ATOM      5  C   UNL     1      14.537   6.897  16.222  1.00  0.00     0.039 A 
ATOM      6  C   UNL     1      13.682   6.078  15.425  1.00  0.00     0.072 A 
ATOM      7  C   UNL     1      13.960   5.901  14.054  1.00  0.00     0.169 A 
ATOM      8  C   UNL     1      15.003   6.605  13.443  1.00  0.00     0.162 A 
ATOM      9  C   UNL     1      15.814   7.488  14.187  1.00  0.00     0.008 A 
ATOM     10  C   UNL     1      14.300   7.132  17.610  1.00  0.00     0.132 A 
ATOM     11  C   UNL     1      15.252   7.824  18.390  1.00  0.00     0.031 A 
ENDROOT
BRANCH  11  12
ATOM     12  C   UNL     1      15.005   8.065  19.837  1.00  0.00     0.031 A 
ATOM     13  C   UNL     1      15.478   7.151  20.800  1.00  0.00     0.132 A 
ATOM     14  C   UNL     1      14.261   9.187  20.237  1.00  0.00    -0.039 A 
ATOM     15  C   UNL     1      15.301   7.412  22.190  1.00  0.00     0.039 A 
ATOM     16  C   UNL     1      13.986   9.382  21.593  1.00  0.00     0.013 A 
ATOM     17  C   UNL     1      13.691  10.145  19.221  1.00  0.00     0.045 C 
ATOM     18  C   UNL     1      14.516   8.534  22.591  1.00  0.00    -0.006 A 
ATOM     19  C   UNL     1      15.836   6.555  23.193  1.00  0.00     0.072 A 
ATOM     20  C   UNL     1      14.238   8.753  23.976  1.00  0.00     0.008 A 
ATOM     21  C   UNL     1      15.402   6.674  24.522  1.00  0.00     0.169 A 
ATOM     22  C   UNL     1      14.544   7.724  24.896  1.00  0.00     0.162 A 
BRANCH  13  23
ATOM     23  O   UNL     1      16.076   5.958  20.379  1.00  0.00    -0.507 OA
ATOM     24  H   UNL     1      17.046   5.881  20.099  1.00  0.00     0.293 HD
ENDBRANCH  13  23
BRANCH  19  25
ATOM     25  C   UNL     1      16.912   5.573  22.926  1.00  0.00     0.264 C 
ATOM     26  O   UNL     1      16.655   4.342  22.853  1.00  0.00    -0.298 OA
ENDBRANCH  19  25
BRANCH  20  27
ATOM     27  C   UNL     1      13.566  10.045  24.474  1.00  0.00     0.017 C 
ATOM     28  C   UNL     1      12.149   9.765  24.986  1.00  0.00     0.012 C 
ATOM     29  C   UNL     1      14.396  10.816  25.519  1.00  0.00     0.012 C 
ENDBRANCH  20  27
BRANCH  21  30
ATOM     30  O   UNL     1      15.882   5.758  25.465  1.00  0.00    -0.504 OA
ATOM     31  H   UNL     1      16.751   5.866  25.969  1.00  0.00     0.293 HD
ENDBRANCH  21  30
BRANCH  22  32
ATOM     32  O   UNL     1      13.979   7.762  26.173  1.00  0.00    -0.504 OA
ATOM     33  H   UNL     1      14.139   8.501  26.843  1.00  0.00     0.293 HD
ENDBRANCH  22  32
ENDBRANCH  11  12
BRANCH  10  34
ATOM     34  O   UNL     1      13.110   6.701  18.208  1.00  0.00    -0.507 OA
ATOM     35  H   UNL     1      12.573   5.906  17.888  1.00  0.00     0.293 HD
ENDBRANCH  10  34
BRANCH   9  36
ATOM     36  C   UNL     1      16.838   8.380  13.462  1.00  0.00     0.017 C 
ATOM     37  C   UNL     1      17.979   7.544  12.878  1.00  0.00     0.012 C 
ATOM     38  C   UNL     1      16.210   9.298  12.396  1.00  0.00     0.012 C 
ENDBRANCH   9  36
BRANCH   6  39
ATOM     39  C   UNL     1      12.557   5.322  16.015  1.00  0.00     0.264 C 
ATOM     40  O   UNL     1      11.366   5.666  15.791  1.00  0.00    -0.298 OA
ENDBRANCH   6  39
BRANCH   8  41
ATOM     41  O   UNL     1      15.257   6.406  12.084  1.00  0.00    -0.504 OA
ATOM     42  H   UNL     1      15.972   6.912  11.574  1.00  0.00     0.293 HD
ENDBRANCH   8  41
BRANCH   7  43
ATOM     43  O   UNL     1      13.223   5.009  13.265  1.00  0.00    -0.504 OA
ATOM     44  H   UNL     1      13.626   4.229  12.764  1.00  0.00     0.293 HD
ENDBRANCH   7  43
TORSDOF 11
ENDMDL
MODEL 9
REMARK VINA RESULT:    -6.233      1.709      8.973
REMARK INTER + INTRA:         -10.521
REMARK INTER:                  -9.597
REMARK INTRA:                  -0.924
REMARK UNBOUND:                -1.374
REMARK SMILES Cc1cc2c(C(C)C)c(O)c(O)c(C=O)c2c(O)c1-c1c(C)cc2c(C(C)C)c(O)c(O)c(C=O)c2c1O
REMARK SMILES IDX 1 1 2 2 3 3 4 4 16 5 13 6 11 7 9 8 5 9 17 10 19 11 20 12
REMARK SMILES IDX 37 13 21 14 36 15 23 16 22 17 24 18 33 19 25 20 31 21 29 22
REMARK SMILES IDX 38 23 34 25 35 26 26 27 27 28 28 29 32 30 30 32 18 34 6 36
REMARK SMILES IDX 7 37 8 38 14 39 15 40 10 41 12 43
REMARK H PARENT 38 24 32 31 30 33 18 35 10 42 12 44
REMARK Flexibility Score: inf
ROOT
ATOM      1  C   UNL     1      17.117   6.274  21.838  1.00  0.00     0.045 C 
ATOM      2  C   UNL     1      16.082   6.795  20.870  1.00  0.00    -0.039 A 
ATOM      3  C   UNL     1      16.433   6.993  19.533  1.00  0.00     0.013 A 
ATOM      4  C   UNL     1      15.507   7.489  18.588  1.00  0.00    -0.006 A 
ATOM      5  C   UNL     1      14.145   7.649  18.982  1.00  0.00     0.039 A 
ATOM      6  C   UNL     1      13.167   7.928  17.980  1.00  0.00     0.072 A 
ATOM      7  C   UNL     1      13.560   8.042  16.630  1.00  0.00     0.169 A 
ATOM      8  C   UNL     1      14.912   7.991  16.276  1.00  0.00     0.162 A 
ATOM      9  C   UNL     1      15.910   7.801  17.255  1.00  0.00     0.008 A 
ATOM     10  C   UNL     1      13.815   7.541  20.366  1.00  0.00     0.132 A 
ATOM     11  C   UNL     1      14.786   7.116  21.300  1.00  0.00     0.031 A 
ENDROOT
BRANCH  11  12
ATOM     12  C   UNL     1      14.440   7.001  22.742  1.00  0.00     0.031 A 
ATOM     13  C   UNL     1      14.621   8.100  23.605  1.00  0.00     0.132 A 
ATOM     14  C   UNL     1      13.973   5.777  23.249  1.00  0.00    -0.039 A 
ATOM     15  C   UNL     1      14.229   8.014  24.973  1.00  0.00     0.039 A 
ATOM     16  C   UNL     1      13.699   5.657  24.613  1.00  0.00     0.013 A 
ATOM     17  C   UNL     1      13.830   4.569  22.356  1.00  0.00     0.045 C 
ATOM     18  C   UNL     1      13.787   6.760  25.492  1.00  0.00    -0.006 A 
ATOM     19  C   UNL     1      14.319   9.128  25.856  1.00  0.00     0.072 A 
ATOM     20  C   UNL     1      13.490   6.627  26.884  1.00  0.00     0.008 A 
ATOM     21  C   UNL     1      14.208   8.936  27.241  1.00  0.00     0.169 A 
ATOM     22  C   UNL     1      13.871   7.672  27.757  1.00  0.00     0.162 A 
BRANCH  13  23
ATOM     23  O   UNL     1      15.238   9.259  23.123  1.00  0.00    -0.507 OA
ATOM     24  H   UNL     1      15.123   9.608  22.179  1.00  0.00     0.293 HD
ENDBRANCH  13  23
BRANCH  19  25
ATOM     25  C   UNL     1      14.447  10.525  25.382  1.00  0.00     0.264 C 
ATOM     26  O   UNL     1      13.820  11.458  25.951  1.00  0.00    -0.298 OA
ENDBRANCH  19  25
BRANCH  20  27
ATOM     27  C   UNL     1      12.828   5.360  27.454  1.00  0.00     0.017 C 
ATOM     28  C   UNL     1      11.593   4.970  26.635  1.00  0.00     0.012 C 
ATOM     29  C   UNL     1      13.794   4.169  27.611  1.00  0.00     0.012 C 
ENDBRANCH  20  27
BRANCH  21  30
ATOM     30  O   UNL     1      14.390  10.039  28.084  1.00  0.00    -0.504 OA
ATOM     31  H   UNL     1      15.291  10.364  28.406  1.00  0.00     0.293 HD
ENDBRANCH  21  30
BRANCH  22  32
ATOM     32  O   UNL     1      13.914   7.428  29.132  1.00  0.00    -0.504 OA
ATOM     33  H   UNL     1      13.580   6.580  29.569  1.00  0.00     0.293 HD
ENDBRANCH  22  32
ENDBRANCH  11  12
BRANCH  10  34
ATOM     34  O   UNL     1      12.534   7.877  20.818  1.00  0.00    -0.507 OA
ATOM     35  H   UNL     1      12.147   8.811  20.774  1.00  0.00     0.293 HD
ENDBRANCH  10  34
BRANCH   9  36
ATOM     36  C   UNL     1      17.395   7.924  16.868  1.00  0.00     0.017 C 
ATOM     37  C   UNL     1      18.125   8.899  17.796  1.00  0.00     0.012 C 
ATOM     38  C   UNL     1      18.125   6.571  16.787  1.00  0.00     0.012 C 
ENDBRANCH   9  36
BRANCH   6  39
ATOM     39  C   UNL     1      11.726   8.006  18.298  1.00  0.00     0.264 C 
ATOM     40  O   UNL     1      11.098   9.090  18.165  1.00  0.00    -0.298 OA
ENDBRANCH   6  39
BRANCH   8  41
ATOM     41  O   UNL     1      15.271   8.103  14.930  1.00  0.00    -0.504 OA
ATOM     42  H   UNL     1      16.149   7.758  14.561  1.00  0.00     0.293 HD
ENDBRANCH   8  41
BRANCH   7  43
ATOM     43  O   UNL     1      12.620   8.190  15.602  1.00  0.00    -0.504 OA
ATOM     44  H   UNL     1      12.781   8.723  14.759  1.00  0.00     0.293 HD
ENDBRANCH   7  43
TORSDOF 11
ENDMDL
