MODEL 1
REMARK VINA RESULT:    -4.342      0.000      0.000
REMARK INTER + INTRA:         -10.029
REMARK INTER:                  -7.642
REMARK INTRA:                  -2.388
REMARK UNBOUND:                -2.388
REMARK SMILES CCCCCCC=CCCCCCCCC(=O)[O-]
REMARK SMILES IDX 10 1 11 2 12 3 13 4 14 5 15 6 16 7 17 8 18 9 9 10 8 11 7 12
REMARK SMILES IDX 6 13 5 14 4 15 3 16 2 17 1 18
REMARK H PARENT
REMARK Flexibility Score: inf
ROOT
ATOM      1  C   UNL     1      97.358   3.192  26.169  1.00  0.00     0.004 C 
ENDROOT
BRANCH   1   2
ATOM      2  C   UNL     1      96.772   2.283  25.083  1.00  0.00     0.000 C 
BRANCH   2   3
ATOM      3  C   UNL     1      96.230   3.108  23.906  1.00  0.00     0.000 C 
BRANCH   3   4
ATOM      4  C   UNL     1      96.064   4.596  24.254  1.00  0.00     0.000 C 
BRANCH   4   5
ATOM      5  C   UNL     1      96.551   5.527  23.128  1.00  0.00     0.006 C 
BRANCH   5   6
ATOM      6  C   UNL     1      97.318   6.740  23.671  1.00  0.00     0.053 C 
BRANCH   6   7
ATOM      7  C   UNL     1      96.764   7.206  24.983  1.00  0.00     0.041 C 
ATOM      8  O   UNL     1      95.673   7.831  25.023  1.00  0.00    -0.550 OA
ATOM      9  O   UNL     1      97.472   6.978  26.156  1.00  0.00    -0.550 OA
ENDBRANCH   6   7
ENDBRANCH   5   6
ENDBRANCH   4   5
ENDBRANCH   3   4
ENDBRANCH   2   3
ENDBRANCH   1   2
BRANCH   1  10
ATOM     10  C   UNL     1      98.882   3.046  26.242  1.00  0.00     0.027 C 
BRANCH  10  11
ATOM     11  C   UNL     1      99.570   4.248  25.648  1.00  0.00    -0.031 C 
ATOM     12  C   UNL     1      99.981   4.349  24.370  1.00  0.00    -0.031 C 
BRANCH  12  13
ATOM     13  C   UNL     1      99.875   3.255  23.333  1.00  0.00     0.027 C 
BRANCH  13  14
ATOM     14  C   UNL     1     101.239   2.606  23.067  1.00  0.00     0.004 C 
BRANCH  14  15
ATOM     15  C   UNL     1     101.225   1.094  23.351  1.00  0.00     0.000 C 
BRANCH  15  16
ATOM     16  C   UNL     1      99.824   0.573  23.708  1.00  0.00    -0.000 C 
BRANCH  16  17
ATOM     17  C   UNL     1      99.834  -0.341  24.943  1.00  0.00    -0.003 C 
ATOM     18  C   UNL     1     100.604  -1.629  24.668  1.00  0.00     0.004 C 
ENDBRANCH  16  17
ENDBRANCH  15  16
ENDBRANCH  14  15
ENDBRANCH  13  14
ENDBRANCH  12  13
ENDBRANCH  10  11
ENDBRANCH   1  10
TORSDOF 13
ENDMDL
MODEL 2
REMARK VINA RESULT:    -4.203      3.021      5.519
REMARK INTER + INTRA:          -9.785
REMARK INTER:                  -7.499
REMARK INTRA:                  -2.286
REMARK UNBOUND:                -2.388
REMARK SMILES CCCCCCC=CCCCCCCCC(=O)[O-]
REMARK SMILES IDX 10 1 11 2 12 3 13 4 14 5 15 6 16 7 17 8 18 9 9 10 8 11 7 12
REMARK SMILES IDX 6 13 5 14 4 15 3 16 2 17 1 18
REMARK H PARENT
REMARK Flexibility Score: inf
ROOT
ATOM      1  C   UNL     1      97.461   3.159  24.057  1.00  0.00     0.004 C 
ENDROOT
BRANCH   1   2
ATOM      2  C   UNL     1      98.976   2.934  23.967  1.00  0.00     0.000 C 
BRANCH   2   3
ATOM      3  C   UNL     1      99.654   4.059  23.171  1.00  0.00     0.000 C 
BRANCH   3   4
ATOM      4  C   UNL     1      98.703   5.228  22.872  1.00  0.00     0.000 C 
BRANCH   4   5
ATOM      5  C   UNL     1      99.013   5.917  21.530  1.00  0.00     0.006 C 
BRANCH   5   6
ATOM      6  C   UNL     1      97.906   6.895  21.113  1.00  0.00     0.053 C 
BRANCH   6   7
ATOM      7  C   UNL     1      97.833   7.050  19.625  1.00  0.00     0.041 C 
ATOM      8  O   UNL     1      96.747   6.854  19.020  1.00  0.00    -0.550 OA
ATOM      9  O   UNL     1      98.974   7.379  18.904  1.00  0.00    -0.550 OA
ENDBRANCH   6   7
ENDBRANCH   5   6
ENDBRANCH   4   5
ENDBRANCH   3   4
ENDBRANCH   2   3
ENDBRANCH   1   2
BRANCH   1  10
ATOM     10  C   UNL     1      96.954   2.906  25.481  1.00  0.00     0.027 C 
BRANCH  10  11
ATOM     11  C   UNL     1      98.035   3.172  26.496  1.00  0.00    -0.031 C 
ATOM     12  C   UNL     1      98.145   4.295  27.231  1.00  0.00    -0.031 C 
BRANCH  12  13
ATOM     13  C   UNL     1      97.238   5.498  27.121  1.00  0.00     0.027 C 
BRANCH  13  14
ATOM     14  C   UNL     1      97.821   6.549  26.169  1.00  0.00     0.004 C 
BRANCH  14  15
ATOM     15  C   UNL     1      96.730   7.233  25.327  1.00  0.00     0.000 C 
BRANCH  15  16
ATOM     16  C   UNL     1      95.497   6.341  25.118  1.00  0.00    -0.000 C 
BRANCH  16  17
ATOM     17  C   UNL     1      95.281   5.972  23.644  1.00  0.00    -0.003 C 
ATOM     18  C   UNL     1      94.758   7.164  22.849  1.00  0.00     0.004 C 
ENDBRANCH  16  17
ENDBRANCH  15  16
ENDBRANCH  14  15
ENDBRANCH  13  14
ENDBRANCH  12  13
ENDBRANCH  10  11
ENDBRANCH   1  10
TORSDOF 13
ENDMDL
MODEL 3
REMARK VINA RESULT:    -4.194      2.056      2.684
REMARK INTER + INTRA:          -9.769
REMARK INTER:                  -7.639
REMARK INTRA:                  -2.131
REMARK UNBOUND:                -2.388
REMARK SMILES CCCCCCC=CCCCCCCCC(=O)[O-]
REMARK SMILES IDX 10 1 11 2 12 3 13 4 14 5 15 6 16 7 17 8 18 9 9 10 8 11 7 12
REMARK SMILES IDX 6 13 5 14 4 15 3 16 2 17 1 18
REMARK H PARENT
REMARK Flexibility Score: inf
ROOT
ATOM      1  C   UNL     1      96.884   2.550  25.122  1.00  0.00     0.004 C 
ENDROOT
BRANCH   1   2
ATOM      2  C   UNL     1      96.214   3.362  24.008  1.00  0.00     0.000 C 
BRANCH   2   3
ATOM      3  C   UNL     1      96.044   4.832  24.423  1.00  0.00     0.000 C 
BRANCH   3   4
ATOM      4  C   UNL     1      95.869   5.769  23.218  1.00  0.00     0.000 C 
BRANCH   4   5
ATOM      5  C   UNL     1      97.054   6.737  23.042  1.00  0.00     0.006 C 
BRANCH   5   6
ATOM      6  C   UNL     1      98.011   6.282  21.932  1.00  0.00     0.053 C 
BRANCH   6   7
ATOM      7  C   UNL     1      97.810   7.062  20.669  1.00  0.00     0.041 C 
ATOM      8  O   UNL     1      98.561   6.869  19.679  1.00  0.00    -0.550 OA
ATOM      9  O   UNL     1      96.812   8.027  20.600  1.00  0.00    -0.550 OA
ENDBRANCH   6   7
ENDBRANCH   5   6
ENDBRANCH   4   5
ENDBRANCH   3   4
ENDBRANCH   2   3
ENDBRANCH   1   2
BRANCH   1  10
ATOM     10  C   UNL     1      97.397   3.469  26.236  1.00  0.00     0.027 C 
BRANCH  10  11
ATOM     11  C   UNL     1      98.827   3.150  26.585  1.00  0.00    -0.031 C 
ATOM     12  C   UNL     1      99.903   3.567  25.891  1.00  0.00    -0.031 C 
BRANCH  12  13
ATOM     13  C   UNL     1      99.855   4.375  24.616  1.00  0.00     0.027 C 
BRANCH  13  14
ATOM     14  C   UNL     1      99.951   3.472  23.381  1.00  0.00     0.004 C 
BRANCH  14  15
ATOM     15  C   UNL     1     101.285   2.707  23.327  1.00  0.00     0.000 C 
BRANCH  15  16
ATOM     16  C   UNL     1     101.091   1.192  23.163  1.00  0.00    -0.000 C 
BRANCH  16  17
ATOM     17  C   UNL     1     101.101   0.449  24.506  1.00  0.00    -0.003 C 
ATOM     18  C   UNL     1      99.699  -0.009  24.893  1.00  0.00     0.004 C 
ENDBRANCH  16  17
ENDBRANCH  15  16
ENDBRANCH  14  15
ENDBRANCH  13  14
ENDBRANCH  12  13
ENDBRANCH  10  11
ENDBRANCH   1  10
TORSDOF 13
ENDMDL
MODEL 4
REMARK VINA RESULT:    -4.143      1.750      2.416
REMARK INTER + INTRA:          -9.679
REMARK INTER:                  -7.573
REMARK INTRA:                  -2.107
REMARK UNBOUND:                -2.388
REMARK SMILES CCCCCCC=CCCCCCCCC(=O)[O-]
REMARK SMILES IDX 10 1 11 2 12 3 13 4 14 5 15 6 16 7 17 8 18 9 9 10 8 11 7 12
REMARK SMILES IDX 6 13 5 14 4 15 3 16 2 17 1 18
REMARK H PARENT
REMARK Flexibility Score: inf
ROOT
ATOM      1  C   UNL     1      98.334   3.974  27.228  1.00  0.00     0.004 C 
ENDROOT
BRANCH   1   2
ATOM      2  C   UNL     1      98.793   5.352  26.736  1.00  0.00     0.000 C 
BRANCH   2   3
ATOM      3  C   UNL     1      97.746   5.980  25.803  1.00  0.00     0.000 C 
BRANCH   3   4
ATOM      4  C   UNL     1      96.307   5.634  26.210  1.00  0.00     0.000 C 
BRANCH   4   5
ATOM      5  C   UNL     1      95.370   5.467  24.999  1.00  0.00     0.006 C 
BRANCH   5   6
ATOM      6  C   UNL     1      96.144   5.185  23.704  1.00  0.00     0.053 C 
BRANCH   6   7
ATOM      7  C   UNL     1      95.796   6.163  22.624  1.00  0.00     0.041 C 
ATOM      8  O   UNL     1      94.705   6.789  22.664  1.00  0.00    -0.550 OA
ATOM      9  O   UNL     1      96.664   6.357  21.557  1.00  0.00    -0.550 OA
ENDBRANCH   6   7
ENDBRANCH   5   6
ENDBRANCH   4   5
ENDBRANCH   3   4
ENDBRANCH   2   3
ENDBRANCH   1   2
BRANCH   1  10
ATOM     10  C   UNL     1      99.120   2.855  26.536  1.00  0.00     0.027 C 
BRANCH  10  11
ATOM     11  C   UNL     1      98.380   2.341  25.329  1.00  0.00    -0.031 C 
ATOM     12  C   UNL     1      98.743   2.557  24.050  1.00  0.00    -0.031 C 
BRANCH  12  13
ATOM     13  C   UNL     1      99.918   3.398  23.610  1.00  0.00     0.027 C 
BRANCH  13  14
ATOM     14  C   UNL     1     101.059   2.524  23.075  1.00  0.00     0.004 C 
BRANCH  14  15
ATOM     15  C   UNL     1     101.719   1.690  24.187  1.00  0.00     0.000 C 
BRANCH  15  16
ATOM     16  C   UNL     1     102.123   0.286  23.712  1.00  0.00    -0.000 C 
BRANCH  16  17
ATOM     17  C   UNL     1     100.922  -0.662  23.592  1.00  0.00    -0.003 C 
ATOM     18  C   UNL     1     100.206  -0.816  24.930  1.00  0.00     0.004 C 
ENDBRANCH  16  17
ENDBRANCH  15  16
ENDBRANCH  14  15
ENDBRANCH  13  14
ENDBRANCH  12  13
ENDBRANCH  10  11
ENDBRANCH   1  10
TORSDOF 13
ENDMDL
MODEL 5
REMARK VINA RESULT:    -4.108      2.756      4.505
REMARK INTER + INTRA:          -9.618
REMARK INTER:                  -7.243
REMARK INTRA:                  -2.375
REMARK UNBOUND:                -2.388
REMARK SMILES CCCCCCC=CCCCCCCCC(=O)[O-]
REMARK SMILES IDX 10 1 11 2 12 3 13 4 14 5 15 6 16 7 17 8 18 9 9 10 8 11 7 12
REMARK SMILES IDX 6 13 5 14 4 15 3 16 2 17 1 18
REMARK H PARENT
REMARK Flexibility Score: inf
ROOT
ATOM      1  C   UNL     1      95.264   6.343  23.603  1.00  0.00     0.004 C 
ENDROOT
BRANCH   1   2
ATOM      2  C   UNL     1      96.405   5.646  22.853  1.00  0.00     0.000 C 
BRANCH   2   3
ATOM      3  C   UNL     1      97.588   6.602  22.636  1.00  0.00     0.000 C 
BRANCH   3   4
ATOM      4  C   UNL     1      98.031   6.670  21.167  1.00  0.00     0.000 C 
BRANCH   4   5
ATOM      5  C   UNL     1      97.774   8.050  20.532  1.00  0.00     0.006 C 
BRANCH   5   6
ATOM      6  C   UNL     1      96.309   8.485  20.668  1.00  0.00     0.053 C 
BRANCH   6   7
ATOM      7  C   UNL     1      95.405   7.676  19.790  1.00  0.00     0.041 C 
ATOM      8  O   UNL     1      95.654   7.557  18.562  1.00  0.00    -0.550 OA
ATOM      9  O   UNL     1      94.268   7.082  20.323  1.00  0.00    -0.550 OA
ENDBRANCH   6   7
ENDBRANCH   5   6
ENDBRANCH   4   5
ENDBRANCH   3   4
ENDBRANCH   2   3
ENDBRANCH   1   2
BRANCH   1  10
ATOM     10  C   UNL     1      95.718   6.790  24.997  1.00  0.00     0.027 C 
BRANCH  10  11
ATOM     11  C   UNL     1      95.735   5.630  25.958  1.00  0.00    -0.031 C 
ATOM     12  C   UNL     1      96.841   5.116  26.529  1.00  0.00    -0.031 C 
BRANCH  12  13
ATOM     13  C   UNL     1      98.254   5.578  26.259  1.00  0.00     0.027 C 
BRANCH  13  14
ATOM     14  C   UNL     1      99.191   4.389  26.015  1.00  0.00     0.004 C 
BRANCH  14  15
ATOM     15  C   UNL     1      99.683   4.331  24.559  1.00  0.00     0.000 C 
BRANCH  15  16
ATOM     16  C   UNL     1      99.002   3.219  23.747  1.00  0.00    -0.000 C 
BRANCH  16  17
ATOM     17  C   UNL     1      98.181   2.267  24.629  1.00  0.00    -0.003 C 
ATOM     18  C   UNL     1      96.722   2.227  24.184  1.00  0.00     0.004 C 
ENDBRANCH  16  17
ENDBRANCH  15  16
ENDBRANCH  14  15
ENDBRANCH  13  14
ENDBRANCH  12  13
ENDBRANCH  10  11
ENDBRANCH   1  10
TORSDOF 13
ENDMDL
MODEL 6
REMARK VINA RESULT:    -4.103      3.138      6.057
REMARK INTER + INTRA:          -9.610
REMARK INTER:                  -7.286
REMARK INTRA:                  -2.323
REMARK UNBOUND:                -2.388
REMARK SMILES CCCCCCC=CCCCCCCCC(=O)[O-]
REMARK SMILES IDX 10 1 11 2 12 3 13 4 14 5 15 6 16 7 17 8 18 9 9 10 8 11 7 12
REMARK SMILES IDX 6 13 5 14 4 15 3 16 2 17 1 18
REMARK H PARENT
REMARK Flexibility Score: inf
ROOT
ATOM      1  C   UNL     1      95.430   4.575  24.988  1.00  0.00     0.004 C 
ENDROOT
BRANCH   1   2
ATOM      2  C   UNL     1      96.498   3.958  24.077  1.00  0.00     0.000 C 
BRANCH   2   3
ATOM      3  C   UNL     1      96.888   2.552  24.559  1.00  0.00     0.000 C 
BRANCH   3   4
ATOM      4  C   UNL     1      98.405   2.313  24.520  1.00  0.00     0.000 C 
BRANCH   4   5
ATOM      5  C   UNL     1      99.157   3.398  23.727  1.00  0.00     0.006 C 
BRANCH   5   6
ATOM      6  C   UNL     1     100.522   3.725  24.346  1.00  0.00     0.053 C 
BRANCH   6   7
ATOM      7  C   UNL     1     101.524   2.642  24.085  1.00  0.00     0.041 C 
ATOM      8  O   UNL     1     101.649   2.159  22.930  1.00  0.00    -0.550 OA
ATOM      9  O   UNL     1     102.296   2.144  25.127  1.00  0.00    -0.550 OA
ENDBRANCH   6   7
ENDBRANCH   5   6
ENDBRANCH   4   5
ENDBRANCH   3   4
ENDBRANCH   2   3
ENDBRANCH   1   2
BRANCH   1  10
ATOM     10  C   UNL     1      96.074   5.443  26.076  1.00  0.00     0.027 C 
BRANCH  10  11
ATOM     11  C   UNL     1      97.237   6.227  25.524  1.00  0.00    -0.031 C 
ATOM     12  C   UNL     1      97.147   7.445  24.957  1.00  0.00    -0.031 C 
BRANCH  12  13
ATOM     13  C   UNL     1      95.862   8.204  24.725  1.00  0.00     0.027 C 
BRANCH  13  14
ATOM     14  C   UNL     1      95.640   8.480  23.234  1.00  0.00     0.004 C 
BRANCH  14  15
ATOM     15  C   UNL     1      94.834   7.360  22.553  1.00  0.00     0.000 C 
BRANCH  15  16
ATOM     16  C   UNL     1      95.708   6.451  21.676  1.00  0.00    -0.000 C 
BRANCH  16  17
ATOM     17  C   UNL     1      97.004   7.140  21.224  1.00  0.00    -0.003 C 
ATOM     18  C   UNL     1      98.230   6.336  21.643  1.00  0.00     0.004 C 
ENDBRANCH  16  17
ENDBRANCH  15  16
ENDBRANCH  14  15
ENDBRANCH  13  14
ENDBRANCH  12  13
ENDBRANCH  10  11
ENDBRANCH   1  10
TORSDOF 13
ENDMDL
MODEL 7
REMARK VINA RESULT:    -4.096      1.640      2.745
REMARK INTER + INTRA:          -9.597
REMARK INTER:                  -7.677
REMARK INTRA:                  -1.919
REMARK UNBOUND:                -2.388
REMARK SMILES CCCCCCC=CCCCCCCCC(=O)[O-]
REMARK SMILES IDX 10 1 11 2 12 3 13 4 14 5 15 6 16 7 17 8 18 9 9 10 8 11 7 12
REMARK SMILES IDX 6 13 5 14 4 15 3 16 2 17 1 18
REMARK H PARENT
REMARK Flexibility Score: inf
ROOT
ATOM      1  C   UNL     1      99.963   4.426  25.949  1.00  0.00     0.004 C 
ENDROOT
BRANCH   1   2
ATOM      2  C   UNL     1      99.143   3.332  26.643  1.00  0.00     0.000 C 
BRANCH   2   3
ATOM      3  C   UNL     1      97.641   3.652  26.594  1.00  0.00     0.000 C 
BRANCH   3   4
ATOM      4  C   UNL     1      96.911   2.895  25.474  1.00  0.00     0.000 C 
BRANCH   4   5
ATOM      5  C   UNL     1      96.064   3.824  24.584  1.00  0.00     0.006 C 
BRANCH   5   6
ATOM      6  C   UNL     1      96.930   4.813  23.791  1.00  0.00     0.053 C 
BRANCH   6   7
ATOM      7  C   UNL     1      96.097   5.842  23.090  1.00  0.00     0.041 C 
ATOM      8  O   UNL     1      95.186   6.450  23.710  1.00  0.00    -0.550 OA
ATOM      9  O   UNL     1      96.306   6.105  21.742  1.00  0.00    -0.550 OA
ENDBRANCH   6   7
ENDBRANCH   5   6
ENDBRANCH   4   5
ENDBRANCH   3   4
ENDBRANCH   2   3
ENDBRANCH   1   2
BRANCH   1  10
ATOM     10  C   UNL     1     100.997   3.814  24.997  1.00  0.00     0.027 C 
BRANCH  10  11
ATOM     11  C   UNL     1     101.980   2.953  25.747  1.00  0.00    -0.031 C 
ATOM     12  C   UNL     1     102.824   2.071  25.179  1.00  0.00    -0.031 C 
BRANCH  12  13
ATOM     13  C   UNL     1     102.888   1.755  23.704  1.00  0.00     0.027 C 
BRANCH  13  14
ATOM     14  C   UNL     1     103.002   0.245  23.463  1.00  0.00     0.004 C 
BRANCH  14  15
ATOM     15  C   UNL     1     101.655  -0.378  23.055  1.00  0.00     0.000 C 
BRANCH  15  16
ATOM     16  C   UNL     1     100.966  -1.109  24.216  1.00  0.00    -0.000 C 
BRANCH  16  17
ATOM     17  C   UNL     1      99.890  -0.250  24.896  1.00  0.00    -0.003 C 
ATOM     18  C   UNL     1      99.204   0.670  23.891  1.00  0.00     0.004 C 
ENDBRANCH  16  17
ENDBRANCH  15  16
ENDBRANCH  14  15
ENDBRANCH  13  14
ENDBRANCH  12  13
ENDBRANCH  10  11
ENDBRANCH   1  10
TORSDOF 13
ENDMDL
MODEL 8
REMARK VINA RESULT:    -4.082      1.726      2.340
REMARK INTER + INTRA:          -9.571
REMARK INTER:                  -7.295
REMARK INTRA:                  -2.276
REMARK UNBOUND:                -2.388
REMARK SMILES CCCCCCC=CCCCCCCCC(=O)[O-]
REMARK SMILES IDX 10 1 11 2 12 3 13 4 14 5 15 6 16 7 17 8 18 9 9 10 8 11 7 12
REMARK SMILES IDX 6 13 5 14 4 15 3 16 2 17 1 18
REMARK H PARENT
REMARK Flexibility Score: inf
ROOT
ATOM      1  C   UNL     1      98.770   3.291  23.969  1.00  0.00     0.004 C 
ENDROOT
BRANCH   1   2
ATOM      2  C   UNL     1      98.060   2.377  24.975  1.00  0.00     0.000 C 
BRANCH   2   3
ATOM      3  C   UNL     1      96.537   2.568  24.916  1.00  0.00     0.000 C 
BRANCH   3   4
ATOM      4  C   UNL     1      96.135   3.928  24.324  1.00  0.00     0.000 C 
BRANCH   4   5
ATOM      5  C   UNL     1      95.687   4.935  25.400  1.00  0.00     0.006 C 
BRANCH   5   6
ATOM      6  C   UNL     1      96.691   6.083  25.571  1.00  0.00     0.053 C 
BRANCH   6   7
ATOM      7  C   UNL     1      97.515   5.922  26.811  1.00  0.00     0.041 C 
ATOM      8  O   UNL     1      98.344   6.809  27.141  1.00  0.00    -0.550 OA
ATOM      9  O   UNL     1      97.390   4.774  27.584  1.00  0.00    -0.550 OA
ENDBRANCH   6   7
ENDBRANCH   5   6
ENDBRANCH   4   5
ENDBRANCH   3   4
ENDBRANCH   2   3
ENDBRANCH   1   2
BRANCH   1  10
ATOM     10  C   UNL     1      99.866   4.113  24.655  1.00  0.00     0.027 C 
BRANCH  10  11
ATOM     11  C   UNL     1     100.276   3.484  25.962  1.00  0.00    -0.031 C 
ATOM     12  C   UNL     1     101.535   3.141  26.292  1.00  0.00    -0.031 C 
BRANCH  12  13
ATOM     13  C   UNL     1     102.739   3.275  25.390  1.00  0.00     0.027 C 
BRANCH  13  14
ATOM     14  C   UNL     1     103.499   1.949  25.276  1.00  0.00     0.004 C 
BRANCH  14  15
ATOM     15  C   UNL     1     103.394   1.341  23.866  1.00  0.00     0.000 C 
BRANCH  15  16
ATOM     16  C   UNL     1     101.939   1.181  23.399  1.00  0.00    -0.000 C 
BRANCH  16  17
ATOM     17  C   UNL     1     101.415  -0.250  23.589  1.00  0.00    -0.003 C 
ATOM     18  C   UNL     1     100.363  -0.308  24.692  1.00  0.00     0.004 C 
ENDBRANCH  16  17
ENDBRANCH  15  16
ENDBRANCH  14  15
ENDBRANCH  13  14
ENDBRANCH  12  13
ENDBRANCH  10  11
ENDBRANCH   1  10
TORSDOF 13
ENDMDL
MODEL 9
REMARK VINA RESULT:    -4.074      3.148      6.639
REMARK INTER + INTRA:          -9.558
REMARK INTER:                  -7.398
REMARK INTRA:                  -2.160
REMARK UNBOUND:                -2.388
REMARK SMILES CCCCCCC=CCCCCCCCC(=O)[O-]
REMARK SMILES IDX 10 1 11 2 12 3 13 4 14 5 15 6 16 7 17 8 18 9 9 10 8 11 7 12
REMARK SMILES IDX 6 13 5 14 4 15 3 16 2 17 1 18
REMARK H PARENT
REMARK Flexibility Score: inf
ROOT
ATOM      1  C   UNL     1      96.343   7.649  24.325  1.00  0.00     0.004 C 
ENDROOT
BRANCH   1   2
ATOM      2  C   UNL     1      95.573   6.340  24.116  1.00  0.00     0.000 C 
BRANCH   2   3
ATOM      3  C   UNL     1      95.415   5.575  25.439  1.00  0.00     0.000 C 
BRANCH   3   4
ATOM      4  C   UNL     1      96.130   4.215  25.424  1.00  0.00     0.000 C 
BRANCH   4   5
ATOM      5  C   UNL     1      96.148   3.568  24.026  1.00  0.00     0.006 C 
BRANCH   5   6
ATOM      6  C   UNL     1      96.911   2.236  24.015  1.00  0.00     0.053 C 
BRANCH   6   7
ATOM      7  C   UNL     1      98.356   2.421  24.365  1.00  0.00     0.041 C 
ATOM      8  O   UNL     1      99.126   3.026  23.576  1.00  0.00    -0.550 OA
ATOM      9  O   UNL     1      98.857   1.893  25.548  1.00  0.00    -0.550 OA
ENDBRANCH   6   7
ENDBRANCH   5   6
ENDBRANCH   4   5
ENDBRANCH   3   4
ENDBRANCH   2   3
ENDBRANCH   1   2
BRANCH   1  10
ATOM     10  C   UNL     1      97.342   7.884  23.187  1.00  0.00     0.027 C 
BRANCH  10  11
ATOM     11  C   UNL     1      97.828   6.578  22.614  1.00  0.00    -0.031 C 
ATOM     12  C   UNL     1      98.150   6.373  21.323  1.00  0.00    -0.031 C 
BRANCH  12  13
ATOM     13  C   UNL     1      98.025   7.399  20.222  1.00  0.00     0.027 C 
BRANCH  13  14
ATOM     14  C   UNL     1      96.949   6.997  19.206  1.00  0.00     0.004 C 
BRANCH  14  15
ATOM     15  C   UNL     1      95.686   7.868  19.328  1.00  0.00     0.000 C 
BRANCH  15  16
ATOM     16  C   UNL     1      94.686   7.318  20.356  1.00  0.00    -0.000 C 
BRANCH  16  17
ATOM     17  C   UNL     1      94.216   8.389  21.350  1.00  0.00    -0.003 C 
ATOM     18  C   UNL     1      94.902   9.725  21.084  1.00  0.00     0.004 C 
ENDBRANCH  16  17
ENDBRANCH  15  16
ENDBRANCH  14  15
ENDBRANCH  13  14
ENDBRANCH  12  13
ENDBRANCH  10  11
ENDBRANCH   1  10
TORSDOF 13
ENDMDL
