MODEL 1
REMARK VINA RESULT:    -7.071      0.000      0.000
REMARK INTER + INTRA:          -7.705
REMARK INTER:                  -7.485
REMARK INTRA:                  -0.221
REMARK UNBOUND:                -0.221
REMARK SMILES O=c1cc(-c2ccccc2)oc2ccccc12
REMARK SMILES IDX 4 1 3 2 2 3 1 4 17 5 16 6 15 7 14 8 13 9 12 10 11 11 5 12
REMARK SMILES IDX 8 13 7 14 9 15 6 16 10 17
REMARK H PARENT
REMARK Flexibility Score: inf
ROOT
ATOM      1  C   UNL     1      -6.035  21.699  21.970  1.00  0.00     0.138 A 
ATOM      2  C   UNL     1      -5.021  21.994  21.036  1.00  0.00     0.100 A 
ATOM      3  C   UNL     1      -4.541  20.985  20.198  1.00  0.00     0.193 A 
ATOM      4  O   UNL     1      -3.635  21.248  19.362  1.00  0.00    -0.289 OA
ATOM      5  C   UNL     1      -5.075  19.692  20.300  1.00  0.00     0.065 A 
ATOM      6  C   UNL     1      -4.636  18.630  19.488  1.00  0.00     0.016 A 
ATOM      7  C   UNL     1      -5.203  17.360  19.631  1.00  0.00     0.001 A 
ATOM      8  C   UNL     1      -6.205  17.139  20.580  1.00  0.00     0.004 A 
ATOM      9  C   UNL     1      -6.646  18.189  21.391  1.00  0.00     0.048 A 
ATOM     10  C   UNL     1      -6.087  19.464  21.256  1.00  0.00     0.138 A 
ATOM     11  O   UNL     1      -6.513  20.455  22.032  1.00  0.00    -0.456 OA
ENDROOT
BRANCH   1  12
ATOM     12  C   UNL     1      -6.604  22.720  22.903  1.00  0.00     0.017 A 
ATOM     13  C   UNL     1      -7.618  24.615  24.734  1.00  0.00     0.000 A 
ATOM     14  C   UNL     1      -6.609  23.736  25.125  1.00  0.00     0.001 A 
ATOM     15  C   UNL     1      -8.125  24.557  23.436  1.00  0.00     0.001 A 
ATOM     16  C   UNL     1      -6.105  22.797  24.221  1.00  0.00     0.012 A 
ATOM     17  C   UNL     1      -7.627  23.619  22.524  1.00  0.00     0.012 A 
ENDBRANCH   1  12
TORSDOF 1
ENDMDL
MODEL 2
REMARK VINA RESULT:    -6.905      1.479      2.535
REMARK INTER + INTRA:          -7.530
REMARK INTER:                  -7.288
REMARK INTRA:                  -0.242
REMARK UNBOUND:                -0.221
REMARK SMILES O=c1cc(-c2ccccc2)oc2ccccc12
REMARK SMILES IDX 4 1 3 2 2 3 1 4 17 5 16 6 15 7 14 8 13 9 12 10 11 11 5 12
REMARK SMILES IDX 8 13 7 14 9 15 6 16 10 17
REMARK H PARENT
REMARK Flexibility Score: inf
ROOT
ATOM      1  C   UNL     1      -6.704  20.659  22.557  1.00  0.00     0.138 A 
ATOM      2  C   UNL     1      -6.743  19.634  23.524  1.00  0.00     0.100 A 
ATOM      3  C   UNL     1      -6.458  18.320  23.149  1.00  0.00     0.193 A 
ATOM      4  O   UNL     1      -6.492  17.404  24.014  1.00  0.00    -0.289 OA
ATOM      5  C   UNL     1      -6.138  18.038  21.812  1.00  0.00     0.065 A 
ATOM      6  C   UNL     1      -5.842  16.737  21.367  1.00  0.00     0.016 A 
ATOM      7  C   UNL     1      -5.529  16.512  20.023  1.00  0.00     0.001 A 
ATOM      8  C   UNL     1      -5.510  17.577  19.117  1.00  0.00     0.004 A 
ATOM      9  C   UNL     1      -5.803  18.872  19.552  1.00  0.00     0.048 A 
ATOM     10  C   UNL     1      -6.117  19.110  20.894  1.00  0.00     0.138 A 
ATOM     11  O   UNL     1      -6.395  20.345  21.297  1.00  0.00    -0.456 OA
ENDROOT
BRANCH   1  12
ATOM     12  C   UNL     1      -6.996  22.091  22.875  1.00  0.00     0.017 A 
ATOM     13  C   UNL     1      -7.485  24.787  23.554  1.00  0.00     0.000 A 
ATOM     14  C   UNL     1      -6.614  24.019  24.326  1.00  0.00     0.001 A 
ATOM     15  C   UNL     1      -8.114  24.220  22.445  1.00  0.00     0.001 A 
ATOM     16  C   UNL     1      -6.370  22.684  23.992  1.00  0.00     0.012 A 
ATOM     17  C   UNL     1      -7.876  22.884  22.104  1.00  0.00     0.012 A 
ENDBRANCH   1  12
TORSDOF 1
ENDMDL
MODEL 3
REMARK VINA RESULT:    -6.770      2.296      2.718
REMARK INTER + INTRA:          -7.386
REMARK INTER:                  -7.121
REMARK INTRA:                  -0.266
REMARK UNBOUND:                -0.221
REMARK SMILES O=c1cc(-c2ccccc2)oc2ccccc12
REMARK SMILES IDX 4 1 3 2 2 3 1 4 17 5 16 6 15 7 14 8 13 9 12 10 11 11 5 12
REMARK SMILES IDX 8 13 7 14 9 15 6 16 10 17
REMARK H PARENT
REMARK Flexibility Score: inf
ROOT
ATOM      1  C   UNL     1      -5.371  21.535  22.455  1.00  0.00     0.138 A 
ATOM      2  C   UNL     1      -5.309  21.137  21.104  1.00  0.00     0.100 A 
ATOM      3  C   UNL     1      -4.427  20.123  20.724  1.00  0.00     0.193 A 
ATOM      4  O   UNL     1      -4.371  19.767  19.516  1.00  0.00    -0.289 OA
ATOM      5  C   UNL     1      -3.613  19.517  21.692  1.00  0.00     0.065 A 
ATOM      6  C   UNL     1      -2.703  18.491  21.376  1.00  0.00     0.016 A 
ATOM      7  C   UNL     1      -1.917  17.921  22.382  1.00  0.00     0.001 A 
ATOM      8  C   UNL     1      -2.030  18.366  23.702  1.00  0.00     0.004 A 
ATOM      9  C   UNL     1      -2.932  19.384  24.024  1.00  0.00     0.048 A 
ATOM     10  C   UNL     1      -3.724  19.962  23.027  1.00  0.00     0.138 A 
ATOM     11  O   UNL     1      -4.578  20.930  23.342  1.00  0.00    -0.456 OA
ENDROOT
BRANCH   1  12
ATOM     12  C   UNL     1      -6.286  22.610  22.946  1.00  0.00     0.017 A 
ATOM     13  C   UNL     1      -8.057  24.644  23.782  1.00  0.00     0.000 A 
ATOM     14  C   UNL     1      -8.113  24.163  22.475  1.00  0.00     0.001 A 
ATOM     15  C   UNL     1      -7.124  24.118  24.676  1.00  0.00     0.001 A 
ATOM     16  C   UNL     1      -7.238  23.157  22.058  1.00  0.00     0.012 A 
ATOM     17  C   UNL     1      -6.244  23.111  24.267  1.00  0.00     0.012 A 
ENDBRANCH   1  12
TORSDOF 1
ENDMDL
MODEL 4
REMARK VINA RESULT:    -6.242      2.420      5.678
REMARK INTER + INTRA:          -6.828
REMARK INTER:                  -6.561
REMARK INTRA:                  -0.266
REMARK UNBOUND:                -0.221
REMARK SMILES O=c1cc(-c2ccccc2)oc2ccccc12
REMARK SMILES IDX 4 1 3 2 2 3 1 4 17 5 16 6 15 7 14 8 13 9 12 10 11 11 5 12
REMARK SMILES IDX 8 13 7 14 9 15 6 16 10 17
REMARK H PARENT
REMARK Flexibility Score: inf
ROOT
ATOM      1  C   UNL     1      -4.232  20.719  21.986  1.00  0.00     0.138 A 
ATOM      2  C   UNL     1      -3.926  21.446  20.817  1.00  0.00     0.100 A 
ATOM      3  C   UNL     1      -4.614  22.628  20.540  1.00  0.00     0.193 A 
ATOM      4  O   UNL     1      -4.341  23.278  19.495  1.00  0.00    -0.289 OA
ATOM      5  C   UNL     1      -5.603  23.075  21.429  1.00  0.00     0.065 A 
ATOM      6  C   UNL     1      -6.334  24.257  21.210  1.00  0.00     0.016 A 
ATOM      7  C   UNL     1      -7.309  24.657  22.129  1.00  0.00     0.001 A 
ATOM      8  C   UNL     1      -7.560  23.886  23.268  1.00  0.00     0.004 A 
ATOM      9  C   UNL     1      -6.838  22.711  23.493  1.00  0.00     0.048 A 
ATOM     10  C   UNL     1      -5.861  22.301  22.580  1.00  0.00     0.138 A 
ATOM     11  O   UNL     1      -5.179  21.182  22.803  1.00  0.00    -0.456 OA
ENDROOT
BRANCH   1  12
ATOM     12  C   UNL     1      -3.542  19.445  22.357  1.00  0.00     0.017 A 
ATOM     13  C   UNL     1      -2.188  17.045  22.972  1.00  0.00     0.000 A 
ATOM     14  C   UNL     1      -1.902  17.725  21.789  1.00  0.00     0.001 A 
ATOM     15  C   UNL     1      -3.145  17.553  23.851  1.00  0.00     0.001 A 
ATOM     16  C   UNL     1      -2.570  18.913  21.481  1.00  0.00     0.012 A 
ATOM     17  C   UNL     1      -3.819  18.742  23.551  1.00  0.00     0.012 A 
ENDBRANCH   1  12
TORSDOF 1
ENDMDL
MODEL 5
REMARK VINA RESULT:    -6.111      3.072      5.686
REMARK INTER + INTRA:          -6.689
REMARK INTER:                  -6.425
REMARK INTRA:                  -0.265
REMARK UNBOUND:                -0.221
REMARK SMILES O=c1cc(-c2ccccc2)oc2ccccc12
REMARK SMILES IDX 4 1 3 2 2 3 1 4 17 5 16 6 15 7 14 8 13 9 12 10 11 11 5 12
REMARK SMILES IDX 8 13 7 14 9 15 6 16 10 17
REMARK H PARENT
REMARK Flexibility Score: inf
ROOT
ATOM      1  C   UNL     1      -4.662  19.982  22.934  1.00  0.00     0.138 A 
ATOM      2  C   UNL     1      -5.373  19.664  21.759  1.00  0.00     0.100 A 
ATOM      3  C   UNL     1      -6.416  20.490  21.338  1.00  0.00     0.193 A 
ATOM      4  O   UNL     1      -7.052  20.206  20.287  1.00  0.00    -0.289 OA
ATOM      5  C   UNL     1      -6.744  21.626  22.093  1.00  0.00     0.065 A 
ATOM      6  C   UNL     1      -7.784  22.500  21.727  1.00  0.00     0.016 A 
ATOM      7  C   UNL     1      -8.067  23.619  22.516  1.00  0.00     0.001 A 
ATOM      8  C   UNL     1      -7.321  23.874  23.670  1.00  0.00     0.004 A 
ATOM      9  C   UNL     1      -6.286  23.010  24.041  1.00  0.00     0.048 A 
ATOM     10  C   UNL     1      -5.993  21.888  23.259  1.00  0.00     0.138 A 
ATOM     11  O   UNL     1      -5.008  21.073  23.620  1.00  0.00    -0.456 OA
ENDROOT
BRANCH   1  12
ATOM     12  C   UNL     1      -3.532  19.151  23.453  1.00  0.00     0.017 A 
ATOM     13  C   UNL     1      -1.378  17.655  24.496  1.00  0.00     0.000 A 
ATOM     14  C   UNL     1      -1.665  18.918  25.011  1.00  0.00     0.001 A 
ATOM     15  C   UNL     1      -2.157  17.132  23.464  1.00  0.00     0.001 A 
ATOM     16  C   UNL     1      -2.731  19.661  24.497  1.00  0.00     0.012 A 
ATOM     17  C   UNL     1      -3.225  17.870  22.943  1.00  0.00     0.012 A 
ENDBRANCH   1  12
TORSDOF 1
ENDMDL
MODEL 6
REMARK VINA RESULT:    -5.941     18.870     21.489
REMARK INTER + INTRA:          -6.509
REMARK INTER:                  -6.265
REMARK INTRA:                  -0.244
REMARK UNBOUND:                -0.221
REMARK SMILES O=c1cc(-c2ccccc2)oc2ccccc12
REMARK SMILES IDX 4 1 3 2 2 3 1 4 17 5 16 6 15 7 14 8 13 9 12 10 11 11 5 12
REMARK SMILES IDX 8 13 7 14 9 15 6 16 10 17
REMARK H PARENT
REMARK Flexibility Score: inf
ROOT
ATOM      1  C   UNL     1      10.069  26.406   9.125  1.00  0.00     0.138 A 
ATOM      2  C   UNL     1      10.470  25.300   9.903  1.00  0.00     0.100 A 
ATOM      3  C   UNL     1      10.222  25.296  11.276  1.00  0.00     0.193 A 
ATOM      4  O   UNL     1      10.580  24.307  11.971  1.00  0.00    -0.289 OA
ATOM      5  C   UNL     1       9.576  26.394  11.864  1.00  0.00     0.065 A 
ATOM      6  C   UNL     1       9.296  26.454  13.242  1.00  0.00     0.016 A 
ATOM      7  C   UNL     1       8.650  27.573  13.775  1.00  0.00     0.001 A 
ATOM      8  C   UNL     1       8.281  28.635  12.945  1.00  0.00     0.004 A 
ATOM      9  C   UNL     1       8.555  28.583  11.576  1.00  0.00     0.048 A 
ATOM     10  C   UNL     1       9.201  27.468  11.030  1.00  0.00     0.138 A 
ATOM     11  O   UNL     1       9.458  27.428   9.727  1.00  0.00    -0.456 OA
ENDROOT
BRANCH   1  12
ATOM     12  C   UNL     1      10.297  26.490   7.650  1.00  0.00     0.017 A 
ATOM     13  C   UNL     1      10.819  26.618   4.879  1.00  0.00     0.000 A 
ATOM     14  C   UNL     1      11.815  26.196   5.759  1.00  0.00     0.001 A 
ATOM     15  C   UNL     1       9.564  26.976   5.370  1.00  0.00     0.001 A 
ATOM     16  C   UNL     1      11.560  26.132   7.131  1.00  0.00     0.012 A 
ATOM     17  C   UNL     1       9.300  26.915   6.743  1.00  0.00     0.012 A 
ENDBRANCH   1  12
TORSDOF 1
ENDMDL
MODEL 7
REMARK VINA RESULT:    -5.888      2.229      3.433
REMARK INTER + INTRA:          -6.453
REMARK INTER:                  -6.205
REMARK INTRA:                  -0.248
REMARK UNBOUND:                -0.221
REMARK SMILES O=c1cc(-c2ccccc2)oc2ccccc12
REMARK SMILES IDX 4 1 3 2 2 3 1 4 17 5 16 6 15 7 14 8 13 9 12 10 11 11 5 12
REMARK SMILES IDX 8 13 7 14 9 15 6 16 10 17
REMARK H PARENT
REMARK Flexibility Score: inf
ROOT
ATOM      1  C   UNL     1      -6.753  20.469  22.073  1.00  0.00     0.138 A 
ATOM      2  C   UNL     1      -6.169  19.560  21.166  1.00  0.00     0.100 A 
ATOM      3  C   UNL     1      -6.145  18.198  21.475  1.00  0.00     0.193 A 
ATOM      4  O   UNL     1      -5.623  17.385  20.664  1.00  0.00    -0.289 OA
ATOM      5  C   UNL     1      -6.700  17.754  22.684  1.00  0.00     0.065 A 
ATOM      6  C   UNL     1      -6.707  16.397  23.056  1.00  0.00     0.016 A 
ATOM      7  C   UNL     1      -7.275  16.010  24.274  1.00  0.00     0.001 A 
ATOM      8  C   UNL     1      -7.836  16.966  25.125  1.00  0.00     0.004 A 
ATOM      9  C   UNL     1      -7.832  18.316  24.763  1.00  0.00     0.048 A 
ATOM     10  C   UNL     1      -7.268  18.716  23.547  1.00  0.00     0.138 A 
ATOM     11  O   UNL     1      -7.269  20.001  23.211  1.00  0.00    -0.456 OA
ENDROOT
BRANCH   1  12
ATOM     12  C   UNL     1      -6.821  21.941  21.819  1.00  0.00     0.017 A 
ATOM     13  C   UNL     1      -7.042  24.720  21.374  1.00  0.00     0.000 A 
ATOM     14  C   UNL     1      -8.118  24.009  21.905  1.00  0.00     0.001 A 
ATOM     15  C   UNL     1      -5.856  24.055  21.065  1.00  0.00     0.001 A 
ATOM     16  C   UNL     1      -8.012  22.633  22.126  1.00  0.00     0.012 A 
ATOM     17  C   UNL     1      -5.741  22.677  21.282  1.00  0.00     0.012 A 
ENDBRANCH   1  12
TORSDOF 1
ENDMDL
MODEL 8
REMARK VINA RESULT:    -5.257     18.689     21.141
REMARK INTER + INTRA:          -5.785
REMARK INTER:                  -5.520
REMARK INTRA:                  -0.265
REMARK UNBOUND:                -0.221
REMARK SMILES O=c1cc(-c2ccccc2)oc2ccccc12
REMARK SMILES IDX 4 1 3 2 2 3 1 4 17 5 16 6 15 7 14 8 13 9 12 10 11 11 5 12
REMARK SMILES IDX 8 13 7 14 9 15 6 16 10 17
REMARK H PARENT
REMARK Flexibility Score: inf
ROOT
ATOM      1  C   UNL     1       6.440  28.133   6.264  1.00  0.00     0.138 A 
ATOM      2  C   UNL     1       5.793  29.177   5.571  1.00  0.00     0.100 A 
ATOM      3  C   UNL     1       4.443  29.436   5.818  1.00  0.00     0.193 A 
ATOM      4  O   UNL     1       3.864  30.369   5.200  1.00  0.00    -0.289 OA
ATOM      5  C   UNL     1       3.750  28.651   6.752  1.00  0.00     0.065 A 
ATOM      6  C   UNL     1       2.390  28.857   7.047  1.00  0.00     0.016 A 
ATOM      7  C   UNL     1       1.747  28.045   7.986  1.00  0.00     0.001 A 
ATOM      8  C   UNL     1       2.452  27.027   8.635  1.00  0.00     0.004 A 
ATOM      9  C   UNL     1       3.803  26.815   8.347  1.00  0.00     0.048 A 
ATOM     10  C   UNL     1       4.456  27.621   7.409  1.00  0.00     0.138 A 
ATOM     11  O   UNL     1       5.741  27.412   7.142  1.00  0.00    -0.456 OA
ENDROOT
BRANCH   1  12
ATOM     12  C   UNL     1       7.881  27.791   6.059  1.00  0.00     0.017 A 
ATOM     13  C   UNL     1      10.597  27.085   5.750  1.00  0.00     0.000 A 
ATOM     14  C   UNL     1       9.841  26.522   6.778  1.00  0.00     0.001 A 
ATOM     15  C   UNL     1      10.008  27.997   4.875  1.00  0.00     0.001 A 
ATOM     16  C   UNL     1       8.497  26.869   6.933  1.00  0.00     0.012 A 
ATOM     17  C   UNL     1       8.663  28.351   5.024  1.00  0.00     0.012 A 
ENDBRANCH   1  12
TORSDOF 1
ENDMDL
