MODEL 1
REMARK VINA RESULT:    -3.254      0.000      0.000
REMARK INTER + INTRA:         -11.074
REMARK INTER:                  -7.439
REMARK INTRA:                  -3.635
REMARK UNBOUND:                -3.635
REMARK SMILES CCCCCCCCCCCCCCCCCCCCCCCC(=O)[O-]
REMARK SMILES IDX 13 1 14 2 15 3 16 4 17 5 18 6 19 7 20 8 21 9 22 10 23 11
REMARK SMILES IDX 24 12 25 13 26 14 12 15 11 16 10 17 9 18 8 19 7 20 6 21 5 22
REMARK SMILES IDX 4 23 3 24 2 25 1 26
REMARK H PARENT
REMARK Flexibility Score: inf
ROOT
ATOM      1  C   UNL     1      -6.087  -8.712  -3.309  1.00  0.00     0.000 C 
ENDROOT
BRANCH   1   2
ATOM      2  C   UNL     1      -5.658  -7.365  -3.919  1.00  0.00     0.000 C 
BRANCH   2   3
ATOM      3  C   UNL     1      -6.494  -6.183  -3.402  1.00  0.00     0.000 C 
BRANCH   3   4
ATOM      4  C   UNL     1      -5.660  -4.916  -3.141  1.00  0.00     0.000 C 
BRANCH   4   5
ATOM      5  C   UNL     1      -6.550  -3.666  -2.996  1.00  0.00     0.000 C 
BRANCH   5   6
ATOM      6  C   UNL     1      -7.240  -3.246  -4.308  1.00  0.00     0.000 C 
BRANCH   6   7
ATOM      7  C   UNL     1      -7.783  -1.806  -4.244  1.00  0.00     0.000 C 
BRANCH   7   8
ATOM      8  C   UNL     1      -7.124  -0.880  -5.279  1.00  0.00     0.000 C 
BRANCH   8   9
ATOM      9  C   UNL     1      -6.044   0.031  -4.664  1.00  0.00     0.000 C 
BRANCH   9  10
ATOM     10  C   UNL     1      -4.647  -0.216  -5.262  1.00  0.00     0.006 C 
BRANCH  10  11
ATOM     11  C   UNL     1      -4.468  -1.659  -5.758  1.00  0.00     0.053 C 
BRANCH  11  12
ATOM     12  C   UNL     1      -3.488  -2.412  -4.906  1.00  0.00     0.041 C 
ATOM     13  O   UNL     1      -2.693  -3.239  -5.428  1.00  0.00    -0.550 OA
ATOM     14  O   UNL     1      -3.426  -2.171  -3.536  1.00  0.00    -0.550 OA
ENDBRANCH  11  12
ENDBRANCH  10  11
ENDBRANCH   9  10
ENDBRANCH   8   9
ENDBRANCH   7   8
ENDBRANCH   6   7
ENDBRANCH   5   6
ENDBRANCH   4   5
ENDBRANCH   3   4
ENDBRANCH   2   3
ENDBRANCH   1   2
BRANCH   1  15
ATOM     15  C   UNL     1      -7.561  -9.076  -3.584  1.00  0.00     0.000 C 
BRANCH  15  16
ATOM     16  C   UNL     1      -7.913  -9.379  -5.057  1.00  0.00     0.000 C 
BRANCH  16  17
ATOM     17  C   UNL     1      -8.933  -8.406  -5.685  1.00  0.00     0.000 C 
BRANCH  17  18
ATOM     18  C   UNL     1      -9.753  -7.616  -4.637  1.00  0.00    -0.000 C 
BRANCH  18  19
ATOM     19  C   UNL     1      -9.856  -6.112  -4.965  1.00  0.00    -0.000 C 
BRANCH  19  20
ATOM     20  C   UNL     1     -10.125  -5.263  -3.709  1.00  0.00    -0.000 C 
BRANCH  20  21
ATOM     21  C   UNL     1     -10.076  -6.101  -2.412  1.00  0.00    -0.000 C 
BRANCH  21  22
ATOM     22  C   UNL     1     -10.053  -5.219  -1.154  1.00  0.00    -0.000 C 
BRANCH  22  23
ATOM     23  C   UNL     1      -9.418  -5.967   0.026  1.00  0.00    -0.000 C 
BRANCH  23  24
ATOM     24  C   UNL     1      -8.285  -6.890  -0.440  1.00  0.00    -0.000 C 
BRANCH  24  25
ATOM     25  C   UNL     1      -8.502  -8.323   0.064  1.00  0.00    -0.003 C 
ATOM     26  C   UNL     1      -7.260  -8.852   0.781  1.00  0.00     0.004 C 
ENDBRANCH  24  25
ENDBRANCH  23  24
ENDBRANCH  22  23
ENDBRANCH  21  22
ENDBRANCH  20  21
ENDBRANCH  19  20
ENDBRANCH  18  19
ENDBRANCH  17  18
ENDBRANCH  16  17
ENDBRANCH  15  16
ENDBRANCH   1  15
TORSDOF 22
ENDMDL
MODEL 2
REMARK VINA RESULT:    -3.222      1.627      2.492
REMARK INTER + INTRA:         -11.002
REMARK INTER:                  -7.248
REMARK INTRA:                  -3.754
REMARK UNBOUND:                -3.635
REMARK SMILES CCCCCCCCCCCCCCCCCCCCCCCC(=O)[O-]
REMARK SMILES IDX 13 1 14 2 15 3 16 4 17 5 18 6 19 7 20 8 21 9 22 10 23 11
REMARK SMILES IDX 24 12 25 13 26 14 12 15 11 16 10 17 9 18 8 19 7 20 6 21 5 22
REMARK SMILES IDX 4 23 3 24 2 25 1 26
REMARK H PARENT
REMARK Flexibility Score: inf
ROOT
ATOM      1  C   UNL     1      -5.631  -7.166  -3.965  1.00  0.00     0.000 C 
ENDROOT
BRANCH   1   2
ATOM      2  C   UNL     1      -5.010  -6.284  -2.865  1.00  0.00     0.000 C 
BRANCH   2   3
ATOM      3  C   UNL     1      -5.595  -4.862  -2.840  1.00  0.00     0.000 C 
BRANCH   3   4
ATOM      4  C   UNL     1      -6.640  -4.614  -3.942  1.00  0.00     0.000 C 
BRANCH   4   5
ATOM      5  C   UNL     1      -7.145  -3.158  -3.933  1.00  0.00     0.000 C 
BRANCH   5   6
ATOM      6  C   UNL     1      -6.013  -2.114  -3.966  1.00  0.00     0.000 C 
BRANCH   6   7
ATOM      7  C   UNL     1      -5.468  -1.891  -5.389  1.00  0.00     0.000 C 
BRANCH   7   8
ATOM      8  C   UNL     1      -3.974  -1.530  -5.400  1.00  0.00     0.000 C 
BRANCH   8   9
ATOM      9  C   UNL     1      -3.064  -2.752  -5.168  1.00  0.00     0.000 C 
BRANCH   9  10
ATOM     10  C   UNL     1      -2.311  -2.686  -3.827  1.00  0.00     0.006 C 
BRANCH  10  11
ATOM     11  C   UNL     1      -0.815  -3.002  -3.978  1.00  0.00     0.053 C 
BRANCH  11  12
ATOM     12  C   UNL     1      -0.085  -1.878  -4.654  1.00  0.00     0.041 C 
ATOM     13  O   UNL     1       0.105  -0.788  -4.051  1.00  0.00    -0.550 OA
ATOM     14  O   UNL     1       0.421  -2.048  -5.940  1.00  0.00    -0.550 OA
ENDBRANCH  11  12
ENDBRANCH  10  11
ENDBRANCH   9  10
ENDBRANCH   8   9
ENDBRANCH   7   8
ENDBRANCH   6   7
ENDBRANCH   5   6
ENDBRANCH   4   5
ENDBRANCH   3   4
ENDBRANCH   2   3
ENDBRANCH   1   2
BRANCH   1  15
ATOM     15  C   UNL     1      -6.289  -8.454  -3.427  1.00  0.00     0.000 C 
BRANCH  15  16
ATOM     16  C   UNL     1      -7.818  -8.386  -3.212  1.00  0.00     0.000 C 
BRANCH  16  17
ATOM     17  C   UNL     1      -8.628  -8.055  -4.483  1.00  0.00     0.000 C 
BRANCH  17  18
ATOM     18  C   UNL     1      -9.644  -6.906  -4.281  1.00  0.00    -0.000 C 
BRANCH  18  19
ATOM     19  C   UNL     1     -10.072  -6.735  -2.808  1.00  0.00    -0.000 C 
BRANCH  19  20
ATOM     20  C   UNL     1      -9.858  -5.295  -2.307  1.00  0.00    -0.000 C 
BRANCH  20  21
ATOM     21  C   UNL     1      -8.862  -5.225  -1.128  1.00  0.00    -0.000 C 
BRANCH  21  22
ATOM     22  C   UNL     1      -9.372  -5.988   0.105  1.00  0.00    -0.000 C 
BRANCH  22  23
ATOM     23  C   UNL     1      -8.540  -7.255   0.346  1.00  0.00    -0.000 C 
BRANCH  23  24
ATOM     24  C   UNL     1      -7.038  -6.977   0.191  1.00  0.00    -0.000 C 
BRANCH  24  25
ATOM     25  C   UNL     1      -6.228  -8.278   0.271  1.00  0.00    -0.003 C 
ATOM     26  C   UNL     1      -6.827  -9.240   1.297  1.00  0.00     0.004 C 
ENDBRANCH  24  25
ENDBRANCH  23  24
ENDBRANCH  22  23
ENDBRANCH  21  22
ENDBRANCH  20  21
ENDBRANCH  19  20
ENDBRANCH  18  19
ENDBRANCH  17  18
ENDBRANCH  16  17
ENDBRANCH  15  16
ENDBRANCH   1  15
TORSDOF 22
ENDMDL
MODEL 3
REMARK VINA RESULT:    -3.214      4.781      6.996
REMARK INTER + INTRA:         -10.982
REMARK INTER:                  -8.984
REMARK INTRA:                  -1.998
REMARK UNBOUND:                -3.635
REMARK SMILES CCCCCCCCCCCCCCCCCCCCCCCC(=O)[O-]
REMARK SMILES IDX 13 1 14 2 15 3 16 4 17 5 18 6 19 7 20 8 21 9 22 10 23 11
REMARK SMILES IDX 24 12 25 13 26 14 12 15 11 16 10 17 9 18 8 19 7 20 6 21 5 22
REMARK SMILES IDX 4 23 3 24 2 25 1 26
REMARK H PARENT
REMARK Flexibility Score: inf
ROOT
ATOM      1  C   UNL     1      -3.719  -4.026  -3.330  1.00  0.00     0.000 C 
ENDROOT
BRANCH   1   2
ATOM      2  C   UNL     1      -3.705  -3.220  -4.642  1.00  0.00     0.000 C 
BRANCH   2   3
ATOM      3  C   UNL     1      -2.290  -2.785  -5.059  1.00  0.00     0.000 C 
BRANCH   3   4
ATOM      4  C   UNL     1      -1.751  -1.600  -4.238  1.00  0.00     0.000 C 
BRANCH   4   5
ATOM      5  C   UNL     1      -0.235  -1.408  -4.440  1.00  0.00     0.000 C 
BRANCH   5   6
ATOM      6  C   UNL     1       0.371  -2.360  -5.488  1.00  0.00     0.000 C 
BRANCH   6   7
ATOM      7  C   UNL     1       1.581  -1.738  -6.209  1.00  0.00     0.000 C 
BRANCH   7   8
ATOM      8  C   UNL     1       2.895  -1.935  -5.436  1.00  0.00     0.000 C 
BRANCH   8   9
ATOM      9  C   UNL     1       3.989  -2.615  -6.282  1.00  0.00     0.000 C 
BRANCH   9  10
ATOM     10  C   UNL     1       5.136  -1.656  -6.652  1.00  0.00     0.006 C 
BRANCH  10  11
ATOM     11  C   UNL     1       5.013  -0.296  -5.948  1.00  0.00     0.053 C 
BRANCH  11  12
ATOM     12  C   UNL     1       4.893   0.824  -6.940  1.00  0.00     0.041 C 
ATOM     13  O   UNL     1       3.777   1.101  -7.456  1.00  0.00    -0.550 OA
ATOM     14  O   UNL     1       6.009   1.589  -7.268  1.00  0.00    -0.550 OA
ENDBRANCH  11  12
ENDBRANCH  10  11
ENDBRANCH   9  10
ENDBRANCH   8   9
ENDBRANCH   7   8
ENDBRANCH   6   7
ENDBRANCH   5   6
ENDBRANCH   4   5
ENDBRANCH   3   4
ENDBRANCH   2   3
ENDBRANCH   1   2
BRANCH   1  15
ATOM     15  C   UNL     1      -3.018  -5.397  -3.438  1.00  0.00     0.000 C 
BRANCH  15  16
ATOM     16  C   UNL     1      -3.761  -6.466  -4.270  1.00  0.00     0.000 C 
BRANCH  16  17
ATOM     17  C   UNL     1      -5.238  -6.671  -3.875  1.00  0.00     0.000 C 
BRANCH  17  18
ATOM     18  C   UNL     1      -5.521  -8.062  -3.259  1.00  0.00    -0.000 C 
BRANCH  18  19
ATOM     19  C   UNL     1      -6.549  -8.880  -4.069  1.00  0.00    -0.000 C 
BRANCH  19  20
ATOM     20  C   UNL     1      -7.993  -8.613  -3.605  1.00  0.00    -0.000 C 
BRANCH  20  21
ATOM     21  C   UNL     1      -8.946  -8.324  -4.786  1.00  0.00    -0.000 C 
BRANCH  21  22
ATOM     22  C   UNL     1      -9.713  -7.005  -4.601  1.00  0.00    -0.000 C 
BRANCH  22  23
ATOM     23  C   UNL     1      -8.978  -6.078  -3.624  1.00  0.00    -0.000 C 
BRANCH  23  24
ATOM     24  C   UNL     1      -8.871  -4.651  -4.180  1.00  0.00    -0.000 C 
BRANCH  24  25
ATOM     25  C   UNL     1      -7.524  -4.016  -3.806  1.00  0.00    -0.003 C 
ATOM     26  C   UNL     1      -7.446  -2.566  -4.280  1.00  0.00     0.004 C 
ENDBRANCH  24  25
ENDBRANCH  23  24
ENDBRANCH  22  23
ENDBRANCH  21  22
ENDBRANCH  20  21
ENDBRANCH  19  20
ENDBRANCH  18  19
ENDBRANCH  17  18
ENDBRANCH  16  17
ENDBRANCH  15  16
ENDBRANCH   1  15
TORSDOF 22
ENDMDL
MODEL 4
REMARK VINA RESULT:    -3.163      3.322      4.349
REMARK INTER + INTRA:         -10.867
REMARK INTER:                  -8.087
REMARK INTRA:                  -2.779
REMARK UNBOUND:                -3.635
REMARK SMILES CCCCCCCCCCCCCCCCCCCCCCCC(=O)[O-]
REMARK SMILES IDX 13 1 14 2 15 3 16 4 17 5 18 6 19 7 20 8 21 9 22 10 23 11
REMARK SMILES IDX 24 12 25 13 26 14 12 15 11 16 10 17 9 18 8 19 7 20 6 21 5 22
REMARK SMILES IDX 4 23 3 24 2 25 1 26
REMARK H PARENT
REMARK Flexibility Score: inf
ROOT
ATOM      1  C   UNL     1      -4.956  -6.700  -2.391  1.00  0.00     0.000 C 
ENDROOT
BRANCH   1   2
ATOM      2  C   UNL     1      -4.752  -5.833  -3.647  1.00  0.00     0.000 C 
BRANCH   2   3
ATOM      3  C   UNL     1      -3.328  -5.936  -4.218  1.00  0.00     0.000 C 
BRANCH   3   4
ATOM      4  C   UNL     1      -2.536  -4.620  -4.123  1.00  0.00     0.000 C 
BRANCH   4   5
ATOM      5  C   UNL     1      -3.335  -3.431  -4.690  1.00  0.00     0.000 C 
BRANCH   5   6
ATOM      6  C   UNL     1      -2.448  -2.317  -5.277  1.00  0.00     0.000 C 
BRANCH   6   7
ATOM      7  C   UNL     1      -1.922  -1.359  -4.192  1.00  0.00     0.000 C 
BRANCH   7   8
ATOM      8  C   UNL     1      -0.397  -1.178  -4.252  1.00  0.00     0.000 C 
BRANCH   8   9
ATOM      9  C   UNL     1       0.313  -2.334  -4.982  1.00  0.00     0.000 C 
BRANCH   9  10
ATOM     10  C   UNL     1       1.244  -1.845  -6.107  1.00  0.00     0.006 C 
BRANCH  10  11
ATOM     11  C   UNL     1       2.716  -2.199  -5.846  1.00  0.00     0.053 C 
BRANCH  11  12
ATOM     12  C   UNL     1       3.590  -0.980  -5.909  1.00  0.00     0.041 C 
ATOM     13  O   UNL     1       3.642  -0.287  -6.961  1.00  0.00    -0.550 OA
ATOM     14  O   UNL     1       4.320  -0.586  -4.791  1.00  0.00    -0.550 OA
ENDBRANCH  11  12
ENDBRANCH  10  11
ENDBRANCH   9  10
ENDBRANCH   8   9
ENDBRANCH   7   8
ENDBRANCH   6   7
ENDBRANCH   5   6
ENDBRANCH   4   5
ENDBRANCH   3   4
ENDBRANCH   2   3
ENDBRANCH   1   2
BRANCH   1  15
ATOM     15  C   UNL     1      -5.373  -8.153  -2.704  1.00  0.00     0.000 C 
BRANCH  15  16
ATOM     16  C   UNL     1      -6.258  -8.343  -3.956  1.00  0.00     0.000 C 
BRANCH  16  17
ATOM     17  C   UNL     1      -7.630  -8.990  -3.676  1.00  0.00     0.000 C 
BRANCH  17  18
ATOM     18  C   UNL     1      -8.599  -8.918  -4.881  1.00  0.00    -0.000 C 
BRANCH  18  19
ATOM     19  C   UNL     1      -9.349  -7.572  -4.968  1.00  0.00    -0.000 C 
BRANCH  19  20
ATOM     20  C   UNL     1      -9.698  -7.014  -3.576  1.00  0.00    -0.000 C 
BRANCH  20  21
ATOM     21  C   UNL     1      -9.231  -5.552  -3.396  1.00  0.00    -0.000 C 
BRANCH  21  22
ATOM     22  C   UNL     1      -8.612  -5.310  -2.011  1.00  0.00    -0.000 C 
BRANCH  22  23
ATOM     23  C   UNL     1      -8.754  -6.553  -1.123  1.00  0.00    -0.000 C 
BRANCH  23  24
ATOM     24  C   UNL     1      -7.796  -6.498   0.075  1.00  0.00    -0.000 C 
BRANCH  24  25
ATOM     25  C   UNL     1      -7.471  -7.909   0.583  1.00  0.00    -0.003 C 
ATOM     26  C   UNL     1      -8.476  -8.932   0.056  1.00  0.00     0.004 C 
ENDBRANCH  24  25
ENDBRANCH  23  24
ENDBRANCH  22  23
ENDBRANCH  21  22
ENDBRANCH  20  21
ENDBRANCH  19  20
ENDBRANCH  18  19
ENDBRANCH  17  18
ENDBRANCH  16  17
ENDBRANCH  15  16
ENDBRANCH   1  15
TORSDOF 22
ENDMDL
MODEL 5
REMARK VINA RESULT:    -3.121      2.649      4.979
REMARK INTER + INTRA:         -10.770
REMARK INTER:                  -6.354
REMARK INTRA:                  -4.415
REMARK UNBOUND:                -3.635
REMARK SMILES CCCCCCCCCCCCCCCCCCCCCCCC(=O)[O-]
REMARK SMILES IDX 13 1 14 2 15 3 16 4 17 5 18 6 19 7 20 8 21 9 22 10 23 11
REMARK SMILES IDX 24 12 25 13 26 14 12 15 11 16 10 17 9 18 8 19 7 20 6 21 5 22
REMARK SMILES IDX 4 23 3 24 2 25 1 26
REMARK H PARENT
REMARK Flexibility Score: inf
ROOT
ATOM      1  C   UNL     1      -5.926  -3.781  -1.403  1.00  0.00     0.000 C 
ENDROOT
BRANCH   1   2
ATOM      2  C   UNL     1      -4.440  -3.408  -1.247  1.00  0.00     0.000 C 
BRANCH   2   3
ATOM      3  C   UNL     1      -3.670  -4.390  -0.349  1.00  0.00     0.000 C 
BRANCH   3   4
ATOM      4  C   UNL     1      -2.141  -4.237  -0.450  1.00  0.00     0.000 C 
BRANCH   4   5
ATOM      5  C   UNL     1      -1.448  -5.587  -0.714  1.00  0.00     0.000 C 
BRANCH   5   6
ATOM      6  C   UNL     1      -2.183  -6.464  -1.746  1.00  0.00     0.000 C 
BRANCH   6   7
ATOM      7  C   UNL     1      -1.758  -6.142  -3.191  1.00  0.00     0.000 C 
BRANCH   7   8
ATOM      8  C   UNL     1      -2.945  -5.741  -4.081  1.00  0.00     0.000 C 
BRANCH   8   9
ATOM      9  C   UNL     1      -2.997  -4.226  -4.359  1.00  0.00     0.000 C 
BRANCH   9  10
ATOM     10  C   UNL     1      -1.612  -3.558  -4.273  1.00  0.00     0.006 C 
BRANCH  10  11
ATOM     11  C   UNL     1      -1.482  -2.358  -5.223  1.00  0.00     0.053 C 
BRANCH  11  12
ATOM     12  C   UNL     1      -0.106  -1.762  -5.164  1.00  0.00     0.041 C 
ATOM     13  O   UNL     1       0.723  -1.978  -6.089  1.00  0.00    -0.550 OA
ATOM     14  O   UNL     1       0.251  -0.933  -4.103  1.00  0.00    -0.550 OA
ENDBRANCH  11  12
ENDBRANCH  10  11
ENDBRANCH   9  10
ENDBRANCH   8   9
ENDBRANCH   7   8
ENDBRANCH   6   7
ENDBRANCH   5   6
ENDBRANCH   4   5
ENDBRANCH   3   4
ENDBRANCH   2   3
ENDBRANCH   1   2
BRANCH   1  15
ATOM     15  C   UNL     1      -6.387  -3.885  -2.872  1.00  0.00     0.000 C 
BRANCH  15  16
ATOM     16  C   UNL     1      -7.678  -4.699  -3.113  1.00  0.00     0.000 C 
BRANCH  16  17
ATOM     17  C   UNL     1      -8.451  -5.066  -1.830  1.00  0.00     0.000 C 
BRANCH  17  18
ATOM     18  C   UNL     1      -9.387  -6.287  -2.004  1.00  0.00    -0.000 C 
BRANCH  18  19
ATOM     19  C   UNL     1      -8.877  -7.544  -1.268  1.00  0.00    -0.000 C 
BRANCH  19  20
ATOM     20  C   UNL     1      -7.737  -7.216  -0.286  1.00  0.00    -0.000 C 
BRANCH  20  21
ATOM     21  C   UNL     1      -6.469  -8.056  -0.557  1.00  0.00    -0.000 C 
BRANCH  21  22
ATOM     22  C   UNL     1      -5.546  -7.393  -1.592  1.00  0.00    -0.000 C 
BRANCH  22  23
ATOM     23  C   UNL     1      -5.317  -8.320  -2.793  1.00  0.00    -0.000 C 
BRANCH  23  24
ATOM     24  C   UNL     1      -6.227  -7.945  -3.971  1.00  0.00    -0.000 C 
BRANCH  24  25
ATOM     25  C   UNL     1      -7.092  -9.139  -4.397  1.00  0.00    -0.003 C 
ATOM     26  C   UNL     1      -8.513  -8.695  -4.747  1.00  0.00     0.004 C 
ENDBRANCH  24  25
ENDBRANCH  23  24
ENDBRANCH  22  23
ENDBRANCH  21  22
ENDBRANCH  20  21
ENDBRANCH  19  20
ENDBRANCH  18  19
ENDBRANCH  17  18
ENDBRANCH  16  17
ENDBRANCH  15  16
ENDBRANCH   1  15
TORSDOF 22
ENDMDL
MODEL 6
REMARK VINA RESULT:    -3.114      1.895      3.955
REMARK INTER + INTRA:         -10.753
REMARK INTER:                  -6.998
REMARK INTRA:                  -3.755
REMARK UNBOUND:                -3.635
REMARK SMILES CCCCCCCCCCCCCCCCCCCCCCCC(=O)[O-]
REMARK SMILES IDX 13 1 14 2 15 3 16 4 17 5 18 6 19 7 20 8 21 9 22 10 23 11
REMARK SMILES IDX 24 12 25 13 26 14 12 15 11 16 10 17 9 18 8 19 7 20 6 21 5 22
REMARK SMILES IDX 4 23 3 24 2 25 1 26
REMARK H PARENT
REMARK Flexibility Score: inf
ROOT
ATOM      1  C   UNL     1      -9.351  -7.142  -3.744  1.00  0.00     0.000 C 
ENDROOT
BRANCH   1   2
ATOM      2  C   UNL     1      -8.885  -8.266  -4.687  1.00  0.00     0.000 C 
BRANCH   2   3
ATOM      3  C   UNL     1      -7.515  -8.844  -4.295  1.00  0.00     0.000 C 
BRANCH   3   4
ATOM      4  C   UNL     1      -7.064  -8.438  -2.880  1.00  0.00     0.000 C 
BRANCH   4   5
ATOM      5  C   UNL     1      -5.601  -7.954  -2.863  1.00  0.00     0.000 C 
BRANCH   5   6
ATOM      6  C   UNL     1      -5.265  -6.970  -4.000  1.00  0.00     0.000 C 
BRANCH   6   7
ATOM      7  C   UNL     1      -3.749  -6.747  -4.147  1.00  0.00     0.000 C 
BRANCH   7   8
ATOM      8  C   UNL     1      -3.351  -5.270  -3.992  1.00  0.00     0.000 C 
BRANCH   8   9
ATOM      9  C   UNL     1      -4.569  -4.332  -3.882  1.00  0.00     0.000 C 
BRANCH   9  10
ATOM     10  C   UNL     1      -4.168  -2.853  -3.733  1.00  0.00     0.006 C 
BRANCH  10  11
ATOM     11  C   UNL     1      -5.377  -1.908  -3.814  1.00  0.00     0.053 C 
BRANCH  11  12
ATOM     12  C   UNL     1      -5.536  -1.343  -5.195  1.00  0.00     0.041 C 
ATOM     13  O   UNL     1      -4.569  -0.771  -5.766  1.00  0.00    -0.550 OA
ATOM     14  O   UNL     1      -6.746  -1.483  -5.871  1.00  0.00    -0.550 OA
ENDBRANCH  11  12
ENDBRANCH  10  11
ENDBRANCH   9  10
ENDBRANCH   8   9
ENDBRANCH   7   8
ENDBRANCH   6   7
ENDBRANCH   5   6
ENDBRANCH   4   5
ENDBRANCH   3   4
ENDBRANCH   2   3
ENDBRANCH   1   2
BRANCH   1  15
ATOM     15  C   UNL     1      -9.399  -5.752  -4.412  1.00  0.00     0.000 C 
BRANCH  15  16
ATOM     16  C   UNL     1      -8.287  -4.767  -3.991  1.00  0.00     0.000 C 
BRANCH  16  17
ATOM     17  C   UNL     1      -8.412  -4.241  -2.546  1.00  0.00     0.000 C 
BRANCH  17  18
ATOM     18  C   UNL     1      -7.348  -4.825  -1.586  1.00  0.00    -0.000 C 
BRANCH  18  19
ATOM     19  C   UNL     1      -7.967  -5.590  -0.397  1.00  0.00    -0.000 C 
BRANCH  19  20
ATOM     20  C   UNL     1      -9.506  -5.562  -0.431  1.00  0.00    -0.000 C 
BRANCH  20  21
ATOM     21  C   UNL     1     -10.122  -5.427   0.979  1.00  0.00    -0.000 C 
BRANCH  21  22
ATOM     22  C   UNL     1      -9.172  -5.930   2.076  1.00  0.00    -0.000 C 
BRANCH  22  23
ATOM     23  C   UNL     1      -9.880  -6.937   2.993  1.00  0.00    -0.000 C 
BRANCH  23  24
ATOM     24  C   UNL     1      -9.194  -8.310   2.952  1.00  0.00    -0.000 C 
BRANCH  24  25
ATOM     25  C   UNL     1      -8.001  -8.299   1.987  1.00  0.00    -0.003 C 
ATOM     26  C   UNL     1      -8.309  -9.091   0.717  1.00  0.00     0.004 C 
ENDBRANCH  24  25
ENDBRANCH  23  24
ENDBRANCH  22  23
ENDBRANCH  21  22
ENDBRANCH  20  21
ENDBRANCH  19  20
ENDBRANCH  18  19
ENDBRANCH  17  18
ENDBRANCH  16  17
ENDBRANCH  15  16
ENDBRANCH   1  15
TORSDOF 22
ENDMDL
MODEL 7
REMARK VINA RESULT:    -3.108      1.937      3.918
REMARK INTER + INTRA:         -10.741
REMARK INTER:                  -7.118
REMARK INTRA:                  -3.623
REMARK UNBOUND:                -3.635
REMARK SMILES CCCCCCCCCCCCCCCCCCCCCCCC(=O)[O-]
REMARK SMILES IDX 13 1 14 2 15 3 16 4 17 5 18 6 19 7 20 8 21 9 22 10 23 11
REMARK SMILES IDX 24 12 25 13 26 14 12 15 11 16 10 17 9 18 8 19 7 20 6 21 5 22
REMARK SMILES IDX 4 23 3 24 2 25 1 26
REMARK H PARENT
REMARK Flexibility Score: inf
ROOT
ATOM      1  C   UNL     1      -8.290  -4.691  -3.015  1.00  0.00     0.000 C 
ENDROOT
BRANCH   1   2
ATOM      2  C   UNL     1      -7.659  -3.860  -1.883  1.00  0.00     0.000 C 
BRANCH   2   3
ATOM      3  C   UNL     1      -7.379  -2.405  -2.296  1.00  0.00     0.000 C 
BRANCH   3   4
ATOM      4  C   UNL     1      -6.292  -2.277  -3.379  1.00  0.00     0.000 C 
BRANCH   4   5
ATOM      5  C   UNL     1      -5.668  -0.869  -3.399  1.00  0.00     0.000 C 
BRANCH   5   6
ATOM      6  C   UNL     1      -4.738  -0.625  -4.603  1.00  0.00     0.000 C 
BRANCH   6   7
ATOM      7  C   UNL     1      -4.283  -1.940  -5.262  1.00  0.00     0.000 C 
BRANCH   7   8
ATOM      8  C   UNL     1      -2.753  -2.083  -5.302  1.00  0.00     0.000 C 
BRANCH   8   9
ATOM      9  C   UNL     1      -2.275  -3.493  -4.905  1.00  0.00     0.000 C 
BRANCH   9  10
ATOM     10  C   UNL     1      -3.427  -4.404  -4.443  1.00  0.00     0.006 C 
BRANCH  10  11
ATOM     11  C   UNL     1      -3.117  -5.116  -3.118  1.00  0.00     0.053 C 
BRANCH  11  12
ATOM     12  C   UNL     1      -2.282  -6.343  -3.340  1.00  0.00     0.041 C 
ATOM     13  O   UNL     1      -2.597  -7.176  -4.233  1.00  0.00    -0.550 OA
ATOM     14  O   UNL     1      -1.130  -6.550  -2.585  1.00  0.00    -0.550 OA
ENDBRANCH  11  12
ENDBRANCH  10  11
ENDBRANCH   9  10
ENDBRANCH   8   9
ENDBRANCH   7   8
ENDBRANCH   6   7
ENDBRANCH   5   6
ENDBRANCH   4   5
ENDBRANCH   3   4
ENDBRANCH   2   3
ENDBRANCH   1   2
BRANCH   1  15
ATOM     15  C   UNL     1      -9.580  -5.428  -2.596  1.00  0.00     0.000 C 
BRANCH  15  16
ATOM     16  C   UNL     1      -9.778  -6.832  -3.208  1.00  0.00     0.000 C 
BRANCH  16  17
ATOM     17  C   UNL     1      -8.760  -7.200  -4.308  1.00  0.00     0.000 C 
BRANCH  17  18
ATOM     18  C   UNL     1      -8.522  -8.723  -4.439  1.00  0.00    -0.000 C 
BRANCH  18  19
ATOM     19  C   UNL     1      -7.030  -9.108  -4.340  1.00  0.00    -0.000 C 
BRANCH  19  20
ATOM     20  C   UNL     1      -6.153  -7.915  -3.918  1.00  0.00    -0.000 C 
BRANCH  20  21
ATOM     21  C   UNL     1      -5.512  -8.120  -2.527  1.00  0.00    -0.000 C 
BRANCH  21  22
ATOM     22  C   UNL     1      -6.234  -7.318  -1.433  1.00  0.00    -0.000 C 
BRANCH  22  23
ATOM     23  C   UNL     1      -6.802  -8.252  -0.355  1.00  0.00    -0.000 C 
BRANCH  23  24
ATOM     24  C   UNL     1      -8.324  -8.101  -0.229  1.00  0.00    -0.000 C 
BRANCH  24  25
ATOM     25  C   UNL     1      -8.704  -7.474   1.119  1.00  0.00    -0.003 C 
ATOM     26  C   UNL     1      -9.101  -6.007   0.955  1.00  0.00     0.004 C 
ENDBRANCH  24  25
ENDBRANCH  23  24
ENDBRANCH  22  23
ENDBRANCH  21  22
ENDBRANCH  20  21
ENDBRANCH  19  20
ENDBRANCH  18  19
ENDBRANCH  17  18
ENDBRANCH  16  17
ENDBRANCH  15  16
ENDBRANCH   1  15
TORSDOF 22
ENDMDL
MODEL 8
REMARK VINA RESULT:    -3.084      3.516      7.202
REMARK INTER + INTRA:         -10.685
REMARK INTER:                  -6.817
REMARK INTRA:                  -3.868
REMARK UNBOUND:                -3.635
REMARK SMILES CCCCCCCCCCCCCCCCCCCCCCCC(=O)[O-]
REMARK SMILES IDX 13 1 14 2 15 3 16 4 17 5 18 6 19 7 20 8 21 9 22 10 23 11
REMARK SMILES IDX 24 12 25 13 26 14 12 15 11 16 10 17 9 18 8 19 7 20 6 21 5 22
REMARK SMILES IDX 4 23 3 24 2 25 1 26
REMARK H PARENT
REMARK Flexibility Score: inf
ROOT
ATOM      1  C   UNL     1      -8.461  -6.213  -0.597  1.00  0.00     0.000 C 
ENDROOT
BRANCH   1   2
ATOM      2  C   UNL     1      -8.573  -7.701  -0.219  1.00  0.00     0.000 C 
BRANCH   2   3
ATOM      3  C   UNL     1      -7.206  -8.354   0.044  1.00  0.00     0.000 C 
BRANCH   3   4
ATOM      4  C   UNL     1      -7.153  -9.149   1.361  1.00  0.00     0.000 C 
BRANCH   4   5
ATOM      5  C   UNL     1      -8.536  -9.229   2.036  1.00  0.00     0.000 C 
BRANCH   5   6
ATOM      6  C   UNL     1      -8.633  -8.413   3.339  1.00  0.00     0.000 C 
BRANCH   6   7
ATOM      7  C   UNL     1     -10.020  -7.770   3.522  1.00  0.00     0.000 C 
BRANCH   7   8
ATOM      8  C   UNL     1     -10.017  -6.263   3.223  1.00  0.00     0.000 C 
BRANCH   8   9
ATOM      9  C   UNL     1      -8.656  -5.600   3.511  1.00  0.00     0.000 C 
BRANCH   9  10
ATOM     10  C   UNL     1      -8.308  -4.492   2.500  1.00  0.00     0.006 C 
BRANCH  10  11
ATOM     11  C   UNL     1      -7.779  -3.221   3.182  1.00  0.00     0.053 C 
BRANCH  11  12
ATOM     12  C   UNL     1      -8.860  -2.527   3.957  1.00  0.00     0.041 C 
ATOM     13  O   UNL     1      -8.854  -2.544   5.218  1.00  0.00    -0.550 OA
ATOM     14  O   UNL     1      -9.859  -1.825   3.286  1.00  0.00    -0.550 OA
ENDBRANCH  11  12
ENDBRANCH  10  11
ENDBRANCH   9  10
ENDBRANCH   8   9
ENDBRANCH   7   8
ENDBRANCH   6   7
ENDBRANCH   5   6
ENDBRANCH   4   5
ENDBRANCH   3   4
ENDBRANCH   2   3
ENDBRANCH   1   2
BRANCH   1  15
ATOM     15  C   UNL     1      -9.484  -5.766  -1.663  1.00  0.00     0.000 C 
BRANCH  15  16
ATOM     16  C   UNL     1      -9.908  -6.849  -2.680  1.00  0.00     0.000 C 
BRANCH  16  17
ATOM     17  C   UNL     1      -9.334  -6.654  -4.099  1.00  0.00     0.000 C 
BRANCH  17  18
ATOM     18  C   UNL     1      -8.902  -7.978  -4.774  1.00  0.00    -0.000 C 
BRANCH  18  19
ATOM     19  C   UNL     1      -8.222  -8.957  -3.794  1.00  0.00    -0.000 C 
BRANCH  19  20
ATOM     20  C   UNL     1      -6.727  -9.145  -4.110  1.00  0.00    -0.000 C 
BRANCH  20  21
ATOM     21  C   UNL     1      -5.827  -8.217  -3.265  1.00  0.00    -0.000 C 
BRANCH  21  22
ATOM     22  C   UNL     1      -5.220  -7.080  -4.102  1.00  0.00    -0.000 C 
BRANCH  22  23
ATOM     23  C   UNL     1      -5.819  -5.725  -3.700  1.00  0.00    -0.000 C 
BRANCH  23  24
ATOM     24  C   UNL     1      -5.337  -5.290  -2.310  1.00  0.00    -0.000 C 
BRANCH  24  25
ATOM     25  C   UNL     1      -5.922  -3.923  -1.929  1.00  0.00    -0.003 C 
ATOM     26  C   UNL     1      -6.926  -3.441  -2.976  1.00  0.00     0.004 C 
ENDBRANCH  24  25
ENDBRANCH  23  24
ENDBRANCH  22  23
ENDBRANCH  21  22
ENDBRANCH  20  21
ENDBRANCH  19  20
ENDBRANCH  18  19
ENDBRANCH  17  18
ENDBRANCH  16  17
ENDBRANCH  15  16
ENDBRANCH   1  15
TORSDOF 22
ENDMDL
MODEL 9
REMARK VINA RESULT:    -3.069     14.229     17.729
REMARK INTER + INTRA:         -10.652
REMARK INTER:                  -7.287
REMARK INTRA:                  -3.364
REMARK UNBOUND:                -3.635
REMARK SMILES CCCCCCCCCCCCCCCCCCCCCCCC(=O)[O-]
REMARK SMILES IDX 13 1 14 2 15 3 16 4 17 5 18 6 19 7 20 8 21 9 22 10 23 11
REMARK SMILES IDX 24 12 25 13 26 14 12 15 11 16 10 17 9 18 8 19 7 20 6 21 5 22
REMARK SMILES IDX 4 23 3 24 2 25 1 26
REMARK H PARENT
REMARK Flexibility Score: inf
ROOT
ATOM      1  C   UNL     1       4.169   8.781   4.514  1.00  0.00     0.000 C 
ENDROOT
BRANCH   1   2
ATOM      2  C   UNL     1       3.659   9.261   5.885  1.00  0.00     0.000 C 
BRANCH   2   3
ATOM      3  C   UNL     1       2.769   8.222   6.588  1.00  0.00     0.000 C 
BRANCH   3   4
ATOM      4  C   UNL     1       3.011   6.783   6.099  1.00  0.00     0.000 C 
BRANCH   4   5
ATOM      5  C   UNL     1       1.691   6.067   5.754  1.00  0.00     0.000 C 
BRANCH   5   6
ATOM      6  C   UNL     1       1.853   4.947   4.709  1.00  0.00     0.000 C 
BRANCH   6   7
ATOM      7  C   UNL     1       1.448   3.569   5.264  1.00  0.00     0.000 C 
BRANCH   7   8
ATOM      8  C   UNL     1       1.395   3.543   6.800  1.00  0.00     0.000 C 
BRANCH   8   9
ATOM      9  C   UNL     1       2.204   2.380   7.405  1.00  0.00     0.000 C 
BRANCH   9  10
ATOM     10  C   UNL     1       3.630   2.286   6.832  1.00  0.00     0.006 C 
BRANCH  10  11
ATOM     11  C   UNL     1       4.371   1.027   7.309  1.00  0.00     0.053 C 
BRANCH  11  12
ATOM     12  C   UNL     1       5.142   1.292   8.570  1.00  0.00     0.041 C 
ATOM     13  O   UNL     1       4.907   0.624   9.613  1.00  0.00    -0.550 OA
ATOM     14  O   UNL     1       6.149   2.253   8.583  1.00  0.00    -0.550 OA
ENDBRANCH  11  12
ENDBRANCH  10  11
ENDBRANCH   9  10
ENDBRANCH   8   9
ENDBRANCH   7   8
ENDBRANCH   6   7
ENDBRANCH   5   6
ENDBRANCH   4   5
ENDBRANCH   3   4
ENDBRANCH   2   3
ENDBRANCH   1   2
BRANCH   1  15
ATOM     15  C   UNL     1       3.326   9.294   3.326  1.00  0.00     0.000 C 
BRANCH  15  16
ATOM     16  C   UNL     1       2.397   8.252   2.665  1.00  0.00     0.000 C 
BRANCH  16  17
ATOM     17  C   UNL     1       0.897   8.610   2.716  1.00  0.00     0.000 C 
BRANCH  17  18
ATOM     18  C   UNL     1       0.495   9.393   3.989  1.00  0.00    -0.000 C 
BRANCH  18  19
ATOM     19  C   UNL     1      -0.795   8.854   4.643  1.00  0.00    -0.000 C 
BRANCH  19  20
ATOM     20  C   UNL     1      -2.057   9.298   3.882  1.00  0.00    -0.000 C 
BRANCH  20  21
ATOM     21  C   UNL     1      -3.357   8.860   4.593  1.00  0.00    -0.000 C 
BRANCH  21  22
ATOM     22  C   UNL     1      -4.134   7.810   3.784  1.00  0.00    -0.000 C 
BRANCH  22  23
ATOM     23  C   UNL     1      -3.844   7.952   2.283  1.00  0.00    -0.000 C 
BRANCH  23  24
ATOM     24  C   UNL     1      -3.347   6.631   1.681  1.00  0.00    -0.000 C 
BRANCH  24  25
ATOM     25  C   UNL     1      -2.786   5.708   2.771  1.00  0.00    -0.003 C 
ATOM     26  C   UNL     1      -1.262   5.621   2.692  1.00  0.00     0.004 C 
ENDBRANCH  24  25
ENDBRANCH  23  24
ENDBRANCH  22  23
ENDBRANCH  21  22
ENDBRANCH  20  21
ENDBRANCH  19  20
ENDBRANCH  18  19
ENDBRANCH  17  18
ENDBRANCH  16  17
ENDBRANCH  15  16
ENDBRANCH   1  15
TORSDOF 22
ENDMDL
