MODEL 1
REMARK VINA RESULT:    -4.209      0.000      0.000
REMARK INTER + INTRA:          -7.395
REMARK INTER:                  -6.423
REMARK INTRA:                  -0.972
REMARK UNBOUND:                -0.972
REMARK SMILES O=C([O-])CCCCCCCCC(=O)[O-]
REMARK SMILES IDX 7 1 6 2 5 3 4 4 2 5 1 6 3 7 8 8 9 9 10 10 11 11 12 12 13 13
REMARK SMILES IDX 14 14
REMARK H PARENT
REMARK Flexibility Score: inf
ROOT
ATOM      1  C   UNL     1     -20.659  45.341  -7.916  1.00  0.00     0.000 C 
ENDROOT
BRANCH   1   2
ATOM      2  C   UNL     1     -20.363  44.484  -6.677  1.00  0.00     0.000 C 
BRANCH   2   3
ATOM      3  C   UNL     1     -19.223  45.092  -5.850  1.00  0.00     0.006 C 
BRANCH   3   4
ATOM      4  C   UNL     1     -18.825  46.468  -6.391  1.00  0.00     0.053 C 
BRANCH   4   5
ATOM      5  C   UNL     1     -17.959  47.187  -5.406  1.00  0.00     0.041 C 
ATOM      6  O   UNL     1     -18.453  48.064  -4.649  1.00  0.00    -0.550 OA
ATOM      7  O   UNL     1     -16.595  46.926  -5.358  1.00  0.00    -0.550 OA
ENDBRANCH   4   5
ENDBRANCH   3   4
ENDBRANCH   2   3
ENDBRANCH   1   2
BRANCH   1   8
ATOM      8  C   UNL     1     -20.321  44.625  -9.237  1.00  0.00     0.000 C 
BRANCH   8   9
ATOM      9  C   UNL     1     -20.288  43.088  -9.153  1.00  0.00     0.000 C 
BRANCH   9  10
ATOM     10  C   UNL     1     -18.894  42.503  -9.426  1.00  0.00     0.006 C 
BRANCH  10  11
ATOM     11  C   UNL     1     -17.835  43.610  -9.464  1.00  0.00     0.053 C 
BRANCH  11  12
ATOM     12  C   UNL     1     -16.970  43.548  -8.244  1.00  0.00     0.041 C 
ATOM     13  O   UNL     1     -17.032  42.553  -7.475  1.00  0.00    -0.550 OA
ATOM     14  O   UNL     1     -16.132  44.610  -7.932  1.00  0.00    -0.550 OA
ENDBRANCH  11  12
ENDBRANCH  10  11
ENDBRANCH   9  10
ENDBRANCH   8   9
ENDBRANCH   1   8
TORSDOF 9
ENDMDL
MODEL 2
REMARK VINA RESULT:    -4.125      2.245      4.067
REMARK INTER + INTRA:          -7.267
REMARK INTER:                  -6.076
REMARK INTRA:                  -1.191
REMARK UNBOUND:                -0.972
REMARK SMILES O=C([O-])CCCCCCCCC(=O)[O-]
REMARK SMILES IDX 7 1 6 2 5 3 4 4 2 5 1 6 3 7 8 8 9 9 10 10 11 11 12 12 13 13
REMARK SMILES IDX 14 14
REMARK H PARENT
REMARK Flexibility Score: inf
ROOT
ATOM      1  C   UNL     1     -18.940  44.364  -5.646  1.00  0.00     0.000 C 
ENDROOT
BRANCH   1   2
ATOM      2  C   UNL     1     -19.322  45.810  -5.994  1.00  0.00     0.000 C 
BRANCH   2   3
ATOM      3  C   UNL     1     -19.951  45.890  -7.391  1.00  0.00     0.006 C 
BRANCH   3   4
ATOM      4  C   UNL     1     -20.736  44.616  -7.713  1.00  0.00     0.053 C 
BRANCH   4   5
ATOM      5  C   UNL     1     -20.325  44.070  -9.044  1.00  0.00     0.041 C 
ATOM      6  O   UNL     1     -20.499  42.852  -9.310  1.00  0.00    -0.550 OA
ATOM      7  O   UNL     1     -19.703  44.896  -9.973  1.00  0.00    -0.550 OA
ENDBRANCH   4   5
ENDBRANCH   3   4
ENDBRANCH   2   3
ENDBRANCH   1   2
BRANCH   1   8
ATOM      8  C   UNL     1     -17.461  44.047  -5.929  1.00  0.00     0.000 C 
BRANCH   8   9
ATOM      9  C   UNL     1     -17.211  43.138  -7.147  1.00  0.00     0.000 C 
BRANCH   9  10
ATOM     10  C   UNL     1     -16.645  43.898  -8.356  1.00  0.00     0.006 C 
BRANCH  10  11
ATOM     11  C   UNL     1     -16.153  45.289  -7.946  1.00  0.00     0.053 C 
BRANCH  11  12
ATOM     12  C   UNL     1     -16.565  46.310  -8.960  1.00  0.00     0.041 C 
ATOM     13  O   UNL     1     -17.011  47.427  -8.588  1.00  0.00    -0.550 OA
ATOM     14  O   UNL     1     -16.503  46.009 -10.314  1.00  0.00    -0.550 OA
ENDBRANCH  11  12
ENDBRANCH  10  11
ENDBRANCH   9  10
ENDBRANCH   8   9
ENDBRANCH   1   8
TORSDOF 9
ENDMDL
MODEL 3
REMARK VINA RESULT:    -4.094      2.145      3.081
REMARK INTER + INTRA:          -7.220
REMARK INTER:                  -6.187
REMARK INTRA:                  -1.033
REMARK UNBOUND:                -0.972
REMARK SMILES O=C([O-])CCCCCCCCC(=O)[O-]
REMARK SMILES IDX 7 1 6 2 5 3 4 4 2 5 1 6 3 7 8 8 9 9 10 10 11 11 12 12 13 13
REMARK SMILES IDX 14 14
REMARK H PARENT
REMARK Flexibility Score: inf
ROOT
ATOM      1  C   UNL     1     -19.148  44.289  -5.850  1.00  0.00     0.000 C 
ENDROOT
BRANCH   1   2
ATOM      2  C   UNL     1     -19.618  45.631  -6.432  1.00  0.00     0.000 C 
BRANCH   2   3
ATOM      3  C   UNL     1     -18.722  46.780  -5.956  1.00  0.00     0.006 C 
BRANCH   3   4
ATOM      4  C   UNL     1     -18.449  47.770  -7.093  1.00  0.00     0.053 C 
BRANCH   4   5
ATOM      5  C   UNL     1     -17.395  47.235  -8.010  1.00  0.00     0.041 C 
ATOM      6  O   UNL     1     -16.272  46.894  -7.555  1.00  0.00    -0.550 OA
ATOM      7  O   UNL     1     -17.636  47.159  -9.377  1.00  0.00    -0.550 OA
ENDBRANCH   4   5
ENDBRANCH   3   4
ENDBRANCH   2   3
ENDBRANCH   1   2
BRANCH   1   8
ATOM      8  C   UNL     1     -17.625  44.091  -5.953  1.00  0.00     0.000 C 
BRANCH   8   9
ATOM      9  C   UNL     1     -17.173  43.051  -6.995  1.00  0.00     0.000 C 
BRANCH   9  10
ATOM     10  C   UNL     1     -17.268  43.569  -8.438  1.00  0.00     0.006 C 
BRANCH  10  11
ATOM     11  C   UNL     1     -18.254  42.729  -9.256  1.00  0.00     0.053 C 
BRANCH  11  12
ATOM     12  C   UNL     1     -19.525  43.488  -9.482  1.00  0.00     0.041 C 
ATOM     13  O   UNL     1     -20.600  43.091  -8.959  1.00  0.00    -0.550 OA
ATOM     14  O   UNL     1     -19.530  44.604 -10.308  1.00  0.00    -0.550 OA
ENDBRANCH  11  12
ENDBRANCH  10  11
ENDBRANCH   9  10
ENDBRANCH   8   9
ENDBRANCH   1   8
TORSDOF 9
ENDMDL
MODEL 4
REMARK VINA RESULT:    -4.077      2.137      4.650
REMARK INTER + INTRA:          -7.194
REMARK INTER:                  -6.089
REMARK INTRA:                  -1.105
REMARK UNBOUND:                -0.972
REMARK SMILES O=C([O-])CCCCCCCCC(=O)[O-]
REMARK SMILES IDX 7 1 6 2 5 3 4 4 2 5 1 6 3 7 8 8 9 9 10 10 11 11 12 12 13 13
REMARK SMILES IDX 14 14
REMARK H PARENT
REMARK Flexibility Score: inf
ROOT
ATOM      1  C   UNL     1     -17.259  43.909  -6.257  1.00  0.00     0.000 C 
ENDROOT
BRANCH   1   2
ATOM      2  C   UNL     1     -17.156  42.925  -7.431  1.00  0.00     0.000 C 
BRANCH   2   3
ATOM      3  C   UNL     1     -17.103  43.671  -8.770  1.00  0.00     0.006 C 
BRANCH   3   4
ATOM      4  C   UNL     1     -18.206  43.184  -9.713  1.00  0.00     0.053 C 
BRANCH   4   5
ATOM      5  C   UNL     1     -19.503  43.860  -9.395  1.00  0.00     0.041 C 
ATOM      6  O   UNL     1     -19.613  45.108  -9.514  1.00  0.00    -0.550 OA
ATOM      7  O   UNL     1     -20.576  43.116  -8.919  1.00  0.00    -0.550 OA
ENDBRANCH   4   5
ENDBRANCH   3   4
ENDBRANCH   2   3
ENDBRANCH   1   2
BRANCH   1   8
ATOM      8  C   UNL     1     -18.685  44.018  -5.687  1.00  0.00     0.000 C 
BRANCH   8   9
ATOM      9  C   UNL     1     -19.371  45.380  -5.904  1.00  0.00     0.000 C 
BRANCH   9  10
ATOM     10  C   UNL     1     -18.385  46.557  -5.882  1.00  0.00     0.006 C 
BRANCH  10  11
ATOM     11  C   UNL     1     -18.549  47.431  -7.130  1.00  0.00     0.053 C 
BRANCH  11  12
ATOM     12  C   UNL     1     -17.343  47.319  -8.009  1.00  0.00     0.041 C 
ATOM     13  O   UNL     1     -16.237  46.964  -7.523  1.00  0.00    -0.550 OA
ATOM     14  O   UNL     1     -17.429  47.655  -9.353  1.00  0.00    -0.550 OA
ENDBRANCH  11  12
ENDBRANCH  10  11
ENDBRANCH   9  10
ENDBRANCH   8   9
ENDBRANCH   1   8
TORSDOF 9
ENDMDL
MODEL 5
REMARK VINA RESULT:    -4.037      2.300      3.997
REMARK INTER + INTRA:          -7.133
REMARK INTER:                  -5.940
REMARK INTRA:                  -1.194
REMARK UNBOUND:                -0.972
REMARK SMILES O=C([O-])CCCCCCCCC(=O)[O-]
REMARK SMILES IDX 7 1 6 2 5 3 4 4 2 5 1 6 3 7 8 8 9 9 10 10 11 11 12 12 13 13
REMARK SMILES IDX 14 14
REMARK H PARENT
REMARK Flexibility Score: inf
ROOT
ATOM      1  C   UNL     1     -17.238  44.017  -6.077  1.00  0.00     0.000 C 
ENDROOT
BRANCH   1   2
ATOM      2  C   UNL     1     -17.164  43.207  -7.381  1.00  0.00     0.000 C 
BRANCH   2   3
ATOM      3  C   UNL     1     -16.578  44.052  -8.519  1.00  0.00     0.006 C 
BRANCH   3   4
ATOM      4  C   UNL     1     -16.266  45.473  -8.043  1.00  0.00     0.053 C 
BRANCH   4   5
ATOM      5  C   UNL     1     -16.992  46.478  -8.880  1.00  0.00     0.041 C 
ATOM      6  O   UNL     1     -16.844  46.486 -10.131  1.00  0.00    -0.550 OA
ATOM      7  O   UNL     1     -17.794  47.438  -8.276  1.00  0.00    -0.550 OA
ENDBRANCH   4   5
ENDBRANCH   3   4
ENDBRANCH   2   3
ENDBRANCH   1   2
BRANCH   1   8
ATOM      8  C   UNL     1     -18.666  44.118  -5.513  1.00  0.00     0.000 C 
BRANCH   8   9
ATOM      9  C   UNL     1     -19.547  45.203  -6.161  1.00  0.00     0.000 C 
BRANCH   9  10
ATOM     10  C   UNL     1     -20.654  44.621  -7.052  1.00  0.00     0.006 C 
BRANCH  10  11
ATOM     11  C   UNL     1     -20.604  45.231  -8.456  1.00  0.00     0.053 C 
BRANCH  11  12
ATOM     12  C   UNL     1     -20.147  44.213  -9.453  1.00  0.00     0.041 C 
ATOM     13  O   UNL     1     -19.546  44.576 -10.498  1.00  0.00    -0.550 OA
ATOM     14  O   UNL     1     -20.427  42.868  -9.251  1.00  0.00    -0.550 OA
ENDBRANCH  11  12
ENDBRANCH  10  11
ENDBRANCH   9  10
ENDBRANCH   8   9
ENDBRANCH   1   8
TORSDOF 9
ENDMDL
MODEL 6
REMARK VINA RESULT:    -4.008      1.846      3.056
REMARK INTER + INTRA:          -7.088
REMARK INTER:                  -6.113
REMARK INTRA:                  -0.975
REMARK UNBOUND:                -0.972
REMARK SMILES O=C([O-])CCCCCCCCC(=O)[O-]
REMARK SMILES IDX 7 1 6 2 5 3 4 4 2 5 1 6 3 7 8 8 9 9 10 10 11 11 12 12 13 13
REMARK SMILES IDX 14 14
REMARK H PARENT
REMARK Flexibility Score: inf
ROOT
ATOM      1  C   UNL     1     -16.882  43.514  -9.172  1.00  0.00     0.000 C 
ENDROOT
BRANCH   1   2
ATOM      2  C   UNL     1     -17.068  42.797  -7.827  1.00  0.00     0.000 C 
BRANCH   2   3
ATOM      3  C   UNL     1     -17.060  43.798  -6.665  1.00  0.00     0.006 C 
BRANCH   3   4
ATOM      4  C   UNL     1     -16.511  45.155  -7.114  1.00  0.00     0.053 C 
BRANCH   4   5
ATOM      5  C   UNL     1     -16.186  46.006  -5.928  1.00  0.00     0.041 C 
ATOM      6  O   UNL     1     -16.995  46.890  -5.541  1.00  0.00    -0.550 OA
ATOM      7  O   UNL     1     -14.966  45.857  -5.278  1.00  0.00    -0.550 OA
ENDBRANCH   4   5
ENDBRANCH   3   4
ENDBRANCH   2   3
ENDBRANCH   1   2
BRANCH   1   8
ATOM      8  C   UNL     1     -18.187  43.620  -9.982  1.00  0.00     0.000 C 
BRANCH   8   9
ATOM      9  C   UNL     1     -19.303  42.651  -9.549  1.00  0.00     0.000 C 
BRANCH   9  10
ATOM     10  C   UNL     1     -20.513  43.369  -8.933  1.00  0.00     0.006 C 
BRANCH  10  11
ATOM     11  C   UNL     1     -20.275  44.880  -8.863  1.00  0.00     0.053 C 
BRANCH  11  12
ATOM     12  C   UNL     1     -20.212  45.334  -7.438  1.00  0.00     0.041 C 
ATOM     13  O   UNL     1     -20.526  44.545  -6.508  1.00  0.00    -0.550 OA
ATOM     14  O   UNL     1     -19.854  46.642  -7.141  1.00  0.00    -0.550 OA
ENDBRANCH  11  12
ENDBRANCH  10  11
ENDBRANCH   9  10
ENDBRANCH   8   9
ENDBRANCH   1   8
TORSDOF 9
ENDMDL
MODEL 7
REMARK VINA RESULT:    -3.935      1.539      2.530
REMARK INTER + INTRA:          -6.977
REMARK INTER:                  -5.787
REMARK INTRA:                  -1.191
REMARK UNBOUND:                -0.972
REMARK SMILES O=C([O-])CCCCCCCCC(=O)[O-]
REMARK SMILES IDX 7 1 6 2 5 3 4 4 2 5 1 6 3 7 8 8 9 9 10 10 11 11 12 12 13 13
REMARK SMILES IDX 14 14
REMARK H PARENT
REMARK Flexibility Score: inf
ROOT
ATOM      1  C   UNL     1     -20.250  43.340  -8.899  1.00  0.00     0.000 C 
ENDROOT
BRANCH   1   2
ATOM      2  C   UNL     1     -20.597  44.828  -9.055  1.00  0.00     0.000 C 
BRANCH   2   3
ATOM      3  C   UNL     1     -20.305  45.599  -7.762  1.00  0.00     0.006 C 
BRANCH   3   4
ATOM      4  C   UNL     1     -20.157  44.642  -6.575  1.00  0.00     0.053 C 
BRANCH   4   5
ATOM      5  C   UNL     1     -18.903  44.940  -5.816  1.00  0.00     0.041 C 
ATOM      6  O   UNL     1     -18.600  46.128  -5.533  1.00  0.00    -0.550 OA
ATOM      7  O   UNL     1     -18.042  43.907  -5.463  1.00  0.00    -0.550 OA
ENDBRANCH   4   5
ENDBRANCH   3   4
ENDBRANCH   2   3
ENDBRANCH   1   2
BRANCH   1   8
ATOM      8  C   UNL     1     -18.957  42.944  -9.634  1.00  0.00     0.000 C 
BRANCH   8   9
ATOM      9  C   UNL     1     -17.718  42.786  -8.733  1.00  0.00     0.000 C 
BRANCH   9  10
ATOM     10  C   UNL     1     -16.529  43.643  -9.193  1.00  0.00     0.006 C 
BRANCH  10  11
ATOM     11  C   UNL     1     -16.969  45.083  -9.474  1.00  0.00     0.053 C 
BRANCH  11  12
ATOM     12  C   UNL     1     -16.524  45.990  -8.370  1.00  0.00     0.041 C 
ATOM     13  O   UNL     1     -15.762  45.559  -7.465  1.00  0.00    -0.550 OA
ATOM     14  O   UNL     1     -16.990  47.297  -8.314  1.00  0.00    -0.550 OA
ENDBRANCH  11  12
ENDBRANCH  10  11
ENDBRANCH   9  10
ENDBRANCH   8   9
ENDBRANCH   1   8
TORSDOF 9
ENDMDL
MODEL 8
REMARK VINA RESULT:    -3.922      1.573      4.325
REMARK INTER + INTRA:          -6.958
REMARK INTER:                  -5.947
REMARK INTRA:                  -1.011
REMARK UNBOUND:                -0.972
REMARK SMILES O=C([O-])CCCCCCCCC(=O)[O-]
REMARK SMILES IDX 7 1 6 2 5 3 4 4 2 5 1 6 3 7 8 8 9 9 10 10 11 11 12 12 13 13
REMARK SMILES IDX 14 14
REMARK H PARENT
REMARK Flexibility Score: inf
ROOT
ATOM      1  C   UNL     1     -20.469  45.096  -8.318  1.00  0.00     0.000 C 
ENDROOT
BRANCH   1   2
ATOM      2  C   UNL     1     -20.583  43.568  -8.429  1.00  0.00     0.000 C 
BRANCH   2   3
ATOM      3  C   UNL     1     -19.798  43.045  -9.638  1.00  0.00     0.006 C 
BRANCH   3   4
ATOM      4  C   UNL     1     -18.339  42.766  -9.267  1.00  0.00     0.053 C 
BRANCH   4   5
ATOM      5  C   UNL     1     -17.423  43.681 -10.017  1.00  0.00     0.041 C 
ATOM      6  O   UNL     1     -16.177  43.599  -9.860  1.00  0.00    -0.550 OA
ATOM      7  O   UNL     1     -17.949  44.658 -10.854  1.00  0.00    -0.550 OA
ENDBRANCH   4   5
ENDBRANCH   3   4
ENDBRANCH   2   3
ENDBRANCH   1   2
BRANCH   1   8
ATOM      8  C   UNL     1     -19.833  45.557  -6.995  1.00  0.00     0.000 C 
BRANCH   8   9
ATOM      9  C   UNL     1     -19.524  44.429  -5.993  1.00  0.00     0.000 C 
BRANCH   9  10
ATOM     10  C   UNL     1     -18.018  44.230  -5.762  1.00  0.00     0.006 C 
BRANCH  10  11
ATOM     11  C   UNL     1     -17.200  45.189  -6.631  1.00  0.00     0.053 C 
BRANCH  11  12
ATOM     12  C   UNL     1     -16.413  46.130  -5.773  1.00  0.00     0.041 C 
ATOM     13  O   UNL     1     -15.192  45.915  -5.553  1.00  0.00    -0.550 OA
ATOM     14  O   UNL     1     -17.040  47.216  -5.176  1.00  0.00    -0.550 OA
ENDBRANCH  11  12
ENDBRANCH  10  11
ENDBRANCH   9  10
ENDBRANCH   8   9
ENDBRANCH   1   8
TORSDOF 9
ENDMDL
MODEL 9
REMARK VINA RESULT:    -3.890      1.668      3.636
REMARK INTER + INTRA:          -6.909
REMARK INTER:                  -5.736
REMARK INTRA:                  -1.173
REMARK UNBOUND:                -0.972
REMARK SMILES O=C([O-])CCCCCCCCC(=O)[O-]
REMARK SMILES IDX 7 1 6 2 5 3 4 4 2 5 1 6 3 7 8 8 9 9 10 10 11 11 12 12 13 13
REMARK SMILES IDX 14 14
REMARK H PARENT
REMARK Flexibility Score: inf
ROOT
ATOM      1  C   UNL     1     -18.721  43.098  -9.663  1.00  0.00     0.000 C 
ENDROOT
BRANCH   1   2
ATOM      2  C   UNL     1     -17.678  42.763  -8.587  1.00  0.00     0.000 C 
BRANCH   2   3
ATOM      3  C   UNL     1     -16.539  43.790  -8.588  1.00  0.00     0.006 C 
BRANCH   3   4
ATOM      4  C   UNL     1     -16.889  44.997  -9.463  1.00  0.00     0.053 C 
BRANCH   4   5
ATOM      5  C   UNL     1     -16.456  46.267  -8.800  1.00  0.00     0.041 C 
ATOM      6  O   UNL     1     -15.434  46.281  -8.065  1.00  0.00    -0.550 OA
ATOM      7  O   UNL     1     -17.209  47.424  -8.955  1.00  0.00    -0.550 OA
ENDBRANCH   4   5
ENDBRANCH   3   4
ENDBRANCH   2   3
ENDBRANCH   1   2
BRANCH   1   8
ATOM      8  C   UNL     1     -20.164  43.085  -9.127  1.00  0.00     0.000 C 
BRANCH   8   9
ATOM      9  C   UNL     1     -20.677  44.440  -8.604  1.00  0.00     0.000 C 
BRANCH   9  10
ATOM     10  C   UNL     1     -20.448  44.626  -7.097  1.00  0.00     0.006 C 
BRANCH  10  11
ATOM     11  C   UNL     1     -19.641  45.897  -6.819  1.00  0.00     0.053 C 
BRANCH  11  12
ATOM     12  C   UNL     1     -18.507  45.604  -5.887  1.00  0.00     0.041 C 
ATOM     13  O   UNL     1     -17.754  46.534  -5.495  1.00  0.00    -0.550 OA
ATOM     14  O   UNL     1     -18.253  44.297  -5.491  1.00  0.00    -0.550 OA
ENDBRANCH  11  12
ENDBRANCH  10  11
ENDBRANCH   9  10
ENDBRANCH   8   9
ENDBRANCH   1   8
TORSDOF 9
ENDMDL
