MODEL 1
REMARK VINA RESULT:    -4.172      0.000      0.000
REMARK INTER + INTRA:          -5.598
REMARK INTER:                  -5.391
REMARK INTRA:                  -0.207
REMARK UNBOUND:                -0.207
REMARK SMILES C=CC(=O)CCCCC
REMARK SMILES IDX 6 1 7 2 8 3 9 4 5 5 3 6 4 7 2 8 1 9
REMARK H PARENT
REMARK Flexibility Score: inf
ROOT
ATOM      1  C   UNL     1      11.962 -28.745  23.133  1.00  0.00     0.008 C 
ENDROOT
BRANCH   1   2
ATOM      2  C   UNL     1      11.734 -27.491  24.000  1.00  0.00     0.000 C 
BRANCH   2   3
ATOM      3  C   UNL     1      12.759 -26.383  23.711  1.00  0.00    -0.003 C 
ATOM      4  C   UNL     1      13.604 -26.081  24.944  1.00  0.00     0.004 C 
ENDBRANCH   2   3
ENDBRANCH   1   2
BRANCH   1   5
ATOM      5  C   UNL     1      13.076 -29.663  23.662  1.00  0.00     0.080 C 
BRANCH   5   6
ATOM      6  C   UNL     1      13.175 -30.945  22.890  1.00  0.00     0.155 C 
ATOM      7  O   UNL     1      13.599 -31.982  23.470  1.00  0.00    -0.295 OA
BRANCH   6   8
ATOM      8  C   UNL     1      12.805 -30.985  21.461  1.00  0.00     0.039 C 
ATOM      9  C   UNL     1      13.412 -31.785  20.588  1.00  0.00     0.012 C 
ENDBRANCH   6   8
ENDBRANCH   5   6
ENDBRANCH   1   5
TORSDOF 5
ENDMDL
MODEL 2
REMARK VINA RESULT:    -4.120      1.547      1.661
REMARK INTER + INTRA:          -5.532
REMARK INTER:                  -5.136
REMARK INTRA:                  -0.396
REMARK UNBOUND:                -0.207
REMARK SMILES C=CC(=O)CCCCC
REMARK SMILES IDX 6 1 7 2 8 3 9 4 5 5 3 6 4 7 2 8 1 9
REMARK H PARENT
REMARK Flexibility Score: inf
ROOT
ATOM      1  C   UNL     1      11.604 -28.230  23.511  1.00  0.00     0.008 C 
ENDROOT
BRANCH   1   2
ATOM      2  C   UNL     1      12.048 -26.755  23.578  1.00  0.00     0.000 C 
BRANCH   2   3
ATOM      3  C   UNL     1      13.561 -26.607  23.801  1.00  0.00    -0.003 C 
ATOM      4  C   UNL     1      13.856 -25.922  25.132  1.00  0.00     0.004 C 
ENDBRANCH   2   3
ENDBRANCH   1   2
BRANCH   1   5
ATOM      5  C   UNL     1      12.763 -29.227  23.667  1.00  0.00     0.080 C 
BRANCH   5   6
ATOM      6  C   UNL     1      12.982 -30.049  22.431  1.00  0.00     0.155 C 
ATOM      7  O   UNL     1      11.996 -30.616  21.887  1.00  0.00    -0.295 OA
BRANCH   6   8
ATOM      8  C   UNL     1      14.340 -30.210  21.876  1.00  0.00     0.039 C 
ATOM      9  C   UNL     1      15.189 -29.192  21.758  1.00  0.00     0.012 C 
ENDBRANCH   6   8
ENDBRANCH   5   6
ENDBRANCH   1   5
TORSDOF 5
ENDMDL
MODEL 3
REMARK VINA RESULT:    -3.962      1.653      4.932
REMARK INTER + INTRA:          -5.327
REMARK INTER:                  -5.204
REMARK INTRA:                  -0.123
REMARK UNBOUND:                -0.207
REMARK SMILES C=CC(=O)CCCCC
REMARK SMILES IDX 6 1 7 2 8 3 9 4 5 5 3 6 4 7 2 8 1 9
REMARK H PARENT
REMARK Flexibility Score: inf
ROOT
ATOM      1  C   UNL     1      13.138 -30.168  23.290  1.00  0.00     0.008 C 
ENDROOT
BRANCH   1   2
ATOM      2  C   UNL     1      12.511 -30.743  22.003  1.00  0.00     0.000 C 
BRANCH   2   3
ATOM      3  C   UNL     1      13.549 -30.959  20.891  1.00  0.00    -0.003 C 
ATOM      4  C   UNL     1      13.881 -32.440  20.729  1.00  0.00     0.004 C 
ENDBRANCH   2   3
ENDBRANCH   1   2
BRANCH   1   5
ATOM      5  C   UNL     1      13.578 -28.702  23.155  1.00  0.00     0.080 C 
BRANCH   5   6
ATOM      6  C   UNL     1      12.543 -27.745  23.668  1.00  0.00     0.155 C 
ATOM      7  O   UNL     1      11.366 -28.156  23.862  1.00  0.00    -0.295 OA
BRANCH   6   8
ATOM      8  C   UNL     1      12.893 -26.332  23.917  1.00  0.00     0.039 C 
ATOM      9  C   UNL     1      13.743 -25.965  24.874  1.00  0.00     0.012 C 
ENDBRANCH   6   8
ENDBRANCH   5   6
ENDBRANCH   1   5
TORSDOF 5
ENDMDL
MODEL 4
REMARK VINA RESULT:    -3.959      2.097      3.370
REMARK INTER + INTRA:          -5.323
REMARK INTER:                  -4.869
REMARK INTRA:                  -0.455
REMARK UNBOUND:                -0.207
REMARK SMILES C=CC(=O)CCCCC
REMARK SMILES IDX 6 1 7 2 8 3 9 4 5 5 3 6 4 7 2 8 1 9
REMARK H PARENT
REMARK Flexibility Score: inf
ROOT
ATOM      1  C   UNL     1      14.283 -30.285  21.204  1.00  0.00     0.008 C 
ENDROOT
BRANCH   1   2
ATOM      2  C   UNL     1      14.393 -29.624  22.593  1.00  0.00     0.000 C 
BRANCH   2   3
ATOM      3  C   UNL     1      13.152 -29.878  23.463  1.00  0.00    -0.003 C 
ATOM      4  C   UNL     1      12.453 -28.570  23.819  1.00  0.00     0.004 C 
ENDBRANCH   2   3
ENDBRANCH   1   2
BRANCH   1   5
ATOM      5  C   UNL     1      13.443 -31.572  21.202  1.00  0.00     0.080 C 
BRANCH   5   6
ATOM      6  C   UNL     1      14.284 -32.804  21.046  1.00  0.00     0.155 C 
ATOM      7  O   UNL     1      14.262 -33.430  19.951  1.00  0.00    -0.295 OA
BRANCH   6   8
ATOM      8  C   UNL     1      15.107 -33.291  22.171  1.00  0.00     0.039 C 
ATOM      9  C   UNL     1      14.659 -33.317  23.424  1.00  0.00     0.012 C 
ENDBRANCH   6   8
ENDBRANCH   5   6
ENDBRANCH   1   5
TORSDOF 5
ENDMDL
MODEL 5
REMARK VINA RESULT:    -3.946      9.301      9.950
REMARK INTER + INTRA:          -5.306
REMARK INTER:                  -4.776
REMARK INTRA:                  -0.531
REMARK UNBOUND:                -0.207
REMARK SMILES C=CC(=O)CCCCC
REMARK SMILES IDX 6 1 7 2 8 3 9 4 5 5 3 6 4 7 2 8 1 9
REMARK H PARENT
REMARK Flexibility Score: inf
ROOT
ATOM      1  C   UNL     1      19.910 -26.504  21.208  1.00  0.00     0.008 C 
ENDROOT
BRANCH   1   2
ATOM      2  C   UNL     1      19.525 -27.886  20.644  1.00  0.00     0.000 C 
BRANCH   2   3
ATOM      3  C   UNL     1      20.596 -28.952  20.922  1.00  0.00    -0.003 C 
ATOM      4  C   UNL     1      21.548 -28.500  22.026  1.00  0.00     0.004 C 
ENDBRANCH   2   3
ENDBRANCH   1   2
BRANCH   1   5
ATOM      5  C   UNL     1      20.349 -25.501  20.129  1.00  0.00     0.080 C 
BRANCH   5   6
ATOM      6  C   UNL     1      21.779 -25.077  20.291  1.00  0.00     0.155 C 
ATOM      7  O   UNL     1      22.087 -24.299  21.235  1.00  0.00    -0.295 OA
BRANCH   6   8
ATOM      8  C   UNL     1      22.807 -25.544  19.339  1.00  0.00     0.039 C 
ATOM      9  C   UNL     1      23.357 -26.753  19.419  1.00  0.00     0.012 C 
ENDBRANCH   6   8
ENDBRANCH   5   6
ENDBRANCH   1   5
TORSDOF 5
ENDMDL
MODEL 6
REMARK VINA RESULT:    -3.773      2.406      5.036
REMARK INTER + INTRA:          -5.083
REMARK INTER:                  -4.653
REMARK INTRA:                  -0.430
REMARK UNBOUND:                -0.207
REMARK SMILES C=CC(=O)CCCCC
REMARK SMILES IDX 6 1 7 2 8 3 9 4 5 5 3 6 4 7 2 8 1 9
REMARK H PARENT
REMARK Flexibility Score: inf
ROOT
ATOM      1  C   UNL     1      13.843 -32.116  23.793  1.00  0.00     0.008 C 
ENDROOT
BRANCH   1   2
ATOM      2  C   UNL     1      14.740 -33.109  23.026  1.00  0.00     0.000 C 
BRANCH   2   3
ATOM      3  C   UNL     1      14.549 -33.017  21.504  1.00  0.00    -0.003 C 
ATOM      4  C   UNL     1      15.093 -34.260  20.806  1.00  0.00     0.004 C 
ENDBRANCH   2   3
ENDBRANCH   1   2
BRANCH   1   5
ATOM      5  C   UNL     1      13.093 -31.134  22.878  1.00  0.00     0.080 C 
BRANCH   5   6
ATOM      6  C   UNL     1      13.348 -29.702  23.247  1.00  0.00     0.155 C 
ATOM      7  O   UNL     1      12.501 -29.089  23.952  1.00  0.00    -0.295 OA
BRANCH   6   8
ATOM      8  C   UNL     1      14.563 -29.014  22.767  1.00  0.00     0.039 C 
ATOM      9  C   UNL     1      15.179 -29.359  21.638  1.00  0.00     0.012 C 
ENDBRANCH   6   8
ENDBRANCH   5   6
ENDBRANCH   1   5
TORSDOF 5
ENDMDL
MODEL 7
REMARK VINA RESULT:    -3.759      9.648     10.878
REMARK INTER + INTRA:          -5.064
REMARK INTER:                  -4.748
REMARK INTRA:                  -0.317
REMARK UNBOUND:                -0.207
REMARK SMILES C=CC(=O)CCCCC
REMARK SMILES IDX 6 1 7 2 8 3 9 4 5 5 3 6 4 7 2 8 1 9
REMARK H PARENT
REMARK Flexibility Score: inf
ROOT
ATOM      1  C   UNL     1      20.454 -25.636  20.133  1.00  0.00     0.008 C 
ENDROOT
BRANCH   1   2
ATOM      2  C   UNL     1      20.060 -26.912  20.904  1.00  0.00     0.000 C 
BRANCH   2   3
ATOM      3  C   UNL     1      21.207 -27.931  20.976  1.00  0.00    -0.003 C 
ATOM      4  C   UNL     1      20.679 -29.360  20.891  1.00  0.00     0.004 C 
ENDBRANCH   2   3
ENDBRANCH   1   2
BRANCH   1   5
ATOM      5  C   UNL     1      21.936 -25.598  19.726  1.00  0.00     0.080 C 
BRANCH   5   6
ATOM      6  C   UNL     1      22.683 -24.480  20.391  1.00  0.00     0.155 C 
ATOM      7  O   UNL     1      23.600 -23.890  19.757  1.00  0.00    -0.295 OA
BRANCH   6   8
ATOM      8  C   UNL     1      22.364 -24.094  21.780  1.00  0.00     0.039 C 
ATOM      9  C   UNL     1      22.831 -22.979  22.336  1.00  0.00     0.012 C 
ENDBRANCH   6   8
ENDBRANCH   5   6
ENDBRANCH   1   5
TORSDOF 5
ENDMDL
MODEL 8
REMARK VINA RESULT:    -3.746      1.644      5.057
REMARK INTER + INTRA:          -5.048
REMARK INTER:                  -4.851
REMARK INTRA:                  -0.197
REMARK UNBOUND:                -0.207
REMARK SMILES C=CC(=O)CCCCC
REMARK SMILES IDX 6 1 7 2 8 3 9 4 5 5 3 6 4 7 2 8 1 9
REMARK H PARENT
REMARK Flexibility Score: inf
ROOT
ATOM      1  C   UNL     1      13.546 -31.735  23.480  1.00  0.00     0.008 C 
ENDROOT
BRANCH   1   2
ATOM      2  C   UNL     1      14.653 -32.326  22.584  1.00  0.00     0.000 C 
BRANCH   2   3
ATOM      3  C   UNL     1      14.170 -32.585  21.149  1.00  0.00    -0.003 C 
ATOM      4  C   UNL     1      14.799 -33.851  20.577  1.00  0.00     0.004 C 
ENDBRANCH   2   3
ENDBRANCH   1   2
BRANCH   1   5
ATOM      5  C   UNL     1      13.510 -30.199  23.479  1.00  0.00     0.080 C 
BRANCH   5   6
ATOM      6  C   UNL     1      12.220 -29.657  22.938  1.00  0.00     0.155 C 
ATOM      7  O   UNL     1      11.683 -30.223  21.947  1.00  0.00    -0.295 OA
BRANCH   6   8
ATOM      8  C   UNL     1      11.602 -28.461  23.544  1.00  0.00     0.039 C 
ATOM      9  C   UNL     1      12.292 -27.602  24.291  1.00  0.00     0.012 C 
ENDBRANCH   6   8
ENDBRANCH   5   6
ENDBRANCH   1   5
TORSDOF 5
ENDMDL
MODEL 9
REMARK VINA RESULT:    -3.741      1.993      3.546
REMARK INTER + INTRA:          -5.041
REMARK INTER:                  -4.618
REMARK INTRA:                  -0.424
REMARK UNBOUND:                -0.207
REMARK SMILES C=CC(=O)CCCCC
REMARK SMILES IDX 6 1 7 2 8 3 9 4 5 5 3 6 4 7 2 8 1 9
REMARK H PARENT
REMARK Flexibility Score: inf
ROOT
ATOM      1  C   UNL     1      13.450 -30.989  20.833  1.00  0.00     0.008 C 
ENDROOT
BRANCH   1   2
ATOM      2  C   UNL     1      12.625 -30.777  22.119  1.00  0.00     0.000 C 
BRANCH   2   3
ATOM      3  C   UNL     1      13.328 -29.848  23.120  1.00  0.00    -0.003 C 
ATOM      4  C   UNL     1      12.359 -28.814  23.684  1.00  0.00     0.004 C 
ENDBRANCH   2   3
ENDBRANCH   1   2
BRANCH   1   5
ATOM      5  C   UNL     1      13.853 -32.454  20.597  1.00  0.00     0.080 C 
BRANCH   5   6
ATOM      6  C   UNL     1      14.970 -32.891  21.498  1.00  0.00     0.155 C 
ATOM      7  O   UNL     1      14.904 -34.021  22.055  1.00  0.00    -0.295 OA
BRANCH   6   8
ATOM      8  C   UNL     1      16.117 -31.997  21.749  1.00  0.00     0.039 C 
ATOM      9  C   UNL     1      16.550 -31.717  22.976  1.00  0.00     0.012 C 
ENDBRANCH   6   8
ENDBRANCH   5   6
ENDBRANCH   1   5
TORSDOF 5
ENDMDL
