MODEL 1
REMARK VINA RESULT:    -6.362      0.000      0.000
REMARK INTER + INTRA:          -6.362
REMARK INTER:                  -6.362
REMARK INTRA:                   0.000
REMARK UNBOUND:                 0.000
REMARK SMILES O=c1ccc2ccccc2o1
REMARK SMILES IDX 7 1 8 2 9 3 10 4 5 5 6 6 4 7 3 8 2 9 1 10 11 11
REMARK H PARENT
REMARK Flexibility Score: inf
ROOT
ATOM      1  C   UNL     1      11.534  19.621  -3.718  1.00  0.00     0.001 A 
ATOM      2  C   UNL     1      12.214  20.269  -4.755  1.00  0.00     0.004 A 
ATOM      3  C   UNL     1      12.844  21.496  -4.524  1.00  0.00     0.048 A 
ATOM      4  C   UNL     1      12.797  22.080  -3.253  1.00  0.00     0.138 A 
ATOM      5  C   UNL     1      12.110  21.425  -2.206  1.00  0.00     0.018 A 
ATOM      6  C   UNL     1      11.481  20.194  -2.444  1.00  0.00     0.012 A 
ATOM      7  C   UNL     1      12.080  22.032  -0.947  1.00  0.00     0.019 A 
ATOM      8  C   UNL     1      12.722  23.256  -0.762  1.00  0.00     0.094 A 
ATOM      9  C   UNL     1      13.383  23.846  -1.845  1.00  0.00     0.336 A 
ATOM     10  O   UNL     1      13.968  24.951  -1.698  1.00  0.00    -0.246 OA
ATOM     11  O   UNL     1      13.397  23.247  -3.034  1.00  0.00    -0.423 OA
ENDROOT
TORSDOF 0
ENDMDL
MODEL 2
REMARK VINA RESULT:    -5.899      1.812      3.929
REMARK INTER + INTRA:          -5.899
REMARK INTER:                  -5.899
REMARK INTRA:                   0.000
REMARK UNBOUND:                 0.000
REMARK SMILES O=c1ccc2ccccc2o1
REMARK SMILES IDX 7 1 8 2 9 3 10 4 5 5 6 6 4 7 3 8 2 9 1 10 11 11
REMARK H PARENT
REMARK Flexibility Score: inf
ROOT
ATOM      1  C   UNL     1      12.587  23.307  -0.556  1.00  0.00     0.001 A 
ATOM      2  C   UNL     1      13.869  23.485  -1.088  1.00  0.00     0.004 A 
ATOM      3  C   UNL     1      14.347  22.620  -2.077  1.00  0.00     0.048 A 
ATOM      4  C   UNL     1      13.542  21.572  -2.541  1.00  0.00     0.138 A 
ATOM      5  C   UNL     1      12.247  21.393  -2.003  1.00  0.00     0.018 A 
ATOM      6  C   UNL     1      11.775  22.264  -1.011  1.00  0.00     0.012 A 
ATOM      7  C   UNL     1      11.466  20.338  -2.485  1.00  0.00     0.019 A 
ATOM      8  C   UNL     1      11.983  19.500  -3.473  1.00  0.00     0.094 A 
ATOM      9  C   UNL     1      13.274  19.738  -3.958  1.00  0.00     0.336 A 
ATOM     10  O   UNL     1      13.758  18.992  -4.849  1.00  0.00    -0.246 OA
ATOM     11  O   UNL     1      13.996  20.750  -3.482  1.00  0.00    -0.423 OA
ENDROOT
TORSDOF 0
ENDMDL
MODEL 3
REMARK VINA RESULT:    -5.666      1.600      2.334
REMARK INTER + INTRA:          -5.666
REMARK INTER:                  -5.666
REMARK INTRA:                   0.000
REMARK UNBOUND:                 0.000
REMARK SMILES O=c1ccc2ccccc2o1
REMARK SMILES IDX 7 1 8 2 9 3 10 4 5 5 6 6 4 7 3 8 2 9 1 10 11 11
REMARK H PARENT
REMARK Flexibility Score: inf
ROOT
ATOM      1  C   UNL     1      11.915  20.414  -4.995  1.00  0.00     0.001 A 
ATOM      2  C   UNL     1      11.385  19.534  -4.043  1.00  0.00     0.004 A 
ATOM      3  C   UNL     1      11.595  19.763  -2.680  1.00  0.00     0.048 A 
ATOM      4  C   UNL     1      12.336  20.875  -2.261  1.00  0.00     0.138 A 
ATOM      5  C   UNL     1      12.871  21.762  -3.222  1.00  0.00     0.018 A 
ATOM      6  C   UNL     1      12.657  21.527  -4.588  1.00  0.00     0.012 A 
ATOM      7  C   UNL     1      13.607  22.864  -2.775  1.00  0.00     0.019 A 
ATOM      8  C   UNL     1      13.790  23.053  -1.405  1.00  0.00     0.094 A 
ATOM      9  C   UNL     1      13.232  22.133  -0.512  1.00  0.00     0.336 A 
ATOM     10  O   UNL     1      13.387  22.287   0.728  1.00  0.00    -0.246 OA
ATOM     11  O   UNL     1      12.535  21.093  -0.964  1.00  0.00    -0.423 OA
ENDROOT
TORSDOF 0
ENDMDL
MODEL 4
REMARK VINA RESULT:    -5.588      2.081      3.951
REMARK INTER + INTRA:          -5.588
REMARK INTER:                  -5.588
REMARK INTRA:                   0.000
REMARK UNBOUND:                 0.000
REMARK SMILES O=c1ccc2ccccc2o1
REMARK SMILES IDX 7 1 8 2 9 3 10 4 5 5 6 6 4 7 3 8 2 9 1 10 11 11
REMARK H PARENT
REMARK Flexibility Score: inf
ROOT
ATOM      1  C   UNL     1      14.451  24.944  -1.647  1.00  0.00     0.001 A 
ATOM      2  C   UNL     1      13.686  24.930  -2.819  1.00  0.00     0.004 A 
ATOM      3  C   UNL     1      12.961  23.787  -3.172  1.00  0.00     0.048 A 
ATOM      4  C   UNL     1      12.997  22.653  -2.352  1.00  0.00     0.138 A 
ATOM      5  C   UNL     1      13.770  22.668  -1.168  1.00  0.00     0.018 A 
ATOM      6  C   UNL     1      14.494  23.818  -0.820  1.00  0.00     0.012 A 
ATOM      7  C   UNL     1      13.786  21.522  -0.369  1.00  0.00     0.019 A 
ATOM      8  C   UNL     1      13.047  20.404  -0.760  1.00  0.00     0.094 A 
ATOM      9  C   UNL     1      12.307  20.461  -1.945  1.00  0.00     0.336 A 
ATOM     10  O   UNL     1      11.634  19.464  -2.314  1.00  0.00    -0.246 OA
ATOM     11  O   UNL     1      12.307  21.567  -2.687  1.00  0.00    -0.423 OA
ENDROOT
TORSDOF 0
ENDMDL
MODEL 5
REMARK VINA RESULT:    -5.579      1.882      4.355
REMARK INTER + INTRA:          -5.579
REMARK INTER:                  -5.579
REMARK INTRA:                   0.000
REMARK UNBOUND:                 0.000
REMARK SMILES O=c1ccc2ccccc2o1
REMARK SMILES IDX 7 1 8 2 9 3 10 4 5 5 6 6 4 7 3 8 2 9 1 10 11 11
REMARK H PARENT
REMARK Flexibility Score: inf
ROOT
ATOM      1  C   UNL     1      13.514  24.230  -1.609  1.00  0.00     0.001 A 
ATOM      2  C   UNL     1      12.843  23.631  -0.537  1.00  0.00     0.004 A 
ATOM      3  C   UNL     1      12.187  22.409  -0.712  1.00  0.00     0.048 A 
ATOM      4  C   UNL     1      12.201  21.778  -1.962  1.00  0.00     0.138 A 
ATOM      5  C   UNL     1      12.880  22.384  -3.044  1.00  0.00     0.018 A 
ATOM      6  C   UNL     1      13.535  23.610  -2.862  1.00  0.00     0.012 A 
ATOM      7  C   UNL     1      12.877  21.731  -4.281  1.00  0.00     0.019 A 
ATOM      8  C   UNL     1      12.210  20.513  -4.410  1.00  0.00     0.094 A 
ATOM      9  C   UNL     1      11.559  19.974  -3.295  1.00  0.00     0.336 A 
ATOM     10  O   UNL     1      10.952  18.875  -3.392  1.00  0.00    -0.246 OA
ATOM     11  O   UNL     1      11.578  20.615  -2.128  1.00  0.00    -0.423 OA
ENDROOT
TORSDOF 0
ENDMDL
MODEL 6
REMARK VINA RESULT:    -5.434      1.689      2.700
REMARK INTER + INTRA:          -5.434
REMARK INTER:                  -5.434
REMARK INTRA:                   0.000
REMARK UNBOUND:                 0.000
REMARK SMILES O=c1ccc2ccccc2o1
REMARK SMILES IDX 7 1 8 2 9 3 10 4 5 5 6 6 4 7 3 8 2 9 1 10 11 11
REMARK H PARENT
REMARK Flexibility Score: inf
ROOT
ATOM      1  C   UNL     1      13.220  20.731  -0.223  1.00  0.00     0.001 A 
ATOM      2  C   UNL     1      12.541  20.332  -1.380  1.00  0.00     0.004 A 
ATOM      3  C   UNL     1      12.402  21.216  -2.455  1.00  0.00     0.048 A 
ATOM      4  C   UNL     1      12.945  22.504  -2.377  1.00  0.00     0.138 A 
ATOM      5  C   UNL     1      13.631  22.906  -1.209  1.00  0.00     0.018 A 
ATOM      6  C   UNL     1      13.766  22.015  -0.135  1.00  0.00     0.012 A 
ATOM      7  C   UNL     1      14.163  24.198  -1.160  1.00  0.00     0.019 A 
ATOM      8  C   UNL     1      14.001  25.046  -2.256  1.00  0.00     0.094 A 
ATOM      9  C   UNL     1      13.309  24.580  -3.379  1.00  0.00     0.336 A 
ATOM     10  O   UNL     1      13.153  25.330  -4.378  1.00  0.00    -0.246 OA
ATOM     11  O   UNL     1      12.814  23.344  -3.400  1.00  0.00    -0.423 OA
ENDROOT
TORSDOF 0
ENDMDL
MODEL 7
REMARK VINA RESULT:    -4.838      1.075      2.174
REMARK INTER + INTRA:          -4.838
REMARK INTER:                  -4.838
REMARK INTRA:                   0.000
REMARK UNBOUND:                 0.000
REMARK SMILES O=c1ccc2ccccc2o1
REMARK SMILES IDX 7 1 8 2 9 3 10 4 5 5 6 6 4 7 3 8 2 9 1 10 11 11
REMARK H PARENT
REMARK Flexibility Score: inf
ROOT
ATOM      1  C   UNL     1      12.088  19.980  -3.582  1.00  0.00     0.001 A 
ATOM      2  C   UNL     1      12.092  19.891  -2.185  1.00  0.00     0.004 A 
ATOM      3  C   UNL     1      12.461  20.995  -1.411  1.00  0.00     0.048 A 
ATOM      4  C   UNL     1      12.827  22.195  -2.031  1.00  0.00     0.138 A 
ATOM      5  C   UNL     1      12.823  22.285  -3.442  1.00  0.00     0.018 A 
ATOM      6  C   UNL     1      12.451  21.174  -4.213  1.00  0.00     0.012 A 
ATOM      7  C   UNL     1      13.192  23.496  -4.034  1.00  0.00     0.019 A 
ATOM      8  C   UNL     1      13.553  24.572  -3.222  1.00  0.00     0.094 A 
ATOM      9  C   UNL     1      13.535  24.410  -1.833  1.00  0.00     0.336 A 
ATOM     10  O   UNL     1      13.857  25.369  -1.084  1.00  0.00    -0.246 OA
ATOM     11  O   UNL     1      13.178  23.246  -1.295  1.00  0.00    -0.423 OA
ENDROOT
TORSDOF 0
ENDMDL
MODEL 8
REMARK VINA RESULT:    -4.742      1.846      3.116
REMARK INTER + INTRA:          -4.742
REMARK INTER:                  -4.742
REMARK INTRA:                   0.000
REMARK UNBOUND:                 0.000
REMARK SMILES O=c1ccc2ccccc2o1
REMARK SMILES IDX 7 1 8 2 9 3 10 4 5 5 6 6 4 7 3 8 2 9 1 10 11 11
REMARK H PARENT
REMARK Flexibility Score: inf
ROOT
ATOM      1  C   UNL     1      13.084  23.718  -5.040  1.00  0.00     0.001 A 
ATOM      2  C   UNL     1      13.289  24.872  -4.276  1.00  0.00     0.004 A 
ATOM      3  C   UNL     1      13.378  24.787  -2.883  1.00  0.00     0.048 A 
ATOM      4  C   UNL     1      13.264  23.545  -2.248  1.00  0.00     0.138 A 
ATOM      5  C   UNL     1      13.057  22.379  -3.021  1.00  0.00     0.018 A 
ATOM      6  C   UNL     1      12.969  22.472  -4.417  1.00  0.00     0.012 A 
ATOM      7  C   UNL     1      12.947  21.152  -2.359  1.00  0.00     0.019 A 
ATOM      8  C   UNL     1      13.042  21.114  -0.968  1.00  0.00     0.094 A 
ATOM      9  C   UNL     1      13.247  22.308  -0.269  1.00  0.00     0.336 A 
ATOM     10  O   UNL     1      13.335  22.294   0.987  1.00  0.00    -0.246 OA
ATOM     11  O   UNL     1      13.349  23.463  -0.923  1.00  0.00    -0.423 OA
ENDROOT
TORSDOF 0
ENDMDL
MODEL 9
REMARK VINA RESULT:    -4.678      2.136      4.380
REMARK INTER + INTRA:          -4.678
REMARK INTER:                  -4.678
REMARK INTRA:                   0.000
REMARK UNBOUND:                 0.000
REMARK SMILES O=c1ccc2ccccc2o1
REMARK SMILES IDX 7 1 8 2 9 3 10 4 5 5 6 6 4 7 3 8 2 9 1 10 11 11
REMARK H PARENT
REMARK Flexibility Score: inf
ROOT
ATOM      1  C   UNL     1      14.578  24.422  -1.618  1.00  0.00     0.001 A 
ATOM      2  C   UNL     1      14.767  23.799  -0.379  1.00  0.00     0.004 A 
ATOM      3  C   UNL     1      14.221  22.534  -0.137  1.00  0.00     0.048 A 
ATOM      4  C   UNL     1      13.484  21.886  -1.135  1.00  0.00     0.138 A 
ATOM      5  C   UNL     1      13.294  22.516  -2.387  1.00  0.00     0.018 A 
ATOM      6  C   UNL     1      13.845  23.784  -2.623  1.00  0.00     0.012 A 
ATOM      7  C   UNL     1      12.554  21.845  -3.365  1.00  0.00     0.019 A 
ATOM      8  C   UNL     1      12.028  20.584  -3.080  1.00  0.00     0.094 A 
ATOM      9  C   UNL     1      12.257  20.023  -1.819  1.00  0.00     0.336 A 
ATOM     10  O   UNL     1      11.790  18.887  -1.543  1.00  0.00    -0.246 OA
ATOM     11  O   UNL     1      12.965  20.683  -0.906  1.00  0.00    -0.423 OA
ENDROOT
TORSDOF 0
ENDMDL
