MODEL 1
REMARK VINA RESULT:    -5.167      0.000      0.000
REMARK INTER + INTRA:         -18.178
REMARK INTER:                 -13.475
REMARK INTRA:                  -4.703
REMARK UNBOUND:                -4.703
REMARK SMILES CCCCCCCCCCCCCCCCCCCCCCCCCCCCCO
REMARK SMILES IDX 16 1 15 2 14 3 13 4 12 5 11 6 10 7 9 8 8 9 7 10 6 11 5 12
REMARK SMILES IDX 4 13 3 14 2 15 1 16 17 17 18 18 19 19 20 20 21 21 22 22
REMARK SMILES IDX 23 23 24 24 25 25 26 26 27 27 28 28 29 29 30 30
REMARK H PARENT 30 31
REMARK Flexibility Score: inf
ROOT
ATOM      1  C   UNL     1      18.219   2.073 -22.757  1.00  0.00     0.000 C 
ENDROOT
BRANCH   1   2
ATOM      2  C   UNL     1      19.331   1.736 -23.763  1.00  0.00     0.000 C 
BRANCH   2   3
ATOM      3  C   UNL     1      20.708   2.257 -23.323  1.00  0.00     0.000 C 
BRANCH   3   4
ATOM      4  C   UNL     1      21.480   1.182 -22.547  1.00  0.00     0.000 C 
BRANCH   4   5
ATOM      5  C   UNL     1      21.936   1.654 -21.152  1.00  0.00     0.000 C 
BRANCH   5   6
ATOM      6  C   UNL     1      20.840   1.663 -20.067  1.00  0.00     0.000 C 
BRANCH   6   7
ATOM      7  C   UNL     1      20.163   0.293 -19.883  1.00  0.00     0.000 C 
BRANCH   7   8
ATOM      8  C   UNL     1      20.959  -0.649 -18.961  1.00  0.00    -0.000 C 
BRANCH   8   9
ATOM      9  C   UNL     1      20.210  -1.921 -18.525  1.00  0.00    -0.000 C 
BRANCH   9  10
ATOM     10  C   UNL     1      19.671  -1.835 -17.085  1.00  0.00    -0.000 C 
BRANCH  10  11
ATOM     11  C   UNL     1      20.792  -1.845 -16.031  1.00  0.00    -0.000 C 
BRANCH  11  12
ATOM     12  C   UNL     1      20.615  -0.745 -14.970  1.00  0.00    -0.000 C 
BRANCH  12  13
ATOM     13  C   UNL     1      20.370   0.641 -15.591  1.00  0.00    -0.000 C 
BRANCH  13  14
ATOM     14  C   UNL     1      19.257   1.424 -14.876  1.00  0.00    -0.000 C 
BRANCH  14  15
ATOM     15  C   UNL     1      17.900   1.298 -15.588  1.00  0.00    -0.003 C 
ATOM     16  C   UNL     1      18.002   1.544 -17.094  1.00  0.00     0.004 C 
ENDBRANCH  14  15
ENDBRANCH  13  14
ENDBRANCH  12  13
ENDBRANCH  11  12
ENDBRANCH  10  11
ENDBRANCH   9  10
ENDBRANCH   8   9
ENDBRANCH   7   8
ENDBRANCH   6   7
ENDBRANCH   5   6
ENDBRANCH   4   5
ENDBRANCH   3   4
ENDBRANCH   2   3
ENDBRANCH   1   2
BRANCH   1  17
ATOM     17  C   UNL     1      17.337   0.857 -22.421  1.00  0.00     0.000 C 
BRANCH  17  18
ATOM     18  C   UNL     1      17.902  -0.462 -22.970  1.00  0.00     0.000 C 
BRANCH  18  19
ATOM     19  C   UNL     1      17.060  -1.036 -24.123  1.00  0.00     0.000 C 
BRANCH  19  20
ATOM     20  C   UNL     1      15.980  -0.050 -24.601  1.00  0.00     0.000 C 
BRANCH  20  21
ATOM     21  C   UNL     1      15.995   0.137 -26.126  1.00  0.00     0.000 C 
BRANCH  21  22
ATOM     22  C   UNL     1      16.830   1.360 -26.527  1.00  0.00     0.000 C 
BRANCH  22  23
ATOM     23  C   UNL     1      18.234   0.940 -26.989  1.00  0.00     0.000 C 
BRANCH  23  24
ATOM     24  C   UNL     1      18.207  -0.316 -27.889  1.00  0.00     0.000 C 
BRANCH  24  25
ATOM     25  C   UNL     1      19.167  -1.426 -27.429  1.00  0.00     0.000 C 
BRANCH  25  26
ATOM     26  C   UNL     1      20.100  -0.982 -26.292  1.00  0.00     0.000 C 
BRANCH  26  27
ATOM     27  C   UNL     1      20.448  -2.124 -25.322  1.00  0.00     0.002 C 
BRANCH  27  28
ATOM     28  C   UNL     1      19.797  -3.474 -25.696  1.00  0.00     0.028 C 
BRANCH  28  29
ATOM     29  C   UNL     1      18.945  -4.065 -24.563  1.00  0.00     0.156 C 
BRANCH  29  30
ATOM     30  O   UNL     1      18.986  -5.467 -24.583  1.00  0.00    -0.396 OA
ATOM     31  H   UNL     1      19.636  -5.743 -23.884  1.00  0.00     0.210 HD
ENDBRANCH  29  30
ENDBRANCH  28  29
ENDBRANCH  27  28
ENDBRANCH  26  27
ENDBRANCH  25  26
ENDBRANCH  24  25
ENDBRANCH  23  24
ENDBRANCH  22  23
ENDBRANCH  21  22
ENDBRANCH  20  21
ENDBRANCH  19  20
ENDBRANCH  18  19
ENDBRANCH  17  18
ENDBRANCH   1  17
TORSDOF 28
ENDMDL
MODEL 2
REMARK VINA RESULT:    -5.019      2.587      8.825
REMARK INTER + INTRA:         -17.790
REMARK INTER:                 -13.104
REMARK INTRA:                  -4.685
REMARK UNBOUND:                -4.703
REMARK SMILES CCCCCCCCCCCCCCCCCCCCCCCCCCCCCO
REMARK SMILES IDX 16 1 15 2 14 3 13 4 12 5 11 6 10 7 9 8 8 9 7 10 6 11 5 12
REMARK SMILES IDX 4 13 3 14 2 15 1 16 17 17 18 18 19 19 20 20 21 21 22 22
REMARK SMILES IDX 23 23 24 24 25 25 26 26 27 27 28 28 29 29 30 30
REMARK H PARENT 30 31
REMARK Flexibility Score: inf
ROOT
ATOM      1  C   UNL     1      16.834  -0.394 -23.724  1.00  0.00     0.000 C 
ENDROOT
BRANCH   1   2
ATOM      2  C   UNL     1      15.989  -0.156 -24.985  1.00  0.00     0.000 C 
BRANCH   2   3
ATOM      3  C   UNL     1      16.777   0.539 -26.106  1.00  0.00     0.000 C 
BRANCH   3   4
ATOM      4  C   UNL     1      16.503   2.049 -26.116  1.00  0.00     0.000 C 
BRANCH   4   5
ATOM      5  C   UNL     1      17.699   2.884 -25.620  1.00  0.00     0.000 C 
BRANCH   5   6
ATOM      6  C   UNL     1      19.040   2.128 -25.532  1.00  0.00     0.000 C 
BRANCH   6   7
ATOM      7  C   UNL     1      20.136   2.926 -24.803  1.00  0.00     0.000 C 
BRANCH   7   8
ATOM      8  C   UNL     1      21.555   2.413 -25.109  1.00  0.00    -0.000 C 
BRANCH   8   9
ATOM      9  C   UNL     1      21.714   0.883 -25.087  1.00  0.00    -0.000 C 
BRANCH   9  10
ATOM     10  C   UNL     1      22.456   0.340 -26.321  1.00  0.00    -0.000 C 
BRANCH  10  11
ATOM     11  C   UNL     1      22.009   1.017 -27.628  1.00  0.00    -0.000 C 
BRANCH  11  12
ATOM     12  C   UNL     1      21.246   0.060 -28.559  1.00  0.00    -0.000 C 
BRANCH  12  13
ATOM     13  C   UNL     1      19.790  -0.161 -28.115  1.00  0.00    -0.000 C 
BRANCH  13  14
ATOM     14  C   UNL     1      19.322  -1.612 -28.314  1.00  0.00    -0.000 C 
BRANCH  14  15
ATOM     15  C   UNL     1      19.738  -2.527 -27.151  1.00  0.00    -0.003 C 
ATOM     16  C   UNL     1      19.492  -1.889 -25.783  1.00  0.00     0.004 C 
ENDBRANCH  14  15
ENDBRANCH  13  14
ENDBRANCH  12  13
ENDBRANCH  11  12
ENDBRANCH  10  11
ENDBRANCH   9  10
ENDBRANCH   8   9
ENDBRANCH   7   8
ENDBRANCH   6   7
ENDBRANCH   5   6
ENDBRANCH   4   5
ENDBRANCH   3   4
ENDBRANCH   2   3
ENDBRANCH   1   2
BRANCH   1  17
ATOM     17  C   UNL     1      16.748   0.774 -22.725  1.00  0.00     0.000 C 
BRANCH  17  18
ATOM     18  C   UNL     1      18.124   1.221 -22.209  1.00  0.00     0.000 C 
BRANCH  18  19
ATOM     19  C   UNL     1      19.197   0.127 -22.352  1.00  0.00     0.000 C 
BRANCH  19  20
ATOM     20  C   UNL     1      20.503   0.495 -21.627  1.00  0.00     0.000 C 
BRANCH  20  21
ATOM     21  C   UNL     1      20.301   1.613 -20.591  1.00  0.00     0.000 C 
BRANCH  21  22
ATOM     22  C   UNL     1      20.626   1.121 -19.175  1.00  0.00     0.000 C 
BRANCH  22  23
ATOM     23  C   UNL     1      20.317  -0.377 -19.028  1.00  0.00     0.000 C 
BRANCH  23  24
ATOM     24  C   UNL     1      21.478  -1.157 -18.372  1.00  0.00     0.000 C 
BRANCH  24  25
ATOM     25  C   UNL     1      21.713  -0.790 -16.896  1.00  0.00     0.000 C 
BRANCH  25  26
ATOM     26  C   UNL     1      20.995  -1.735 -15.921  1.00  0.00     0.000 C 
BRANCH  26  27
ATOM     27  C   UNL     1      20.003  -1.002 -14.999  1.00  0.00     0.002 C 
BRANCH  27  28
ATOM     28  C   UNL     1      19.854   0.501 -15.321  1.00  0.00     0.028 C 
BRANCH  28  29
ATOM     29  C   UNL     1      18.489   0.852 -15.930  1.00  0.00     0.156 C 
BRANCH  29  30
ATOM     30  O   UNL     1      17.482   0.831 -14.953  1.00  0.00    -0.396 OA
ATOM     31  H   UNL     1      17.299   1.777 -14.712  1.00  0.00     0.210 HD
ENDBRANCH  29  30
ENDBRANCH  28  29
ENDBRANCH  27  28
ENDBRANCH  26  27
ENDBRANCH  25  26
ENDBRANCH  24  25
ENDBRANCH  23  24
ENDBRANCH  22  23
ENDBRANCH  21  22
ENDBRANCH  20  21
ENDBRANCH  19  20
ENDBRANCH  18  19
ENDBRANCH  17  18
ENDBRANCH   1  17
TORSDOF 28
ENDMDL
MODEL 3
REMARK VINA RESULT:    -4.947      3.627      9.731
REMARK INTER + INTRA:         -17.604
REMARK INTER:                 -13.226
REMARK INTRA:                  -4.377
REMARK UNBOUND:                -4.703
REMARK SMILES CCCCCCCCCCCCCCCCCCCCCCCCCCCCCO
REMARK SMILES IDX 16 1 15 2 14 3 13 4 12 5 11 6 10 7 9 8 8 9 7 10 6 11 5 12
REMARK SMILES IDX 4 13 3 14 2 15 1 16 17 17 18 18 19 19 20 20 21 21 22 22
REMARK SMILES IDX 23 23 24 24 25 25 26 26 27 27 28 28 29 29 30 30
REMARK H PARENT 30 31
REMARK Flexibility Score: inf
ROOT
ATOM      1  C   UNL     1      21.153  -1.142 -18.628  1.00  0.00     0.000 C 
ENDROOT
BRANCH   1   2
ATOM      2  C   UNL     1      21.145   0.191 -19.393  1.00  0.00     0.000 C 
BRANCH   2   3
ATOM      3  C   UNL     1      19.781   0.505 -20.025  1.00  0.00     0.000 C 
BRANCH   3   4
ATOM      4  C   UNL     1      19.879   0.528 -21.557  1.00  0.00     0.000 C 
BRANCH   4   5
ATOM      5  C   UNL     1      19.000   1.618 -22.202  1.00  0.00     0.000 C 
BRANCH   5   6
ATOM      6  C   UNL     1      19.633   2.354 -23.399  1.00  0.00     0.000 C 
BRANCH   6   7
ATOM      7  C   UNL     1      20.795   1.575 -24.040  1.00  0.00     0.000 C 
BRANCH   7   8
ATOM      8  C   UNL     1      20.383   0.833 -25.324  1.00  0.00    -0.000 C 
BRANCH   8   9
ATOM      9  C   UNL     1      20.879  -0.620 -25.425  1.00  0.00    -0.000 C 
BRANCH   9  10
ATOM     10  C   UNL     1      19.841  -1.643 -24.931  1.00  0.00    -0.000 C 
BRANCH  10  11
ATOM     11  C   UNL     1      18.393  -1.178 -25.163  1.00  0.00    -0.000 C 
BRANCH  11  12
ATOM     12  C   UNL     1      17.537  -1.253 -23.887  1.00  0.00    -0.000 C 
BRANCH  12  13
ATOM     13  C   UNL     1      16.403  -0.214 -23.875  1.00  0.00    -0.000 C 
BRANCH  13  14
ATOM     14  C   UNL     1      16.208   0.468 -25.239  1.00  0.00    -0.000 C 
BRANCH  14  15
ATOM     15  C   UNL     1      16.211   2.002 -25.135  1.00  0.00    -0.003 C 
ATOM     16  C   UNL     1      17.118   2.659 -26.176  1.00  0.00     0.004 C 
ENDBRANCH  14  15
ENDBRANCH  13  14
ENDBRANCH  12  13
ENDBRANCH  11  12
ENDBRANCH  10  11
ENDBRANCH   9  10
ENDBRANCH   8   9
ENDBRANCH   7   8
ENDBRANCH   6   7
ENDBRANCH   5   6
ENDBRANCH   4   5
ENDBRANCH   3   4
ENDBRANCH   2   3
ENDBRANCH   1   2
BRANCH   1  17
ATOM     17  C   UNL     1      19.896  -1.334 -17.759  1.00  0.00     0.000 C 
BRANCH  17  18
ATOM     18  C   UNL     1      20.206  -1.953 -16.388  1.00  0.00     0.000 C 
BRANCH  18  19
ATOM     19  C   UNL     1      19.734  -1.073 -15.217  1.00  0.00     0.000 C 
BRANCH  19  20
ATOM     20  C   UNL     1      19.426   0.368 -15.660  1.00  0.00     0.000 C 
BRANCH  20  21
ATOM     21  C   UNL     1      20.438   1.379 -15.098  1.00  0.00     0.000 C 
BRANCH  21  22
ATOM     22  C   UNL     1      21.194   2.093 -16.226  1.00  0.00     0.000 C 
BRANCH  22  23
ATOM     23  C   UNL     1      22.620   1.539 -16.370  1.00  0.00     0.000 C 
BRANCH  23  24
ATOM     24  C   UNL     1      23.071   0.741 -15.127  1.00  0.00     0.000 C 
BRANCH  24  25
ATOM     25  C   UNL     1      23.466  -0.713 -15.435  1.00  0.00     0.000 C 
BRANCH  25  26
ATOM     26  C   UNL     1      24.481  -1.285 -14.433  1.00  0.00     0.000 C 
BRANCH  26  27
ATOM     27  C   UNL     1      25.197  -0.193 -13.618  1.00  0.00     0.002 C 
BRANCH  27  28
ATOM     28  C   UNL     1      25.627  -0.655 -12.208  1.00  0.00     0.028 C 
BRANCH  28  29
ATOM     29  C   UNL     1      26.786  -1.662 -12.235  1.00  0.00     0.156 C 
BRANCH  29  30
ATOM     30  O   UNL     1      27.752  -1.290 -13.182  1.00  0.00    -0.396 OA
ATOM     31  H   UNL     1      27.410  -0.474 -13.633  1.00  0.00     0.210 HD
ENDBRANCH  29  30
ENDBRANCH  28  29
ENDBRANCH  27  28
ENDBRANCH  26  27
ENDBRANCH  25  26
ENDBRANCH  24  25
ENDBRANCH  23  24
ENDBRANCH  22  23
ENDBRANCH  21  22
ENDBRANCH  20  21
ENDBRANCH  19  20
ENDBRANCH  18  19
ENDBRANCH  17  18
ENDBRANCH   1  17
TORSDOF 28
ENDMDL
MODEL 4
REMARK VINA RESULT:    -4.860      3.458      6.902
REMARK INTER + INTRA:         -17.377
REMARK INTER:                 -14.233
REMARK INTRA:                  -3.144
REMARK UNBOUND:                -4.703
REMARK SMILES CCCCCCCCCCCCCCCCCCCCCCCCCCCCCO
REMARK SMILES IDX 16 1 15 2 14 3 13 4 12 5 11 6 10 7 9 8 8 9 7 10 6 11 5 12
REMARK SMILES IDX 4 13 3 14 2 15 1 16 17 17 18 18 19 19 20 20 21 21 22 22
REMARK SMILES IDX 23 23 24 24 25 25 26 26 27 27 28 28 29 29 30 30
REMARK H PARENT 30 31
REMARK Flexibility Score: inf
ROOT
ATOM      1  C   UNL     1      20.738  -1.751 -15.972  1.00  0.00     0.000 C 
ENDROOT
BRANCH   1   2
ATOM      2  C   UNL     1      20.047  -0.809 -14.974  1.00  0.00     0.000 C 
BRANCH   2   3
ATOM      3  C   UNL     1      18.986   0.084 -15.637  1.00  0.00     0.000 C 
BRANCH   3   4
ATOM      4  C   UNL     1      18.941   1.468 -14.973  1.00  0.00     0.000 C 
BRANCH   4   5
ATOM      5  C   UNL     1      20.323   1.954 -14.494  1.00  0.00     0.000 C 
BRANCH   5   6
ATOM      6  C   UNL     1      20.937   3.108 -15.312  1.00  0.00     0.000 C 
BRANCH   6   7
ATOM      7  C   UNL     1      22.343   2.786 -15.847  1.00  0.00     0.000 C 
BRANCH   7   8
ATOM      8  C   UNL     1      23.427   2.837 -14.755  1.00  0.00    -0.000 C 
BRANCH   8   9
ATOM      9  C   UNL     1      24.198   1.522 -14.540  1.00  0.00    -0.000 C 
BRANCH   9  10
ATOM     10  C   UNL     1      23.611   0.345 -15.339  1.00  0.00    -0.000 C 
BRANCH  10  11
ATOM     11  C   UNL     1      24.046  -1.023 -14.787  1.00  0.00    -0.000 C 
BRANCH  11  12
ATOM     12  C   UNL     1      24.836  -0.905 -13.472  1.00  0.00    -0.000 C 
BRANCH  12  13
ATOM     13  C   UNL     1      26.009  -1.897 -13.397  1.00  0.00    -0.000 C 
BRANCH  13  14
ATOM     14  C   UNL     1      26.954  -1.612 -12.217  1.00  0.00    -0.000 C 
BRANCH  14  15
ATOM     15  C   UNL     1      26.275  -0.797 -11.105  1.00  0.00    -0.003 C 
ATOM     16  C   UNL     1      25.746  -1.676  -9.971  1.00  0.00     0.004 C 
ENDBRANCH  14  15
ENDBRANCH  13  14
ENDBRANCH  12  13
ENDBRANCH  11  12
ENDBRANCH  10  11
ENDBRANCH   9  10
ENDBRANCH   8   9
ENDBRANCH   7   8
ENDBRANCH   6   7
ENDBRANCH   5   6
ENDBRANCH   4   5
ENDBRANCH   3   4
ENDBRANCH   2   3
ENDBRANCH   1   2
BRANCH   1  17
ATOM     17  C   UNL     1      19.824  -2.142 -17.148  1.00  0.00     0.000 C 
BRANCH  17  18
ATOM     18  C   UNL     1      20.298  -1.566 -18.490  1.00  0.00     0.000 C 
BRANCH  18  19
ATOM     19  C   UNL     1      21.430  -0.535 -18.329  1.00  0.00     0.000 C 
BRANCH  19  20
ATOM     20  C   UNL     1      21.007   0.869 -18.792  1.00  0.00     0.000 C 
BRANCH  20  21
ATOM     21  C   UNL     1      21.666   1.268 -20.123  1.00  0.00     0.000 C 
BRANCH  21  22
ATOM     22  C   UNL     1      20.611   1.622 -21.179  1.00  0.00     0.000 C 
BRANCH  22  23
ATOM     23  C   UNL     1      19.828   0.373 -21.615  1.00  0.00     0.000 C 
BRANCH  23  24
ATOM     24  C   UNL     1      18.985   0.620 -22.886  1.00  0.00     0.000 C 
BRANCH  24  25
ATOM     25  C   UNL     1      17.883  -0.430 -23.111  1.00  0.00     0.000 C 
BRANCH  25  26
ATOM     26  C   UNL     1      16.540   0.188 -23.526  1.00  0.00     0.000 C 
BRANCH  26  27
ATOM     27  C   UNL     1      16.668   1.657 -23.967  1.00  0.00     0.002 C 
BRANCH  27  28
ATOM     28  C   UNL     1      15.865   1.993 -25.242  1.00  0.00     0.028 C 
BRANCH  28  29
ATOM     29  C   UNL     1      16.384   1.261 -26.488  1.00  0.00     0.156 C 
BRANCH  29  30
ATOM     30  O   UNL     1      17.241   2.085 -27.234  1.00  0.00    -0.396 OA
ATOM     31  H   UNL     1      17.929   2.424 -26.604  1.00  0.00     0.210 HD
ENDBRANCH  29  30
ENDBRANCH  28  29
ENDBRANCH  27  28
ENDBRANCH  26  27
ENDBRANCH  25  26
ENDBRANCH  24  25
ENDBRANCH  23  24
ENDBRANCH  22  23
ENDBRANCH  21  22
ENDBRANCH  20  21
ENDBRANCH  19  20
ENDBRANCH  18  19
ENDBRANCH  17  18
ENDBRANCH   1  17
TORSDOF 28
ENDMDL
MODEL 5
REMARK VINA RESULT:    -4.854      1.549      2.868
REMARK INTER + INTRA:         -17.361
REMARK INTER:                 -12.961
REMARK INTRA:                  -4.400
REMARK UNBOUND:                -4.703
REMARK SMILES CCCCCCCCCCCCCCCCCCCCCCCCCCCCCO
REMARK SMILES IDX 16 1 15 2 14 3 13 4 12 5 11 6 10 7 9 8 8 9 7 10 6 11 5 12
REMARK SMILES IDX 4 13 3 14 2 15 1 16 17 17 18 18 19 19 20 20 21 21 22 22
REMARK SMILES IDX 23 23 24 24 25 25 26 26 27 27 28 28 29 29 30 30
REMARK H PARENT 30 31
REMARK Flexibility Score: inf
ROOT
ATOM      1  C   UNL     1      20.386  -0.151 -23.795  1.00  0.00     0.000 C 
ENDROOT
BRANCH   1   2
ATOM      2  C   UNL     1      20.859   0.822 -24.886  1.00  0.00     0.000 C 
BRANCH   2   3
ATOM      3  C   UNL     1      22.102   0.317 -25.634  1.00  0.00     0.000 C 
BRANCH   3   4
ATOM      4  C   UNL     1      23.150  -0.227 -24.653  1.00  0.00     0.000 C 
BRANCH   4   5
ATOM      5  C   UNL     1      24.201   0.824 -24.247  1.00  0.00     0.000 C 
BRANCH   5   6
ATOM      6  C   UNL     1      24.042   1.401 -22.826  1.00  0.00     0.000 C 
BRANCH   6   7
ATOM      7  C   UNL     1      23.151   2.655 -22.780  1.00  0.00     0.000 C 
BRANCH   7   8
ATOM      8  C   UNL     1      22.034   2.558 -21.726  1.00  0.00    -0.000 C 
BRANCH   8   9
ATOM      9  C   UNL     1      22.017   1.253 -20.910  1.00  0.00    -0.000 C 
BRANCH   9  10
ATOM     10  C   UNL     1      20.915   1.232 -19.836  1.00  0.00    -0.000 C 
BRANCH  10  11
ATOM     11  C   UNL     1      21.143   0.143 -18.774  1.00  0.00    -0.000 C 
BRANCH  11  12
ATOM     12  C   UNL     1      20.251  -1.092 -18.993  1.00  0.00    -0.000 C 
BRANCH  12  13
ATOM     13  C   UNL     1      19.581  -1.574 -17.696  1.00  0.00    -0.000 C 
BRANCH  13  14
ATOM     14  C   UNL     1      20.578  -1.737 -16.537  1.00  0.00    -0.000 C 
BRANCH  14  15
ATOM     15  C   UNL     1      20.235  -0.842 -15.336  1.00  0.00    -0.003 C 
ATOM     16  C   UNL     1      19.061   0.097 -15.619  1.00  0.00     0.004 C 
ENDBRANCH  14  15
ENDBRANCH  13  14
ENDBRANCH  12  13
ENDBRANCH  11  12
ENDBRANCH  10  11
ENDBRANCH   9  10
ENDBRANCH   8   9
ENDBRANCH   7   8
ENDBRANCH   6   7
ENDBRANCH   5   6
ENDBRANCH   4   5
ENDBRANCH   3   4
ENDBRANCH   2   3
ENDBRANCH   1   2
BRANCH   1  17
ATOM     17  C   UNL     1      19.160   0.374 -23.024  1.00  0.00     0.000 C 
BRANCH  17  18
ATOM     18  C   UNL     1      17.965  -0.589 -23.075  1.00  0.00     0.000 C 
BRANCH  18  19
ATOM     19  C   UNL     1      16.667   0.099 -23.536  1.00  0.00     0.000 C 
BRANCH  19  20
ATOM     20  C   UNL     1      16.746   1.630 -23.415  1.00  0.00     0.000 C 
BRANCH  20  21
ATOM     21  C   UNL     1      16.670   2.328 -24.783  1.00  0.00     0.000 C 
BRANCH  21  22
ATOM     22  C   UNL     1      16.252   1.345 -25.884  1.00  0.00     0.000 C 
BRANCH  22  23
ATOM     23  C   UNL     1      17.410   1.090 -26.862  1.00  0.00     0.000 C 
BRANCH  23  24
ATOM     24  C   UNL     1      17.771  -0.408 -26.971  1.00  0.00     0.000 C 
BRANCH  24  25
ATOM     25  C   UNL     1      19.079  -0.675 -27.735  1.00  0.00     0.000 C 
BRANCH  25  26
ATOM     26  C   UNL     1      19.552  -2.133 -27.625  1.00  0.00     0.000 C 
BRANCH  26  27
ATOM     27  C   UNL     1      19.794  -2.575 -26.171  1.00  0.00     0.002 C 
BRANCH  27  28
ATOM     28  C   UNL     1      19.873  -4.108 -25.995  1.00  0.00     0.028 C 
BRANCH  28  29
ATOM     29  C   UNL     1      19.012  -4.624 -24.833  1.00  0.00     0.156 C 
BRANCH  29  30
ATOM     30  O   UNL     1      17.935  -3.760 -24.584  1.00  0.00    -0.396 OA
ATOM     31  H   UNL     1      17.363  -4.206 -23.905  1.00  0.00     0.210 HD
ENDBRANCH  29  30
ENDBRANCH  28  29
ENDBRANCH  27  28
ENDBRANCH  26  27
ENDBRANCH  25  26
ENDBRANCH  24  25
ENDBRANCH  23  24
ENDBRANCH  22  23
ENDBRANCH  21  22
ENDBRANCH  20  21
ENDBRANCH  19  20
ENDBRANCH  18  19
ENDBRANCH  17  18
ENDBRANCH   1  17
TORSDOF 28
ENDMDL
MODEL 6
REMARK VINA RESULT:    -4.810      1.504      2.989
REMARK INTER + INTRA:         -17.245
REMARK INTER:                 -13.265
REMARK INTRA:                  -3.979
REMARK UNBOUND:                -4.703
REMARK SMILES CCCCCCCCCCCCCCCCCCCCCCCCCCCCCO
REMARK SMILES IDX 16 1 15 2 14 3 13 4 12 5 11 6 10 7 9 8 8 9 7 10 6 11 5 12
REMARK SMILES IDX 4 13 3 14 2 15 1 16 17 17 18 18 19 19 20 20 21 21 22 22
REMARK SMILES IDX 23 23 24 24 25 25 26 26 27 27 28 28 29 29 30 30
REMARK H PARENT 30 31
REMARK Flexibility Score: inf
ROOT
ATOM      1  C   UNL     1      19.930   0.502 -22.848  1.00  0.00     0.000 C 
ENDROOT
BRANCH   1   2
ATOM      2  C   UNL     1      20.779   0.833 -21.611  1.00  0.00     0.000 C 
BRANCH   2   3
ATOM      3  C   UNL     1      19.952   0.878 -20.317  1.00  0.00     0.000 C 
BRANCH   3   4
ATOM      4  C   UNL     1      20.863   0.848 -19.082  1.00  0.00     0.000 C 
BRANCH   4   5
ATOM      5  C   UNL     1      21.241  -0.581 -18.645  1.00  0.00     0.000 C 
BRANCH   5   6
ATOM      6  C   UNL     1      20.146  -1.647 -18.855  1.00  0.00     0.000 C 
BRANCH   6   7
ATOM      7  C   UNL     1      19.692  -2.311 -17.544  1.00  0.00     0.000 C 
BRANCH   7   8
ATOM      8  C   UNL     1      20.526  -1.869 -16.328  1.00  0.00    -0.000 C 
BRANCH   8   9
ATOM      9  C   UNL     1      19.748  -1.096 -15.248  1.00  0.00    -0.000 C 
BRANCH   9  10
ATOM     10  C   UNL     1      18.944   0.086 -15.821  1.00  0.00    -0.000 C 
BRANCH  10  11
ATOM     11  C   UNL     1      19.612   1.445 -15.548  1.00  0.00    -0.000 C 
BRANCH  11  12
ATOM     12  C   UNL     1      20.996   1.302 -14.891  1.00  0.00    -0.000 C 
BRANCH  12  13
ATOM     13  C   UNL     1      22.084   2.103 -15.626  1.00  0.00    -0.000 C 
BRANCH  13  14
ATOM     14  C   UNL     1      23.453   1.404 -15.606  1.00  0.00    -0.000 C 
BRANCH  14  15
ATOM     15  C   UNL     1      23.329  -0.128 -15.586  1.00  0.00    -0.003 C 
ATOM     16  C   UNL     1      24.172  -0.772 -14.484  1.00  0.00     0.004 C 
ENDBRANCH  14  15
ENDBRANCH  13  14
ENDBRANCH  12  13
ENDBRANCH  11  12
ENDBRANCH  10  11
ENDBRANCH   9  10
ENDBRANCH   8   9
ENDBRANCH   7   8
ENDBRANCH   6   7
ENDBRANCH   5   6
ENDBRANCH   4   5
ENDBRANCH   3   4
ENDBRANCH   2   3
ENDBRANCH   1   2
BRANCH   1  17
ATOM     17  C   UNL     1      19.661   1.735 -23.730  1.00  0.00     0.000 C 
BRANCH  17  18
ATOM     18  C   UNL     1      18.418   2.523 -23.291  1.00  0.00     0.000 C 
BRANCH  18  19
ATOM     19  C   UNL     1      17.116   1.717 -23.447  1.00  0.00     0.000 C 
BRANCH  19  20
ATOM     20  C   UNL     1      16.395   2.026 -24.770  1.00  0.00     0.000 C 
BRANCH  20  21
ATOM     21  C   UNL     1      15.801   0.765 -25.419  1.00  0.00     0.000 C 
BRANCH  21  22
ATOM     22  C   UNL     1      16.905  -0.210 -25.849  1.00  0.00     0.000 C 
BRANCH  22  23
ATOM     23  C   UNL     1      17.849   0.443 -26.870  1.00  0.00     0.000 C 
BRANCH  23  24
ATOM     24  C   UNL     1      18.312  -0.547 -27.962  1.00  0.00     0.000 C 
BRANCH  24  25
ATOM     25  C   UNL     1      19.783  -0.976 -27.826  1.00  0.00     0.000 C 
BRANCH  25  26
ATOM     26  C   UNL     1      20.417  -0.531 -26.499  1.00  0.00     0.000 C 
BRANCH  26  27
ATOM     27  C   UNL     1      20.847  -1.715 -25.615  1.00  0.00     0.002 C 
BRANCH  27  28
ATOM     28  C   UNL     1      19.662  -2.533 -25.056  1.00  0.00     0.028 C 
BRANCH  28  29
ATOM     29  C   UNL     1      19.719  -4.017 -25.446  1.00  0.00     0.156 C 
BRANCH  29  30
ATOM     30  O   UNL     1      20.599  -4.220 -26.520  1.00  0.00    -0.396 OA
ATOM     31  H   UNL     1      21.391  -4.694 -26.154  1.00  0.00     0.210 HD
ENDBRANCH  29  30
ENDBRANCH  28  29
ENDBRANCH  27  28
ENDBRANCH  26  27
ENDBRANCH  25  26
ENDBRANCH  24  25
ENDBRANCH  23  24
ENDBRANCH  22  23
ENDBRANCH  21  22
ENDBRANCH  20  21
ENDBRANCH  19  20
ENDBRANCH  18  19
ENDBRANCH  17  18
ENDBRANCH   1  17
TORSDOF 28
ENDMDL
MODEL 7
REMARK VINA RESULT:    -4.807      3.594      9.842
REMARK INTER + INTRA:         -17.238
REMARK INTER:                 -13.102
REMARK INTRA:                  -4.136
REMARK UNBOUND:                -4.703
REMARK SMILES CCCCCCCCCCCCCCCCCCCCCCCCCCCCCO
REMARK SMILES IDX 16 1 15 2 14 3 13 4 12 5 11 6 10 7 9 8 8 9 7 10 6 11 5 12
REMARK SMILES IDX 4 13 3 14 2 15 1 16 17 17 18 18 19 19 20 20 21 21 22 22
REMARK SMILES IDX 23 23 24 24 25 25 26 26 27 27 28 28 29 29 30 30
REMARK H PARENT 30 31
REMARK Flexibility Score: inf
ROOT
ATOM      1  C   UNL     1      21.138  -1.065 -17.609  1.00  0.00     0.000 C 
ENDROOT
BRANCH   1   2
ATOM      2  C   UNL     1      20.353  -0.955 -18.926  1.00  0.00     0.000 C 
BRANCH   2   3
ATOM      3  C   UNL     1      20.052   0.500 -19.318  1.00  0.00     0.000 C 
BRANCH   3   4
ATOM      4  C   UNL     1      21.342   1.252 -19.671  1.00  0.00     0.000 C 
BRANCH   4   5
ATOM      5  C   UNL     1      21.241   2.039 -20.992  1.00  0.00     0.000 C 
BRANCH   5   6
ATOM      6  C   UNL     1      21.442   1.206 -22.274  1.00  0.00     0.000 C 
BRANCH   6   7
ATOM      7  C   UNL     1      20.210   1.211 -23.195  1.00  0.00     0.000 C 
BRANCH   7   8
ATOM      8  C   UNL     1      19.200   0.101 -22.853  1.00  0.00    -0.000 C 
BRANCH   8   9
ATOM      9  C   UNL     1      17.895   0.586 -22.197  1.00  0.00    -0.000 C 
BRANCH   9  10
ATOM     10  C   UNL     1      16.672   0.443 -23.121  1.00  0.00    -0.000 C 
BRANCH  10  11
ATOM     11  C   UNL     1      16.587   1.566 -24.170  1.00  0.00    -0.000 C 
BRANCH  11  12
ATOM     12  C   UNL     1      15.993   1.083 -25.505  1.00  0.00    -0.000 C 
BRANCH  12  13
ATOM     13  C   UNL     1      16.920   1.366 -26.700  1.00  0.00    -0.000 C 
BRANCH  13  14
ATOM     14  C   UNL     1      18.378   0.958 -26.430  1.00  0.00    -0.000 C 
BRANCH  14  15
ATOM     15  C   UNL     1      18.746  -0.376 -27.098  1.00  0.00    -0.003 C 
ATOM     16  C   UNL     1      19.286  -1.403 -26.101  1.00  0.00     0.004 C 
ENDBRANCH  14  15
ENDBRANCH  13  14
ENDBRANCH  12  13
ENDBRANCH  11  12
ENDBRANCH  10  11
ENDBRANCH   9  10
ENDBRANCH   8   9
ENDBRANCH   7   8
ENDBRANCH   6   7
ENDBRANCH   5   6
ENDBRANCH   4   5
ENDBRANCH   3   4
ENDBRANCH   2   3
ENDBRANCH   1   2
BRANCH   1  17
ATOM     17  C   UNL     1      20.359  -1.819 -16.516  1.00  0.00     0.000 C 
BRANCH  17  18
ATOM     18  C   UNL     1      20.076  -0.954 -15.279  1.00  0.00     0.000 C 
BRANCH  18  19
ATOM     19  C   UNL     1      18.980   0.098 -15.527  1.00  0.00     0.000 C 
BRANCH  19  20
ATOM     20  C   UNL     1      19.401   1.499 -15.052  1.00  0.00     0.000 C 
BRANCH  20  21
ATOM     21  C   UNL     1      19.538   2.493 -16.217  1.00  0.00     0.000 C 
BRANCH  21  22
ATOM     22  C   UNL     1      20.977   3.013 -16.336  1.00  0.00     0.000 C 
BRANCH  22  23
ATOM     23  C   UNL     1      21.871   2.411 -15.240  1.00  0.00     0.000 C 
BRANCH  23  24
ATOM     24  C   UNL     1      23.075   1.637 -15.821  1.00  0.00     0.000 C 
BRANCH  24  25
ATOM     25  C   UNL     1      23.758   0.703 -14.806  1.00  0.00     0.000 C 
BRANCH  25  26
ATOM     26  C   UNL     1      23.779  -0.764 -15.260  1.00  0.00     0.000 C 
BRANCH  26  27
ATOM     27  C   UNL     1      24.616  -1.665 -14.334  1.00  0.00     0.002 C 
BRANCH  27  28
ATOM     28  C   UNL     1      25.425  -0.883 -13.275  1.00  0.00     0.028 C 
BRANCH  28  29
ATOM     29  C   UNL     1      26.611  -1.681 -12.715  1.00  0.00     0.156 C 
BRANCH  29  30
ATOM     30  O   UNL     1      26.331  -2.157 -11.425  1.00  0.00    -0.396 OA
ATOM     31  H   UNL     1      27.106  -2.715 -11.153  1.00  0.00     0.210 HD
ENDBRANCH  29  30
ENDBRANCH  28  29
ENDBRANCH  27  28
ENDBRANCH  26  27
ENDBRANCH  25  26
ENDBRANCH  24  25
ENDBRANCH  23  24
ENDBRANCH  22  23
ENDBRANCH  21  22
ENDBRANCH  20  21
ENDBRANCH  19  20
ENDBRANCH  18  19
ENDBRANCH  17  18
ENDBRANCH   1  17
TORSDOF 28
ENDMDL
MODEL 8
REMARK VINA RESULT:    -4.789      1.987      8.610
REMARK INTER + INTRA:         -17.192
REMARK INTER:                 -12.987
REMARK INTRA:                  -4.205
REMARK UNBOUND:                -4.703
REMARK SMILES CCCCCCCCCCCCCCCCCCCCCCCCCCCCCO
REMARK SMILES IDX 16 1 15 2 14 3 13 4 12 5 11 6 10 7 9 8 8 9 7 10 6 11 5 12
REMARK SMILES IDX 4 13 3 14 2 15 1 16 17 17 18 18 19 19 20 20 21 21 22 22
REMARK SMILES IDX 23 23 24 24 25 25 26 26 27 27 28 28 29 29 30 30
REMARK H PARENT 30 31
REMARK Flexibility Score: inf
ROOT
ATOM      1  C   UNL     1      18.081   1.243 -21.758  1.00  0.00     0.000 C 
ENDROOT
BRANCH   1   2
ATOM      2  C   UNL     1      17.530   1.253 -23.192  1.00  0.00     0.000 C 
BRANCH   2   3
ATOM      3  C   UNL     1      16.531   0.114 -23.451  1.00  0.00     0.000 C 
BRANCH   3   4
ATOM      4  C   UNL     1      15.930   0.222 -24.860  1.00  0.00     0.000 C 
BRANCH   4   5
ATOM      5  C   UNL     1      16.318   1.526 -25.585  1.00  0.00     0.000 C 
BRANCH   5   6
ATOM      6  C   UNL     1      17.137   1.343 -26.878  1.00  0.00     0.000 C 
BRANCH   6   7
ATOM      7  C   UNL     1      17.275  -0.130 -27.301  1.00  0.00     0.000 C 
BRANCH   7   8
ATOM      8  C   UNL     1      18.485  -0.379 -28.220  1.00  0.00    -0.000 C 
BRANCH   8   9
ATOM      9  C   UNL     1      19.780  -0.788 -27.497  1.00  0.00    -0.000 C 
BRANCH   9  10
ATOM     10  C   UNL     1      19.523  -1.401 -26.109  1.00  0.00    -0.000 C 
BRANCH  10  11
ATOM     11  C   UNL     1      20.166  -0.587 -24.973  1.00  0.00    -0.000 C 
BRANCH  11  12
ATOM     12  C   UNL     1      20.479   0.861 -25.387  1.00  0.00    -0.000 C 
BRANCH  12  13
ATOM     13  C   UNL     1      21.702   1.434 -24.651  1.00  0.00    -0.000 C 
BRANCH  13  14
ATOM     14  C   UNL     1      22.509   0.355 -23.911  1.00  0.00    -0.000 C 
BRANCH  14  15
ATOM     15  C   UNL     1      23.781  -0.053 -24.672  1.00  0.00    -0.003 C 
ATOM     16  C   UNL     1      24.935   0.928 -24.456  1.00  0.00     0.004 C 
ENDBRANCH  14  15
ENDBRANCH  13  14
ENDBRANCH  12  13
ENDBRANCH  11  12
ENDBRANCH  10  11
ENDBRANCH   9  10
ENDBRANCH   8   9
ENDBRANCH   7   8
ENDBRANCH   6   7
ENDBRANCH   5   6
ENDBRANCH   4   5
ENDBRANCH   3   4
ENDBRANCH   2   3
ENDBRANCH   1   2
BRANCH   1  17
ATOM     17  C   UNL     1      19.608   1.049 -21.712  1.00  0.00     0.000 C 
BRANCH  17  18
ATOM     18  C   UNL     1      20.078   0.296 -20.458  1.00  0.00     0.000 C 
BRANCH  18  19
ATOM     19  C   UNL     1      20.980   1.153 -19.553  1.00  0.00     0.000 C 
BRANCH  19  20
ATOM     20  C   UNL     1      20.192   1.828 -18.418  1.00  0.00     0.000 C 
BRANCH  20  21
ATOM     21  C   UNL     1      18.879   1.094 -18.102  1.00  0.00     0.000 C 
BRANCH  21  22
ATOM     22  C   UNL     1      18.455   1.318 -16.645  1.00  0.00     0.000 C 
BRANCH  22  23
ATOM     23  C   UNL     1      19.550   2.059 -15.861  1.00  0.00     0.000 C 
BRANCH  23  24
ATOM     24  C   UNL     1      20.256   1.150 -14.832  1.00  0.00     0.000 C 
BRANCH  24  25
ATOM     25  C   UNL     1      21.546   0.501 -15.362  1.00  0.00     0.000 C 
BRANCH  25  26
ATOM     26  C   UNL     1      21.612  -1.010 -15.095  1.00  0.00     0.000 C 
BRANCH  26  27
ATOM     27  C   UNL     1      20.544  -1.802 -15.871  1.00  0.00     0.002 C 
BRANCH  27  28
ATOM     28  C   UNL     1      20.790  -1.843 -17.395  1.00  0.00     0.028 C 
BRANCH  28  29
ATOM     29  C   UNL     1      19.641  -2.501 -18.172  1.00  0.00     0.156 C 
BRANCH  29  30
ATOM     30  O   UNL     1      19.232  -3.691 -17.551  1.00  0.00    -0.396 OA
ATOM     31  H   UNL     1      19.773  -3.780 -16.722  1.00  0.00     0.210 HD
ENDBRANCH  29  30
ENDBRANCH  28  29
ENDBRANCH  27  28
ENDBRANCH  26  27
ENDBRANCH  25  26
ENDBRANCH  24  25
ENDBRANCH  23  24
ENDBRANCH  22  23
ENDBRANCH  21  22
ENDBRANCH  20  21
ENDBRANCH  19  20
ENDBRANCH  18  19
ENDBRANCH  17  18
ENDBRANCH   1  17
TORSDOF 28
ENDMDL
MODEL 9
REMARK VINA RESULT:    -4.725      2.764      8.730
REMARK INTER + INTRA:         -17.025
REMARK INTER:                 -12.428
REMARK INTRA:                  -4.598
REMARK UNBOUND:                -4.703
REMARK SMILES CCCCCCCCCCCCCCCCCCCCCCCCCCCCCO
REMARK SMILES IDX 16 1 15 2 14 3 13 4 12 5 11 6 10 7 9 8 8 9 7 10 6 11 5 12
REMARK SMILES IDX 4 13 3 14 2 15 1 16 17 17 18 18 19 19 20 20 21 21 22 22
REMARK SMILES IDX 23 23 24 24 25 25 26 26 27 27 28 28 29 29 30 30
REMARK H PARENT 30 31
REMARK Flexibility Score: inf
ROOT
ATOM      1  C   UNL     1      20.313   0.373 -23.125  1.00  0.00     0.000 C 
ENDROOT
BRANCH   1   2
ATOM      2  C   UNL     1      19.002  -0.097 -22.476  1.00  0.00     0.000 C 
BRANCH   2   3
ATOM      3  C   UNL     1      18.077   1.069 -22.094  1.00  0.00     0.000 C 
BRANCH   3   4
ATOM      4  C   UNL     1      16.757   1.001 -22.876  1.00  0.00     0.000 C 
BRANCH   4   5
ATOM      5  C   UNL     1      16.823   1.723 -24.236  1.00  0.00     0.000 C 
BRANCH   5   6
ATOM      6  C   UNL     1      16.166   0.974 -25.413  1.00  0.00     0.000 C 
BRANCH   6   7
ATOM      7  C   UNL     1      16.971  -0.255 -25.871  1.00  0.00     0.000 C 
BRANCH   7   8
ATOM      8  C   UNL     1      18.438   0.076 -26.196  1.00  0.00    -0.000 C 
BRANCH   8   9
ATOM      9  C   UNL     1      19.081  -0.805 -27.282  1.00  0.00    -0.000 C 
BRANCH   9  10
ATOM     10  C   UNL     1      20.500  -0.345 -27.663  1.00  0.00    -0.000 C 
BRANCH  10  11
ATOM     11  C   UNL     1      20.964   0.880 -26.857  1.00  0.00    -0.000 C 
BRANCH  11  12
ATOM     12  C   UNL     1      22.437   0.781 -26.425  1.00  0.00    -0.000 C 
BRANCH  12  13
ATOM     13  C   UNL     1      22.684  -0.366 -25.430  1.00  0.00    -0.000 C 
BRANCH  13  14
ATOM     14  C   UNL     1      23.769  -0.029 -24.393  1.00  0.00    -0.000 C 
BRANCH  14  15
ATOM     15  C   UNL     1      24.858   0.895 -24.962  1.00  0.00    -0.003 C 
ATOM     16  C   UNL     1      25.634   1.631 -23.869  1.00  0.00     0.004 C 
ENDBRANCH  14  15
ENDBRANCH  13  14
ENDBRANCH  12  13
ENDBRANCH  11  12
ENDBRANCH  10  11
ENDBRANCH   9  10
ENDBRANCH   8   9
ENDBRANCH   7   8
ENDBRANCH   6   7
ENDBRANCH   5   6
ENDBRANCH   4   5
ENDBRANCH   3   4
ENDBRANCH   2   3
ENDBRANCH   1   2
BRANCH   1  17
ATOM     17  C   UNL     1      20.332   1.889 -23.391  1.00  0.00     0.000 C 
BRANCH  17  18
ATOM     18  C   UNL     1      21.647   2.556 -22.958  1.00  0.00     0.000 C 
BRANCH  18  19
ATOM     19  C   UNL     1      22.082   2.147 -21.540  1.00  0.00     0.000 C 
BRANCH  19  20
ATOM     20  C   UNL     1      21.280   2.881 -20.451  1.00  0.00     0.000 C 
BRANCH  20  21
ATOM     21  C   UNL     1      20.862   1.946 -19.305  1.00  0.00     0.000 C 
BRANCH  21  22
ATOM     22  C   UNL     1      21.279   0.497 -19.591  1.00  0.00     0.000 C 
BRANCH  22  23
ATOM     23  C   UNL     1      20.304  -0.495 -18.937  1.00  0.00     0.000 C 
BRANCH  23  24
ATOM     24  C   UNL     1      21.014  -1.473 -17.976  1.00  0.00     0.000 C 
BRANCH  24  25
ATOM     25  C   UNL     1      20.050  -2.272 -17.082  1.00  0.00     0.000 C 
BRANCH  25  26
ATOM     26  C   UNL     1      19.852  -1.640 -15.696  1.00  0.00     0.000 C 
BRANCH  26  27
ATOM     27  C   UNL     1      20.719  -0.387 -15.481  1.00  0.00     0.002 C 
BRANCH  27  28
ATOM     28  C   UNL     1      19.900   0.892 -15.201  1.00  0.00     0.028 C 
BRANCH  28  29
ATOM     29  C   UNL     1      18.520   0.881 -15.875  1.00  0.00     0.156 C 
BRANCH  29  30
ATOM     30  O   UNL     1      17.494   0.859 -14.918  1.00  0.00    -0.396 OA
ATOM     31  H   UNL     1      17.849   1.314 -14.109  1.00  0.00     0.210 HD
ENDBRANCH  29  30
ENDBRANCH  28  29
ENDBRANCH  27  28
ENDBRANCH  26  27
ENDBRANCH  25  26
ENDBRANCH  24  25
ENDBRANCH  23  24
ENDBRANCH  22  23
ENDBRANCH  21  22
ENDBRANCH  20  21
ENDBRANCH  19  20
ENDBRANCH  18  19
ENDBRANCH  17  18
ENDBRANCH   1  17
TORSDOF 28
ENDMDL
