MODEL 1
REMARK VINA RESULT:    -5.722      0.000      0.000
REMARK INTER + INTRA:          -5.890
REMARK INTER:                  -5.890
REMARK INTRA:                   0.000
REMARK UNBOUND:                 0.000
REMARK SMILES Nc1ncnc2nc[nH]c12
REMARK SMILES IDX 8 1 7 2 6 3 5 4 4 5 3 6 2 7 10 8 9 9 1 11
REMARK H PARENT 9 10 1 12 1 13
REMARK Flexibility Score: inf
ROOT
ATOM      1  C   UNL     1     118.576  93.503 130.734  1.00  0.00     0.199 A 
ATOM      2  N   UNL     1     118.219  92.195 130.609  1.00  0.00    -0.217 NA
ATOM      3  C   UNL     1     118.465  91.956 129.311  1.00  0.00     0.182 A 
ATOM      4  N   UNL     1     118.278  90.784 128.655  1.00  0.00    -0.215 NA
ATOM      5  C   UNL     1     118.587  90.732 127.324  1.00  0.00     0.226 A 
ATOM      6  N   UNL     1     119.075  91.841 126.680  1.00  0.00    -0.217 NA
ATOM      7  C   UNL     1     119.265  93.023 127.338  1.00  0.00     0.152 A 
ATOM      8  C   UNL     1     118.945  93.059 128.694  1.00  0.00     0.127 A 
ATOM      9  N   UNL     1     119.024  94.058 129.580  1.00  0.00    -0.340 N 
ATOM     10  H   UNL     1     119.352  95.039 129.432  1.00  0.00     0.168 HD
ENDROOT
BRANCH   7  11
ATOM     11  N   UNL     1     119.774  94.164 126.647  1.00  0.00    -0.382 N 
ATOM     12  H   UNL     1     120.191  94.970 127.161  1.00  0.00     0.158 HD
ATOM     13  H   UNL     1     119.732  94.204 125.604  1.00  0.00     0.158 HD
ENDBRANCH   7  11
TORSDOF 1
ENDMDL
MODEL 2
REMARK VINA RESULT:    -5.484      1.055      3.039
REMARK INTER + INTRA:          -5.644
REMARK INTER:                  -5.644
REMARK INTRA:                   0.000
REMARK UNBOUND:                 0.000
REMARK SMILES Nc1ncnc2nc[nH]c12
REMARK SMILES IDX 8 1 7 2 6 3 5 4 4 5 3 6 2 7 10 8 9 9 1 11
REMARK H PARENT 9 10 1 12 1 13
REMARK Flexibility Score: inf
ROOT
ATOM      1  C   UNL     1     119.313  92.741 126.871  1.00  0.00     0.199 A 
ATOM      2  N   UNL     1     119.057  91.461 127.258  1.00  0.00    -0.217 NA
ATOM      3  C   UNL     1     118.558  91.631 128.493  1.00  0.00     0.182 A 
ATOM      4  N   UNL     1     118.136  90.657 129.336  1.00  0.00    -0.215 NA
ATOM      5  C   UNL     1     117.657  91.026 130.562  1.00  0.00     0.226 A 
ATOM      6  N   UNL     1     117.607  92.351 130.919  1.00  0.00    -0.217 NA
ATOM      7  C   UNL     1     118.031  93.334 130.071  1.00  0.00     0.152 A 
ATOM      8  C   UNL     1     118.517  92.941 128.826  1.00  0.00     0.127 A 
ATOM      9  N   UNL     1     118.993  93.668 127.809  1.00  0.00    -0.340 N 
ATOM     10  H   UNL     1     119.099  94.704 127.740  1.00  0.00     0.168 HD
ENDROOT
BRANCH   7  11
ATOM     11  N   UNL     1     117.971  94.706 130.465  1.00  0.00    -0.382 N 
ATOM     12  H   UNL     1     118.837  95.271 130.603  1.00  0.00     0.158 HD
ATOM     13  H   UNL     1     117.045  95.163 130.621  1.00  0.00     0.158 HD
ENDBRANCH   7  11
TORSDOF 1
ENDMDL
MODEL 3
REMARK VINA RESULT:    -5.323      1.249      3.058
REMARK INTER + INTRA:          -5.478
REMARK INTER:                  -5.478
REMARK INTRA:                   0.000
REMARK UNBOUND:                 0.000
REMARK SMILES Nc1ncnc2nc[nH]c12
REMARK SMILES IDX 8 1 7 2 6 3 5 4 4 5 3 6 2 7 10 8 9 9 1 11
REMARK H PARENT 9 10 1 12 1 13
REMARK Flexibility Score: inf
ROOT
ATOM      1  C   UNL     1     117.253  90.748 125.775  1.00  0.00     0.199 A 
ATOM      2  N   UNL     1     117.276  90.182 127.012  1.00  0.00    -0.217 NA
ATOM      3  C   UNL     1     118.030  91.048 127.708  1.00  0.00     0.182 A 
ATOM      4  N   UNL     1     118.370  90.955 129.017  1.00  0.00    -0.215 NA
ATOM      5  C   UNL     1     119.150  91.941 129.554  1.00  0.00     0.226 A 
ATOM      6  N   UNL     1     119.571  92.994 128.780  1.00  0.00    -0.217 NA
ATOM      7  C   UNL     1     119.229  93.090 127.461  1.00  0.00     0.152 A 
ATOM      8  C   UNL     1     118.434  92.077 126.930  1.00  0.00     0.127 A 
ATOM      9  N   UNL     1     117.952  91.908 125.693  1.00  0.00    -0.340 N 
ATOM     10  H   UNL     1     118.077  92.517 124.854  1.00  0.00     0.168 HD
ENDROOT
BRANCH   7  11
ATOM     11  N   UNL     1     119.679  94.195 126.675  1.00  0.00    -0.382 N 
ATOM     12  H   UNL     1     120.064  95.057 127.119  1.00  0.00     0.158 HD
ATOM     13  H   UNL     1     119.627  94.149 125.633  1.00  0.00     0.158 HD
ENDBRANCH   7  11
TORSDOF 1
ENDMDL
MODEL 4
REMARK VINA RESULT:    -5.121     10.500     11.490
REMARK INTER + INTRA:          -5.270
REMARK INTER:                  -5.270
REMARK INTRA:                   0.000
REMARK UNBOUND:                 0.000
REMARK SMILES Nc1ncnc2nc[nH]c12
REMARK SMILES IDX 8 1 7 2 6 3 5 4 4 5 3 6 2 7 10 8 9 9 1 11
REMARK H PARENT 9 10 1 12 1 13
REMARK Flexibility Score: inf
ROOT
ATOM      1  C   UNL     1     107.186  91.352 128.486  1.00  0.00     0.199 A 
ATOM      2  N   UNL     1     108.504  91.513 128.785  1.00  0.00    -0.217 NA
ATOM      3  C   UNL     1     108.795  90.365 129.417  1.00  0.00     0.182 A 
ATOM      4  N   UNL     1     109.997  90.008 129.931  1.00  0.00    -0.215 NA
ATOM      5  C   UNL     1     110.102  88.789 130.543  1.00  0.00     0.226 A 
ATOM      6  N   UNL     1     109.013  87.958 130.627  1.00  0.00    -0.217 NA
ATOM      7  C   UNL     1     107.801  88.315 130.109  1.00  0.00     0.152 A 
ATOM      8  C   UNL     1     107.712  89.560 129.490  1.00  0.00     0.127 A 
ATOM      9  N   UNL     1     106.673  90.167 128.903  1.00  0.00    -0.340 N 
ATOM     10  H   UNL     1     105.695  89.822 128.788  1.00  0.00     0.168 HD
ENDROOT
BRANCH   7  11
ATOM     11  N   UNL     1     106.682  87.434 130.209  1.00  0.00    -0.382 N 
ATOM     12  H   UNL     1     106.726  86.562 130.780  1.00  0.00     0.158 HD
ATOM     13  H   UNL     1     105.795  87.657 129.705  1.00  0.00     0.158 HD
ENDBRANCH   7  11
TORSDOF 1
ENDMDL
MODEL 5
REMARK VINA RESULT:    -5.106     11.250     11.963
REMARK INTER + INTRA:          -5.256
REMARK INTER:                  -5.256
REMARK INTRA:                   0.000
REMARK UNBOUND:                 0.000
REMARK SMILES Nc1ncnc2nc[nH]c12
REMARK SMILES IDX 8 1 7 2 6 3 5 4 4 5 3 6 2 7 10 8 9 9 1 11
REMARK H PARENT 9 10 1 12 1 13
REMARK Flexibility Score: inf
ROOT
ATOM      1  C   UNL     1     105.485  88.530 130.833  1.00  0.00     0.199 A 
ATOM      2  N   UNL     1     106.585  87.781 131.118  1.00  0.00    -0.217 NA
ATOM      3  C   UNL     1     107.550  88.421 130.439  1.00  0.00     0.182 A 
ATOM      4  N   UNL     1     108.861  88.081 130.383  1.00  0.00    -0.215 NA
ATOM      5  C   UNL     1     109.699  88.860 129.634  1.00  0.00     0.226 A 
ATOM      6  N   UNL     1     109.216  89.955 128.962  1.00  0.00    -0.217 NA
ATOM      7  C   UNL     1     107.896  90.300 129.018  1.00  0.00     0.152 A 
ATOM      8  C   UNL     1     107.055  89.496 129.785  1.00  0.00     0.127 A 
ATOM      9  N   UNL     1     105.741  89.587 130.020  1.00  0.00    -0.340 N 
ATOM     10  H   UNL     1     105.062  90.297 129.668  1.00  0.00     0.168 HD
ENDROOT
BRANCH   7  11
ATOM     11  N   UNL     1     107.415  91.444 128.310  1.00  0.00    -0.382 N 
ATOM     12  H   UNL     1     106.593  91.988 128.650  1.00  0.00     0.158 HD
ATOM     13  H   UNL     1     107.889  91.751 127.432  1.00  0.00     0.158 HD
ENDBRANCH   7  11
TORSDOF 1
ENDMDL
MODEL 6
REMARK VINA RESULT:    -5.063      1.632      3.381
REMARK INTER + INTRA:          -5.211
REMARK INTER:                  -5.211
REMARK INTRA:                   0.000
REMARK UNBOUND:                 0.000
REMARK SMILES Nc1ncnc2nc[nH]c12
REMARK SMILES IDX 8 1 7 2 6 3 5 4 4 5 3 6 2 7 10 8 9 9 1 11
REMARK H PARENT 9 10 1 12 1 13
REMARK Flexibility Score: inf
ROOT
ATOM      1  C   UNL     1     119.185  92.954 126.634  1.00  0.00     0.199 A 
ATOM      2  N   UNL     1     119.698  92.875 127.892  1.00  0.00    -0.217 NA
ATOM      3  C   UNL     1     118.794  92.107 128.521  1.00  0.00     0.182 A 
ATOM      4  N   UNL     1     118.828  91.715 129.818  1.00  0.00    -0.215 NA
ATOM      5  C   UNL     1     117.811  90.927 130.282  1.00  0.00     0.226 A 
ATOM      6  N   UNL     1     116.788  90.549 129.448  1.00  0.00    -0.217 NA
ATOM      7  C   UNL     1     116.752  90.942 128.140  1.00  0.00     0.152 A 
ATOM      8  C   UNL     1     117.796  91.744 127.684  1.00  0.00     0.127 A 
ATOM      9  N   UNL     1     118.023  92.272 126.475  1.00  0.00    -0.340 N 
ATOM     10  H   UNL     1     117.449  92.187 125.607  1.00  0.00     0.168 HD
ENDROOT
BRANCH   7  11
ATOM     11  N   UNL     1     115.678  90.536 127.291  1.00  0.00    -0.382 N 
ATOM     12  H   UNL     1     115.845  90.246 126.304  1.00  0.00     0.158 HD
ATOM     13  H   UNL     1     114.700  90.527 127.656  1.00  0.00     0.158 HD
ENDBRANCH   7  11
TORSDOF 1
ENDMDL
MODEL 7
REMARK VINA RESULT:    -4.989      9.629     10.455
REMARK INTER + INTRA:          -5.135
REMARK INTER:                  -5.135
REMARK INTRA:                   0.000
REMARK UNBOUND:                 0.000
REMARK SMILES Nc1ncnc2nc[nH]c12
REMARK SMILES IDX 8 1 7 2 6 3 5 4 4 5 3 6 2 7 10 8 9 9 1 11
REMARK H PARENT 9 10 1 12 1 13
REMARK Flexibility Score: inf
ROOT
ATOM      1  C   UNL     1     108.115  91.750 128.511  1.00  0.00     0.199 A 
ATOM      2  N   UNL     1     107.436  90.573 128.590  1.00  0.00    -0.217 NA
ATOM      3  C   UNL     1     108.208  89.853 129.418  1.00  0.00     0.182 A 
ATOM      4  N   UNL     1     107.982  88.584 129.836  1.00  0.00    -0.215 NA
ATOM      5  C   UNL     1     108.888  88.012 130.686  1.00  0.00     0.226 A 
ATOM      6  N   UNL     1     109.992  88.714 131.100  1.00  0.00    -0.217 NA
ATOM      7  C   UNL     1     110.222  89.994 130.681  1.00  0.00     0.152 A 
ATOM      8  C   UNL     1     109.290  90.561 129.815  1.00  0.00     0.127 A 
ATOM      9  N   UNL     1     109.252  91.774 129.250  1.00  0.00    -0.340 N 
ATOM     10  H   UNL     1     109.932  92.561 129.347  1.00  0.00     0.168 HD
ENDROOT
BRANCH   7  11
ATOM     11  N   UNL     1     111.379  90.705 131.125  1.00  0.00    -0.382 N 
ATOM     12  H   UNL     1     111.354  91.303 131.979  1.00  0.00     0.158 HD
ATOM     13  H   UNL     1     112.273  90.631 130.591  1.00  0.00     0.158 HD
ENDBRANCH   7  11
TORSDOF 1
ENDMDL
MODEL 8
REMARK VINA RESULT:    -4.987      1.810      3.218
REMARK INTER + INTRA:          -5.133
REMARK INTER:                  -5.133
REMARK INTRA:                   0.000
REMARK UNBOUND:                 0.000
REMARK SMILES Nc1ncnc2nc[nH]c12
REMARK SMILES IDX 8 1 7 2 6 3 5 4 4 5 3 6 2 7 10 8 9 9 1 11
REMARK H PARENT 9 10 1 12 1 13
REMARK Flexibility Score: inf
ROOT
ATOM      1  C   UNL     1     117.340  91.269 130.377  1.00  0.00     0.199 A 
ATOM      2  N   UNL     1     117.929  92.280 129.682  1.00  0.00    -0.217 NA
ATOM      3  C   UNL     1     117.856  91.837 128.417  1.00  0.00     0.182 A 
ATOM      4  N   UNL     1     118.306  92.475 127.309  1.00  0.00    -0.215 NA
ATOM      5  C   UNL     1     118.142  91.862 126.099  1.00  0.00     0.226 A 
ATOM      6  N   UNL     1     117.535  90.634 126.017  1.00  0.00    -0.217 NA
ATOM      7  C   UNL     1     117.079  89.989 127.132  1.00  0.00     0.152 A 
ATOM      8  C   UNL     1     117.255  90.627 128.358  1.00  0.00     0.127 A 
ATOM      9  N   UNL     1     116.917  90.244 129.595  1.00  0.00    -0.340 N 
ATOM     10  H   UNL     1     116.440  89.366 129.900  1.00  0.00     0.168 HD
ENDROOT
BRANCH   7  11
ATOM     11  N   UNL     1     116.450  88.711 127.024  1.00  0.00    -0.382 N 
ATOM     12  H   UNL     1     116.564  88.120 126.172  1.00  0.00     0.158 HD
ATOM     13  H   UNL     1     115.862  88.351 127.808  1.00  0.00     0.158 HD
ENDBRANCH   7  11
TORSDOF 1
ENDMDL
MODEL 9
REMARK VINA RESULT:    -4.984      1.671      4.125
REMARK INTER + INTRA:          -5.130
REMARK INTER:                  -5.130
REMARK INTRA:                   0.000
REMARK UNBOUND:                 0.000
REMARK SMILES Nc1ncnc2nc[nH]c12
REMARK SMILES IDX 8 1 7 2 6 3 5 4 4 5 3 6 2 7 10 8 9 9 1 11
REMARK H PARENT 9 10 1 12 1 13
REMARK Flexibility Score: inf
ROOT
ATOM      1  C   UNL     1     117.526  91.023 125.224  1.00  0.00     0.199 A 
ATOM      2  N   UNL     1     118.639  91.733 125.553  1.00  0.00    -0.217 NA
ATOM      3  C   UNL     1     118.595  91.727 126.895  1.00  0.00     0.182 A 
ATOM      4  N   UNL     1     119.486  92.306 127.736  1.00  0.00    -0.215 NA
ATOM      5  C   UNL     1     119.272  92.193 129.081  1.00  0.00     0.226 A 
ATOM      6  N   UNL     1     118.182  91.509 129.557  1.00  0.00    -0.217 NA
ATOM      7  C   UNL     1     117.282  90.924 128.712  1.00  0.00     0.152 A 
ATOM      8  C   UNL     1     117.515  91.049 127.344  1.00  0.00     0.127 A 
ATOM      9  N   UNL     1     116.818  90.590 126.297  1.00  0.00    -0.340 N 
ATOM     10  H   UNL     1     115.936  90.031 126.294  1.00  0.00     0.168 HD
ENDROOT
BRANCH   7  11
ATOM     11  N   UNL     1     116.154  90.217 129.230  1.00  0.00    -0.382 N 
ATOM     12  H   UNL     1     116.059  89.185 129.113  1.00  0.00     0.158 HD
ATOM     13  H   UNL     1     115.403  90.735 129.738  1.00  0.00     0.158 HD
ENDBRANCH   7  11
TORSDOF 1
ENDMDL
