MODEL 1
REMARK VINA RESULT:    -2.827      0.000      0.000
REMARK INTER + INTRA:          -3.075
REMARK INTER:                  -3.075
REMARK INTRA:                   0.000
REMARK UNBOUND:                 0.000
REMARK SMILES [NH3+]CC(=O)[O-]
REMARK SMILES IDX 2 1 1 2 3 6 4 7 5 8
REMARK H PARENT 1 3 1 4 1 5
REMARK Flexibility Score: inf
ROOT
ATOM      1  C   UNL     1     -39.121  20.487 -29.528  1.00  0.00     0.312 C 
ENDROOT
BRANCH   1   2
ATOM      2  N   UNL     1     -40.216  21.452 -29.471  1.00  0.00    -0.353 N 
ATOM      3  H   UNL     1     -40.980  21.092 -28.853  1.00  0.00     0.344 HD
ATOM      4  H   UNL     1     -40.598  21.593 -30.434  1.00  0.00     0.344 HD
ATOM      5  H   UNL     1     -39.868  22.369 -29.107  1.00  0.00     0.344 HD
ENDBRANCH   1   2
BRANCH   1   6
ATOM      6  C   UNL     1     -39.426  19.290 -28.681  1.00  0.00     0.096 C 
ATOM      7  O   UNL     1     -40.615  19.018 -28.374  1.00  0.00    -0.544 OA
ATOM      8  O   UNL     1     -38.391  18.505 -28.189  1.00  0.00    -0.544 OA
ENDBRANCH   1   6
TORSDOF 2
ENDMDL
MODEL 2
REMARK VINA RESULT:    -2.758      2.148      2.364
REMARK INTER + INTRA:          -3.000
REMARK INTER:                  -3.000
REMARK INTRA:                   0.000
REMARK UNBOUND:                 0.000
REMARK SMILES [NH3+]CC(=O)[O-]
REMARK SMILES IDX 2 1 1 2 3 6 4 7 5 8
REMARK H PARENT 1 3 1 4 1 5
REMARK Flexibility Score: inf
ROOT
ATOM      1  C   UNL     1     -39.369  18.818 -29.070  1.00  0.00     0.312 C 
ENDROOT
BRANCH   1   2
ATOM      2  N   UNL     1     -40.264  19.279 -28.011  1.00  0.00    -0.353 N 
ATOM      3  H   UNL     1     -39.906  20.173 -27.603  1.00  0.00     0.344 HD
ATOM      4  H   UNL     1     -40.304  18.555 -27.258  1.00  0.00     0.344 HD
ATOM      5  H   UNL     1     -41.227  19.424 -28.393  1.00  0.00     0.344 HD
ENDBRANCH   1   2
BRANCH   1   6
ATOM      6  C   UNL     1     -37.942  18.875 -28.619  1.00  0.00     0.096 C 
ATOM      7  O   UNL     1     -37.439  17.910 -27.986  1.00  0.00    -0.544 OA
ATOM      8  O   UNL     1     -37.183  20.015 -28.853  1.00  0.00    -0.544 OA
ENDBRANCH   1   6
TORSDOF 2
ENDMDL
MODEL 3
REMARK VINA RESULT:    -2.685      2.417      2.579
REMARK INTER + INTRA:          -2.921
REMARK INTER:                  -2.921
REMARK INTRA:                   0.000
REMARK UNBOUND:                 0.000
REMARK SMILES [NH3+]CC(=O)[O-]
REMARK SMILES IDX 2 1 1 2 3 6 4 7 5 8
REMARK H PARENT 1 3 1 4 1 5
REMARK Flexibility Score: inf
ROOT
ATOM      1  C   UNL     1     -39.169  19.672 -29.038  1.00  0.00     0.312 C 
ENDROOT
BRANCH   1   2
ATOM      2  N   UNL     1     -40.244  19.347 -28.103  1.00  0.00    -0.353 N 
ATOM      3  H   UNL     1     -41.173  19.494 -28.560  1.00  0.00     0.344 HD
ATOM      4  H   UNL     1     -40.173  19.973 -27.269  1.00  0.00     0.344 HD
ATOM      5  H   UNL     1     -40.157  18.352 -27.788  1.00  0.00     0.344 HD
ENDBRANCH   1   2
BRANCH   1   6
ATOM      6  C   UNL     1     -39.178  21.133 -29.367  1.00  0.00     0.096 C 
ATOM      7  O   UNL     1     -40.170  21.645 -29.947  1.00  0.00    -0.544 OA
ATOM      8  O   UNL     1     -38.068  21.917 -29.079  1.00  0.00    -0.544 OA
ENDBRANCH   1   6
TORSDOF 2
ENDMDL
MODEL 4
REMARK VINA RESULT:    -2.630      3.305      3.683
REMARK INTER + INTRA:          -2.860
REMARK INTER:                  -2.860
REMARK INTRA:                   0.000
REMARK UNBOUND:                 0.000
REMARK SMILES [NH3+]CC(=O)[O-]
REMARK SMILES IDX 2 1 1 2 3 6 4 7 5 8
REMARK H PARENT 1 3 1 4 1 5
REMARK Flexibility Score: inf
ROOT
ATOM      1  C   UNL     1     -41.755  22.719 -30.493  1.00  0.00     0.312 C 
ENDROOT
BRANCH   1   2
ATOM      2  N   UNL     1     -42.811  22.719 -29.483  1.00  0.00    -0.353 N 
ATOM      3  H   UNL     1     -43.713  23.038 -29.907  1.00  0.00     0.344 HD
ATOM      4  H   UNL     1     -42.547  23.373 -28.712  1.00  0.00     0.344 HD
ATOM      5  H   UNL     1     -42.927  21.757 -29.086  1.00  0.00     0.344 HD
ENDBRANCH   1   2
BRANCH   1   6
ATOM      6  C   UNL     1     -40.430  22.398 -29.873  1.00  0.00     0.096 C 
ATOM      7  O   UNL     1     -39.805  21.361 -30.216  1.00  0.00    -0.544 OA
ATOM      8  O   UNL     1     -39.910  23.218 -28.880  1.00  0.00    -0.544 OA
ENDBRANCH   1   6
TORSDOF 2
ENDMDL
MODEL 5
REMARK VINA RESULT:    -2.620      2.811      3.053
REMARK INTER + INTRA:          -2.849
REMARK INTER:                  -2.849
REMARK INTRA:                   0.000
REMARK UNBOUND:                 0.000
REMARK SMILES [NH3+]CC(=O)[O-]
REMARK SMILES IDX 2 1 1 2 3 6 4 7 5 8
REMARK H PARENT 1 3 1 4 1 5
REMARK Flexibility Score: inf
ROOT
ATOM      1  C   UNL     1     -37.307  18.827 -28.335  1.00  0.00     0.312 C 
ENDROOT
BRANCH   1   2
ATOM      2  N   UNL     1     -36.937  17.587 -27.656  1.00  0.00    -0.353 N 
ATOM      3  H   UNL     1     -35.935  17.628 -27.356  1.00  0.00     0.344 HD
ATOM      4  H   UNL     1     -37.061  16.786 -28.316  1.00  0.00     0.344 HD
ATOM      5  H   UNL     1     -37.550  17.438 -26.822  1.00  0.00     0.344 HD
ENDBRANCH   1   2
BRANCH   1   6
ATOM      6  C   UNL     1     -38.670  18.709 -28.946  1.00  0.00     0.096 C 
ATOM      7  O   UNL     1     -38.797  18.348 -30.145  1.00  0.00    -0.544 OA
ATOM      8  O   UNL     1     -39.795  19.047 -28.205  1.00  0.00    -0.544 OA
ENDBRANCH   1   6
TORSDOF 2
ENDMDL
MODEL 6
REMARK VINA RESULT:    -2.550     13.009     13.045
REMARK INTER + INTRA:          -2.774
REMARK INTER:                  -2.774
REMARK INTRA:                   0.000
REMARK UNBOUND:                 0.000
REMARK SMILES [NH3+]CC(=O)[O-]
REMARK SMILES IDX 2 1 1 2 3 6 4 7 5 8
REMARK H PARENT 1 3 1 4 1 5
REMARK Flexibility Score: inf
ROOT
ATOM      1  C   UNL     1     -47.760   9.546 -29.717  1.00  0.00     0.312 C 
ENDROOT
BRANCH   1   2
ATOM      2  N   UNL     1     -47.300  10.932 -29.652  1.00  0.00    -0.353 N 
ATOM      3  H   UNL     1     -48.120  11.582 -29.671  1.00  0.00     0.344 HD
ATOM      4  H   UNL     1     -46.692  11.129 -30.479  1.00  0.00     0.344 HD
ATOM      5  H   UNL     1     -46.746  11.085 -28.778  1.00  0.00     0.344 HD
ENDBRANCH   1   2
BRANCH   1   6
ATOM      6  C   UNL     1     -46.730   8.677 -30.371  1.00  0.00     0.096 C 
ATOM      7  O   UNL     1     -46.552   8.732 -31.616  1.00  0.00    -0.544 OA
ATOM      8  O   UNL     1     -46.001   7.771 -29.611  1.00  0.00    -0.544 OA
ENDBRANCH   1   6
TORSDOF 2
ENDMDL
MODEL 7
REMARK VINA RESULT:    -2.545     18.224     18.567
REMARK INTER + INTRA:          -2.768
REMARK INTER:                  -2.768
REMARK INTRA:                   0.000
REMARK UNBOUND:                 0.000
REMARK SMILES [NH3+]CC(=O)[O-]
REMARK SMILES IDX 2 1 1 2 3 6 4 7 5 8
REMARK H PARENT 1 3 1 4 1 5
REMARK Flexibility Score: inf
ROOT
ATOM      1  C   UNL     1     -52.891   6.676 -34.438  1.00  0.00     0.312 C 
ENDROOT
BRANCH   1   2
ATOM      2  N   UNL     1     -53.398   7.970 -34.889  1.00  0.00    -0.353 N 
ATOM      3  H   UNL     1     -52.832   8.314 -35.700  1.00  0.00     0.344 HD
ATOM      4  H   UNL     1     -53.322   8.659 -34.106  1.00  0.00     0.344 HD
ATOM      5  H   UNL     1     -54.402   7.884 -35.169  1.00  0.00     0.344 HD
ENDBRANCH   1   2
BRANCH   1   6
ATOM      6  C   UNL     1     -51.586   6.839 -33.721  1.00  0.00     0.096 C 
ATOM      7  O   UNL     1     -50.514   6.470 -34.267  1.00  0.00    -0.544 OA
ATOM      8  O   UNL     1     -51.561   7.352 -32.430  1.00  0.00    -0.544 OA
ENDBRANCH   1   6
TORSDOF 2
ENDMDL
MODEL 8
REMARK VINA RESULT:    -2.489     12.240     12.493
REMARK INTER + INTRA:          -2.707
REMARK INTER:                  -2.707
REMARK INTRA:                   0.000
REMARK UNBOUND:                 0.000
REMARK SMILES [NH3+]CC(=O)[O-]
REMARK SMILES IDX 2 1 1 2 3 6 4 7 5 8
REMARK H PARENT 1 3 1 4 1 5
REMARK Flexibility Score: inf
ROOT
ATOM      1  C   UNL     1     -50.964  17.627 -30.733  1.00  0.00     0.312 C 
ENDROOT
BRANCH   1   2
ATOM      2  N   UNL     1     -51.433  18.932 -31.195  1.00  0.00    -0.353 N 
ATOM      3  H   UNL     1     -51.678  19.535 -30.375  1.00  0.00     0.344 HD
ATOM      4  H   UNL     1     -52.284  18.801 -31.786  1.00  0.00     0.344 HD
ATOM      5  H   UNL     1     -50.691  19.398 -31.768  1.00  0.00     0.344 HD
ENDBRANCH   1   2
BRANCH   1   6
ATOM      6  C   UNL     1     -51.862  17.092 -29.660  1.00  0.00     0.096 C 
ATOM      7  O   UNL     1     -52.663  17.858 -29.064  1.00  0.00    -0.544 OA
ATOM      8  O   UNL     1     -51.776  15.757 -29.284  1.00  0.00    -0.544 OA
ENDBRANCH   1   6
TORSDOF 2
ENDMDL
MODEL 9
REMARK VINA RESULT:    -2.459     16.240     16.569
REMARK INTER + INTRA:          -2.674
REMARK INTER:                  -2.674
REMARK INTRA:                   0.000
REMARK UNBOUND:                 0.000
REMARK SMILES [NH3+]CC(=O)[O-]
REMARK SMILES IDX 2 1 1 2 3 6 4 7 5 8
REMARK H PARENT 1 3 1 4 1 5
REMARK Flexibility Score: inf
ROOT
ATOM      1  C   UNL     1     -52.466  22.887 -39.780  1.00  0.00     0.312 C 
ENDROOT
BRANCH   1   2
ATOM      2  N   UNL     1     -51.139  22.383 -40.125  1.00  0.00    -0.353 N 
ATOM      3  H   UNL     1     -50.731  22.949 -40.905  1.00  0.00     0.344 HD
ATOM      4  H   UNL     1     -51.221  21.388 -40.435  1.00  0.00     0.344 HD
ATOM      5  H   UNL     1     -50.510  22.427 -39.289  1.00  0.00     0.344 HD
ENDBRANCH   1   2
BRANCH   1   6
ATOM      6  C   UNL     1     -52.699  22.796 -38.303  1.00  0.00     0.096 C 
ATOM      7  O   UNL     1     -52.103  23.579 -37.518  1.00  0.00    -0.544 OA
ATOM      8  O   UNL     1     -53.537  21.813 -37.792  1.00  0.00    -0.544 OA
ENDBRANCH   1   6
TORSDOF 2
ENDMDL
