MODEL 1
REMARK VINA RESULT:    -3.736      0.000      0.000
REMARK INTER + INTRA:          -4.464
REMARK INTER:                  -4.392
REMARK INTRA:                  -0.073
REMARK UNBOUND:                -0.073
REMARK SMILES CCCCC(=O)[O-]
REMARK SMILES IDX 4 1 5 2 6 3 7 4 3 5 2 6 1 7
REMARK H PARENT
REMARK Flexibility Score: inf
ROOT
ATOM      1  C   UNL     1      23.310  14.160   3.410  1.00  0.00     0.053 C 
ENDROOT
BRANCH   1   2
ATOM      2  C   UNL     1      22.848  12.787   3.792  1.00  0.00     0.041 C 
ATOM      3  O   UNL     1      23.409  12.171   4.737  1.00  0.00    -0.550 OA
ATOM      4  O   UNL     1      21.821  12.175   3.085  1.00  0.00    -0.550 OA
ENDBRANCH   1   2
BRANCH   1   5
ATOM      5  C   UNL     1      22.188  15.197   3.540  1.00  0.00     0.006 C 
BRANCH   5   6
ATOM      6  C   UNL     1      22.072  16.089   2.295  1.00  0.00    -0.003 C 
ATOM      7  C   UNL     1      23.061  15.657   1.216  1.00  0.00     0.004 C 
ENDBRANCH   5   6
ENDBRANCH   1   5
TORSDOF 3
ENDMDL
MODEL 2
REMARK VINA RESULT:    -3.616      9.181     10.339
REMARK INTER + INTRA:          -4.322
REMARK INTER:                  -4.263
REMARK INTRA:                  -0.060
REMARK UNBOUND:                -0.073
REMARK SMILES CCCCC(=O)[O-]
REMARK SMILES IDX 4 1 5 2 6 3 7 4 3 5 2 6 1 7
REMARK H PARENT
REMARK Flexibility Score: inf
ROOT
ATOM      1  C   UNL     1      16.483  20.782  -0.703  1.00  0.00     0.053 C 
ENDROOT
BRANCH   1   2
ATOM      2  C   UNL     1      16.408  19.969   0.554  1.00  0.00     0.041 C 
ATOM      3  O   UNL     1      16.491  20.533   1.678  1.00  0.00    -0.550 OA
ATOM      4  O   UNL     1      16.280  18.588   0.484  1.00  0.00    -0.550 OA
ENDBRANCH   1   2
BRANCH   1   5
ATOM      5  C   UNL     1      15.855  22.170  -0.522  1.00  0.00     0.006 C 
BRANCH   5   6
ATOM      6  C   UNL     1      14.684  22.409  -1.487  1.00  0.00    -0.003 C 
ATOM      7  C   UNL     1      14.593  21.297  -2.528  1.00  0.00     0.004 C 
ENDBRANCH   5   6
ENDBRANCH   1   5
TORSDOF 3
ENDMDL
MODEL 3
REMARK VINA RESULT:    -3.597      8.777      9.865
REMARK INTER + INTRA:          -4.300
REMARK INTER:                  -4.248
REMARK INTRA:                  -0.052
REMARK UNBOUND:                -0.073
REMARK SMILES CCCCC(=O)[O-]
REMARK SMILES IDX 4 1 5 2 6 3 7 4 3 5 2 6 1 7
REMARK H PARENT
REMARK Flexibility Score: inf
ROOT
ATOM      1  C   UNL     1      20.679   4.244   1.562  1.00  0.00     0.053 C 
ENDROOT
BRANCH   1   2
ATOM      2  C   UNL     1      21.279   4.976   0.400  1.00  0.00     0.041 C 
ATOM      3  O   UNL     1      22.363   5.602   0.538  1.00  0.00    -0.550 OA
ATOM      4  O   UNL     1      20.625   4.993  -0.825  1.00  0.00    -0.550 OA
ENDBRANCH   1   2
BRANCH   1   5
ATOM      5  C   UNL     1      21.622   4.225   2.772  1.00  0.00     0.006 C 
BRANCH   5   6
ATOM      6  C   UNL     1      20.894   4.561   4.082  1.00  0.00    -0.003 C 
ATOM      7  C   UNL     1      21.271   5.953   4.579  1.00  0.00     0.004 C 
ENDBRANCH   5   6
ENDBRANCH   1   5
TORSDOF 3
ENDMDL
MODEL 4
REMARK VINA RESULT:    -3.593      9.238     10.417
REMARK INTER + INTRA:          -4.296
REMARK INTER:                  -4.231
REMARK INTRA:                  -0.065
REMARK UNBOUND:                -0.073
REMARK SMILES CCCCC(=O)[O-]
REMARK SMILES IDX 4 1 5 2 6 3 7 4 3 5 2 6 1 7
REMARK H PARENT
REMARK Flexibility Score: inf
ROOT
ATOM      1  C   UNL     1      14.517  18.787   1.713  1.00  0.00     0.053 C 
ENDROOT
BRANCH   1   2
ATOM      2  C   UNL     1      15.284  18.804   0.426  1.00  0.00     0.041 C 
ATOM      3  O   UNL     1      14.672  18.824  -0.675  1.00  0.00    -0.550 OA
ATOM      4  O   UNL     1      16.672  18.766   0.442  1.00  0.00    -0.550 OA
ENDBRANCH   1   2
BRANCH   1   5
ATOM      5  C   UNL     1      13.067  19.247   1.519  1.00  0.00     0.006 C 
BRANCH   5   6
ATOM      6  C   UNL     1      12.730  20.483   2.366  1.00  0.00    -0.003 C 
ATOM      7  C   UNL     1      13.817  20.752   3.402  1.00  0.00     0.004 C 
ENDBRANCH   5   6
ENDBRANCH   1   5
TORSDOF 3
ENDMDL
MODEL 5
REMARK VINA RESULT:    -3.575      5.908      6.703
REMARK INTER + INTRA:          -4.274
REMARK INTER:                  -4.218
REMARK INTRA:                  -0.056
REMARK UNBOUND:                -0.073
REMARK SMILES CCCCC(=O)[O-]
REMARK SMILES IDX 4 1 5 2 6 3 7 4 3 5 2 6 1 7
REMARK H PARENT
REMARK Flexibility Score: inf
ROOT
ATOM      1  C   UNL     1      20.256  12.536  -3.056  1.00  0.00     0.053 C 
ENDROOT
BRANCH   1   2
ATOM      2  C   UNL     1      19.688  13.232  -1.856  1.00  0.00     0.041 C 
ATOM      3  O   UNL     1      18.440  13.312  -1.704  1.00  0.00    -0.550 OA
ATOM      4  O   UNL     1      20.534  13.818  -0.925  1.00  0.00    -0.550 OA
ENDBRANCH   1   2
BRANCH   1   5
ATOM      5  C   UNL     1      21.705  12.092  -2.824  1.00  0.00     0.006 C 
BRANCH   5   6
ATOM      6  C   UNL     1      22.628  12.489  -3.987  1.00  0.00    -0.003 C 
ATOM      7  C   UNL     1      23.682  13.494  -3.534  1.00  0.00     0.004 C 
ENDBRANCH   5   6
ENDBRANCH   1   5
TORSDOF 3
ENDMDL
MODEL 6
REMARK VINA RESULT:    -3.573      9.241     10.107
REMARK INTER + INTRA:          -4.273
REMARK INTER:                  -4.166
REMARK INTRA:                  -0.107
REMARK UNBOUND:                -0.073
REMARK SMILES CCCCC(=O)[O-]
REMARK SMILES IDX 4 1 5 2 6 3 7 4 3 5 2 6 1 7
REMARK H PARENT
REMARK Flexibility Score: inf
ROOT
ATOM      1  C   UNL     1      16.195  20.276   0.687  1.00  0.00     0.053 C 
ENDROOT
BRANCH   1   2
ATOM      2  C   UNL     1      15.364  19.029   0.704  1.00  0.00     0.041 C 
ATOM      3  O   UNL     1      14.989  18.504  -0.378  1.00  0.00    -0.550 OA
ATOM      4  O   UNL     1      14.978  18.465   1.913  1.00  0.00    -0.550 OA
ENDBRANCH   1   2
BRANCH   1   5
ATOM      5  C   UNL     1      16.441  20.778  -0.741  1.00  0.00     0.006 C 
BRANCH   5   6
ATOM      6  C   UNL     1      15.498  21.928  -1.124  1.00  0.00    -0.003 C 
ATOM      7  C   UNL     1      14.558  21.515  -2.252  1.00  0.00     0.004 C 
ENDBRANCH   5   6
ENDBRANCH   1   5
TORSDOF 3
ENDMDL
MODEL 7
REMARK VINA RESULT:    -3.564      3.196      4.187
REMARK INTER + INTRA:          -4.262
REMARK INTER:                  -4.224
REMARK INTRA:                  -0.037
REMARK UNBOUND:                -0.073
REMARK SMILES CCCCC(=O)[O-]
REMARK SMILES IDX 4 1 5 2 6 3 7 4 3 5 2 6 1 7
REMARK H PARENT
REMARK Flexibility Score: inf
ROOT
ATOM      1  C   UNL     1      23.120  15.310   1.105  1.00  0.00     0.053 C 
ENDROOT
BRANCH   1   2
ATOM      2  C   UNL     1      21.947  16.140   1.532  1.00  0.00     0.041 C 
ATOM      3  O   UNL     1      20.986  16.331   0.741  1.00  0.00    -0.550 OA
ATOM      4  O   UNL     1      21.930  16.727   2.790  1.00  0.00    -0.550 OA
ENDBRANCH   1   2
BRANCH   1   5
ATOM      5  C   UNL     1      22.704  14.184   0.151  1.00  0.00     0.006 C 
BRANCH   5   6
ATOM      6  C   UNL     1      23.802  13.121  -0.008  1.00  0.00    -0.003 C 
ATOM      7  C   UNL     1      24.857  13.252   1.087  1.00  0.00     0.004 C 
ENDBRANCH   5   6
ENDBRANCH   1   5
TORSDOF 3
ENDMDL
MODEL 8
REMARK VINA RESULT:    -3.522      4.708      5.700
REMARK INTER + INTRA:          -4.212
REMARK INTER:                  -4.177
REMARK INTRA:                  -0.035
REMARK UNBOUND:                -0.073
REMARK SMILES CCCCC(=O)[O-]
REMARK SMILES IDX 4 1 5 2 6 3 7 4 3 5 2 6 1 7
REMARK H PARENT
REMARK Flexibility Score: inf
ROOT
ATOM      1  C   UNL     1      19.903  12.075  -0.297  1.00  0.00     0.053 C 
ENDROOT
BRANCH   1   2
ATOM      2  C   UNL     1      19.072  13.269  -0.660  1.00  0.00     0.041 C 
ATOM      3  O   UNL     1      18.521  13.336  -1.790  1.00  0.00    -0.550 OA
ATOM      4  O   UNL     1      18.934  14.321   0.237  1.00  0.00    -0.550 OA
ENDBRANCH   1   2
BRANCH   1   5
ATOM      5  C   UNL     1      21.016  12.435   0.694  1.00  0.00     0.006 C 
BRANCH   5   6
ATOM      6  C   UNL     1      22.009  11.281   0.898  1.00  0.00    -0.003 C 
ATOM      7  C   UNL     1      21.930  10.279  -0.249  1.00  0.00     0.004 C 
ENDBRANCH   5   6
ENDBRANCH   1   5
TORSDOF 3
ENDMDL
MODEL 9
REMARK VINA RESULT:    -3.505      9.204     10.208
REMARK INTER + INTRA:          -4.192
REMARK INTER:                  -4.118
REMARK INTRA:                  -0.075
REMARK UNBOUND:                -0.073
REMARK SMILES CCCCC(=O)[O-]
REMARK SMILES IDX 4 1 5 2 6 3 7 4 3 5 2 6 1 7
REMARK H PARENT
REMARK Flexibility Score: inf
ROOT
ATOM      1  C   UNL     1      15.075  18.852   0.390  1.00  0.00     0.053 C 
ENDROOT
BRANCH   1   2
ATOM      2  C   UNL     1      16.252  19.779   0.389  1.00  0.00     0.041 C 
ATOM      3  O   UNL     1      16.658  20.287   1.468  1.00  0.00    -0.550 OA
ATOM      4  O   UNL     1      16.879  20.109  -0.805  1.00  0.00    -0.550 OA
ENDBRANCH   1   2
BRANCH   1   5
ATOM      5  C   UNL     1      14.341  18.862   1.736  1.00  0.00     0.006 C 
BRANCH   5   6
ATOM      6  C   UNL     1      12.961  19.530   1.642  1.00  0.00    -0.003 C 
ATOM      7  C   UNL     1      12.523  19.686   0.190  1.00  0.00     0.004 C 
ENDBRANCH   5   6
ENDBRANCH   1   5
TORSDOF 3
ENDMDL
