MODEL 1
REMARK VINA RESULT:    -5.956      0.000      0.000
REMARK INTER + INTRA:         -12.586
REMARK INTER:                 -10.831
REMARK INTRA:                  -1.755
REMARK UNBOUND:                -1.755
REMARK SMILES CCCCCC=CCC=CCCCCCCCC(=O)[O-]
REMARK SMILES IDX 11 1 12 2 13 3 14 4 15 5 16 6 17 7 18 8 19 9 20 10 10 11
REMARK SMILES IDX 9 12 8 13 7 14 6 15 5 16 4 17 3 18 2 19 1 20
REMARK H PARENT
REMARK Flexibility Score: inf
ROOT
ATOM      1  C   UNL     1      45.537  47.462  48.073  1.00  0.00     0.027 C 
ENDROOT
BRANCH   1   2
ATOM      2  C   UNL     1      46.247  47.366  49.437  1.00  0.00     0.004 C 
BRANCH   2   3
ATOM      3  C   UNL     1      46.295  45.939  50.012  1.00  0.00     0.000 C 
BRANCH   3   4
ATOM      4  C   UNL     1      45.137  45.053  49.523  1.00  0.00     0.000 C 
BRANCH   4   5
ATOM      5  C   UNL     1      45.598  43.975  48.528  1.00  0.00     0.000 C 
BRANCH   5   6
ATOM      6  C   UNL     1      47.131  43.853  48.458  1.00  0.00     0.006 C 
BRANCH   6   7
ATOM      7  C   UNL     1      47.619  43.500  47.047  1.00  0.00     0.053 C 
BRANCH   7   8
ATOM      8  C   UNL     1      48.153  42.102  46.977  1.00  0.00     0.041 C 
ATOM      9  O   UNL     1      49.385  41.886  47.122  1.00  0.00    -0.550 OA
ATOM     10  O   UNL     1      47.286  41.035  46.782  1.00  0.00    -0.550 OA
ENDBRANCH   7   8
ENDBRANCH   6   7
ENDBRANCH   5   6
ENDBRANCH   4   5
ENDBRANCH   3   4
ENDBRANCH   2   3
ENDBRANCH   1   2
BRANCH   1  11
ATOM     11  C   UNL     1      46.499  47.363  46.912  1.00  0.00    -0.031 C 
ATOM     12  C   UNL     1      46.212  46.701  45.780  1.00  0.00    -0.027 C 
BRANCH  12  13
ATOM     13  C   UNL     1      44.904  45.981  45.558  1.00  0.00     0.054 C 
BRANCH  13  14
ATOM     14  C   UNL     1      44.904  45.246  44.247  1.00  0.00    -0.027 C 
ATOM     15  C   UNL     1      44.157  45.660  43.212  1.00  0.00    -0.031 C 
BRANCH  15  16
ATOM     16  C   UNL     1      44.162  44.934  41.895  1.00  0.00     0.027 C 
BRANCH  16  17
ATOM     17  C   UNL     1      43.114  45.515  40.937  1.00  0.00     0.004 C 
BRANCH  17  18
ATOM     18  C   UNL     1      41.696  45.146  41.385  1.00  0.00     0.000 C 
BRANCH  18  19
ATOM     19  C   UNL     1      40.781  44.910  40.176  1.00  0.00    -0.003 C 
ATOM     20  C   UNL     1      41.594  44.634  38.915  1.00  0.00     0.004 C 
ENDBRANCH  18  19
ENDBRANCH  17  18
ENDBRANCH  16  17
ENDBRANCH  15  16
ENDBRANCH  13  14
ENDBRANCH  12  13
ENDBRANCH   1  11
TORSDOF 14
ENDMDL
MODEL 2
REMARK VINA RESULT:    -5.937      1.192      1.672
REMARK INTER + INTRA:         -12.550
REMARK INTER:                 -11.267
REMARK INTRA:                  -1.283
REMARK UNBOUND:                -1.755
REMARK SMILES CCCCCC=CCC=CCCCCCCCC(=O)[O-]
REMARK SMILES IDX 11 1 12 2 13 3 14 4 15 5 16 6 17 7 18 8 19 9 20 10 10 11
REMARK SMILES IDX 9 12 8 13 7 14 6 15 5 16 4 17 3 18 2 19 1 20
REMARK H PARENT
REMARK Flexibility Score: inf
ROOT
ATOM      1  C   UNL     1      45.683  47.354  47.959  1.00  0.00     0.027 C 
ENDROOT
BRANCH   1   2
ATOM      2  C   UNL     1      46.313  46.822  49.260  1.00  0.00     0.004 C 
BRANCH   2   3
ATOM      3  C   UNL     1      45.761  45.456  49.704  1.00  0.00     0.000 C 
BRANCH   3   4
ATOM      4  C   UNL     1      46.695  44.285  49.352  1.00  0.00     0.000 C 
BRANCH   4   5
ATOM      5  C   UNL     1      46.465  43.754  47.928  1.00  0.00     0.000 C 
BRANCH   5   6
ATOM      6  C   UNL     1      47.719  43.088  47.335  1.00  0.00     0.006 C 
BRANCH   6   7
ATOM      7  C   UNL     1      47.503  41.596  47.052  1.00  0.00     0.053 C 
BRANCH   7   8
ATOM      8  C   UNL     1      47.099  41.352  45.630  1.00  0.00     0.041 C 
ATOM      9  O   UNL     1      46.024  41.834  45.185  1.00  0.00    -0.550 OA
ATOM     10  O   UNL     1      47.925  40.619  44.789  1.00  0.00    -0.550 OA
ENDBRANCH   7   8
ENDBRANCH   6   7
ENDBRANCH   5   6
ENDBRANCH   4   5
ENDBRANCH   3   4
ENDBRANCH   2   3
ENDBRANCH   1   2
BRANCH   1  11
ATOM     11  C   UNL     1      44.232  46.958  47.814  1.00  0.00    -0.031 C 
ATOM     12  C   UNL     1      43.751  46.329  46.730  1.00  0.00    -0.027 C 
BRANCH  12  13
ATOM     13  C   UNL     1      44.609  45.962  45.544  1.00  0.00     0.054 C 
BRANCH  13  14
ATOM     14  C   UNL     1      43.793  45.893  44.284  1.00  0.00    -0.027 C 
ATOM     15  C   UNL     1      44.335  45.503  43.120  1.00  0.00    -0.031 C 
BRANCH  15  16
ATOM     16  C   UNL     1      43.521  45.421  41.858  1.00  0.00     0.027 C 
BRANCH  16  17
ATOM     17  C   UNL     1      42.040  45.170  42.169  1.00  0.00     0.004 C 
BRANCH  17  18
ATOM     18  C   UNL     1      41.225  45.026  40.880  1.00  0.00     0.000 C 
BRANCH  18  19
ATOM     19  C   UNL     1      41.769  45.946  39.779  1.00  0.00    -0.003 C 
ATOM     20  C   UNL     1      41.991  45.179  38.479  1.00  0.00     0.004 C 
ENDBRANCH  18  19
ENDBRANCH  17  18
ENDBRANCH  16  17
ENDBRANCH  15  16
ENDBRANCH  13  14
ENDBRANCH  12  13
ENDBRANCH   1  11
TORSDOF 14
ENDMDL
MODEL 3
REMARK VINA RESULT:    -5.685      3.378      7.181
REMARK INTER + INTRA:         -12.093
REMARK INTER:                 -10.662
REMARK INTRA:                  -1.431
REMARK UNBOUND:                -1.755
REMARK SMILES CCCCCC=CCC=CCCCCCCCC(=O)[O-]
REMARK SMILES IDX 11 1 12 2 13 3 14 4 15 5 16 6 17 7 18 8 19 9 20 10 10 11
REMARK SMILES IDX 9 12 8 13 7 14 6 15 5 16 4 17 3 18 2 19 1 20
REMARK H PARENT
REMARK Flexibility Score: inf
ROOT
ATOM      1  C   UNL     1      43.787  46.240  47.637  1.00  0.00     0.027 C 
ENDROOT
BRANCH   1   2
ATOM      2  C   UNL     1      43.558  46.323  46.116  1.00  0.00     0.004 C 
BRANCH   2   3
ATOM      3  C   UNL     1      44.857  46.303  45.290  1.00  0.00     0.000 C 
BRANCH   3   4
ATOM      4  C   UNL     1      45.102  44.959  44.584  1.00  0.00     0.000 C 
BRANCH   4   5
ATOM      5  C   UNL     1      44.925  45.053  43.059  1.00  0.00     0.000 C 
BRANCH   5   6
ATOM      6  C   UNL     1      43.492  45.443  42.654  1.00  0.00     0.006 C 
BRANCH   6   7
ATOM      7  C   UNL     1      43.302  45.442  41.131  1.00  0.00     0.053 C 
BRANCH   7   8
ATOM      8  C   UNL     1      41.853  45.482  40.752  1.00  0.00     0.041 C 
ATOM      9  O   UNL     1      41.483  46.112  39.726  1.00  0.00    -0.550 OA
ATOM     10  O   UNL     1      40.916  44.798  41.515  1.00  0.00    -0.550 OA
ENDBRANCH   7   8
ENDBRANCH   6   7
ENDBRANCH   5   6
ENDBRANCH   4   5
ENDBRANCH   3   4
ENDBRANCH   2   3
ENDBRANCH   1   2
BRANCH   1  11
ATOM     11  C   UNL     1      45.050  46.948  48.072  1.00  0.00    -0.031 C 
ATOM     12  C   UNL     1      45.920  46.419  48.948  1.00  0.00    -0.027 C 
BRANCH  12  13
ATOM     13  C   UNL     1      45.719  45.070  49.593  1.00  0.00     0.054 C 
BRANCH  13  14
ATOM     14  C   UNL     1      46.588  44.026  48.952  1.00  0.00    -0.027 C 
ATOM     15  C   UNL     1      46.420  43.666  47.669  1.00  0.00    -0.031 C 
BRANCH  15  16
ATOM     16  C   UNL     1      47.295  42.630  47.019  1.00  0.00     0.027 C 
BRANCH  16  17
ATOM     17  C   UNL     1      46.479  41.714  46.098  1.00  0.00     0.004 C 
BRANCH  17  18
ATOM     18  C   UNL     1      47.360  40.610  45.502  1.00  0.00     0.000 C 
BRANCH  18  19
ATOM     19  C   UNL     1      48.174  39.905  46.595  1.00  0.00    -0.003 C 
ATOM     20  C   UNL     1      49.637  39.764  46.188  1.00  0.00     0.004 C 
ENDBRANCH  18  19
ENDBRANCH  17  18
ENDBRANCH  16  17
ENDBRANCH  15  16
ENDBRANCH  13  14
ENDBRANCH  12  13
ENDBRANCH   1  11
TORSDOF 14
ENDMDL
MODEL 4
REMARK VINA RESULT:    -5.629      1.581      3.296
REMARK INTER + INTRA:         -11.991
REMARK INTER:                  -9.953
REMARK INTRA:                  -2.038
REMARK UNBOUND:                -1.755
REMARK SMILES CCCCCC=CCC=CCCCCCCCC(=O)[O-]
REMARK SMILES IDX 11 1 12 2 13 3 14 4 15 5 16 6 17 7 18 8 19 9 20 10 10 11
REMARK SMILES IDX 9 12 8 13 7 14 6 15 5 16 4 17 3 18 2 19 1 20
REMARK H PARENT
REMARK Flexibility Score: inf
ROOT
ATOM      1  C   UNL     1      45.733  44.674  49.976  1.00  0.00     0.027 C 
ENDROOT
BRANCH   1   2
ATOM      2  C   UNL     1      46.219  43.654  48.929  1.00  0.00     0.004 C 
BRANCH   2   3
ATOM      3  C   UNL     1      47.561  44.028  48.274  1.00  0.00     0.000 C 
BRANCH   3   4
ATOM      4  C   UNL     1      47.722  43.449  46.858  1.00  0.00     0.000 C 
BRANCH   4   5
ATOM      5  C   UNL     1      46.489  42.651  46.403  1.00  0.00     0.000 C 
BRANCH   5   6
ATOM      6  C   UNL     1      46.861  41.300  45.765  1.00  0.00     0.006 C 
BRANCH   6   7
ATOM      7  C   UNL     1      48.316  40.906  46.055  1.00  0.00     0.053 C 
BRANCH   7   8
ATOM      8  C   UNL     1      48.788  39.814  45.144  1.00  0.00     0.041 C 
ATOM      9  O   UNL     1      48.435  38.622  45.346  1.00  0.00    -0.550 OA
ATOM     10  O   UNL     1      49.593  40.118  44.054  1.00  0.00    -0.550 OA
ENDBRANCH   7   8
ENDBRANCH   6   7
ENDBRANCH   5   6
ENDBRANCH   4   5
ENDBRANCH   3   4
ENDBRANCH   2   3
ENDBRANCH   1   2
BRANCH   1  11
ATOM     11  C   UNL     1      46.225  46.074  49.693  1.00  0.00    -0.031 C 
ATOM     12  C   UNL     1      45.557  46.940  48.914  1.00  0.00    -0.027 C 
BRANCH  12  13
ATOM     13  C   UNL     1      44.253  46.598  48.236  1.00  0.00     0.054 C 
BRANCH  13  14
ATOM     14  C   UNL     1      44.459  46.307  46.777  1.00  0.00    -0.027 C 
ATOM     15  C   UNL     1      45.634  46.546  46.174  1.00  0.00    -0.031 C 
BRANCH  15  16
ATOM     16  C   UNL     1      45.849  46.246  44.716  1.00  0.00     0.027 C 
BRANCH  16  17
ATOM     17  C   UNL     1      44.807  45.247  44.196  1.00  0.00     0.004 C 
BRANCH  17  18
ATOM     18  C   UNL     1      44.719  45.292  42.667  1.00  0.00     0.000 C 
BRANCH  18  19
ATOM     19  C   UNL     1      43.261  45.208  42.197  1.00  0.00    -0.003 C 
ATOM     20  C   UNL     1      43.143  45.514  40.707  1.00  0.00     0.004 C 
ENDBRANCH  18  19
ENDBRANCH  17  18
ENDBRANCH  16  17
ENDBRANCH  15  16
ENDBRANCH  13  14
ENDBRANCH  12  13
ENDBRANCH   1  11
TORSDOF 14
ENDMDL
MODEL 5
REMARK VINA RESULT:    -5.595      3.521      6.679
REMARK INTER + INTRA:         -11.928
REMARK INTER:                  -9.989
REMARK INTRA:                  -1.939
REMARK UNBOUND:                -1.755
REMARK SMILES CCCCCC=CCC=CCCCCCCCC(=O)[O-]
REMARK SMILES IDX 11 1 12 2 13 3 14 4 15 5 16 6 17 7 18 8 19 9 20 10 10 11
REMARK SMILES IDX 9 12 8 13 7 14 6 15 5 16 4 17 3 18 2 19 1 20
REMARK H PARENT
REMARK Flexibility Score: inf
ROOT
ATOM      1  C   UNL     1      45.498  44.190  49.331  1.00  0.00     0.027 C 
ENDROOT
BRANCH   1   2
ATOM      2  C   UNL     1      45.148  45.576  49.904  1.00  0.00     0.004 C 
BRANCH   2   3
ATOM      3  C   UNL     1      46.110  46.692  49.459  1.00  0.00     0.000 C 
BRANCH   3   4
ATOM      4  C   UNL     1      45.629  47.437  48.202  1.00  0.00     0.000 C 
BRANCH   4   5
ATOM      5  C   UNL     1      46.432  47.055  46.947  1.00  0.00     0.000 C 
BRANCH   5   6
ATOM      6  C   UNL     1      45.532  46.815  45.721  1.00  0.00     0.006 C 
BRANCH   6   7
ATOM      7  C   UNL     1      44.056  47.104  46.022  1.00  0.00     0.053 C 
BRANCH   7   8
ATOM      8  C   UNL     1      43.143  46.248  45.199  1.00  0.00     0.041 C 
ATOM      9  O   UNL     1      41.980  45.987  45.605  1.00  0.00    -0.550 OA
ATOM     10  O   UNL     1      43.567  45.762  43.969  1.00  0.00    -0.550 OA
ENDBRANCH   7   8
ENDBRANCH   6   7
ENDBRANCH   5   6
ENDBRANCH   4   5
ENDBRANCH   3   4
ENDBRANCH   2   3
ENDBRANCH   1   2
BRANCH   1  11
ATOM     11  C   UNL     1      46.962  44.060  48.980  1.00  0.00    -0.031 C 
ATOM     12  C   UNL     1      47.393  43.516  47.831  1.00  0.00    -0.027 C 
BRANCH  12  13
ATOM     13  C   UNL     1      46.460  42.970  46.779  1.00  0.00     0.054 C 
BRANCH  13  14
ATOM     14  C   UNL     1      47.125  41.895  45.967  1.00  0.00    -0.027 C 
ATOM     15  C   UNL     1      47.642  40.799  46.544  1.00  0.00    -0.031 C 
BRANCH  15  16
ATOM     16  C   UNL     1      48.298  39.715  45.735  1.00  0.00     0.027 C 
BRANCH  16  17
ATOM     17  C   UNL     1      49.557  40.235  45.029  1.00  0.00     0.004 C 
BRANCH  17  18
ATOM     18  C   UNL     1      50.410  41.081  45.980  1.00  0.00     0.000 C 
BRANCH  18  19
ATOM     19  C   UNL     1      50.739  42.444  45.359  1.00  0.00    -0.003 C 
ATOM     20  C   UNL     1      50.875  43.521  46.432  1.00  0.00     0.004 C 
ENDBRANCH  18  19
ENDBRANCH  17  18
ENDBRANCH  16  17
ENDBRANCH  15  16
ENDBRANCH  13  14
ENDBRANCH  12  13
ENDBRANCH   1  11
TORSDOF 14
ENDMDL
MODEL 6
REMARK VINA RESULT:    -5.475      3.783      7.485
REMARK INTER + INTRA:         -11.711
REMARK INTER:                 -10.172
REMARK INTRA:                  -1.539
REMARK UNBOUND:                -1.755
REMARK SMILES CCCCCC=CCC=CCCCCCCCC(=O)[O-]
REMARK SMILES IDX 11 1 12 2 13 3 14 4 15 5 16 6 17 7 18 8 19 9 20 10 10 11
REMARK SMILES IDX 9 12 8 13 7 14 6 15 5 16 4 17 3 18 2 19 1 20
REMARK H PARENT
REMARK Flexibility Score: inf
ROOT
ATOM      1  C   UNL     1      46.558  43.753  48.623  1.00  0.00     0.027 C 
ENDROOT
BRANCH   1   2
ATOM      2  C   UNL     1      46.669  44.680  49.849  1.00  0.00     0.004 C 
BRANCH   2   3
ATOM      3  C   UNL     1      46.275  46.140  49.561  1.00  0.00     0.000 C 
BRANCH   3   4
ATOM      4  C   UNL     1      45.476  46.302  48.256  1.00  0.00     0.000 C 
BRANCH   4   5
ATOM      5  C   UNL     1      46.174  47.231  47.249  1.00  0.00     0.000 C 
BRANCH   5   6
ATOM      6  C   UNL     1      46.335  46.583  45.862  1.00  0.00     0.006 C 
BRANCH   6   7
ATOM      7  C   UNL     1      45.311  45.466  45.623  1.00  0.00     0.053 C 
BRANCH   7   8
ATOM      8  C   UNL     1      44.177  45.927  44.760  1.00  0.00     0.041 C 
ATOM      9  O   UNL     1      43.267  46.652  45.242  1.00  0.00    -0.550 OA
ATOM     10  O   UNL     1      44.140  45.580  43.416  1.00  0.00    -0.550 OA
ENDBRANCH   7   8
ENDBRANCH   6   7
ENDBRANCH   5   6
ENDBRANCH   4   5
ENDBRANCH   3   4
ENDBRANCH   2   3
ENDBRANCH   1   2
BRANCH   1  11
ATOM     11  C   UNL     1      47.891  43.519  47.951  1.00  0.00    -0.031 C 
ATOM     12  C   UNL     1      48.038  42.731  46.874  1.00  0.00    -0.027 C 
BRANCH  12  13
ATOM     13  C   UNL     1      46.889  41.992  46.233  1.00  0.00     0.054 C 
BRANCH  13  14
ATOM     14  C   UNL     1      47.309  40.623  45.778  1.00  0.00    -0.027 C 
ATOM     15  C   UNL     1      48.231  39.914  46.449  1.00  0.00    -0.031 C 
BRANCH  15  16
ATOM     16  C   UNL     1      48.646  38.539  46.005  1.00  0.00     0.027 C 
BRANCH  16  17
ATOM     17  C   UNL     1      48.543  37.529  47.155  1.00  0.00     0.004 C 
BRANCH  17  18
ATOM     18  C   UNL     1      49.283  36.232  46.814  1.00  0.00     0.000 C 
BRANCH  18  19
ATOM     19  C   UNL     1      48.336  35.207  46.178  1.00  0.00    -0.003 C 
ATOM     20  C   UNL     1      47.398  34.601  47.219  1.00  0.00     0.004 C 
ENDBRANCH  18  19
ENDBRANCH  17  18
ENDBRANCH  16  17
ENDBRANCH  15  16
ENDBRANCH  13  14
ENDBRANCH  12  13
ENDBRANCH   1  11
TORSDOF 14
ENDMDL
MODEL 7
REMARK VINA RESULT:    -5.421      3.068      6.557
REMARK INTER + INTRA:         -11.612
REMARK INTER:                  -9.591
REMARK INTRA:                  -2.021
REMARK UNBOUND:                -1.755
REMARK SMILES CCCCCC=CCC=CCCCCCCCC(=O)[O-]
REMARK SMILES IDX 11 1 12 2 13 3 14 4 15 5 16 6 17 7 18 8 19 9 20 10 10 11
REMARK SMILES IDX 9 12 8 13 7 14 6 15 5 16 4 17 3 18 2 19 1 20
REMARK H PARENT
REMARK Flexibility Score: inf
ROOT
ATOM      1  C   UNL     1      46.780  44.722  49.671  1.00  0.00     0.027 C 
ENDROOT
BRANCH   1   2
ATOM      2  C   UNL     1      45.843  45.868  50.094  1.00  0.00     0.004 C 
BRANCH   2   3
ATOM      3  C   UNL     1      46.215  47.231  49.484  1.00  0.00     0.000 C 
BRANCH   3   4
ATOM      4  C   UNL     1      45.950  47.307  47.971  1.00  0.00     0.000 C 
BRANCH   4   5
ATOM      5  C   UNL     1      44.451  47.385  47.638  1.00  0.00     0.000 C 
BRANCH   5   6
ATOM      6  C   UNL     1      43.952  46.151  46.866  1.00  0.00     0.006 C 
BRANCH   6   7
ATOM      7  C   UNL     1      43.365  46.523  45.498  1.00  0.00     0.053 C 
BRANCH   7   8
ATOM      8  C   UNL     1      44.133  45.897  44.374  1.00  0.00     0.041 C 
ATOM      9  O   UNL     1      43.536  45.517  43.333  1.00  0.00    -0.550 OA
ATOM     10  O   UNL     1      45.512  45.761  44.465  1.00  0.00    -0.550 OA
ENDBRANCH   7   8
ENDBRANCH   6   7
ENDBRANCH   5   6
ENDBRANCH   4   5
ENDBRANCH   3   4
ENDBRANCH   2   3
ENDBRANCH   1   2
BRANCH   1  11
ATOM     11  C   UNL     1      46.101  43.722  48.764  1.00  0.00    -0.031 C 
ATOM     12  C   UNL     1      46.491  43.500  47.498  1.00  0.00    -0.027 C 
BRANCH  12  13
ATOM     13  C   UNL     1      47.642  44.233  46.852  1.00  0.00     0.054 C 
BRANCH  13  14
ATOM     14  C   UNL     1      48.748  43.287  46.479  1.00  0.00    -0.027 C 
ATOM     15  C   UNL     1      49.526  42.715  47.412  1.00  0.00    -0.031 C 
BRANCH  15  16
ATOM     16  C   UNL     1      50.626  41.759  47.045  1.00  0.00     0.027 C 
BRANCH  16  17
ATOM     17  C   UNL     1      50.126  40.309  47.049  1.00  0.00     0.004 C 
BRANCH  17  18
ATOM     18  C   UNL     1      50.135  39.721  45.634  1.00  0.00     0.000 C 
BRANCH  18  19
ATOM     19  C   UNL     1      48.741  39.218  45.237  1.00  0.00    -0.003 C 
ATOM     20  C   UNL     1      47.906  40.335  44.619  1.00  0.00     0.004 C 
ENDBRANCH  18  19
ENDBRANCH  17  18
ENDBRANCH  16  17
ENDBRANCH  15  16
ENDBRANCH  13  14
ENDBRANCH  12  13
ENDBRANCH   1  11
TORSDOF 14
ENDMDL
MODEL 8
REMARK VINA RESULT:    -5.396      3.100      6.564
REMARK INTER + INTRA:         -11.567
REMARK INTER:                 -10.058
REMARK INTRA:                  -1.509
REMARK UNBOUND:                -1.755
REMARK SMILES CCCCCC=CCC=CCCCCCCCC(=O)[O-]
REMARK SMILES IDX 11 1 12 2 13 3 14 4 15 5 16 6 17 7 18 8 19 9 20 10 10 11
REMARK SMILES IDX 9 12 8 13 7 14 6 15 5 16 4 17 3 18 2 19 1 20
REMARK H PARENT
REMARK Flexibility Score: inf
ROOT
ATOM      1  C   UNL     1      45.761  44.726  48.702  1.00  0.00     0.027 C 
ENDROOT
BRANCH   1   2
ATOM      2  C   UNL     1      45.944  46.119  49.334  1.00  0.00     0.004 C 
BRANCH   2   3
ATOM      3  C   UNL     1      45.989  47.265  48.307  1.00  0.00     0.000 C 
BRANCH   3   4
ATOM      4  C   UNL     1      45.175  46.967  47.036  1.00  0.00     0.000 C 
BRANCH   4   5
ATOM      5  C   UNL     1      46.053  46.909  45.774  1.00  0.00     0.000 C 
BRANCH   5   6
ATOM      6  C   UNL     1      45.666  45.750  44.838  1.00  0.00     0.006 C 
BRANCH   6   7
ATOM      7  C   UNL     1      44.199  45.830  44.395  1.00  0.00     0.053 C 
BRANCH   7   8
ATOM      8  C   UNL     1      44.001  45.261  43.023  1.00  0.00     0.041 C 
ATOM      9  O   UNL     1      44.947  44.669  42.439  1.00  0.00    -0.550 OA
ATOM     10  O   UNL     1      42.763  45.359  42.402  1.00  0.00    -0.550 OA
ENDBRANCH   7   8
ENDBRANCH   6   7
ENDBRANCH   5   6
ENDBRANCH   4   5
ENDBRANCH   3   4
ENDBRANCH   2   3
ENDBRANCH   1   2
BRANCH   1  11
ATOM     11  C   UNL     1      47.029  43.906  48.729  1.00  0.00    -0.031 C 
ATOM     12  C   UNL     1      47.337  43.003  47.784  1.00  0.00    -0.027 C 
BRANCH  12  13
ATOM     13  C   UNL     1      46.441  42.710  46.605  1.00  0.00     0.054 C 
BRANCH  13  14
ATOM     14  C   UNL     1      46.992  41.590  45.769  1.00  0.00    -0.027 C 
ATOM     15  C   UNL     1      47.762  40.629  46.305  1.00  0.00    -0.031 C 
BRANCH  15  16
ATOM     16  C   UNL     1      48.306  39.499  45.475  1.00  0.00     0.027 C 
BRANCH  16  17
ATOM     17  C   UNL     1      49.224  40.020  44.362  1.00  0.00     0.004 C 
BRANCH  17  18
ATOM     18  C   UNL     1      50.594  40.419  44.923  1.00  0.00     0.000 C 
BRANCH  18  19
ATOM     19  C   UNL     1      51.190  41.592  44.135  1.00  0.00    -0.003 C 
ATOM     20  C   UNL     1      51.452  41.205  42.682  1.00  0.00     0.004 C 
ENDBRANCH  18  19
ENDBRANCH  17  18
ENDBRANCH  16  17
ENDBRANCH  15  16
ENDBRANCH  13  14
ENDBRANCH  12  13
ENDBRANCH   1  11
TORSDOF 14
ENDMDL
MODEL 9
REMARK VINA RESULT:    -5.362      9.822     12.769
REMARK INTER + INTRA:         -11.506
REMARK INTER:                  -9.423
REMARK INTRA:                  -2.082
REMARK UNBOUND:                -1.755
REMARK SMILES CCCCCC=CCC=CCCCCCCCC(=O)[O-]
REMARK SMILES IDX 11 1 12 2 13 3 14 4 15 5 16 6 17 7 18 8 19 9 20 10 10 11
REMARK SMILES IDX 9 12 8 13 7 14 6 15 5 16 4 17 3 18 2 19 1 20
REMARK H PARENT
REMARK Flexibility Score: inf
ROOT
ATOM      1  C   UNL     1      48.130  47.296  35.247  1.00  0.00     0.027 C 
ENDROOT
BRANCH   1   2
ATOM      2  C   UNL     1      48.399  45.782  35.340  1.00  0.00     0.004 C 
BRANCH   2   3
ATOM      3  C   UNL     1      49.148  45.209  34.123  1.00  0.00     0.000 C 
BRANCH   3   4
ATOM      4  C   UNL     1      48.264  45.101  32.868  1.00  0.00     0.000 C 
BRANCH   4   5
ATOM      5  C   UNL     1      48.671  43.928  31.960  1.00  0.00     0.000 C 
BRANCH   5   6
ATOM      6  C   UNL     1      48.556  42.566  32.668  1.00  0.00     0.006 C 
BRANCH   6   7
ATOM      7  C   UNL     1      47.100  42.095  32.782  1.00  0.00     0.053 C 
BRANCH   7   8
ATOM      8  C   UNL     1      46.616  42.125  34.200  1.00  0.00     0.041 C 
ATOM      9  O   UNL     1      45.390  41.992  34.454  1.00  0.00    -0.550 OA
ATOM     10  O   UNL     1      47.523  42.269  35.241  1.00  0.00    -0.550 OA
ENDBRANCH   7   8
ENDBRANCH   6   7
ENDBRANCH   5   6
ENDBRANCH   4   5
ENDBRANCH   3   4
ENDBRANCH   2   3
ENDBRANCH   1   2
BRANCH   1  11
ATOM     11  C   UNL     1      49.395  48.098  35.048  1.00  0.00    -0.031 C 
ATOM     12  C   UNL     1      50.064  48.673  36.060  1.00  0.00    -0.027 C 
BRANCH  12  13
ATOM     13  C   UNL     1      49.614  48.583  37.498  1.00  0.00     0.054 C 
BRANCH  13  14
ATOM     14  C   UNL     1      50.554  47.737  38.309  1.00  0.00    -0.027 C 
ATOM     15  C   UNL     1      50.463  46.398  38.315  1.00  0.00    -0.031 C 
BRANCH  15  16
ATOM     16  C   UNL     1      51.408  45.547  39.117  1.00  0.00     0.027 C 
BRANCH  16  17
ATOM     17  C   UNL     1      52.407  44.819  38.207  1.00  0.00     0.004 C 
BRANCH  17  18
ATOM     18  C   UNL     1      53.629  45.698  37.920  1.00  0.00     0.000 C 
BRANCH  18  19
ATOM     19  C   UNL     1      53.610  46.212  36.475  1.00  0.00    -0.003 C 
ATOM     20  C   UNL     1      52.565  45.476  35.641  1.00  0.00     0.004 C 
ENDBRANCH  18  19
ENDBRANCH  17  18
ENDBRANCH  16  17
ENDBRANCH  15  16
ENDBRANCH  13  14
ENDBRANCH  12  13
ENDBRANCH   1  11
TORSDOF 14
ENDMDL
