MODEL 1
REMARK VINA RESULT:    -5.026      0.000      0.000
REMARK INTER + INTRA:         -14.041
REMARK INTER:                 -10.903
REMARK INTRA:                  -3.138
REMARK UNBOUND:                -3.138
REMARK SMILES CCCCCCCCCCCCCCCCCCCCCC(=O)[O-]
REMARK SMILES IDX 12 1 11 2 10 3 9 4 8 5 7 6 6 7 5 8 4 9 3 10 2 11 1 12 13 13
REMARK SMILES IDX 14 14 15 15 16 16 17 17 18 18 19 19 20 20 21 21 22 22 23 23
REMARK SMILES IDX 24 24
REMARK H PARENT
REMARK Flexibility Score: inf
ROOT
ATOM      1  C   UNL     1      31.288 -10.503  13.698  1.00  0.00     0.000 C 
ENDROOT
BRANCH   1   2
ATOM      2  C   UNL     1      30.871  -9.575  12.543  1.00  0.00     0.000 C 
BRANCH   2   3
ATOM      3  C   UNL     1      31.515  -8.182  12.652  1.00  0.00     0.000 C 
BRANCH   3   4
ATOM      4  C   UNL     1      30.599  -7.065  12.123  1.00  0.00    -0.000 C 
BRANCH   4   5
ATOM      5  C   UNL     1      31.380  -5.921  11.450  1.00  0.00    -0.000 C 
BRANCH   5   6
ATOM      6  C   UNL     1      32.889  -5.901  11.750  1.00  0.00    -0.000 C 
BRANCH   6   7
ATOM      7  C   UNL     1      33.710  -5.225  10.642  1.00  0.00    -0.000 C 
BRANCH   7   8
ATOM      8  C   UNL     1      34.636  -6.238   9.954  1.00  0.00    -0.000 C 
BRANCH   8   9
ATOM      9  C   UNL     1      33.890  -7.180   8.991  1.00  0.00    -0.000 C 
BRANCH   9  10
ATOM     10  C   UNL     1      33.903  -8.665   9.397  1.00  0.00    -0.000 C 
BRANCH  10  11
ATOM     11  C   UNL     1      32.528  -9.335   9.255  1.00  0.00    -0.003 C 
ATOM     12  C   UNL     1      31.498  -8.362   8.687  1.00  0.00     0.004 C 
ENDBRANCH  10  11
ENDBRANCH   9  10
ENDBRANCH   8   9
ENDBRANCH   7   8
ENDBRANCH   6   7
ENDBRANCH   5   6
ENDBRANCH   4   5
ENDBRANCH   3   4
ENDBRANCH   2   3
ENDBRANCH   1   2
BRANCH   1  13
ATOM     13  C   UNL     1      32.286  -9.842  14.665  1.00  0.00     0.000 C 
BRANCH  13  14
ATOM     14  C   UNL     1      31.850  -9.820  16.145  1.00  0.00     0.000 C 
BRANCH  14  15
ATOM     15  C   UNL     1      30.339  -9.990  16.382  1.00  0.00     0.000 C 
BRANCH  15  16
ATOM     16  C   UNL     1      29.553  -8.682  16.187  1.00  0.00     0.000 C 
BRANCH  16  17
ATOM     17  C   UNL     1      28.338  -8.855  15.263  1.00  0.00     0.000 C 
BRANCH  17  18
ATOM     18  C   UNL     1      27.570 -10.162  15.535  1.00  0.00     0.000 C 
BRANCH  18  19
ATOM     19  C   UNL     1      27.203 -10.919  14.247  1.00  0.00     0.000 C 
BRANCH  19  20
ATOM     20  C   UNL     1      27.236 -12.455  14.368  1.00  0.00     0.006 C 
BRANCH  20  21
ATOM     21  C   UNL     1      27.418 -12.936  15.813  1.00  0.00     0.053 C 
BRANCH  21  22
ATOM     22  C   UNL     1      28.670 -13.746  15.939  1.00  0.00     0.041 C 
ATOM     23  O   UNL     1      29.646 -13.307  16.601  1.00  0.00    -0.550 OA
ATOM     24  O   UNL     1      28.743 -15.008  15.361  1.00  0.00    -0.550 OA
ENDBRANCH  21  22
ENDBRANCH  20  21
ENDBRANCH  19  20
ENDBRANCH  18  19
ENDBRANCH  17  18
ENDBRANCH  16  17
ENDBRANCH  15  16
ENDBRANCH  14  15
ENDBRANCH  13  14
ENDBRANCH   1  13
TORSDOF 20
ENDMDL
MODEL 2
REMARK VINA RESULT:    -4.906      1.387      2.528
REMARK INTER + INTRA:         -13.781
REMARK INTER:                 -10.631
REMARK INTRA:                  -3.150
REMARK UNBOUND:                -3.138
REMARK SMILES CCCCCCCCCCCCCCCCCCCCCC(=O)[O-]
REMARK SMILES IDX 12 1 11 2 10 3 9 4 8 5 7 6 6 7 5 8 4 9 3 10 2 11 1 12 13 13
REMARK SMILES IDX 14 14 15 15 16 16 17 17 18 18 19 19 20 20 21 21 22 22 23 23
REMARK SMILES IDX 24 24
REMARK H PARENT
REMARK Flexibility Score: inf
ROOT
ATOM      1  C   UNL     1      31.416  -8.685  12.154  1.00  0.00     0.000 C 
ENDROOT
BRANCH   1   2
ATOM      2  C   UNL     1      30.651  -7.359  12.311  1.00  0.00     0.000 C 
BRANCH   2   3
ATOM      3  C   UNL     1      31.074  -6.314  11.265  1.00  0.00     0.000 C 
BRANCH   3   4
ATOM      4  C   UNL     1      32.266  -5.461  11.731  1.00  0.00    -0.000 C 
BRANCH   4   5
ATOM      5  C   UNL     1      33.326  -5.265  10.631  1.00  0.00    -0.000 C 
BRANCH   5   6
ATOM      6  C   UNL     1      33.102  -6.099   9.357  1.00  0.00    -0.000 C 
BRANCH   6   7
ATOM      7  C   UNL     1      34.083  -7.274   9.233  1.00  0.00    -0.000 C 
BRANCH   7   8
ATOM      8  C   UNL     1      35.149  -7.215  10.337  1.00  0.00    -0.000 C 
BRANCH   8   9
ATOM      9  C   UNL     1      35.000  -8.338  11.380  1.00  0.00    -0.000 C 
BRANCH   9  10
ATOM     10  C   UNL     1      34.942  -7.861  12.842  1.00  0.00    -0.000 C 
BRANCH  10  11
ATOM     11  C   UNL     1      34.746  -9.011  13.840  1.00  0.00    -0.003 C 
ATOM     12  C   UNL     1      34.839 -10.366  13.141  1.00  0.00     0.004 C 
ENDBRANCH  10  11
ENDBRANCH   9  10
ENDBRANCH   8   9
ENDBRANCH   7   8
ENDBRANCH   6   7
ENDBRANCH   5   6
ENDBRANCH   4   5
ENDBRANCH   3   4
ENDBRANCH   2   3
ENDBRANCH   1   2
BRANCH   1  13
ATOM     13  C   UNL     1      30.642  -9.892  12.713  1.00  0.00     0.000 C 
BRANCH  13  14
ATOM     14  C   UNL     1      31.199 -10.478  14.026  1.00  0.00     0.000 C 
BRANCH  14  15
ATOM     15  C   UNL     1      31.363  -9.466  15.175  1.00  0.00     0.000 C 
BRANCH  15  16
ATOM     16  C   UNL     1      30.389  -9.719  16.338  1.00  0.00     0.000 C 
BRANCH  16  17
ATOM     17  C   UNL     1      29.059  -8.970  16.168  1.00  0.00     0.000 C 
BRANCH  17  18
ATOM     18  C   UNL     1      27.856  -9.924  16.041  1.00  0.00     0.000 C 
BRANCH  18  19
ATOM     19  C   UNL     1      27.519 -10.271  14.580  1.00  0.00     0.000 C 
BRANCH  19  20
ATOM     20  C   UNL     1      27.252 -11.765  14.316  1.00  0.00     0.006 C 
BRANCH  20  21
ATOM     21  C   UNL     1      27.819 -12.676  15.412  1.00  0.00     0.053 C 
BRANCH  21  22
ATOM     22  C   UNL     1      28.132 -14.030  14.855  1.00  0.00     0.041 C 
ATOM     23  O   UNL     1      28.769 -14.868  15.545  1.00  0.00    -0.550 OA
ATOM     24  O   UNL     1      27.680 -14.382  13.589  1.00  0.00    -0.550 OA
ENDBRANCH  21  22
ENDBRANCH  20  21
ENDBRANCH  19  20
ENDBRANCH  18  19
ENDBRANCH  17  18
ENDBRANCH  16  17
ENDBRANCH  15  16
ENDBRANCH  14  15
ENDBRANCH  13  14
ENDBRANCH   1  13
TORSDOF 20
ENDMDL
MODEL 3
REMARK VINA RESULT:    -4.836      2.626      7.367
REMARK INTER + INTRA:         -13.627
REMARK INTER:                 -10.005
REMARK INTRA:                  -3.622
REMARK UNBOUND:                -3.138
REMARK SMILES CCCCCCCCCCCCCCCCCCCCCC(=O)[O-]
REMARK SMILES IDX 12 1 11 2 10 3 9 4 8 5 7 6 6 7 5 8 4 9 3 10 2 11 1 12 13 13
REMARK SMILES IDX 14 14 15 15 16 16 17 17 18 18 19 19 20 20 21 21 22 22 23 23
REMARK SMILES IDX 24 24
REMARK H PARENT
REMARK Flexibility Score: inf
ROOT
ATOM      1  C   UNL     1      31.673 -10.434  12.950  1.00  0.00     0.000 C 
ENDROOT
BRANCH   1   2
ATOM      2  C   UNL     1      31.913 -10.068  14.425  1.00  0.00     0.000 C 
BRANCH   2   3
ATOM      3  C   UNL     1      31.641 -11.250  15.370  1.00  0.00     0.000 C 
BRANCH   3   4
ATOM      4  C   UNL     1      30.939 -10.817  16.669  1.00  0.00    -0.000 C 
BRANCH   4   5
ATOM      5  C   UNL     1      30.560  -9.326  16.675  1.00  0.00    -0.000 C 
BRANCH   5   6
ATOM      6  C   UNL     1      29.054  -9.039  16.816  1.00  0.00    -0.000 C 
BRANCH   6   7
ATOM      7  C   UNL     1      28.313  -9.055  15.471  1.00  0.00    -0.000 C 
BRANCH   7   8
ATOM      8  C   UNL     1      27.452 -10.319  15.337  1.00  0.00    -0.000 C 
BRANCH   8   9
ATOM      9  C   UNL     1      27.650 -11.044  13.993  1.00  0.00    -0.000 C 
BRANCH   9  10
ATOM     10  C   UNL     1      28.393 -12.389  14.085  1.00  0.00    -0.000 C 
BRANCH  10  11
ATOM     11  C   UNL     1      28.187 -13.095  15.432  1.00  0.00    -0.003 C 
ATOM     12  C   UNL     1      28.459 -14.593  15.314  1.00  0.00     0.004 C 
ENDBRANCH  10  11
ENDBRANCH   9  10
ENDBRANCH   8   9
ENDBRANCH   7   8
ENDBRANCH   6   7
ENDBRANCH   5   6
ENDBRANCH   4   5
ENDBRANCH   3   4
ENDBRANCH   2   3
ENDBRANCH   1   2
BRANCH   1  13
ATOM     13  C   UNL     1      30.966  -9.314  12.164  1.00  0.00     0.000 C 
BRANCH  13  14
ATOM     14  C   UNL     1      30.807  -7.980  12.921  1.00  0.00     0.000 C 
BRANCH  14  15
ATOM     15  C   UNL     1      30.522  -6.755  12.033  1.00  0.00     0.000 C 
BRANCH  15  16
ATOM     16  C   UNL     1      31.348  -6.753  10.736  1.00  0.00     0.000 C 
BRANCH  16  17
ATOM     17  C   UNL     1      32.312  -5.561  10.652  1.00  0.00     0.000 C 
BRANCH  17  18
ATOM     18  C   UNL     1      33.661  -5.937  10.010  1.00  0.00     0.000 C 
BRANCH  18  19
ATOM     19  C   UNL     1      34.186  -7.305  10.478  1.00  0.00     0.000 C 
BRANCH  19  20
ATOM     20  C   UNL     1      35.151  -7.251  11.678  1.00  0.00     0.006 C 
BRANCH  20  21
ATOM     21  C   UNL     1      34.524  -7.784  12.973  1.00  0.00     0.053 C 
BRANCH  21  22
ATOM     22  C   UNL     1      35.179  -9.067  13.379  1.00  0.00     0.041 C 
ATOM     23  O   UNL     1      35.656  -9.197  14.537  1.00  0.00    -0.550 OA
ATOM     24  O   UNL     1      35.225 -10.136  12.492  1.00  0.00    -0.550 OA
ENDBRANCH  21  22
ENDBRANCH  20  21
ENDBRANCH  19  20
ENDBRANCH  18  19
ENDBRANCH  17  18
ENDBRANCH  16  17
ENDBRANCH  15  16
ENDBRANCH  14  15
ENDBRANCH  13  14
ENDBRANCH   1  13
TORSDOF 20
ENDMDL
MODEL 4
REMARK VINA RESULT:    -4.768      1.651      2.951
REMARK INTER + INTRA:         -13.481
REMARK INTER:                 -10.676
REMARK INTRA:                  -2.805
REMARK UNBOUND:                -3.138
REMARK SMILES CCCCCCCCCCCCCCCCCCCCCC(=O)[O-]
REMARK SMILES IDX 12 1 11 2 10 3 9 4 8 5 7 6 6 7 5 8 4 9 3 10 2 11 1 12 13 13
REMARK SMILES IDX 14 14 15 15 16 16 17 17 18 18 19 19 20 20 21 21 22 22 23 23
REMARK SMILES IDX 24 24
REMARK H PARENT
REMARK Flexibility Score: inf
ROOT
ATOM      1  C   UNL     1      30.936  -9.266  13.542  1.00  0.00     0.000 C 
ENDROOT
BRANCH   1   2
ATOM      2  C   UNL     1      31.414  -8.387  12.374  1.00  0.00     0.000 C 
BRANCH   2   3
ATOM      3  C   UNL     1      30.575  -7.106  12.227  1.00  0.00     0.000 C 
BRANCH   3   4
ATOM      4  C   UNL     1      31.321  -5.995  11.469  1.00  0.00    -0.000 C 
BRANCH   4   5
ATOM      5  C   UNL     1      32.837  -6.004  11.736  1.00  0.00    -0.000 C 
BRANCH   5   6
ATOM      6  C   UNL     1      33.684  -5.242  10.699  1.00  0.00    -0.000 C 
BRANCH   6   7
ATOM      7  C   UNL     1      34.769  -6.117  10.055  1.00  0.00    -0.000 C 
BRANCH   7   8
ATOM      8  C   UNL     1      34.345  -7.593  10.045  1.00  0.00    -0.000 C 
BRANCH   8   9
ATOM      9  C   UNL     1      33.685  -8.022   8.721  1.00  0.00    -0.000 C 
BRANCH   9  10
ATOM     10  C   UNL     1      32.222  -8.485   8.846  1.00  0.00    -0.000 C 
BRANCH  10  11
ATOM     11  C   UNL     1      31.279  -7.759   7.876  1.00  0.00    -0.003 C 
ATOM     12  C   UNL     1      31.654  -6.284   7.746  1.00  0.00     0.004 C 
ENDBRANCH  10  11
ENDBRANCH   9  10
ENDBRANCH   8   9
ENDBRANCH   7   8
ENDBRANCH   6   7
ENDBRANCH   5   6
ENDBRANCH   4   5
ENDBRANCH   3   4
ENDBRANCH   2   3
ENDBRANCH   1   2
BRANCH   1  13
ATOM     13  C   UNL     1      29.894  -8.564  14.432  1.00  0.00     0.000 C 
BRANCH  13  14
ATOM     14  C   UNL     1      28.636  -9.398  14.752  1.00  0.00     0.000 C 
BRANCH  14  15
ATOM     15  C   UNL     1      28.494 -10.700  13.944  1.00  0.00     0.000 C 
BRANCH  15  16
ATOM     16  C   UNL     1      27.388 -11.622  14.487  1.00  0.00     0.000 C 
BRANCH  16  17
ATOM     17  C   UNL     1      27.657 -13.105  14.191  1.00  0.00     0.000 C 
BRANCH  17  18
ATOM     18  C   UNL     1      27.932 -13.921  15.468  1.00  0.00     0.000 C 
BRANCH  18  19
ATOM     19  C   UNL     1      28.690 -13.118  16.539  1.00  0.00     0.000 C 
BRANCH  19  20
ATOM     20  C   UNL     1      30.224 -13.132  16.393  1.00  0.00     0.006 C 
BRANCH  20  21
ATOM     21  C   UNL     1      30.851 -11.740  16.543  1.00  0.00     0.053 C 
BRANCH  21  22
ATOM     22  C   UNL     1      32.343 -11.843  16.582  1.00  0.00     0.041 C 
ATOM     23  O   UNL     1      32.983 -11.425  17.583  1.00  0.00    -0.550 OA
ATOM     24  O   UNL     1      33.028 -12.440  15.530  1.00  0.00    -0.550 OA
ENDBRANCH  21  22
ENDBRANCH  20  21
ENDBRANCH  19  20
ENDBRANCH  18  19
ENDBRANCH  17  18
ENDBRANCH  16  17
ENDBRANCH  15  16
ENDBRANCH  14  15
ENDBRANCH  13  14
ENDBRANCH   1  13
TORSDOF 20
ENDMDL
MODEL 5
REMARK VINA RESULT:    -4.685      2.056      3.783
REMARK INTER + INTRA:         -13.301
REMARK INTER:                 -10.796
REMARK INTRA:                  -2.505
REMARK UNBOUND:                -3.138
REMARK SMILES CCCCCCCCCCCCCCCCCCCCCC(=O)[O-]
REMARK SMILES IDX 12 1 11 2 10 3 9 4 8 5 7 6 6 7 5 8 4 9 3 10 2 11 1 12 13 13
REMARK SMILES IDX 14 14 15 15 16 16 17 17 18 18 19 19 20 20 21 21 22 22 23 23
REMARK SMILES IDX 24 24
REMARK H PARENT
REMARK Flexibility Score: inf
ROOT
ATOM      1  C   UNL     1      31.032 -10.477  13.176  1.00  0.00     0.000 C 
ENDROOT
BRANCH   1   2
ATOM      2  C   UNL     1      31.321  -8.966  13.173  1.00  0.00     0.000 C 
BRANCH   2   3
ATOM      3  C   UNL     1      31.027  -8.319  11.808  1.00  0.00     0.000 C 
BRANCH   3   4
ATOM      4  C   UNL     1      30.668  -6.828  11.927  1.00  0.00    -0.000 C 
BRANCH   4   5
ATOM      5  C   UNL     1      31.536  -5.931  11.027  1.00  0.00    -0.000 C 
BRANCH   5   6
ATOM      6  C   UNL     1      32.724  -5.255  11.735  1.00  0.00    -0.000 C 
BRANCH   6   7
ATOM      7  C   UNL     1      33.970  -5.150  10.845  1.00  0.00    -0.000 C 
BRANCH   7   8
ATOM      8  C   UNL     1      34.220  -6.469  10.098  1.00  0.00    -0.000 C 
BRANCH   8   9
ATOM      9  C   UNL     1      34.653  -7.616  11.029  1.00  0.00    -0.000 C 
BRANCH   9  10
ATOM     10  C   UNL     1      35.932  -7.344  11.842  1.00  0.00    -0.000 C 
BRANCH  10  11
ATOM     11  C   UNL     1      37.179  -7.189  10.961  1.00  0.00    -0.003 C 
ATOM     12  C   UNL     1      38.203  -6.264  11.616  1.00  0.00     0.004 C 
ENDBRANCH  10  11
ENDBRANCH   9  10
ENDBRANCH   8   9
ENDBRANCH   7   8
ENDBRANCH   6   7
ENDBRANCH   5   6
ENDBRANCH   4   5
ENDBRANCH   3   4
ENDBRANCH   2   3
ENDBRANCH   1   2
BRANCH   1  13
ATOM     13  C   UNL     1      29.530 -10.799  13.276  1.00  0.00     0.000 C 
BRANCH  13  14
ATOM     14  C   UNL     1      28.761 -10.014  14.358  1.00  0.00     0.000 C 
BRANCH  14  15
ATOM     15  C   UNL     1      27.367 -10.570  14.701  1.00  0.00     0.000 C 
BRANCH  15  16
ATOM     16  C   UNL     1      27.230 -12.070  14.391  1.00  0.00     0.000 C 
BRANCH  16  17
ATOM     17  C   UNL     1      27.315 -12.944  15.651  1.00  0.00     0.000 C 
BRANCH  17  18
ATOM     18  C   UNL     1      28.713 -13.561  15.848  1.00  0.00     0.000 C 
BRANCH  18  19
ATOM     19  C   UNL     1      29.577 -12.778  16.850  1.00  0.00     0.000 C 
BRANCH  19  20
ATOM     20  C   UNL     1      30.973 -12.383  16.331  1.00  0.00     0.006 C 
BRANCH  20  21
ATOM     21  C   UNL     1      31.376 -10.957  16.727  1.00  0.00     0.053 C 
BRANCH  21  22
ATOM     22  C   UNL     1      32.815 -10.917  17.137  1.00  0.00     0.041 C 
ATOM     23  O   UNL     1      33.313 -11.867  17.797  1.00  0.00    -0.550 OA
ATOM     24  O   UNL     1      33.619  -9.850  16.753  1.00  0.00    -0.550 OA
ENDBRANCH  21  22
ENDBRANCH  20  21
ENDBRANCH  19  20
ENDBRANCH  18  19
ENDBRANCH  17  18
ENDBRANCH  16  17
ENDBRANCH  15  16
ENDBRANCH  14  15
ENDBRANCH  13  14
ENDBRANCH   1  13
TORSDOF 20
ENDMDL
MODEL 6
REMARK VINA RESULT:    -4.645      1.304      3.259
REMARK INTER + INTRA:         -13.213
REMARK INTER:                  -9.593
REMARK INTRA:                  -3.621
REMARK UNBOUND:                -3.138
REMARK SMILES CCCCCCCCCCCCCCCCCCCCCC(=O)[O-]
REMARK SMILES IDX 12 1 11 2 10 3 9 4 8 5 7 6 6 7 5 8 4 9 3 10 2 11 1 12 13 13
REMARK SMILES IDX 14 14 15 15 16 16 17 17 18 18 19 19 20 20 21 21 22 22 23 23
REMARK SMILES IDX 24 24
REMARK H PARENT
REMARK Flexibility Score: inf
ROOT
ATOM      1  C   UNL     1      30.916  -7.333  12.296  1.00  0.00     0.000 C 
ENDROOT
BRANCH   1   2
ATOM      2  C   UNL     1      31.354  -6.384  11.166  1.00  0.00     0.000 C 
BRANCH   2   3
ATOM      3  C   UNL     1      32.267  -5.256  11.674  1.00  0.00     0.000 C 
BRANCH   3   4
ATOM      4  C   UNL     1      33.597  -5.181  10.904  1.00  0.00    -0.000 C 
BRANCH   4   5
ATOM      5  C   UNL     1      34.525  -6.374  11.198  1.00  0.00    -0.000 C 
BRANCH   5   6
ATOM      6  C   UNL     1      35.088  -7.081   9.951  1.00  0.00    -0.000 C 
BRANCH   6   7
ATOM      7  C   UNL     1      35.118  -8.610  10.094  1.00  0.00    -0.000 C 
BRANCH   7   8
ATOM      8  C   UNL     1      33.964  -9.254   9.310  1.00  0.00    -0.000 C 
BRANCH   8   9
ATOM      9  C   UNL     1      33.180  -8.243   8.453  1.00  0.00    -0.000 C 
BRANCH   9  10
ATOM     10  C   UNL     1      31.705  -8.610   8.205  1.00  0.00    -0.000 C 
BRANCH  10  11
ATOM     11  C   UNL     1      31.001  -7.643   7.243  1.00  0.00    -0.003 C 
ATOM     12  C   UNL     1      31.491  -6.211   7.448  1.00  0.00     0.004 C 
ENDBRANCH  10  11
ENDBRANCH   9  10
ENDBRANCH   8   9
ENDBRANCH   7   8
ENDBRANCH   6   7
ENDBRANCH   5   6
ENDBRANCH   4   5
ENDBRANCH   3   4
ENDBRANCH   2   3
ENDBRANCH   1   2
BRANCH   1  13
ATOM     13  C   UNL     1      31.022  -8.818  11.904  1.00  0.00     0.000 C 
BRANCH  13  14
ATOM     14  C   UNL     1      32.316  -9.525  12.356  1.00  0.00     0.000 C 
BRANCH  14  15
ATOM     15  C   UNL     1      32.951  -8.964  13.641  1.00  0.00     0.000 C 
BRANCH  15  16
ATOM     16  C   UNL     1      32.986  -9.990  14.787  1.00  0.00     0.000 C 
BRANCH  16  17
ATOM     17  C   UNL     1      31.583 -10.448  15.213  1.00  0.00     0.000 C 
BRANCH  17  18
ATOM     18  C   UNL     1      30.947  -9.509  16.255  1.00  0.00     0.000 C 
BRANCH  18  19
ATOM     19  C   UNL     1      29.818  -8.643  15.671  1.00  0.00     0.000 C 
BRANCH  19  20
ATOM     20  C   UNL     1      28.755  -9.420  14.870  1.00  0.00     0.006 C 
BRANCH  20  21
ATOM     21  C   UNL     1      27.741 -10.141  15.767  1.00  0.00     0.053 C 
BRANCH  21  22
ATOM     22  C   UNL     1      27.823 -11.621  15.560  1.00  0.00     0.041 C 
ATOM     23  O   UNL     1      27.181 -12.168  14.625  1.00  0.00    -0.550 OA
ATOM     24  O   UNL     1      28.642 -12.393  16.375  1.00  0.00    -0.550 OA
ENDBRANCH  21  22
ENDBRANCH  20  21
ENDBRANCH  19  20
ENDBRANCH  18  19
ENDBRANCH  17  18
ENDBRANCH  16  17
ENDBRANCH  15  16
ENDBRANCH  14  15
ENDBRANCH  13  14
ENDBRANCH   1  13
TORSDOF 20
ENDMDL
MODEL 7
REMARK VINA RESULT:    -4.641      1.127      2.133
REMARK INTER + INTRA:         -13.205
REMARK INTER:                 -10.130
REMARK INTRA:                  -3.074
REMARK UNBOUND:                -3.138
REMARK SMILES CCCCCCCCCCCCCCCCCCCCCC(=O)[O-]
REMARK SMILES IDX 12 1 11 2 10 3 9 4 8 5 7 6 6 7 5 8 4 9 3 10 2 11 1 12 13 13
REMARK SMILES IDX 14 14 15 15 16 16 17 17 18 18 19 19 20 20 21 21 22 22 23 23
REMARK SMILES IDX 24 24
REMARK H PARENT
REMARK Flexibility Score: inf
ROOT
ATOM      1  C   UNL     1      30.988  -7.156  12.517  1.00  0.00     0.000 C 
ENDROOT
BRANCH   1   2
ATOM      2  C   UNL     1      30.934  -6.932  10.995  1.00  0.00     0.000 C 
BRANCH   2   3
ATOM      3  C   UNL     1      31.781  -5.727  10.552  1.00  0.00     0.000 C 
BRANCH   3   4
ATOM      4  C   UNL     1      32.871  -5.364  11.575  1.00  0.00    -0.000 C 
BRANCH   4   5
ATOM      5  C   UNL     1      34.260  -5.901  11.184  1.00  0.00    -0.000 C 
BRANCH   5   6
ATOM      6  C   UNL     1      34.709  -7.159  11.950  1.00  0.00    -0.000 C 
BRANCH   6   7
ATOM      7  C   UNL     1      34.379  -8.461  11.205  1.00  0.00    -0.000 C 
BRANCH   7   8
ATOM      8  C   UNL     1      35.199  -8.573   9.912  1.00  0.00    -0.000 C 
BRANCH   8   9
ATOM      9  C   UNL     1      34.385  -9.126   8.727  1.00  0.00    -0.000 C 
BRANCH   9  10
ATOM     10  C   UNL     1      33.124  -8.317   8.374  1.00  0.00    -0.000 C 
BRANCH  10  11
ATOM     11  C   UNL     1      31.890  -9.201   8.146  1.00  0.00    -0.003 C 
ATOM     12  C   UNL     1      31.636 -10.110   9.346  1.00  0.00     0.004 C 
ENDBRANCH  10  11
ENDBRANCH   9  10
ENDBRANCH   8   9
ENDBRANCH   7   8
ENDBRANCH   6   7
ENDBRANCH   5   6
ENDBRANCH   4   5
ENDBRANCH   3   4
ENDBRANCH   2   3
ENDBRANCH   1   2
BRANCH   1  13
ATOM     13  C   UNL     1      30.614  -8.592  12.924  1.00  0.00     0.000 C 
BRANCH  13  14
ATOM     14  C   UNL     1      31.696  -9.353  13.717  1.00  0.00     0.000 C 
BRANCH  14  15
ATOM     15  C   UNL     1      31.431  -9.477  15.228  1.00  0.00     0.000 C 
BRANCH  15  16
ATOM     16  C   UNL     1      30.112  -8.815  15.660  1.00  0.00     0.000 C 
BRANCH  16  17
ATOM     17  C   UNL     1      29.190  -9.778  16.423  1.00  0.00     0.000 C 
BRANCH  17  18
ATOM     18  C   UNL     1      27.750  -9.773  15.877  1.00  0.00     0.000 C 
BRANCH  18  19
ATOM     19  C   UNL     1      27.642 -10.381  14.468  1.00  0.00     0.000 C 
BRANCH  19  20
ATOM     20  C   UNL     1      27.152 -11.841  14.430  1.00  0.00     0.006 C 
BRANCH  20  21
ATOM     21  C   UNL     1      28.297 -12.852  14.284  1.00  0.00     0.053 C 
BRANCH  21  22
ATOM     22  C   UNL     1      28.411 -13.691  15.518  1.00  0.00     0.041 C 
ATOM     23  O   UNL     1      28.095 -13.215  16.641  1.00  0.00    -0.550 OA
ATOM     24  O   UNL     1      28.826 -15.014  15.425  1.00  0.00    -0.550 OA
ENDBRANCH  21  22
ENDBRANCH  20  21
ENDBRANCH  19  20
ENDBRANCH  18  19
ENDBRANCH  17  18
ENDBRANCH  16  17
ENDBRANCH  15  16
ENDBRANCH  14  15
ENDBRANCH  13  14
ENDBRANCH   1  13
TORSDOF 20
ENDMDL
MODEL 8
REMARK VINA RESULT:    -4.605      1.502      2.940
REMARK INTER + INTRA:         -13.128
REMARK INTER:                 -10.222
REMARK INTRA:                  -2.906
REMARK UNBOUND:                -3.138
REMARK SMILES CCCCCCCCCCCCCCCCCCCCCC(=O)[O-]
REMARK SMILES IDX 12 1 11 2 10 3 9 4 8 5 7 6 6 7 5 8 4 9 3 10 2 11 1 12 13 13
REMARK SMILES IDX 14 14 15 15 16 16 17 17 18 18 19 19 20 20 21 21 22 22 23 23
REMARK SMILES IDX 24 24
REMARK H PARENT
REMARK Flexibility Score: inf
ROOT
ATOM      1  C   UNL     1      31.402  -9.305  10.313  1.00  0.00     0.000 C 
ENDROOT
BRANCH   1   2
ATOM      2  C   UNL     1      31.370  -7.802   9.989  1.00  0.00     0.000 C 
BRANCH   2   3
ATOM      3  C   UNL     1      31.039  -6.946  11.223  1.00  0.00     0.000 C 
BRANCH   3   4
ATOM      4  C   UNL     1      32.026  -5.783  11.417  1.00  0.00    -0.000 C 
BRANCH   4   5
ATOM      5  C   UNL     1      33.004  -5.625  10.239  1.00  0.00    -0.000 C 
BRANCH   5   6
ATOM      6  C   UNL     1      34.473  -5.951  10.565  1.00  0.00    -0.000 C 
BRANCH   6   7
ATOM      7  C   UNL     1      34.941  -7.278   9.951  1.00  0.00    -0.000 C 
BRANCH   7   8
ATOM      8  C   UNL     1      35.460  -8.230  11.040  1.00  0.00    -0.000 C 
BRANCH   8   9
ATOM      9  C   UNL     1      35.562  -7.564  12.424  1.00  0.00    -0.000 C 
BRANCH   9  10
ATOM     10  C   UNL     1      34.693  -8.208  13.520  1.00  0.00    -0.000 C 
BRANCH  10  11
ATOM     11  C   UNL     1      34.946  -9.715  13.675  1.00  0.00    -0.003 C 
ATOM     12  C   UNL     1      34.860 -10.138  15.140  1.00  0.00     0.004 C 
ENDBRANCH  10  11
ENDBRANCH   9  10
ENDBRANCH   8   9
ENDBRANCH   7   8
ENDBRANCH   6   7
ENDBRANCH   5   6
ENDBRANCH   4   5
ENDBRANCH   3   4
ENDBRANCH   2   3
ENDBRANCH   1   2
BRANCH   1  13
ATOM     13  C   UNL     1      31.917  -9.600  11.734  1.00  0.00     0.000 C 
BRANCH  13  14
ATOM     14  C   UNL     1      30.856 -10.128  12.720  1.00  0.00     0.000 C 
BRANCH  14  15
ATOM     15  C   UNL     1      30.940  -9.547  14.143  1.00  0.00     0.000 C 
BRANCH  15  16
ATOM     16  C   UNL     1      29.625  -8.895  14.601  1.00  0.00     0.000 C 
BRANCH  16  17
ATOM     17  C   UNL     1      29.117  -9.462  15.935  1.00  0.00     0.000 C 
BRANCH  17  18
ATOM     18  C   UNL     1      27.683 -10.015  15.834  1.00  0.00     0.000 C 
BRANCH  18  19
ATOM     19  C   UNL     1      27.393 -10.683  14.479  1.00  0.00     0.000 C 
BRANCH  19  20
ATOM     20  C   UNL     1      27.332 -12.222  14.516  1.00  0.00     0.006 C 
BRANCH  20  21
ATOM     21  C   UNL     1      27.485 -12.791  15.932  1.00  0.00     0.053 C 
BRANCH  21  22
ATOM     22  C   UNL     1      28.753 -13.578  16.043  1.00  0.00     0.041 C 
ATOM     23  O   UNL     1      28.830 -14.731  15.543  1.00  0.00    -0.550 OA
ATOM     24  O   UNL     1      29.866 -13.021  16.662  1.00  0.00    -0.550 OA
ENDBRANCH  21  22
ENDBRANCH  20  21
ENDBRANCH  19  20
ENDBRANCH  18  19
ENDBRANCH  17  18
ENDBRANCH  16  17
ENDBRANCH  15  16
ENDBRANCH  14  15
ENDBRANCH  13  14
ENDBRANCH   1  13
TORSDOF 20
ENDMDL
MODEL 9
REMARK VINA RESULT:    -4.582      2.264      3.861
REMARK INTER + INTRA:         -13.077
REMARK INTER:                  -9.360
REMARK INTRA:                  -3.717
REMARK UNBOUND:                -3.138
REMARK SMILES CCCCCCCCCCCCCCCCCCCCCC(=O)[O-]
REMARK SMILES IDX 12 1 11 2 10 3 9 4 8 5 7 6 6 7 5 8 4 9 3 10 2 11 1 12 13 13
REMARK SMILES IDX 14 14 15 15 16 16 17 17 18 18 19 19 20 20 21 21 22 22 23 23
REMARK SMILES IDX 24 24
REMARK H PARENT
REMARK Flexibility Score: inf
ROOT
ATOM      1  C   UNL     1      30.625  -7.726  12.755  1.00  0.00     0.000 C 
ENDROOT
BRANCH   1   2
ATOM      2  C   UNL     1      31.001  -6.711  11.662  1.00  0.00     0.000 C 
BRANCH   2   3
ATOM      3  C   UNL     1      32.476  -6.284  11.746  1.00  0.00     0.000 C 
BRANCH   3   4
ATOM      4  C   UNL     1      33.057  -5.896  10.375  1.00  0.00    -0.000 C 
BRANCH   4   5
ATOM      5  C   UNL     1      32.076  -6.150   9.216  1.00  0.00    -0.000 C 
BRANCH   5   6
ATOM      6  C   UNL     1      32.728  -6.635   7.909  1.00  0.00    -0.000 C 
BRANCH   6   7
ATOM      7  C   UNL     1      32.084  -7.916   7.359  1.00  0.00    -0.000 C 
BRANCH   7   8
ATOM      8  C   UNL     1      31.375  -8.693   8.477  1.00  0.00    -0.000 C 
BRANCH   8   9
ATOM      9  C   UNL     1      32.039 -10.048   8.785  1.00  0.00    -0.000 C 
BRANCH   9  10
ATOM     10  C   UNL     1      32.948 -10.057  10.028  1.00  0.00    -0.000 C 
BRANCH  10  11
ATOM     11  C   UNL     1      34.320  -9.416   9.770  1.00  0.00    -0.003 C 
ATOM     12  C   UNL     1      34.996  -9.020  11.080  1.00  0.00     0.004 C 
ENDBRANCH  10  11
ENDBRANCH   9  10
ENDBRANCH   8   9
ENDBRANCH   7   8
ENDBRANCH   6   7
ENDBRANCH   5   6
ENDBRANCH   4   5
ENDBRANCH   3   4
ENDBRANCH   2   3
ENDBRANCH   1   2
BRANCH   1  13
ATOM     13  C   UNL     1      31.774  -8.692  13.095  1.00  0.00     0.000 C 
BRANCH  13  14
ATOM     14  C   UNL     1      31.378 -10.181  13.177  1.00  0.00     0.000 C 
BRANCH  14  15
ATOM     15  C   UNL     1      29.896 -10.479  12.885  1.00  0.00     0.000 C 
BRANCH  15  16
ATOM     16  C   UNL     1      29.207 -11.250  14.024  1.00  0.00     0.000 C 
BRANCH  16  17
ATOM     17  C   UNL     1      27.933 -10.553  14.523  1.00  0.00     0.000 C 
BRANCH  17  18
ATOM     18  C   UNL     1      28.227  -9.205  15.208  1.00  0.00     0.000 C 
BRANCH  18  19
ATOM     19  C   UNL     1      28.924  -9.367  16.570  1.00  0.00     0.000 C 
BRANCH  19  20
ATOM     20  C   UNL     1      30.393  -8.904  16.604  1.00  0.00     0.006 C 
BRANCH  20  21
ATOM     21  C   UNL     1      31.382 -10.067  16.753  1.00  0.00     0.053 C 
BRANCH  21  22
ATOM     22  C   UNL     1      32.447  -9.721  17.746  1.00  0.00     0.041 C 
ATOM     23  O   UNL     1      33.645 -10.046  17.532  1.00  0.00    -0.550 OA
ATOM     24  O   UNL     1      32.125  -9.000  18.890  1.00  0.00    -0.550 OA
ENDBRANCH  21  22
ENDBRANCH  20  21
ENDBRANCH  19  20
ENDBRANCH  18  19
ENDBRANCH  17  18
ENDBRANCH  16  17
ENDBRANCH  15  16
ENDBRANCH  14  15
ENDBRANCH  13  14
ENDBRANCH   1  13
TORSDOF 20
ENDMDL
