MODEL 1
REMARK VINA RESULT:    -5.238      0.000      0.000
REMARK INTER + INTRA:          -6.050
REMARK INTER:                  -6.003
REMARK INTRA:                  -0.046
REMARK UNBOUND:                -0.046
REMARK SMILES O=C([O-])c1cc(O)c(O)c(O)c1
REMARK SMILES IDX 4 1 5 2 12 3 6 4 10 5 8 6 2 7 1 8 3 9 7 10 11 12 9 14
REMARK H PARENT 7 11 11 13 9 15
REMARK Flexibility Score: inf
ROOT
ATOM      1  C   UNL     1      31.581  18.815  18.298  1.00  0.00     0.005 A 
ATOM      2  C   UNL     1      30.892  20.012  18.545  1.00  0.00     0.060 A 
ATOM      3  C   UNL     1      32.145  18.603  17.030  1.00  0.00     0.060 A 
ATOM      4  C   UNL     1      30.765  20.982  17.546  1.00  0.00     0.162 A 
ATOM      5  C   UNL     1      32.027  19.565  16.019  1.00  0.00     0.162 A 
ATOM      6  C   UNL     1      31.330  20.770  16.276  1.00  0.00     0.200 A 
ENDROOT
BRANCH   1   7
ATOM      7  C   UNL     1      31.715  17.788  19.356  1.00  0.00     0.072 C 
ATOM      8  O   UNL     1      30.694  17.236  19.845  1.00  0.00    -0.545 OA
ATOM      9  O   UNL     1      32.971  17.418  19.824  1.00  0.00    -0.545 OA
ENDBRANCH   1   7
BRANCH   4  10
ATOM     10  O   UNL     1      30.071  22.156  17.839  1.00  0.00    -0.504 OA
ATOM     11  H   UNL     1      30.533  22.984  18.196  1.00  0.00     0.293 HD
ENDBRANCH   4  10
BRANCH   5  12
ATOM     12  O   UNL     1      32.616  19.281  14.785  1.00  0.00    -0.504 OA
ATOM     13  H   UNL     1      32.810  18.349  14.450  1.00  0.00     0.293 HD
ENDBRANCH   5  12
BRANCH   6  14
ATOM     14  O   UNL     1      31.181  21.766  15.307  1.00  0.00    -0.502 OA
ATOM     15  H   UNL     1      31.825  22.532  15.177  1.00  0.00     0.293 HD
ENDBRANCH   6  14
TORSDOF 4
ENDMDL
MODEL 2
REMARK VINA RESULT:    -5.228      1.498      4.552
REMARK INTER + INTRA:          -6.039
REMARK INTER:                  -5.992
REMARK INTRA:                  -0.047
REMARK UNBOUND:                -0.046
REMARK SMILES O=C([O-])c1cc(O)c(O)c(O)c1
REMARK SMILES IDX 4 1 5 2 12 3 6 4 10 5 8 6 2 7 1 8 3 9 7 10 11 12 9 14
REMARK H PARENT 7 11 11 13 9 15
REMARK Flexibility Score: inf
ROOT
ATOM      1  C   UNL     1      31.873  19.483  17.192  1.00  0.00     0.005 A 
ATOM      2  C   UNL     1      30.790  18.641  16.902  1.00  0.00     0.060 A 
ATOM      3  C   UNL     1      32.421  19.467  18.484  1.00  0.00     0.060 A 
ATOM      4  C   UNL     1      30.259  17.797  17.882  1.00  0.00     0.162 A 
ATOM      5  C   UNL     1      31.902  18.627  19.477  1.00  0.00     0.162 A 
ATOM      6  C   UNL     1      30.808  17.780  19.177  1.00  0.00     0.200 A 
ENDROOT
BRANCH   1   7
ATOM      7  C   UNL     1      32.434  20.377  16.154  1.00  0.00     0.072 C 
ATOM      8  O   UNL     1      33.663  20.346  15.878  1.00  0.00    -0.545 OA
ATOM      9  O   UNL     1      31.611  21.264  15.468  1.00  0.00    -0.545 OA
ENDBRANCH   1   7
BRANCH   4  10
ATOM     10  O   UNL     1      29.181  16.977  17.547  1.00  0.00    -0.504 OA
ATOM     11  H   UNL     1      28.341  16.930  18.110  1.00  0.00     0.293 HD
ENDBRANCH   4  10
BRANCH   5  12
ATOM     12  O   UNL     1      32.502  18.668  20.738  1.00  0.00    -0.504 OA
ATOM     13  H   UNL     1      33.425  19.037  20.915  1.00  0.00     0.293 HD
ENDBRANCH   5  12
BRANCH   6  14
ATOM     14  O   UNL     1      30.249  16.921  20.126  1.00  0.00    -0.502 OA
ATOM     15  H   UNL     1      30.490  15.945  20.220  1.00  0.00     0.293 HD
ENDBRANCH   6  14
TORSDOF 4
ENDMDL
MODEL 3
REMARK VINA RESULT:    -5.225      1.461      4.387
REMARK INTER + INTRA:          -6.035
REMARK INTER:                  -5.988
REMARK INTRA:                  -0.047
REMARK UNBOUND:                -0.046
REMARK SMILES O=C([O-])c1cc(O)c(O)c(O)c1
REMARK SMILES IDX 4 1 5 2 12 3 6 4 10 5 8 6 2 7 1 8 3 9 7 10 11 12 9 14
REMARK H PARENT 7 11 11 13 9 15
REMARK Flexibility Score: inf
ROOT
ATOM      1  C   UNL     1      31.827  19.468  17.215  1.00  0.00     0.005 A 
ATOM      2  C   UNL     1      32.370  19.430  18.507  1.00  0.00     0.060 A 
ATOM      3  C   UNL     1      30.745  18.629  16.905  1.00  0.00     0.060 A 
ATOM      4  C   UNL     1      31.845  18.570  19.477  1.00  0.00     0.162 A 
ATOM      5  C   UNL     1      30.207  17.763  17.866  1.00  0.00     0.162 A 
ATOM      6  C   UNL     1      30.761  17.730  19.167  1.00  0.00     0.200 A 
ENDROOT
BRANCH   1   7
ATOM      7  C   UNL     1      32.383  20.378  16.188  1.00  0.00     0.072 C 
ATOM      8  O   UNL     1      33.607  20.337  15.891  1.00  0.00    -0.545 OA
ATOM      9  O   UNL     1      31.562  21.291  15.536  1.00  0.00    -0.545 OA
ENDBRANCH   1   7
BRANCH   4  10
ATOM     10  O   UNL     1      32.419  18.567  20.749  1.00  0.00    -0.504 OA
ATOM     11  H   UNL     1      32.781  17.723  21.177  1.00  0.00     0.293 HD
ENDBRANCH   4  10
BRANCH   5  12
ATOM     12  O   UNL     1      29.130  16.960  17.482  1.00  0.00    -0.504 OA
ATOM     13  H   UNL     1      28.898  16.078  17.915  1.00  0.00     0.293 HD
ENDBRANCH   5  12
BRANCH   6  14
ATOM     14  O   UNL     1      30.266  16.887  20.167  1.00  0.00    -0.502 OA
ATOM     15  H   UNL     1      30.844  16.317  20.766  1.00  0.00     0.293 HD
ENDBRANCH   6  14
TORSDOF 4
ENDMDL
MODEL 4
REMARK VINA RESULT:    -5.208      0.210      2.453
REMARK INTER + INTRA:          -6.015
REMARK INTER:                  -5.969
REMARK INTRA:                  -0.046
REMARK UNBOUND:                -0.046
REMARK SMILES O=C([O-])c1cc(O)c(O)c(O)c1
REMARK SMILES IDX 4 1 5 2 12 3 6 4 10 5 8 6 2 7 1 8 3 9 7 10 11 12 9 14
REMARK H PARENT 7 11 11 13 9 15
REMARK Flexibility Score: inf
ROOT
ATOM      1  C   UNL     1      31.566  18.875  18.108  1.00  0.00     0.005 A 
ATOM      2  C   UNL     1      32.158  18.665  16.854  1.00  0.00     0.060 A 
ATOM      3  C   UNL     1      30.883  20.077  18.346  1.00  0.00     0.060 A 
ATOM      4  C   UNL     1      32.072  19.636  15.853  1.00  0.00     0.162 A 
ATOM      5  C   UNL     1      30.787  21.060  17.353  1.00  0.00     0.162 A 
ATOM      6  C   UNL     1      31.387  20.841  16.091  1.00  0.00     0.200 A 
ENDROOT
BRANCH   1   7
ATOM      7  C   UNL     1      31.658  17.846  19.169  1.00  0.00     0.072 C 
ATOM      8  O   UNL     1      30.619  17.284  19.608  1.00  0.00    -0.545 OA
ATOM      9  O   UNL     1      32.893  17.484  19.695  1.00  0.00    -0.545 OA
ENDBRANCH   1   7
BRANCH   4  10
ATOM     10  O   UNL     1      32.676  19.383  14.621  1.00  0.00    -0.504 OA
ATOM     11  H   UNL     1      32.412  18.596  14.040  1.00  0.00     0.293 HD
ENDBRANCH   4  10
BRANCH   5  12
ATOM     12  O   UNL     1      30.090  22.230  17.666  1.00  0.00    -0.504 OA
ATOM     13  H   UNL     1      30.164  22.716  18.548  1.00  0.00     0.293 HD
ENDBRANCH   5  12
BRANCH   6  14
ATOM     14  O   UNL     1      31.324  21.785  15.061  1.00  0.00    -0.502 OA
ATOM     15  H   UNL     1      30.712  21.713  14.262  1.00  0.00     0.293 HD
ENDBRANCH   6  14
TORSDOF 4
ENDMDL
MODEL 5
REMARK VINA RESULT:    -5.149      2.480      4.440
REMARK INTER + INTRA:          -5.948
REMARK INTER:                  -5.903
REMARK INTRA:                  -0.045
REMARK UNBOUND:                -0.046
REMARK SMILES O=C([O-])c1cc(O)c(O)c(O)c1
REMARK SMILES IDX 4 1 5 2 12 3 6 4 10 5 8 6 2 7 1 8 3 9 7 10 11 12 9 14
REMARK H PARENT 7 11 11 13 9 15
REMARK Flexibility Score: inf
ROOT
ATOM      1  C   UNL     1      32.862  19.153  20.765  1.00  0.00     0.005 A 
ATOM      2  C   UNL     1      32.247  19.697  19.627  1.00  0.00     0.060 A 
ATOM      3  C   UNL     1      32.472  17.879  21.206  1.00  0.00     0.060 A 
ATOM      4  C   UNL     1      31.260  18.984  18.940  1.00  0.00     0.162 A 
ATOM      5  C   UNL     1      31.485  17.152  20.529  1.00  0.00     0.162 A 
ATOM      6  C   UNL     1      30.869  17.708  19.382  1.00  0.00     0.200 A 
ENDROOT
BRANCH   1   7
ATOM      7  C   UNL     1      33.907  19.908  21.492  1.00  0.00     0.072 C 
ATOM      8  O   UNL     1      35.098  19.913  21.080  1.00  0.00    -0.545 OA
ATOM      9  O   UNL     1      33.589  20.623  22.642  1.00  0.00    -0.545 OA
ENDBRANCH   1   7
BRANCH   4  10
ATOM     10  O   UNL     1      30.677  19.566  17.814  1.00  0.00    -0.504 OA
ATOM     11  H   UNL     1      29.949  19.104  17.281  1.00  0.00     0.293 HD
ENDBRANCH   4  10
BRANCH   5  12
ATOM     12  O   UNL     1      31.152  15.891  21.030  1.00  0.00    -0.504 OA
ATOM     13  H   UNL     1      31.658  15.422  21.767  1.00  0.00     0.293 HD
ENDBRANCH   5  12
BRANCH   6  14
ATOM     14  O   UNL     1      29.879  17.029  18.665  1.00  0.00    -0.502 OA
ATOM     15  H   UNL     1      30.067  16.334  17.959  1.00  0.00     0.293 HD
ENDBRANCH   6  14
TORSDOF 4
ENDMDL
MODEL 6
REMARK VINA RESULT:    -5.088      2.502      4.485
REMARK INTER + INTRA:          -5.878
REMARK INTER:                  -5.833
REMARK INTRA:                  -0.045
REMARK UNBOUND:                -0.046
REMARK SMILES O=C([O-])c1cc(O)c(O)c(O)c1
REMARK SMILES IDX 4 1 5 2 12 3 6 4 10 5 8 6 2 7 1 8 3 9 7 10 11 12 9 14
REMARK H PARENT 7 11 11 13 9 15
REMARK Flexibility Score: inf
ROOT
ATOM      1  C   UNL     1      32.865  19.148  20.936  1.00  0.00     0.005 A 
ATOM      2  C   UNL     1      32.463  17.860  21.317  1.00  0.00     0.060 A 
ATOM      3  C   UNL     1      32.279  19.738  19.805  1.00  0.00     0.060 A 
ATOM      4  C   UNL     1      31.493  17.169  20.585  1.00  0.00     0.162 A 
ATOM      5  C   UNL     1      31.305  19.060  19.061  1.00  0.00     0.162 A 
ATOM      6  C   UNL     1      30.905  17.760  19.452  1.00  0.00     0.200 A 
ENDROOT
BRANCH   1   7
ATOM      7  C   UNL     1      33.892  19.879  21.711  1.00  0.00     0.072 C 
ATOM      8  O   UNL     1      33.583  20.486  22.772  1.00  0.00    -0.545 OA
ATOM      9  O   UNL     1      35.214  19.907  21.280  1.00  0.00    -0.545 OA
ENDBRANCH   1   7
BRANCH   4  10
ATOM     10  O   UNL     1      31.125  15.889  21.002  1.00  0.00    -0.504 OA
ATOM     11  H   UNL     1      30.495  15.305  20.465  1.00  0.00     0.293 HD
ENDBRANCH   4  10
BRANCH   5  12
ATOM     12  O   UNL     1      30.769  19.714  17.950  1.00  0.00    -0.504 OA
ATOM     13  H   UNL     1      31.027  20.646  17.661  1.00  0.00     0.293 HD
ENDBRANCH   5  12
BRANCH   6  14
ATOM     14  O   UNL     1      29.938  17.035  18.749  1.00  0.00    -0.502 OA
ATOM     15  H   UNL     1      30.139  16.438  17.961  1.00  0.00     0.293 HD
ENDBRANCH   6  14
TORSDOF 4
ENDMDL
MODEL 7
REMARK VINA RESULT:    -4.988      2.168      5.250
REMARK INTER + INTRA:          -5.764
REMARK INTER:                  -5.713
REMARK INTRA:                  -0.051
REMARK UNBOUND:                -0.046
REMARK SMILES O=C([O-])c1cc(O)c(O)c(O)c1
REMARK SMILES IDX 4 1 5 2 12 3 6 4 10 5 8 6 2 7 1 8 3 9 7 10 11 12 9 14
REMARK H PARENT 7 11 11 13 9 15
REMARK Flexibility Score: inf
ROOT
ATOM      1  C   UNL     1      31.328  19.016  19.048  1.00  0.00     0.005 A 
ATOM      2  C   UNL     1      31.089  17.680  19.399  1.00  0.00     0.060 A 
ATOM      3  C   UNL     1      31.849  19.892  20.014  1.00  0.00     0.060 A 
ATOM      4  C   UNL     1      31.362  17.222  20.692  1.00  0.00     0.162 A 
ATOM      5  C   UNL     1      32.128  19.449  21.312  1.00  0.00     0.162 A 
ATOM      6  C   UNL     1      31.883  18.099  21.659  1.00  0.00     0.200 A 
ENDROOT
BRANCH   1   7
ATOM      7  C   UNL     1      31.038  19.501  17.680  1.00  0.00     0.072 C 
ATOM      8  O   UNL     1      31.124  18.722  16.693  1.00  0.00    -0.545 OA
ATOM      9  O   UNL     1      30.667  20.824  17.464  1.00  0.00    -0.545 OA
ENDBRANCH   1   7
BRANCH   4  10
ATOM     10  O   UNL     1      31.107  15.884  20.995  1.00  0.00    -0.504 OA
ATOM     11  H   UNL     1      30.225  15.576  21.385  1.00  0.00     0.293 HD
ENDBRANCH   4  10
BRANCH   5  12
ATOM     12  O   UNL     1      32.645  20.380  22.216  1.00  0.00    -0.504 OA
ATOM     13  H   UNL     1      33.249  21.146  21.958  1.00  0.00     0.293 HD
ENDBRANCH   5  12
BRANCH   6  14
ATOM     14  O   UNL     1      32.143  17.599  22.939  1.00  0.00    -0.502 OA
ATOM     15  H   UNL     1      32.275  18.175  23.757  1.00  0.00     0.293 HD
ENDBRANCH   6  14
TORSDOF 4
ENDMDL
MODEL 8
REMARK VINA RESULT:    -4.976      2.177      4.910
REMARK INTER + INTRA:          -5.750
REMARK INTER:                  -5.699
REMARK INTRA:                  -0.051
REMARK UNBOUND:                -0.046
REMARK SMILES O=C([O-])c1cc(O)c(O)c(O)c1
REMARK SMILES IDX 4 1 5 2 12 3 6 4 10 5 8 6 2 7 1 8 3 9 7 10 11 12 9 14
REMARK H PARENT 7 11 11 13 9 15
REMARK Flexibility Score: inf
ROOT
ATOM      1  C   UNL     1      31.320  18.982  19.024  1.00  0.00     0.005 A 
ATOM      2  C   UNL     1      31.845  19.878  19.966  1.00  0.00     0.060 A 
ATOM      3  C   UNL     1      31.084  17.652  19.405  1.00  0.00     0.060 A 
ATOM      4  C   UNL     1      32.131  19.457  21.269  1.00  0.00     0.162 A 
ATOM      5  C   UNL     1      31.365  17.215  20.706  1.00  0.00     0.162 A 
ATOM      6  C   UNL     1      31.895  18.125  21.651  1.00  0.00     0.200 A 
ENDROOT
BRANCH   1   7
ATOM      7  C   UNL     1      31.017  19.428  17.645  1.00  0.00     0.072 C 
ATOM      8  O   UNL     1      30.705  20.627  17.413  1.00  0.00    -0.545 OA
ATOM      9  O   UNL     1      31.073  18.530  16.585  1.00  0.00    -0.545 OA
ENDBRANCH   1   7
BRANCH   4  10
ATOM     10  O   UNL     1      32.652  20.384  22.172  1.00  0.00    -0.504 OA
ATOM     11  H   UNL     1      32.620  20.240  23.174  1.00  0.00     0.293 HD
ENDBRANCH   4  10
BRANCH   5  12
ATOM     12  O   UNL     1      31.103  15.877  21.009  1.00  0.00    -0.504 OA
ATOM     13  H   UNL     1      31.523  15.094  20.530  1.00  0.00     0.293 HD
ENDBRANCH   5  12
BRANCH   6  14
ATOM     14  O   UNL     1      32.194  17.746  22.963  1.00  0.00    -0.502 OA
ATOM     15  H   UNL     1      31.571  17.221  23.558  1.00  0.00     0.293 HD
ENDBRANCH   6  14
TORSDOF 4
ENDMDL
MODEL 9
REMARK VINA RESULT:    -4.947      2.272      4.008
REMARK INTER + INTRA:          -5.716
REMARK INTER:                  -5.670
REMARK INTRA:                  -0.046
REMARK UNBOUND:                -0.046
REMARK SMILES O=C([O-])c1cc(O)c(O)c(O)c1
REMARK SMILES IDX 4 1 5 2 12 3 6 4 10 5 8 6 2 7 1 8 3 9 7 10 11 12 9 14
REMARK H PARENT 7 11 11 13 9 15
REMARK Flexibility Score: inf
ROOT
ATOM      1  C   UNL     1      32.907  18.897  14.586  1.00  0.00     0.005 A 
ATOM      2  C   UNL     1      32.143  18.586  15.720  1.00  0.00     0.060 A 
ATOM      3  C   UNL     1      32.947  20.226  14.135  1.00  0.00     0.060 A 
ATOM      4  C   UNL     1      31.430  19.581  16.395  1.00  0.00     0.162 A 
ATOM      5  C   UNL     1      32.239  21.234  14.800  1.00  0.00     0.162 A 
ATOM      6  C   UNL     1      31.470  20.912  15.944  1.00  0.00     0.200 A 
ENDROOT
BRANCH   1   7
ATOM      7  C   UNL     1      33.662  17.843  13.871  1.00  0.00     0.072 C 
ATOM      8  O   UNL     1      33.359  17.528  12.689  1.00  0.00    -0.545 OA
ATOM      9  O   UNL     1      34.716  17.185  14.494  1.00  0.00    -0.545 OA
ENDBRANCH   1   7
BRANCH   4  10
ATOM     10  O   UNL     1      30.684  19.224  17.519  1.00  0.00    -0.504 OA
ATOM     11  H   UNL     1      29.673  19.282  17.539  1.00  0.00     0.293 HD
ENDBRANCH   4  10
BRANCH   5  12
ATOM     12  O   UNL     1      32.329  22.532  14.291  1.00  0.00    -0.504 OA
ATOM     13  H   UNL     1      32.025  22.801  13.366  1.00  0.00     0.293 HD
ENDBRANCH   5  12
BRANCH   6  14
ATOM     14  O   UNL     1      30.743  21.876  16.649  1.00  0.00    -0.502 OA
ATOM     15  H   UNL     1      30.179  21.679  17.461  1.00  0.00     0.293 HD
ENDBRANCH   6  14
TORSDOF 4
ENDMDL
