MODEL 1
REMARK VINA RESULT:    -3.935      0.000      0.000
REMARK INTER + INTRA:          -4.957
REMARK INTER:                  -4.740
REMARK INTRA:                  -0.217
REMARK UNBOUND:                -0.217
REMARK SMILES OCC(O)CO
REMARK SMILES IDX 3 1 5 2 6 3 2 5 1 6 4 8
REMARK H PARENT 6 4 1 7 4 9
REMARK Flexibility Score: inf
ROOT
ATOM      1  C   UNL     1     166.421 174.022 213.763  1.00  0.00     0.165 C 
ENDROOT
BRANCH   1   2
ATOM      2  C   UNL     1     165.513 173.522 214.896  1.00  0.00     0.190 C 
BRANCH   2   3
ATOM      3  O   UNL     1     164.421 172.814 214.372  1.00  0.00    -0.394 OA
ATOM      4  H   UNL     1     163.629 173.067 214.913  1.00  0.00     0.210 HD
ENDBRANCH   2   3
ENDBRANCH   1   2
BRANCH   1   5
ATOM      5  C   UNL     1     165.596 174.437 212.534  1.00  0.00     0.190 C 
BRANCH   5   6
ATOM      6  O   UNL     1     165.308 173.329 211.724  1.00  0.00    -0.394 OA
ATOM      7  H   UNL     1     166.148 172.805 211.653  1.00  0.00     0.210 HD
ENDBRANCH   5   6
ENDBRANCH   1   5
BRANCH   1   8
ATOM      8  O   UNL     1     167.314 172.999 213.404  1.00  0.00    -0.388 OA
ATOM      9  H   UNL     1     168.024 172.982 214.098  1.00  0.00     0.211 HD
ENDBRANCH   1   8
TORSDOF 5
ENDMDL
MODEL 2
REMARK VINA RESULT:    -3.907      1.635      1.978
REMARK INTER + INTRA:          -4.923
REMARK INTER:                  -4.920
REMARK INTRA:                  -0.004
REMARK UNBOUND:                -0.217
REMARK SMILES OCC(O)CO
REMARK SMILES IDX 3 1 5 2 6 3 2 5 1 6 4 8
REMARK H PARENT 6 4 1 7 4 9
REMARK Flexibility Score: inf
ROOT
ATOM      1  C   UNL     1     165.983 174.443 212.586  1.00  0.00     0.165 C 
ENDROOT
BRANCH   1   2
ATOM      2  C   UNL     1     165.788 174.211 214.091  1.00  0.00     0.190 C 
BRANCH   2   3
ATOM      3  O   UNL     1     164.845 173.196 214.312  1.00  0.00    -0.394 OA
ATOM      4  H   UNL     1     165.096 172.752 215.163  1.00  0.00     0.210 HD
ENDBRANCH   2   3
ENDBRANCH   1   2
BRANCH   1   5
ATOM      5  C   UNL     1     165.148 175.637 212.096  1.00  0.00     0.190 C 
BRANCH   5   6
ATOM      6  O   UNL     1     165.793 176.850 212.379  1.00  0.00    -0.394 OA
ATOM      7  H   UNL     1     165.500 177.495 211.683  1.00  0.00     0.210 HD
ENDBRANCH   5   6
ENDBRANCH   1   5
BRANCH   1   8
ATOM      8  O   UNL     1     165.600 173.285 211.889  1.00  0.00    -0.388 OA
ATOM      9  H   UNL     1     165.904 172.510 212.430  1.00  0.00     0.211 HD
ENDBRANCH   1   8
TORSDOF 5
ENDMDL
MODEL 3
REMARK VINA RESULT:    -3.894      0.730      2.559
REMARK INTER + INTRA:          -4.908
REMARK INTER:                  -4.691
REMARK INTRA:                  -0.217
REMARK UNBOUND:                -0.217
REMARK SMILES OCC(O)CO
REMARK SMILES IDX 3 1 5 2 6 3 2 5 1 6 4 8
REMARK H PARENT 6 4 1 7 4 9
REMARK Flexibility Score: inf
ROOT
ATOM      1  C   UNL     1     165.769 173.951 214.273  1.00  0.00     0.165 C 
ENDROOT
BRANCH   1   2
ATOM      2  C   UNL     1     165.828 174.409 212.809  1.00  0.00     0.190 C 
BRANCH   2   3
ATOM      3  O   UNL     1     165.558 173.334 211.949  1.00  0.00    -0.394 OA
ATOM      4  H   UNL     1     164.570 173.274 211.869  1.00  0.00     0.210 HD
ENDBRANCH   2   3
ENDBRANCH   1   2
BRANCH   1   5
ATOM      5  C   UNL     1     167.106 173.338 214.717  1.00  0.00     0.190 C 
BRANCH   5   6
ATOM      6  O   UNL     1     167.764 172.731 213.637  1.00  0.00    -0.394 OA
ATOM      7  H   UNL     1     167.913 171.783 213.893  1.00  0.00     0.210 HD
ENDBRANCH   5   6
ENDBRANCH   1   5
BRANCH   1   8
ATOM      8  O   UNL     1     164.745 173.000 214.416  1.00  0.00    -0.388 OA
ATOM      9  H   UNL     1     165.164 172.107 214.295  1.00  0.00     0.211 HD
ENDBRANCH   1   8
TORSDOF 5
ENDMDL
MODEL 4
REMARK VINA RESULT:    -3.819      1.610      3.007
REMARK INTER + INTRA:          -4.817
REMARK INTER:                  -4.812
REMARK INTRA:                  -0.005
REMARK UNBOUND:                -0.217
REMARK SMILES OCC(O)CO
REMARK SMILES IDX 3 1 5 2 6 3 2 5 1 6 4 8
REMARK H PARENT 6 4 1 7 4 9
REMARK Flexibility Score: inf
ROOT
ATOM      1  C   UNL     1     165.321 174.477 212.602  1.00  0.00     0.165 C 
ENDROOT
BRANCH   1   2
ATOM      2  C   UNL     1     165.854 175.666 211.790  1.00  0.00     0.190 C 
BRANCH   2   3
ATOM      3  O   UNL     1     165.632 176.868 212.477  1.00  0.00    -0.394 OA
ATOM      4  H   UNL     1     166.417 177.449 212.298  1.00  0.00     0.210 HD
ENDBRANCH   2   3
ENDBRANCH   1   2
BRANCH   1   5
ATOM      5  C   UNL     1     166.223 174.183 213.812  1.00  0.00     0.190 C 
BRANCH   5   6
ATOM      6  O   UNL     1     167.110 173.133 213.534  1.00  0.00    -0.394 OA
ATOM      7  H   UNL     1     168.020 173.529 213.508  1.00  0.00     0.210 HD
ENDBRANCH   5   6
ENDBRANCH   1   5
BRANCH   1   8
ATOM      8  O   UNL     1     165.261 173.344 211.775  1.00  0.00    -0.388 OA
ATOM      9  H   UNL     1     164.481 172.809 212.077  1.00  0.00     0.211 HD
ENDBRANCH   1   8
TORSDOF 5
ENDMDL
MODEL 5
REMARK VINA RESULT:    -3.610     12.936     13.292
REMARK INTER + INTRA:          -4.566
REMARK INTER:                  -4.562
REMARK INTRA:                  -0.004
REMARK UNBOUND:                -0.217
REMARK SMILES OCC(O)CO
REMARK SMILES IDX 3 1 5 2 6 3 2 5 1 6 4 8
REMARK H PARENT 6 4 1 7 4 9
REMARK Flexibility Score: inf
ROOT
ATOM      1  C   UNL     1     177.665 169.130 212.478  1.00  0.00     0.165 C 
ENDROOT
BRANCH   1   2
ATOM      2  C   UNL     1     177.668 169.355 213.996  1.00  0.00     0.190 C 
BRANCH   2   3
ATOM      3  O   UNL     1     178.662 170.279 214.352  1.00  0.00    -0.394 OA
ATOM      4  H   UNL     1     179.501 169.763 214.477  1.00  0.00     0.210 HD
ENDBRANCH   2   3
ENDBRANCH   1   2
BRANCH   1   5
ATOM      5  C   UNL     1     178.378 167.818 212.111  1.00  0.00     0.190 C 
BRANCH   5   6
ATOM      6  O   UNL     1     177.559 166.710 212.374  1.00  0.00    -0.394 OA
ATOM      7  H   UNL     1     176.651 167.067 212.562  1.00  0.00     0.210 HD
ENDBRANCH   5   6
ENDBRANCH   1   5
BRANCH   1   8
ATOM      8  O   UNL     1     178.313 170.207 211.851  1.00  0.00    -0.388 OA
ATOM      9  H   UNL     1     177.864 171.035 212.167  1.00  0.00     0.211 HD
ENDBRANCH   1   8
TORSDOF 5
ENDMDL
MODEL 6
REMARK VINA RESULT:    -3.531     11.651     12.626
REMARK INTER + INTRA:          -4.471
REMARK INTER:                  -4.264
REMARK INTRA:                  -0.207
REMARK UNBOUND:                -0.217
REMARK SMILES OCC(O)CO
REMARK SMILES IDX 3 1 5 2 6 3 2 5 1 6 4 8
REMARK H PARENT 6 4 1 7 4 9
REMARK Flexibility Score: inf
ROOT
ATOM      1  C   UNL     1     177.203 169.373 214.021  1.00  0.00     0.165 C 
ENDROOT
BRANCH   1   2
ATOM      2  C   UNL     1     178.179 170.001 215.026  1.00  0.00     0.190 C 
BRANCH   2   3
ATOM      3  O   UNL     1     179.129 170.789 214.359  1.00  0.00    -0.394 OA
ATOM      4  H   UNL     1     179.317 170.339 213.494  1.00  0.00     0.210 HD
ENDBRANCH   2   3
ENDBRANCH   1   2
BRANCH   1   5
ATOM      5  C   UNL     1     177.884 169.131 212.664  1.00  0.00     0.190 C 
BRANCH   5   6
ATOM      6  O   UNL     1     177.593 170.167 211.765  1.00  0.00    -0.394 OA
ATOM      7  H   UNL     1     176.615 170.134 211.600  1.00  0.00     0.210 HD
ENDBRANCH   5   6
ENDBRANCH   1   5
BRANCH   1   8
ATOM      8  O   UNL     1     176.105 170.232 213.849  1.00  0.00    -0.388 OA
ATOM      9  H   UNL     1     176.455 171.068 213.445  1.00  0.00     0.211 HD
ENDBRANCH   1   8
TORSDOF 5
ENDMDL
MODEL 7
REMARK VINA RESULT:    -3.517      8.221      8.577
REMARK INTER + INTRA:          -4.453
REMARK INTER:                  -4.268
REMARK INTRA:                  -0.185
REMARK UNBOUND:                -0.217
REMARK SMILES OCC(O)CO
REMARK SMILES IDX 3 1 5 2 6 3 2 5 1 6 4 8
REMARK H PARENT 6 4 1 7 4 9
REMARK Flexibility Score: inf
ROOT
ATOM      1  C   UNL     1     170.435 166.054 213.869  1.00  0.00     0.165 C 
ENDROOT
BRANCH   1   2
ATOM      2  C   UNL     1     169.515 166.675 214.929  1.00  0.00     0.190 C 
BRANCH   2   3
ATOM      3  O   UNL     1     168.170 166.426 214.616  1.00  0.00    -0.394 OA
ATOM      4  H   UNL     1     167.736 166.107 215.449  1.00  0.00     0.210 HD
ENDBRANCH   2   3
ENDBRANCH   1   2
BRANCH   1   5
ATOM      5  C   UNL     1     169.621 165.373 212.758  1.00  0.00     0.190 C 
BRANCH   5   6
ATOM      6  O   UNL     1     169.365 166.262 211.705  1.00  0.00    -0.394 OA
ATOM      7  H   UNL     1     168.504 165.979 211.298  1.00  0.00     0.210 HD
ENDBRANCH   5   6
ENDBRANCH   1   5
BRANCH   1   8
ATOM      8  O   UNL     1     171.273 165.109 214.485  1.00  0.00    -0.388 OA
ATOM      9  H   UNL     1     171.840 165.605 215.131  1.00  0.00     0.211 HD
ENDBRANCH   1   8
TORSDOF 5
ENDMDL
MODEL 8
REMARK VINA RESULT:    -3.507      8.330      8.891
REMARK INTER + INTRA:          -4.442
REMARK INTER:                  -4.431
REMARK INTRA:                  -0.011
REMARK UNBOUND:                -0.217
REMARK SMILES OCC(O)CO
REMARK SMILES IDX 3 1 5 2 6 3 2 5 1 6 4 8
REMARK H PARENT 6 4 1 7 4 9
REMARK Flexibility Score: inf
ROOT
ATOM      1  C   UNL     1     169.721 165.341 213.461  1.00  0.00     0.165 C 
ENDROOT
BRANCH   1   2
ATOM      2  C   UNL     1     168.565 165.637 212.496  1.00  0.00     0.190 C 
BRANCH   2   3
ATOM      3  O   UNL     1     168.659 164.826 211.355  1.00  0.00    -0.394 OA
ATOM      4  H   UNL     1     169.162 164.013 211.623  1.00  0.00     0.210 HD
ENDBRANCH   2   3
ENDBRANCH   1   2
BRANCH   1   5
ATOM      5  C   UNL     1     169.466 165.969 214.841  1.00  0.00     0.190 C 
BRANCH   5   6
ATOM      6  O   UNL     1     168.219 166.609 214.879  1.00  0.00    -0.394 OA
ATOM      7  H   UNL     1     167.758 166.284 215.697  1.00  0.00     0.210 HD
ENDBRANCH   5   6
ENDBRANCH   1   5
BRANCH   1   8
ATOM      8  O   UNL     1     170.912 165.855 212.924  1.00  0.00    -0.388 OA
ATOM      9  H   UNL     1     171.089 166.715 213.388  1.00  0.00     0.211 HD
ENDBRANCH   1   8
TORSDOF 5
ENDMDL
MODEL 9
REMARK VINA RESULT:    -3.497      8.015      8.986
REMARK INTER + INTRA:          -4.430
REMARK INTER:                  -4.404
REMARK INTRA:                  -0.026
REMARK UNBOUND:                -0.217
REMARK SMILES OCC(O)CO
REMARK SMILES IDX 3 1 5 2 6 3 2 5 1 6 4 8
REMARK H PARENT 6 4 1 7 4 9
REMARK Flexibility Score: inf
ROOT
ATOM      1  C   UNL     1     172.472 171.154 209.363  1.00  0.00     0.165 C 
ENDROOT
BRANCH   1   2
ATOM      2  C   UNL     1     173.608 170.700 208.435  1.00  0.00     0.190 C 
BRANCH   2   3
ATOM      3  O   UNL     1     174.642 170.111 209.179  1.00  0.00    -0.394 OA
ATOM      4  H   UNL     1     174.238 169.355 209.681  1.00  0.00     0.210 HD
ENDBRANCH   2   3
ENDBRANCH   1   2
BRANCH   1   5
ATOM      5  C   UNL     1     172.093 172.619 209.098  1.00  0.00     0.190 C 
BRANCH   5   6
ATOM      6  O   UNL     1     173.145 173.481 209.441  1.00  0.00    -0.394 OA
ATOM      7  H   UNL     1     173.538 173.128 210.282  1.00  0.00     0.210 HD
ENDBRANCH   5   6
ENDBRANCH   1   5
BRANCH   1   8
ATOM      8  O   UNL     1     172.883 171.009 210.698  1.00  0.00    -0.388 OA
ATOM      9  H   UNL     1     172.285 171.581 211.246  1.00  0.00     0.211 HD
ENDBRANCH   1   8
TORSDOF 5
ENDMDL
