MODEL 1
REMARK VINA RESULT:    -0.349      0.000      0.000
REMARK INTER + INTRA:          -0.381
REMARK INTER:                  -0.410
REMARK INTRA:                   0.029
REMARK UNBOUND:                 0.029
REMARK SMILES CCCCC(=O)[O-]
REMARK SMILES IDX 4 1 5 2 6 3 7 4 3 5 2 6 1 7
REMARK H PARENT
REMARK Flexibility Score: inf
ROOT
ATOM      1  C   UNL     1      55.093  56.406  23.663  1.00  0.00     0.053 C 
ENDROOT
BRANCH   1   2
ATOM      2  C   UNL     1      53.850  55.713  24.130  1.00  0.00     0.041 C 
ATOM      3  O   UNL     1      53.235  56.131  25.145  1.00  0.00    -0.550 OA
ATOM      4  O   UNL     1      53.390  54.584  23.464  1.00  0.00    -0.550 OA
ENDBRANCH   1   2
BRANCH   1   5
ATOM      5  C   UNL     1      56.313  56.025  24.512  1.00  0.00     0.006 C 
BRANCH   5   6
ATOM      6  C   UNL     1      56.401  56.848  25.805  1.00  0.00    -0.003 C 
ATOM      7  C   UNL     1      57.853  57.125  26.183  1.00  0.00     0.004 C 
ENDBRANCH   5   6
ENDBRANCH   1   5
TORSDOF 3
ENDMDL
