MODEL 1
REMARK VINA RESULT:    -4.630      0.000      0.000
REMARK INTER + INTRA:         -11.278
REMARK INTER:                  -8.961
REMARK INTRA:                  -2.316
REMARK UNBOUND:                -2.316
REMARK SMILES CCCCCCCCCCCCCCCCCC(=O)[O-]
REMARK SMILES IDX 10 1 11 2 12 3 13 4 14 5 15 6 16 7 17 8 18 9 19 10 20 11
REMARK SMILES IDX 9 12 8 13 7 14 6 15 5 16 4 17 3 18 2 19 1 20
REMARK H PARENT
REMARK Flexibility Score: inf
ROOT
ATOM      1  C   UNL     1      33.024   9.786  47.784  1.00  0.00     0.000 C 
ENDROOT
BRANCH   1   2
ATOM      2  C   UNL     1      31.678   9.848  48.523  1.00  0.00     0.000 C 
BRANCH   2   3
ATOM      3  C   UNL     1      31.399   8.579  49.348  1.00  0.00     0.000 C 
BRANCH   3   4
ATOM      4  C   UNL     1      30.077   7.897  48.956  1.00  0.00     0.000 C 
BRANCH   4   5
ATOM      5  C   UNL     1      30.271   6.444  48.499  1.00  0.00     0.000 C 
BRANCH   5   6
ATOM      6  C   UNL     1      31.450   6.328  47.523  1.00  0.00     0.000 C 
BRANCH   6   7
ATOM      7  C   UNL     1      32.485   5.270  47.949  1.00  0.00     0.006 C 
BRANCH   7   8
ATOM      8  C   UNL     1      33.841   5.861  48.376  1.00  0.00     0.053 C 
BRANCH   8   9
ATOM      9  C   UNL     1      34.987   4.938  48.090  1.00  0.00     0.041 C 
ATOM     10  O   UNL     1      35.206   4.546  46.914  1.00  0.00    -0.550 OA
ATOM     11  O   UNL     1      35.792   4.481  49.126  1.00  0.00    -0.550 OA
ENDBRANCH   8   9
ENDBRANCH   7   8
ENDBRANCH   6   7
ENDBRANCH   5   6
ENDBRANCH   4   5
ENDBRANCH   3   4
ENDBRANCH   2   3
ENDBRANCH   1   2
BRANCH   1  12
ATOM     12  C   UNL     1      34.203   9.474  48.718  1.00  0.00     0.000 C 
BRANCH  12  13
ATOM     13  C   UNL     1      35.383  10.414  48.444  1.00  0.00    -0.000 C 
BRANCH  13  14
ATOM     14  C   UNL     1      34.983  11.532  47.474  1.00  0.00    -0.000 C 
BRANCH  14  15
ATOM     15  C   UNL     1      35.804  11.458  46.180  1.00  0.00    -0.000 C 
BRANCH  15  16
ATOM     16  C   UNL     1      35.011  12.022  44.992  1.00  0.00    -0.000 C 
BRANCH  16  17
ATOM     17  C   UNL     1      34.313  10.928  44.162  1.00  0.00    -0.000 C 
BRANCH  17  18
ATOM     18  C   UNL     1      34.944   9.528  44.270  1.00  0.00    -0.000 C 
BRANCH  18  19
ATOM     19  C   UNL     1      33.960   8.400  43.927  1.00  0.00    -0.003 C 
ATOM     20  C   UNL     1      34.048   7.266  44.945  1.00  0.00     0.004 C 
ENDBRANCH  18  19
ENDBRANCH  17  18
ENDBRANCH  16  17
ENDBRANCH  15  16
ENDBRANCH  14  15
ENDBRANCH  13  14
ENDBRANCH  12  13
ENDBRANCH   1  12
TORSDOF 16
ENDMDL
MODEL 2
REMARK VINA RESULT:    -4.305      1.174      1.696
REMARK INTER + INTRA:         -10.648
REMARK INTER:                  -8.262
REMARK INTRA:                  -2.386
REMARK UNBOUND:                -2.316
REMARK SMILES CCCCCCCCCCCCCCCCCC(=O)[O-]
REMARK SMILES IDX 10 1 11 2 12 3 13 4 14 5 15 6 16 7 17 8 18 9 19 10 20 11
REMARK SMILES IDX 9 12 8 13 7 14 6 15 5 16 4 17 3 18 2 19 1 20
REMARK H PARENT
REMARK Flexibility Score: inf
ROOT
ATOM      1  C   UNL     1      32.998   9.933  47.928  1.00  0.00     0.000 C 
ENDROOT
BRANCH   1   2
ATOM      2  C   UNL     1      31.637   9.798  48.629  1.00  0.00     0.000 C 
BRANCH   2   3
ATOM      3  C   UNL     1      31.730   9.023  49.955  1.00  0.00     0.000 C 
BRANCH   3   4
ATOM      4  C   UNL     1      30.664   7.921  50.072  1.00  0.00     0.000 C 
BRANCH   4   5
ATOM      5  C   UNL     1      30.071   7.521  48.713  1.00  0.00     0.000 C 
BRANCH   5   6
ATOM      6  C   UNL     1      30.283   6.026  48.439  1.00  0.00     0.000 C 
BRANCH   6   7
ATOM      7  C   UNL     1      31.749   5.671  48.127  1.00  0.00     0.006 C 
BRANCH   7   8
ATOM      8  C   UNL     1      32.341   6.452  46.941  1.00  0.00     0.053 C 
BRANCH   8   9
ATOM      9  C   UNL     1      33.790   6.142  46.713  1.00  0.00     0.041 C 
ATOM     10  O   UNL     1      34.290   6.261  45.563  1.00  0.00    -0.550 OA
ATOM     11  O   UNL     1      34.582   5.689  47.761  1.00  0.00    -0.550 OA
ENDBRANCH   8   9
ENDBRANCH   7   8
ENDBRANCH   6   7
ENDBRANCH   5   6
ENDBRANCH   4   5
ENDBRANCH   3   4
ENDBRANCH   2   3
ENDBRANCH   1   2
BRANCH   1  12
ATOM     12  C   UNL     1      34.143   9.286  48.722  1.00  0.00     0.000 C 
BRANCH  12  13
ATOM     13  C   UNL     1      35.224  10.318  49.065  1.00  0.00    -0.000 C 
BRANCH  13  14
ATOM     14  C   UNL     1      34.713  11.747  48.843  1.00  0.00    -0.000 C 
BRANCH  14  15
ATOM     15  C   UNL     1      35.718  12.571  48.029  1.00  0.00    -0.000 C 
BRANCH  15  16
ATOM     16  C   UNL     1      36.045  11.880  46.696  1.00  0.00    -0.000 C 
BRANCH  16  17
ATOM     17  C   UNL     1      35.370  12.555  45.488  1.00  0.00    -0.000 C 
BRANCH  17  18
ATOM     18  C   UNL     1      34.644  11.595  44.529  1.00  0.00    -0.000 C 
BRANCH  18  19
ATOM     19  C   UNL     1      34.808  10.119  44.923  1.00  0.00    -0.003 C 
ATOM     20  C   UNL     1      34.483   9.198  43.750  1.00  0.00     0.004 C 
ENDBRANCH  18  19
ENDBRANCH  17  18
ENDBRANCH  16  17
ENDBRANCH  15  16
ENDBRANCH  14  15
ENDBRANCH  13  14
ENDBRANCH  12  13
ENDBRANCH   1  12
TORSDOF 16
ENDMDL
MODEL 3
REMARK VINA RESULT:    -4.252      2.164      4.511
REMARK INTER + INTRA:         -10.546
REMARK INTER:                  -8.566
REMARK INTRA:                  -1.980
REMARK UNBOUND:                -2.316
REMARK SMILES CCCCCCCCCCCCCCCCCC(=O)[O-]
REMARK SMILES IDX 10 1 11 2 12 3 13 4 14 5 15 6 16 7 17 8 18 9 19 10 20 11
REMARK SMILES IDX 9 12 8 13 7 14 6 15 5 16 4 17 3 18 2 19 1 20
REMARK H PARENT
REMARK Flexibility Score: inf
ROOT
ATOM      1  C   UNL     1      34.510   5.144  48.139  1.00  0.00     0.000 C 
ENDROOT
BRANCH   1   2
ATOM      2  C   UNL     1      35.525   5.628  49.186  1.00  0.00     0.000 C 
BRANCH   2   3
ATOM      3  C   UNL     1      35.017   6.841  49.984  1.00  0.00     0.000 C 
BRANCH   3   4
ATOM      4  C   UNL     1      33.598   7.268  49.573  1.00  0.00     0.000 C 
BRANCH   4   5
ATOM      5  C   UNL     1      33.339   8.765  49.797  1.00  0.00     0.000 C 
BRANCH   5   6
ATOM      6  C   UNL     1      31.899   9.137  49.420  1.00  0.00     0.000 C 
BRANCH   6   7
ATOM      7  C   UNL     1      31.267   8.162  48.410  1.00  0.00     0.006 C 
BRANCH   7   8
ATOM      8  C   UNL     1      29.944   7.538  48.888  1.00  0.00     0.053 C 
BRANCH   8   9
ATOM      9  C   UNL     1      29.821   6.091  48.516  1.00  0.00     0.041 C 
ATOM     10  O   UNL     1      30.854   5.406  48.290  1.00  0.00    -0.550 OA
ATOM     11  O   UNL     1      28.568   5.507  48.383  1.00  0.00    -0.550 OA
ENDBRANCH   8   9
ENDBRANCH   7   8
ENDBRANCH   6   7
ENDBRANCH   5   6
ENDBRANCH   4   5
ENDBRANCH   3   4
ENDBRANCH   2   3
ENDBRANCH   1   2
BRANCH   1  12
ATOM     12  C   UNL     1      35.175   4.680  46.834  1.00  0.00     0.000 C 
BRANCH  12  13
ATOM     13  C   UNL     1      34.670   5.498  45.640  1.00  0.00    -0.000 C 
BRANCH  13  14
ATOM     14  C   UNL     1      33.550   6.457  46.063  1.00  0.00    -0.000 C 
BRANCH  14  15
ATOM     15  C   UNL     1      33.931   7.913  45.767  1.00  0.00    -0.000 C 
BRANCH  15  16
ATOM     16  C   UNL     1      34.210   8.115  44.270  1.00  0.00    -0.000 C 
BRANCH  16  17
ATOM     17  C   UNL     1      34.998   9.404  43.975  1.00  0.00    -0.000 C 
BRANCH  17  18
ATOM     18  C   UNL     1      34.175  10.702  44.054  1.00  0.00    -0.000 C 
BRANCH  18  19
ATOM     19  C   UNL     1      34.879  11.809  44.852  1.00  0.00    -0.003 C 
ATOM     20  C   UNL     1      35.264  11.322  46.246  1.00  0.00     0.004 C 
ENDBRANCH  18  19
ENDBRANCH  17  18
ENDBRANCH  16  17
ENDBRANCH  15  16
ENDBRANCH  14  15
ENDBRANCH  13  14
ENDBRANCH  12  13
ENDBRANCH   1  12
TORSDOF 16
ENDMDL
MODEL 4
REMARK VINA RESULT:    -4.139      1.123      4.899
REMARK INTER + INTRA:         -10.327
REMARK INTER:                  -8.721
REMARK INTRA:                  -1.607
REMARK UNBOUND:                -2.316
REMARK SMILES CCCCCCCCCCCCCCCCCC(=O)[O-]
REMARK SMILES IDX 10 1 11 2 12 3 13 4 14 5 15 6 16 7 17 8 18 9 19 10 20 11
REMARK SMILES IDX 9 12 8 13 7 14 6 15 5 16 4 17 3 18 2 19 1 20
REMARK H PARENT
REMARK Flexibility Score: inf
ROOT
ATOM      1  C   UNL     1      35.342  11.816  47.377  1.00  0.00     0.000 C 
ENDROOT
BRANCH   1   2
ATOM      2  C   UNL     1      35.661  11.236  45.990  1.00  0.00     0.000 C 
BRANCH   2   3
ATOM      3  C   UNL     1      34.759  11.815  44.886  1.00  0.00     0.000 C 
BRANCH   3   4
ATOM      4  C   UNL     1      34.205  10.731  43.945  1.00  0.00     0.000 C 
BRANCH   4   5
ATOM      5  C   UNL     1      34.996   9.417  44.022  1.00  0.00     0.000 C 
BRANCH   5   6
ATOM      6  C   UNL     1      34.052   8.214  44.149  1.00  0.00     0.000 C 
BRANCH   6   7
ATOM      7  C   UNL     1      34.083   7.567  45.547  1.00  0.00     0.006 C 
BRANCH   7   8
ATOM      8  C   UNL     1      33.915   6.037  45.530  1.00  0.00     0.053 C 
BRANCH   8   9
ATOM      9  C   UNL     1      34.721   5.358  46.596  1.00  0.00     0.041 C 
ATOM     10  O   UNL     1      35.490   4.406  46.299  1.00  0.00    -0.550 OA
ATOM     11  O   UNL     1      34.599   5.752  47.923  1.00  0.00    -0.550 OA
ENDBRANCH   8   9
ENDBRANCH   7   8
ENDBRANCH   6   7
ENDBRANCH   5   6
ENDBRANCH   4   5
ENDBRANCH   3   4
ENDBRANCH   2   3
ENDBRANCH   1   2
BRANCH   1  12
ATOM     12  C   UNL     1      35.128  10.729  48.441  1.00  0.00     0.000 C 
BRANCH  12  13
ATOM     13  C   UNL     1      34.080  11.169  49.470  1.00  0.00    -0.000 C 
BRANCH  13  14
ATOM     14  C   UNL     1      33.017  10.082  49.673  1.00  0.00    -0.000 C 
BRANCH  14  15
ATOM     15  C   UNL     1      32.315   9.744  48.352  1.00  0.00    -0.000 C 
BRANCH  15  16
ATOM     16  C   UNL     1      31.137   8.785  48.584  1.00  0.00    -0.000 C 
BRANCH  16  17
ATOM     17  C   UNL     1      31.571   7.310  48.667  1.00  0.00    -0.000 C 
BRANCH  17  18
ATOM     18  C   UNL     1      30.662   6.322  47.914  1.00  0.00    -0.000 C 
BRANCH  18  19
ATOM     19  C   UNL     1      29.440   5.888  48.737  1.00  0.00    -0.003 C 
ATOM     20  C   UNL     1      28.277   5.498  47.829  1.00  0.00     0.004 C 
ENDBRANCH  18  19
ENDBRANCH  17  18
ENDBRANCH  16  17
ENDBRANCH  15  16
ENDBRANCH  14  15
ENDBRANCH  13  14
ENDBRANCH  12  13
ENDBRANCH   1  12
TORSDOF 16
ENDMDL
MODEL 5
REMARK VINA RESULT:    -4.026      2.233      3.782
REMARK INTER + INTRA:         -10.109
REMARK INTER:                  -8.696
REMARK INTRA:                  -1.413
REMARK UNBOUND:                -2.316
REMARK SMILES CCCCCCCCCCCCCCCCCC(=O)[O-]
REMARK SMILES IDX 10 1 11 2 12 3 13 4 14 5 15 6 16 7 17 8 18 9 19 10 20 11
REMARK SMILES IDX 9 12 8 13 7 14 6 15 5 16 4 17 3 18 2 19 1 20
REMARK H PARENT
REMARK Flexibility Score: inf
ROOT
ATOM      1  C   UNL     1      33.039  10.708  49.012  1.00  0.00     0.000 C 
ENDROOT
BRANCH   1   2
ATOM      2  C   UNL     1      32.016   9.741  48.394  1.00  0.00     0.000 C 
BRANCH   2   3
ATOM      3  C   UNL     1      31.451   8.744  49.420  1.00  0.00     0.000 C 
BRANCH   3   4
ATOM      4  C   UNL     1      30.166   8.056  48.931  1.00  0.00     0.000 C 
BRANCH   4   5
ATOM      5  C   UNL     1      30.347   6.546  48.713  1.00  0.00     0.000 C 
BRANCH   5   6
ATOM      6  C   UNL     1      31.197   6.269  47.465  1.00  0.00     0.000 C 
BRANCH   6   7
ATOM      7  C   UNL     1      32.614   5.765  47.800  1.00  0.00     0.006 C 
BRANCH   7   8
ATOM      8  C   UNL     1      33.740   6.636  47.215  1.00  0.00     0.053 C 
BRANCH   8   9
ATOM      9  C   UNL     1      34.154   6.196  45.843  1.00  0.00     0.041 C 
ATOM     10  O   UNL     1      33.765   6.834  44.829  1.00  0.00    -0.550 OA
ATOM     11  O   UNL     1      34.942   5.064  45.680  1.00  0.00    -0.550 OA
ENDBRANCH   8   9
ENDBRANCH   7   8
ENDBRANCH   6   7
ENDBRANCH   5   6
ENDBRANCH   4   5
ENDBRANCH   3   4
ENDBRANCH   2   3
ENDBRANCH   1   2
BRANCH   1  12
ATOM     12  C   UNL     1      34.397  10.676  48.296  1.00  0.00     0.000 C 
BRANCH  12  13
ATOM     13  C   UNL     1      34.226  10.323  46.814  1.00  0.00    -0.000 C 
BRANCH  13  14
ATOM     14  C   UNL     1      35.253  11.066  45.949  1.00  0.00    -0.000 C 
BRANCH  14  15
ATOM     15  C   UNL     1      36.447  11.532  46.790  1.00  0.00    -0.000 C 
BRANCH  15  16
ATOM     16  C   UNL     1      36.873  12.956  46.399  1.00  0.00    -0.000 C 
BRANCH  16  17
ATOM     17  C   UNL     1      35.711  13.800  45.844  1.00  0.00    -0.000 C 
BRANCH  17  18
ATOM     18  C   UNL     1      35.707  15.272  46.291  1.00  0.00    -0.000 C 
BRANCH  18  19
ATOM     19  C   UNL     1      36.532  16.180  45.367  1.00  0.00    -0.003 C 
ATOM     20  C   UNL     1      36.392  17.646  45.770  1.00  0.00     0.004 C 
ENDBRANCH  18  19
ENDBRANCH  17  18
ENDBRANCH  16  17
ENDBRANCH  15  16
ENDBRANCH  14  15
ENDBRANCH  13  14
ENDBRANCH  12  13
ENDBRANCH   1  12
TORSDOF 16
ENDMDL
MODEL 6
REMARK VINA RESULT:    -4.006     17.943     20.253
REMARK INTER + INTRA:         -10.069
REMARK INTER:                  -8.093
REMARK INTRA:                  -1.977
REMARK UNBOUND:                -2.316
REMARK SMILES CCCCCCCCCCCCCCCCCC(=O)[O-]
REMARK SMILES IDX 10 1 11 2 12 3 13 4 14 5 15 6 16 7 17 8 18 9 19 10 20 11
REMARK SMILES IDX 9 12 8 13 7 14 6 15 5 16 4 17 3 18 2 19 1 20
REMARK H PARENT
REMARK Flexibility Score: inf
ROOT
ATOM      1  C   UNL     1      20.731  14.297  34.541  1.00  0.00     0.000 C 
ENDROOT
BRANCH   1   2
ATOM      2  C   UNL     1      21.016  14.983  33.196  1.00  0.00     0.000 C 
BRANCH   2   3
ATOM      3  C   UNL     1      20.042  14.543  32.090  1.00  0.00     0.000 C 
BRANCH   3   4
ATOM      4  C   UNL     1      20.765  14.047  30.826  1.00  0.00     0.000 C 
BRANCH   4   5
ATOM      5  C   UNL     1      22.222  13.641  31.097  1.00  0.00     0.000 C 
BRANCH   5   6
ATOM      6  C   UNL     1      23.179  14.351  30.130  1.00  0.00     0.000 C 
BRANCH   6   7
ATOM      7  C   UNL     1      23.005  15.882  30.122  1.00  0.00     0.006 C 
BRANCH   7   8
ATOM      8  C   UNL     1      24.274  16.656  30.522  1.00  0.00     0.053 C 
BRANCH   8   9
ATOM      9  C   UNL     1      23.965  17.981  31.151  1.00  0.00     0.041 C 
ATOM     10  O   UNL     1      24.899  18.769  31.457  1.00  0.00    -0.550 OA
ATOM     11  O   UNL     1      22.651  18.333  31.433  1.00  0.00    -0.550 OA
ENDBRANCH   8   9
ENDBRANCH   7   8
ENDBRANCH   6   7
ENDBRANCH   5   6
ENDBRANCH   4   5
ENDBRANCH   3   4
ENDBRANCH   2   3
ENDBRANCH   1   2
BRANCH   1  12
ATOM     12  C   UNL     1      19.270  13.841  34.678  1.00  0.00     0.000 C 
BRANCH  12  13
ATOM     13  C   UNL     1      19.117  12.829  35.820  1.00  0.00    -0.000 C 
BRANCH  13  14
ATOM     14  C   UNL     1      18.972  11.402  35.277  1.00  0.00    -0.000 C 
BRANCH  14  15
ATOM     15  C   UNL     1      19.647  10.387  36.207  1.00  0.00    -0.000 C 
BRANCH  15  16
ATOM     16  C   UNL     1      20.776   9.641  35.480  1.00  0.00    -0.000 C 
BRANCH  16  17
ATOM     17  C   UNL     1      21.150  10.283  34.132  1.00  0.00    -0.000 C 
BRANCH  17  18
ATOM     18  C   UNL     1      22.453  11.102  34.141  1.00  0.00    -0.000 C 
BRANCH  18  19
ATOM     19  C   UNL     1      22.951  11.416  35.560  1.00  0.00    -0.003 C 
ATOM     20  C   UNL     1      24.346  10.841  35.791  1.00  0.00     0.004 C 
ENDBRANCH  18  19
ENDBRANCH  17  18
ENDBRANCH  16  17
ENDBRANCH  15  16
ENDBRANCH  14  15
ENDBRANCH  13  14
ENDBRANCH  12  13
ENDBRANCH   1  12
TORSDOF 16
ENDMDL
MODEL 7
REMARK VINA RESULT:    -3.989      2.526      5.638
REMARK INTER + INTRA:         -10.037
REMARK INTER:                  -8.196
REMARK INTRA:                  -1.841
REMARK UNBOUND:                -2.316
REMARK SMILES CCCCCCCCCCCCCCCCCC(=O)[O-]
REMARK SMILES IDX 10 1 11 2 12 3 13 4 14 5 15 6 16 7 17 8 18 9 19 10 20 11
REMARK SMILES IDX 9 12 8 13 7 14 6 15 5 16 4 17 3 18 2 19 1 20
REMARK H PARENT
REMARK Flexibility Score: inf
ROOT
ATOM      1  C   UNL     1      31.706   8.935  48.835  1.00  0.00     0.000 C 
ENDROOT
BRANCH   1   2
ATOM      2  C   UNL     1      31.726  10.467  48.957  1.00  0.00     0.000 C 
BRANCH   2   3
ATOM      3  C   UNL     1      32.725  10.963  50.016  1.00  0.00     0.000 C 
BRANCH   3   4
ATOM      4  C   UNL     1      33.788  11.908  49.431  1.00  0.00     0.000 C 
BRANCH   4   5
ATOM      5  C   UNL     1      35.211  11.340  49.539  1.00  0.00     0.000 C 
BRANCH   5   6
ATOM      6  C   UNL     1      35.642  10.682  48.221  1.00  0.00     0.000 C 
BRANCH   6   7
ATOM      7  C   UNL     1      34.802  11.138  47.014  1.00  0.00     0.006 C 
BRANCH   7   8
ATOM      8  C   UNL     1      34.339   9.987  46.104  1.00  0.00     0.053 C 
BRANCH   8   9
ATOM      9  C   UNL     1      34.601  10.258  44.654  1.00  0.00     0.041 C 
ATOM     10  O   UNL     1      34.961   9.323  43.890  1.00  0.00    -0.550 OA
ATOM     11  O   UNL     1      34.482  11.547  44.150  1.00  0.00    -0.550 OA
ENDBRANCH   8   9
ENDBRANCH   7   8
ENDBRANCH   6   7
ENDBRANCH   5   6
ENDBRANCH   4   5
ENDBRANCH   3   4
ENDBRANCH   2   3
ENDBRANCH   1   2
BRANCH   1  12
ATOM     12  C   UNL     1      30.794   8.268  49.875  1.00  0.00     0.000 C 
BRANCH  12  13
ATOM     13  C   UNL     1      29.882   7.227  49.216  1.00  0.00    -0.000 C 
BRANCH  13  14
ATOM     14  C   UNL     1      30.536   6.636  47.962  1.00  0.00    -0.000 C 
BRANCH  14  15
ATOM     15  C   UNL     1      31.265   5.326  48.285  1.00  0.00    -0.000 C 
BRANCH  15  16
ATOM     16  C   UNL     1      32.754   5.420  47.920  1.00  0.00    -0.000 C 
BRANCH  16  17
ATOM     17  C   UNL     1      33.035   6.438  46.800  1.00  0.00    -0.000 C 
BRANCH  17  18
ATOM     18  C   UNL     1      34.285   6.143  45.952  1.00  0.00    -0.000 C 
BRANCH  18  19
ATOM     19  C   UNL     1      35.090   4.942  46.471  1.00  0.00    -0.003 C 
ATOM     20  C   UNL     1      35.380   3.949  45.349  1.00  0.00     0.004 C 
ENDBRANCH  18  19
ENDBRANCH  17  18
ENDBRANCH  16  17
ENDBRANCH  15  16
ENDBRANCH  14  15
ENDBRANCH  13  14
ENDBRANCH  12  13
ENDBRANCH   1  12
TORSDOF 16
ENDMDL
MODEL 8
REMARK VINA RESULT:    -3.959      3.014      5.518
REMARK INTER + INTRA:          -9.979
REMARK INTER:                  -8.086
REMARK INTRA:                  -1.893
REMARK UNBOUND:                -2.316
REMARK SMILES CCCCCCCCCCCCCCCCCC(=O)[O-]
REMARK SMILES IDX 10 1 11 2 12 3 13 4 14 5 15 6 16 7 17 8 18 9 19 10 20 11
REMARK SMILES IDX 9 12 8 13 7 14 6 15 5 16 4 17 3 18 2 19 1 20
REMARK H PARENT
REMARK Flexibility Score: inf
ROOT
ATOM      1  C   UNL     1      29.883   7.557  48.760  1.00  0.00     0.000 C 
ENDROOT
BRANCH   1   2
ATOM      2  C   UNL     1      30.500   8.124  50.048  1.00  0.00     0.000 C 
BRANCH   2   3
ATOM      3  C   UNL     1      31.847   8.824  49.799  1.00  0.00     0.000 C 
BRANCH   3   4
ATOM      4  C   UNL     1      31.785   9.833  48.640  1.00  0.00     0.000 C 
BRANCH   4   5
ATOM      5  C   UNL     1      33.129   9.987  47.914  1.00  0.00     0.000 C 
BRANCH   5   6
ATOM      6  C   UNL     1      34.022  11.016  48.622  1.00  0.00     0.000 C 
BRANCH   6   7
ATOM      7  C   UNL     1      35.483  10.985  48.135  1.00  0.00     0.006 C 
BRANCH   7   8
ATOM      8  C   UNL     1      35.684  11.570  46.726  1.00  0.00     0.053 C 
BRANCH   8   9
ATOM      9  C   UNL     1      36.373  12.901  46.749  1.00  0.00     0.041 C 
ATOM     10  O   UNL     1      35.741  13.936  47.090  1.00  0.00    -0.550 OA
ATOM     11  O   UNL     1      37.703  13.007  46.361  1.00  0.00    -0.550 OA
ENDBRANCH   8   9
ENDBRANCH   7   8
ENDBRANCH   6   7
ENDBRANCH   5   6
ENDBRANCH   4   5
ENDBRANCH   3   4
ENDBRANCH   2   3
ENDBRANCH   1   2
BRANCH   1  12
ATOM     12  C   UNL     1      30.258   6.087  48.518  1.00  0.00     0.000 C 
BRANCH  12  13
ATOM     13  C   UNL     1      31.355   5.968  47.454  1.00  0.00    -0.000 C 
BRANCH  13  14
ATOM     14  C   UNL     1      32.693   5.563  48.084  1.00  0.00    -0.000 C 
BRANCH  14  15
ATOM     15  C   UNL     1      33.846   6.397  47.513  1.00  0.00    -0.000 C 
BRANCH  15  16
ATOM     16  C   UNL     1      34.249   5.898  46.118  1.00  0.00    -0.000 C 
BRANCH  16  17
ATOM     17  C   UNL     1      33.809   6.849  44.989  1.00  0.00    -0.000 C 
BRANCH  17  18
ATOM     18  C   UNL     1      34.239   8.316  45.172  1.00  0.00    -0.000 C 
BRANCH  18  19
ATOM     19  C   UNL     1      34.727   8.963  43.867  1.00  0.00    -0.003 C 
ATOM     20  C   UNL     1      34.182  10.382  43.720  1.00  0.00     0.004 C 
ENDBRANCH  18  19
ENDBRANCH  17  18
ENDBRANCH  16  17
ENDBRANCH  15  16
ENDBRANCH  14  15
ENDBRANCH  13  14
ENDBRANCH  12  13
ENDBRANCH   1  12
TORSDOF 16
ENDMDL
MODEL 9
REMARK VINA RESULT:    -3.864      1.069      4.393
REMARK INTER + INTRA:          -9.795
REMARK INTER:                  -7.792
REMARK INTRA:                  -2.003
REMARK UNBOUND:                -2.316
REMARK SMILES CCCCCCCCCCCCCCCCCC(=O)[O-]
REMARK SMILES IDX 10 1 11 2 12 3 13 4 14 5 15 6 16 7 17 8 18 9 19 10 20 11
REMARK SMILES IDX 9 12 8 13 7 14 6 15 5 16 4 17 3 18 2 19 1 20
REMARK H PARENT
REMARK Flexibility Score: inf
ROOT
ATOM      1  C   UNL     1      34.290  10.823  45.153  1.00  0.00     0.000 C 
ENDROOT
BRANCH   1   2
ATOM      2  C   UNL     1      34.620  10.021  43.884  1.00  0.00     0.000 C 
BRANCH   2   3
ATOM      3  C   UNL     1      34.576   8.501  44.117  1.00  0.00     0.000 C 
BRANCH   3   4
ATOM      4  C   UNL     1      33.905   8.127  45.450  1.00  0.00     0.000 C 
BRANCH   4   5
ATOM      5  C   UNL     1      33.815   6.608  45.663  1.00  0.00     0.000 C 
BRANCH   5   6
ATOM      6  C   UNL     1      32.784   6.265  46.747  1.00  0.00     0.000 C 
BRANCH   6   7
ATOM      7  C   UNL     1      33.419   5.669  48.018  1.00  0.00     0.006 C 
BRANCH   7   8
ATOM      8  C   UNL     1      34.816   5.064  47.792  1.00  0.00     0.053 C 
BRANCH   8   9
ATOM      9  C   UNL     1      35.690   5.167  49.005  1.00  0.00     0.041 C 
ATOM     10  O   UNL     1      36.224   4.134  49.491  1.00  0.00    -0.550 OA
ATOM     11  O   UNL     1      35.890   6.396  49.621  1.00  0.00    -0.550 OA
ENDBRANCH   8   9
ENDBRANCH   7   8
ENDBRANCH   6   7
ENDBRANCH   5   6
ENDBRANCH   4   5
ENDBRANCH   3   4
ENDBRANCH   2   3
ENDBRANCH   1   2
BRANCH   1  12
ATOM     12  C   UNL     1      35.542  11.221  45.948  1.00  0.00     0.000 C 
BRANCH  12  13
ATOM     13  C   UNL     1      35.432  10.766  47.408  1.00  0.00    -0.000 C 
BRANCH  13  14
ATOM     14  C   UNL     1      33.989  10.885  47.915  1.00  0.00    -0.000 C 
BRANCH  14  15
ATOM     15  C   UNL     1      33.577   9.636  48.702  1.00  0.00    -0.000 C 
BRANCH  15  16
ATOM     16  C   UNL     1      32.134   9.757  49.213  1.00  0.00    -0.000 C 
BRANCH  16  17
ATOM     17  C   UNL     1      31.553   8.416  49.699  1.00  0.00    -0.000 C 
BRANCH  17  18
ATOM     18  C   UNL     1      30.216   8.014  49.050  1.00  0.00    -0.000 C 
BRANCH  18  19
ATOM     19  C   UNL     1      29.750   6.610  49.463  1.00  0.00    -0.003 C 
ATOM     20  C   UNL     1      29.082   5.888  48.296  1.00  0.00     0.004 C 
ENDBRANCH  18  19
ENDBRANCH  17  18
ENDBRANCH  16  17
ENDBRANCH  15  16
ENDBRANCH  14  15
ENDBRANCH  13  14
ENDBRANCH  12  13
ENDBRANCH   1  12
TORSDOF 16
ENDMDL
