MODEL 1
REMARK VINA RESULT:    -0.896      0.000      0.000
REMARK INTER + INTRA:          -1.213
REMARK INTER:                  -1.262
REMARK INTRA:                   0.049
REMARK UNBOUND:                 0.049
REMARK SMILES CC1=CCC(=C(C)C)C(=O)CC(C)=CCC1
REMARK SMILES IDX 12 1 14 2 13 3 15 4 16 5 2 6 1 7 3 8 11 10 9 11 10 12 5 13
REMARK SMILES IDX 6 14 7 15 8 16 4 17
REMARK H PARENT
REMARK Flexibility Score: 60.00
ROOT
ATOM      1  C   UNL     1      90.765  26.796  12.999  1.00  0.00    -0.070 C 
ATOM      2  C   UNL     1      91.812  26.323  12.218  1.00  0.00    -0.027 C 
ATOM      3  C   UNL     1      90.835  26.454  14.469  1.00  0.00     0.039 C 
ENDROOT
BRANCH   2   4
ATOM      4  C   UNL     1      92.024  26.351  10.686  1.00  0.00     0.032 C 
BRANCH   4   5
ATOM      5  C   UNL     1      93.014  27.418  10.293  1.00  0.00     0.034 C 
BRANCH   5   6
ATOM      6  C   UNL     1      92.743  28.675   9.538  1.00  0.00    -0.077 C 
ATOM      7  C   UNL     1      92.680  28.680   8.035  1.00  0.00     0.039 C 
ATOM      8  C   UNL     1      92.530  29.804  10.279  1.00  0.00    -0.023 CG0
ATOM      9  G   UNL     1      92.541  29.819  11.830  1.00  0.00     0.000 G0
ENDBRANCH   5   6
ENDBRANCH   4   5
ENDBRANCH   2   4
BRANCH   1  10
ATOM     10  C   UNL     1      89.575  27.702  12.569  1.00  0.00     0.111 C 
BRANCH  10  11
ATOM     11  C   UNL     1      89.973  29.082  12.026  1.00  0.00     0.163 C 
ATOM     12  O   UNL     1      89.229  29.535  11.112  1.00  0.00    -0.294 OA
BRANCH  11  13
ATOM     13  C   UNL     1      91.142  29.951  12.513  1.00  0.00    -0.002 C 
ATOM     14  C   UNL     1      90.960  30.830  13.553  1.00  0.00    -0.069 C 
ATOM     15  C   UNL     1      89.585  31.145  14.108  1.00  0.00     0.039 C 
ATOM     16  C   UNL     1      92.121  31.580  14.175  1.00  0.00     0.039 C 
BRANCH  13  17
ATOM     17  C   UNL     1      92.541  29.839  11.853  1.00  0.00     0.066 CG0
ATOM     18  G   UNL     1      92.519  29.797  10.303  1.00  0.00     0.000 G0
ENDBRANCH  13  17
ENDBRANCH  11  13
ENDBRANCH  10  11
ENDBRANCH   1  10
TORSDOF 0
ENDMDL
MODEL 2
REMARK VINA RESULT:    -0.895      2.213      4.091
REMARK INTER + INTRA:          -1.211
REMARK INTER:                  -1.184
REMARK INTRA:                  -0.028
REMARK UNBOUND:                 0.049
REMARK SMILES CC1=CCC(=C(C)C)C(=O)CC(C)=CCC1
REMARK SMILES IDX 12 1 14 2 13 3 15 4 16 5 2 6 1 7 3 8 11 10 9 11 10 12 5 13
REMARK SMILES IDX 6 14 7 15 8 16 4 17
REMARK H PARENT
REMARK Flexibility Score: 60.00
ROOT
ATOM      1  C   UNL     1      92.011  30.079  15.900  1.00  0.00    -0.070 C 
ATOM      2  C   UNL     1      93.395  30.136  16.004  1.00  0.00    -0.027 C 
ATOM      3  C   UNL     1      91.363  28.823  16.434  1.00  0.00     0.039 C 
ENDROOT
BRANCH   2   4
ATOM      4  C   UNL     1      94.409  31.171  15.463  1.00  0.00     0.032 C 
BRANCH   4   5
ATOM      5  C   UNL     1      94.705  30.930  14.004  1.00  0.00     0.034 C 
BRANCH   5   6
ATOM      6  C   UNL     1      94.335  31.796  12.848  1.00  0.00    -0.077 C 
ATOM      7  C   UNL     1      95.049  33.095  12.591  1.00  0.00     0.039 C 
ATOM      8  C   UNL     1      93.342  31.337  12.029  1.00  0.00    -0.023 CG0
ATOM      9  G   UNL     1      92.621  29.980  12.241  1.00  0.00     0.000 G0
ENDBRANCH   5   6
ENDBRANCH   4   5
ENDBRANCH   2   4
BRANCH   1  10
ATOM     10  C   UNL     1      91.037  31.176  15.380  1.00  0.00     0.111 C 
BRANCH  10  11
ATOM     11  C   UNL     1      90.842  31.201  13.857  1.00  0.00     0.163 C 
ATOM     12  O   UNL     1      90.376  32.279  13.393  1.00  0.00    -0.294 OA
BRANCH  11  13
ATOM     13  C   UNL     1      91.194  30.074  12.875  1.00  0.00    -0.002 C 
ATOM     14  C   UNL     1      90.244  29.147  12.522  1.00  0.00    -0.069 C 
ATOM     15  C   UNL     1      88.909  29.053  13.235  1.00  0.00     0.039 C 
ATOM     16  C   UNL     1      90.495  28.123  11.433  1.00  0.00     0.039 C 
BRANCH  13  17
ATOM     17  C   UNL     1      92.613  29.975  12.257  1.00  0.00     0.066 CG0
ATOM     18  G   UNL     1      93.320  31.339  12.045  1.00  0.00     0.000 G0
ENDBRANCH  13  17
ENDBRANCH  11  13
ENDBRANCH  10  11
ENDBRANCH   1  10
TORSDOF 0
ENDMDL
MODEL 3
REMARK VINA RESULT:    -0.818      2.909      4.208
REMARK INTER + INTRA:          -1.103
REMARK INTER:                  -1.101
REMARK INTRA:                  -0.001
REMARK UNBOUND:                 0.049
REMARK SMILES CC1=CCC(=C(C)C)C(=O)CC(C)=CCC1
REMARK SMILES IDX 12 1 14 2 13 3 15 4 16 5 2 6 1 7 3 8 11 10 9 11 10 12 5 13
REMARK SMILES IDX 6 14 7 15 8 16 4 17
REMARK H PARENT
REMARK Flexibility Score: 60.00
ROOT
ATOM      1  C   UNL     1      92.868  27.300  10.403  1.00  0.00    -0.070 C 
ATOM      2  C   UNL     1      93.676  26.616   9.504  1.00  0.00    -0.027 C 
ATOM      3  C   UNL     1      91.915  26.449  11.210  1.00  0.00     0.039 C 
ENDROOT
BRANCH   2   4
ATOM      4  C   UNL     1      94.660  27.136   8.429  1.00  0.00     0.032 C 
BRANCH   4   5
ATOM      5  C   UNL     1      94.001  27.200   7.074  1.00  0.00     0.034 C 
BRANCH   5   6
ATOM      6  C   UNL     1      93.831  28.399   6.203  1.00  0.00    -0.077 C 
ATOM      7  C   UNL     1      94.889  28.793   5.209  1.00  0.00     0.039 C 
ATOM      8  C   UNL     1      92.663  29.096   6.339  1.00  0.00    -0.023 CG0
ATOM      9  G   UNL     1      91.535  28.686   7.321  1.00  0.00     0.000 G0
ENDBRANCH   5   6
ENDBRANCH   4   5
ENDBRANCH   2   4
BRANCH   1  10
ATOM     10  C   UNL     1      92.876  28.818  10.744  1.00  0.00     0.111 C 
BRANCH  10  11
ATOM     11  C   UNL     1      92.569  29.751   9.563  1.00  0.00     0.163 C 
ATOM     12  O   UNL     1      93.392  30.694   9.395  1.00  0.00    -0.294 OA
BRANCH  11  13
ATOM     13  C   UNL     1      91.403  29.614   8.573  1.00  0.00    -0.002 C 
ATOM     14  C   UNL     1      90.235  30.304   8.786  1.00  0.00    -0.069 C 
ATOM     15  C   UNL     1      89.958  31.036  10.085  1.00  0.00     0.039 C 
ATOM     16  C   UNL     1      89.126  30.331   7.753  1.00  0.00     0.039 C 
BRANCH  13  17
ATOM     17  C   UNL     1      91.531  28.711   7.319  1.00  0.00     0.066 CG0
ATOM     18  G   UNL     1      92.669  29.117   6.347  1.00  0.00     0.000 G0
ENDBRANCH  13  17
ENDBRANCH  11  13
ENDBRANCH  10  11
ENDBRANCH   1  10
TORSDOF 0
ENDMDL
MODEL 4
REMARK VINA RESULT:    -0.790      3.247      5.062
REMARK INTER + INTRA:          -1.064
REMARK INTER:                  -1.072
REMARK INTRA:                   0.008
REMARK UNBOUND:                 0.049
REMARK SMILES CC1=CCC(=C(C)C)C(=O)CC(C)=CCC1
REMARK SMILES IDX 12 1 14 2 13 3 15 4 16 5 2 6 1 7 3 8 11 10 9 11 10 12 5 13
REMARK SMILES IDX 6 14 7 15 8 16 4 17
REMARK H PARENT
REMARK Flexibility Score: 60.00
ROOT
ATOM      1  C   UNL     1      90.423  32.025  14.773  1.00  0.00    -0.070 C 
ATOM      2  C   UNL     1      89.184  31.468  15.068  1.00  0.00    -0.027 C 
ATOM      3  C   UNL     1      90.897  33.109  15.713  1.00  0.00     0.039 C 
ENDROOT
BRANCH   2   4
ATOM      4  C   UNL     1      88.319  30.454  14.285  1.00  0.00     0.032 C 
BRANCH   4   5
ATOM      5  C   UNL     1      88.680  29.036  14.649  1.00  0.00     0.034 C 
BRANCH   5   6
ATOM      6  C   UNL     1      89.441  28.053  13.826  1.00  0.00    -0.077 C 
ATOM      7  C   UNL     1      88.847  27.460  12.577  1.00  0.00     0.039 C 
ATOM      8  C   UNL     1      90.704  27.743  14.249  1.00  0.00    -0.023 CG0
ATOM      9  G   UNL     1      91.359  28.374  15.505  1.00  0.00     0.000 G0
ENDBRANCH   5   6
ENDBRANCH   4   5
ENDBRANCH   2   4
BRANCH   1  10
ATOM     10  C   UNL     1      91.419  31.618  13.650  1.00  0.00     0.111 C 
BRANCH  10  11
ATOM     11  C   UNL     1      92.233  30.347  13.933  1.00  0.00     0.163 C 
ATOM     12  O   UNL     1      92.936  29.933  12.969  1.00  0.00    -0.294 OA
BRANCH  11  13
ATOM     13  C   UNL     1      92.292  29.580  15.262  1.00  0.00    -0.002 C 
ATOM     14  C   UNL     1      93.168  29.974  16.246  1.00  0.00    -0.069 C 
ATOM     15  C   UNL     1      94.246  31.009  15.994  1.00  0.00     0.039 C 
ATOM     16  C   UNL     1      93.142  29.355  17.629  1.00  0.00     0.039 C 
BRANCH  13  17
ATOM     17  C   UNL     1      91.361  28.367  15.520  1.00  0.00     0.066 CG0
ATOM     18  G   UNL     1      90.712  27.771  14.244  1.00  0.00     0.000 G0
ENDBRANCH  13  17
ENDBRANCH  11  13
ENDBRANCH  10  11
ENDBRANCH   1  10
TORSDOF 0
ENDMDL
MODEL 5
REMARK VINA RESULT:    -0.789      3.023      6.101
REMARK INTER + INTRA:          -1.062
REMARK INTER:                  -1.081
REMARK INTRA:                   0.018
REMARK UNBOUND:                 0.049
REMARK SMILES CC1=CCC(=C(C)C)C(=O)CC(C)=CCC1
REMARK SMILES IDX 12 1 14 2 13 3 15 4 16 5 2 6 1 7 3 8 11 10 9 11 10 12 5 13
REMARK SMILES IDX 6 14 7 15 8 16 4 17
REMARK H PARENT
REMARK Flexibility Score: 60.00
ROOT
ATOM      1  C   UNL     1      91.337  32.991  13.861  1.00  0.00    -0.070 C 
ATOM      2  C   UNL     1      91.941  33.536  14.988  1.00  0.00    -0.027 C 
ATOM      3  C   UNL     1      89.966  33.529  13.525  1.00  0.00     0.039 C 
ENDROOT
BRANCH   2   4
ATOM      4  C   UNL     1      93.253  33.159  15.714  1.00  0.00     0.032 C 
BRANCH   4   5
ATOM      5  C   UNL     1      92.992  32.194  16.844  1.00  0.00     0.034 C 
BRANCH   5   6
ATOM      6  C   UNL     1      93.620  30.859  17.061  1.00  0.00    -0.077 C 
ATOM      7  C   UNL     1      94.935  30.727  17.780  1.00  0.00     0.039 C 
ATOM      8  C   UNL     1      92.929  29.773  16.599  1.00  0.00    -0.023 CG0
ATOM      9  G   UNL     1      91.550  29.875  15.898  1.00  0.00     0.000 G0
ENDBRANCH   5   6
ENDBRANCH   4   5
ENDBRANCH   2   4
BRANCH   1  10
ATOM     10  C   UNL     1      91.926  31.960  12.855  1.00  0.00     0.111 C 
BRANCH  10  11
ATOM     11  C   UNL     1      92.428  30.653  13.486  1.00  0.00     0.163 C 
ATOM     12  O   UNL     1      93.648  30.394  13.288  1.00  0.00    -0.294 OA
BRANCH  11  13
ATOM     13  C   UNL     1      91.606  29.681  14.345  1.00  0.00    -0.002 C 
ATOM     14  C   UNL     1      90.925  28.645  13.752  1.00  0.00    -0.069 C 
ATOM     15  C   UNL     1      90.767  28.543  12.248  1.00  0.00     0.039 C 
ATOM     16  C   UNL     1      90.242  27.568  14.572  1.00  0.00     0.039 C 
BRANCH  13  17
ATOM     17  C   UNL     1      91.544  29.844  15.886  1.00  0.00     0.066 CG0
ATOM     18  G   UNL     1      92.920  29.774  16.596  1.00  0.00     0.000 G0
ENDBRANCH  13  17
ENDBRANCH  11  13
ENDBRANCH  10  11
ENDBRANCH   1  10
TORSDOF 0
ENDMDL
MODEL 6
REMARK VINA RESULT:    -0.782      1.594      3.558
REMARK INTER + INTRA:          -1.053
REMARK INTER:                  -1.072
REMARK INTRA:                   0.019
REMARK UNBOUND:                 0.049
REMARK SMILES CC1=CCC(=C(C)C)C(=O)CC(C)=CCC1
REMARK SMILES IDX 12 1 14 2 13 3 15 4 16 5 2 6 1 7 3 8 11 10 9 11 10 12 5 13
REMARK SMILES IDX 6 14 7 15 8 16 4 17
REMARK H PARENT
REMARK Flexibility Score: 60.00
ROOT
ATOM      1  C   UNL     1      93.180  31.152   9.919  1.00  0.00    -0.070 C 
ATOM      2  C   UNL     1      93.528  29.847   9.589  1.00  0.00    -0.027 C 
ATOM      3  C   UNL     1      94.321  32.139   9.986  1.00  0.00     0.039 C 
ENDROOT
BRANCH   2   4
ATOM      4  C   UNL     1      92.682  28.553   9.554  1.00  0.00     0.032 C 
BRANCH   4   5
ATOM      5  C   UNL     1      92.788  27.797  10.854  1.00  0.00     0.034 C 
BRANCH   5   6
ATOM      6  C   UNL     1      91.693  27.492  11.819  1.00  0.00    -0.077 C 
ATOM      7  C   UNL     1      90.849  26.255  11.670  1.00  0.00     0.039 C 
ATOM      8  C   UNL     1      91.518  28.373  12.849  1.00  0.00    -0.023 CG0
ATOM      9  G   UNL     1      92.403  29.630  13.055  1.00  0.00     0.000 G0
ENDBRANCH   5   6
ENDBRANCH   4   5
ENDBRANCH   2   4
BRANCH   1  10
ATOM     10  C   UNL     1      91.758  31.741  10.148  1.00  0.00     0.111 C 
BRANCH  10  11
ATOM     11  C   UNL     1      91.039  31.234  11.406  1.00  0.00     0.163 C 
ATOM     12  O   UNL     1      89.809  30.988  11.260  1.00  0.00    -0.294 OA
BRANCH  11  13
ATOM     13  C   UNL     1      91.679  30.969  12.777  1.00  0.00    -0.002 C 
ATOM     14  C   UNL     1      91.612  31.923  13.764  1.00  0.00    -0.069 C 
ATOM     15  C   UNL     1      91.118  33.329  13.490  1.00  0.00     0.039 C 
ATOM     16  C   UNL     1      92.079  31.640  15.178  1.00  0.00     0.039 C 
BRANCH  13  17
ATOM     17  C   UNL     1      92.394  29.625  13.071  1.00  0.00     0.066 CG0
ATOM     18  G   UNL     1      91.510  28.367  12.866  1.00  0.00     0.000 G0
ENDBRANCH  13  17
ENDBRANCH  11  13
ENDBRANCH  10  11
ENDBRANCH   1  10
TORSDOF 0
ENDMDL
MODEL 7
REMARK VINA RESULT:    -0.738      4.599      6.680
REMARK INTER + INTRA:          -0.991
REMARK INTER:                  -1.025
REMARK INTRA:                   0.034
REMARK UNBOUND:                 0.049
REMARK SMILES CC1=CCC(=C(C)C)C(=O)CC(C)=CCC1
REMARK SMILES IDX 12 1 14 2 13 3 15 4 16 5 2 6 1 7 3 8 11 10 9 11 10 12 5 13
REMARK SMILES IDX 6 14 7 15 8 16 4 17
REMARK H PARENT
REMARK Flexibility Score: 60.00
ROOT
ATOM      1  C   UNL     1      94.231  33.858  17.209  1.00  0.00    -0.070 C 
ATOM      2  C   UNL     1      94.985  32.761  17.608  1.00  0.00    -0.027 C 
ATOM      3  C   UNL     1      95.009  35.120  16.919  1.00  0.00     0.039 C 
ENDROOT
BRANCH   2   4
ATOM      4  C   UNL     1      94.552  31.365  18.112  1.00  0.00     0.032 C 
BRANCH   4   5
ATOM      5  C   UNL     1      94.497  30.371  16.979  1.00  0.00     0.034 C 
BRANCH   5   6
ATOM      6  C   UNL     1      93.281  29.810  16.322  1.00  0.00    -0.077 C 
ATOM      7  C   UNL     1      92.448  28.757  17.001  1.00  0.00     0.039 C 
ATOM      8  C   UNL     1      92.956  30.318  15.096  1.00  0.00    -0.023 CG0
ATOM      9  G   UNL     1      93.768  31.437  14.393  1.00  0.00     0.000 G0
ENDBRANCH   5   6
ENDBRANCH   4   5
ENDBRANCH   2   4
BRANCH   1  10
ATOM     10  C   UNL     1      92.700  33.929  16.943  1.00  0.00     0.111 C 
BRANCH  10  11
ATOM     11  C   UNL     1      92.233  33.250  15.648  1.00  0.00     0.163 C 
ATOM     12  O   UNL     1      90.991  33.040  15.568  1.00  0.00    -0.294 OA
BRANCH  11  13
ATOM     13  C   UNL     1      93.119  32.851  14.458  1.00  0.00    -0.002 C 
ATOM     14  C   UNL     1      93.362  33.750  13.448  1.00  0.00    -0.069 C 
ATOM     15  C   UNL     1      92.611  35.062  13.342  1.00  0.00     0.039 C 
ATOM     16  C   UNL     1      94.361  33.459  12.346  1.00  0.00     0.039 C 
BRANCH  13  17
ATOM     17  C   UNL     1      93.761  31.440  14.386  1.00  0.00     0.066 CG0
ATOM     18  G   UNL     1      92.948  30.326  15.095  1.00  0.00     0.000 G0
ENDBRANCH  13  17
ENDBRANCH  11  13
ENDBRANCH  10  11
ENDBRANCH   1  10
TORSDOF 0
ENDMDL
MODEL 8
REMARK VINA RESULT:    -0.611      1.920      4.526
REMARK INTER + INTRA:          -0.812
REMARK INTER:                  -0.829
REMARK INTRA:                   0.017
REMARK UNBOUND:                 0.049
REMARK SMILES CC1=CCC(=C(C)C)C(=O)CC(C)=CCC1
REMARK SMILES IDX 12 1 14 2 13 3 15 4 16 5 2 6 1 7 3 8 11 10 9 11 10 12 5 13
REMARK SMILES IDX 6 14 7 15 8 16 4 17
REMARK H PARENT
REMARK Flexibility Score: 60.00
ROOT
ATOM      1  C   UNL     1      89.533  29.391  10.019  1.00  0.00    -0.070 C 
ATOM      2  C   UNL     1      88.925  30.183  10.986  1.00  0.00    -0.027 C 
ATOM      3  C   UNL     1      89.562  29.965   8.622  1.00  0.00     0.039 C 
ENDROOT
BRANCH   2   4
ATOM      4  C   UNL     1      88.587  29.892  12.466  1.00  0.00     0.032 C 
BRANCH   4   5
ATOM      5  C   UNL     1      89.758  30.201  13.363  1.00  0.00     0.034 C 
BRANCH   5   6
ATOM      6  C   UNL     1      90.717  29.234  13.971  1.00  0.00    -0.077 C 
ATOM      7  C   UNL     1      90.290  28.309  15.078  1.00  0.00     0.039 C 
ATOM      8  C   UNL     1      91.983  29.217  13.455  1.00  0.00    -0.023 CG0
ATOM      9  G   UNL     1      92.437  30.125  12.283  1.00  0.00     0.000 G0
ENDBRANCH   5   6
ENDBRANCH   4   5
ENDBRANCH   2   4
BRANCH   1  10
ATOM     10  C   UNL     1      90.259  28.028  10.208  1.00  0.00     0.111 C 
BRANCH  10  11
ATOM     11  C   UNL     1      91.729  28.130  10.641  1.00  0.00     0.163 C 
ATOM     12  O   UNL     1      92.334  27.027  10.754  1.00  0.00    -0.294 OA
BRANCH  11  13
ATOM     13  C   UNL     1      92.513  29.424  10.904  1.00  0.00    -0.002 C 
ATOM     14  C   UNL     1      93.275  29.982   9.906  1.00  0.00    -0.069 C 
ATOM     15  C   UNL     1      93.555  29.254   8.606  1.00  0.00     0.039 C 
ATOM     16  C   UNL     1      93.927  31.341  10.067  1.00  0.00     0.039 C 
BRANCH  13  17
ATOM     17  C   UNL     1      92.447  30.124  12.286  1.00  0.00     0.066 CG0
ATOM     18  G   UNL     1      91.982  29.209  13.449  1.00  0.00     0.000 G0
ENDBRANCH  13  17
ENDBRANCH  11  13
ENDBRANCH  10  11
ENDBRANCH   1  10
TORSDOF 0
ENDMDL
MODEL 9
REMARK VINA RESULT:    -0.607      2.194      4.364
REMARK INTER + INTRA:          -0.806
REMARK INTER:                  -0.833
REMARK INTRA:                   0.027
REMARK UNBOUND:                 0.049
REMARK SMILES CC1=CCC(=C(C)C)C(=O)CC(C)=CCC1
REMARK SMILES IDX 12 1 14 2 13 3 15 4 16 5 2 6 1 7 3 8 11 10 9 11 10 12 5 13
REMARK SMILES IDX 6 14 7 15 8 16 4 17
REMARK H PARENT
REMARK Flexibility Score: 60.00
ROOT
ATOM      1  C   UNL     1      91.799  31.157  12.838  1.00  0.00    -0.070 C 
ATOM      2  C   UNL     1      92.061  32.477  12.491  1.00  0.00    -0.027 C 
ATOM      3  C   UNL     1      92.765  30.532  13.818  1.00  0.00     0.039 C 
ENDROOT
BRANCH   2   4
ATOM      4  C   UNL     1      91.396  33.397  11.440  1.00  0.00     0.032 C 
BRANCH   4   5
ATOM      5  C   UNL     1      91.968  33.157  10.066  1.00  0.00     0.034 C 
BRANCH   5   6
ATOM      6  C   UNL     1      91.262  32.614   8.871  1.00  0.00    -0.077 C 
ATOM      7  C   UNL     1      90.297  33.462   8.087  1.00  0.00     0.039 C 
ATOM      8  C   UNL     1      91.555  31.327   8.515  1.00  0.00    -0.023 CG0
ATOM      9  G   UNL     1      92.580  30.446   9.275  1.00  0.00     0.000 G0
ENDBRANCH   5   6
ENDBRANCH   4   5
ENDBRANCH   2   4
BRANCH   1  10
ATOM     10  C   UNL     1      90.596  30.268  12.411  1.00  0.00     0.111 C 
BRANCH  10  11
ATOM     11  C   UNL     1      90.696  29.673  10.999  1.00  0.00     0.163 C 
ATOM     12  O   UNL     1      89.592  29.437  10.436  1.00  0.00    -0.294 OA
BRANCH  11  13
ATOM     13  C   UNL     1      91.989  29.387  10.222  1.00  0.00    -0.002 C 
ATOM     14  C   UNL     1      92.620  28.173  10.357  1.00  0.00    -0.069 C 
ATOM     15  C   UNL     1      92.213  27.171  11.418  1.00  0.00     0.039 C 
ATOM     16  C   UNL     1      93.798  27.786   9.485  1.00  0.00     0.039 C 
BRANCH  13  17
ATOM     17  C   UNL     1      92.592  30.450   9.267  1.00  0.00     0.066 CG0
ATOM     18  G   UNL     1      91.542  31.316   8.523  1.00  0.00     0.000 G0
ENDBRANCH  13  17
ENDBRANCH  11  13
ENDBRANCH  10  11
ENDBRANCH   1  10
TORSDOF 0
ENDMDL
