MODEL 1
REMARK VINA RESULT:    -2.851      0.000      0.000
REMARK INTER + INTRA:          -6.081
REMARK INTER:                  -5.184
REMARK INTRA:                  -0.897
REMARK UNBOUND:                -0.897
REMARK SMILES CCCCCCCCCCCCCCCC(=O)[O-]
REMARK SMILES IDX 9 1 10 2 11 3 12 4 13 5 14 6 15 7 16 8 17 9 18 10 8 11 7 12
REMARK SMILES IDX 6 13 5 14 4 15 3 16 2 17 1 18
REMARK H PARENT
REMARK Flexibility Score: inf
ROOT
ATOM      1  C   UNL     1       3.100 -37.812  19.765  1.00  0.00     0.000 C 
ENDROOT
BRANCH   1   2
ATOM      2  C   UNL     1       4.357 -37.130  19.201  1.00  0.00     0.000 C 
BRANCH   2   3
ATOM      3  C   UNL     1       5.530 -37.119  20.198  1.00  0.00     0.000 C 
BRANCH   3   4
ATOM      4  C   UNL     1       5.968 -35.701  20.623  1.00  0.00     0.000 C 
BRANCH   4   5
ATOM      5  C   UNL     1       5.126 -35.161  21.791  1.00  0.00     0.000 C 
BRANCH   5   6
ATOM      6  C   UNL     1       5.818 -35.340  23.152  1.00  0.00     0.006 C 
BRANCH   6   7
ATOM      7  C   UNL     1       5.756 -36.785  23.660  1.00  0.00     0.053 C 
BRANCH   7   8
ATOM      8  C   UNL     1       5.597 -36.809  25.148  1.00  0.00     0.041 C 
ATOM      9  O   UNL     1       4.946 -37.735  25.701  1.00  0.00    -0.550 OA
ATOM     10  O   UNL     1       6.125 -35.782  25.920  1.00  0.00    -0.550 OA
ENDBRANCH   7   8
ENDBRANCH   6   7
ENDBRANCH   5   6
ENDBRANCH   4   5
ENDBRANCH   3   4
ENDBRANCH   2   3
ENDBRANCH   1   2
BRANCH   1  11
ATOM     11  C   UNL     1       1.929 -37.808  18.765  1.00  0.00     0.000 C 
BRANCH  11  12
ATOM     12  C   UNL     1       2.371 -37.773  17.289  1.00  0.00    -0.000 C 
BRANCH  12  13
ATOM     13  C   UNL     1       1.524 -36.803  16.448  1.00  0.00    -0.000 C 
BRANCH  13  14
ATOM     14  C   UNL     1       2.224 -36.382  15.144  1.00  0.00    -0.000 C 
BRANCH  14  15
ATOM     15  C   UNL     1       3.756 -36.592  15.170  1.00  0.00    -0.000 C 
BRANCH  15  16
ATOM     16  C   UNL     1       4.274 -37.430  13.988  1.00  0.00    -0.000 C 
BRANCH  16  17
ATOM     17  C   UNL     1       3.978 -38.927  14.164  1.00  0.00    -0.003 C 
ATOM     18  C   UNL     1       5.226 -39.768  13.910  1.00  0.00     0.004 C 
ENDBRANCH  16  17
ENDBRANCH  15  16
ENDBRANCH  14  15
ENDBRANCH  13  14
ENDBRANCH  12  13
ENDBRANCH  11  12
ENDBRANCH   1  11
TORSDOF 14
ENDMDL
MODEL 2
REMARK VINA RESULT:    -2.781      0.989      1.633
REMARK INTER + INTRA:          -5.954
REMARK INTER:                  -4.929
REMARK INTRA:                  -1.026
REMARK UNBOUND:                -0.897
REMARK SMILES CCCCCCCCCCCCCCCC(=O)[O-]
REMARK SMILES IDX 9 1 10 2 11 3 12 4 13 5 14 6 15 7 16 8 17 9 18 10 8 11 7 12
REMARK SMILES IDX 6 13 5 14 4 15 3 16 2 17 1 18
REMARK H PARENT
REMARK Flexibility Score: inf
ROOT
ATOM      1  C   UNL     1       1.431 -37.990  19.452  1.00  0.00     0.000 C 
ENDROOT
BRANCH   1   2
ATOM      2  C   UNL     1       2.733 -37.542  20.136  1.00  0.00     0.000 C 
BRANCH   2   3
ATOM      3  C   UNL     1       3.988 -37.868  19.305  1.00  0.00     0.000 C 
BRANCH   3   4
ATOM      4  C   UNL     1       5.287 -37.269  19.886  1.00  0.00     0.000 C 
BRANCH   4   5
ATOM      5  C   UNL     1       5.050 -35.902  20.548  1.00  0.00     0.000 C 
BRANCH   5   6
ATOM      6  C   UNL     1       6.100 -35.574  21.623  1.00  0.00     0.006 C 
BRANCH   6   7
ATOM      7  C   UNL     1       6.062 -36.553  22.802  1.00  0.00     0.053 C 
BRANCH   7   8
ATOM      8  C   UNL     1       5.774 -35.822  24.077  1.00  0.00     0.041 C 
ATOM      9  O   UNL     1       5.936 -34.574  24.142  1.00  0.00    -0.550 OA
ATOM     10  O   UNL     1       5.373 -36.524  25.205  1.00  0.00    -0.550 OA
ENDBRANCH   7   8
ENDBRANCH   6   7
ENDBRANCH   5   6
ENDBRANCH   4   5
ENDBRANCH   3   4
ENDBRANCH   2   3
ENDBRANCH   1   2
BRANCH   1  11
ATOM     11  C   UNL     1       1.591 -38.143  17.928  1.00  0.00     0.000 C 
BRANCH  11  12
ATOM     12  C   UNL     1       0.923 -37.018  17.115  1.00  0.00    -0.000 C 
BRANCH  12  13
ATOM     13  C   UNL     1       1.791 -36.557  15.932  1.00  0.00    -0.000 C 
BRANCH  13  14
ATOM     14  C   UNL     1       3.270 -36.947  16.094  1.00  0.00    -0.000 C 
BRANCH  14  15
ATOM     15  C   UNL     1       3.989 -37.219  14.752  1.00  0.00    -0.000 C 
BRANCH  15  16
ATOM     16  C   UNL     1       3.845 -38.672  14.270  1.00  0.00    -0.000 C 
BRANCH  16  17
ATOM     17  C   UNL     1       5.195 -39.290  13.876  1.00  0.00    -0.003 C 
ATOM     18  C   UNL     1       5.229 -40.783  14.187  1.00  0.00     0.004 C 
ENDBRANCH  16  17
ENDBRANCH  15  16
ENDBRANCH  14  15
ENDBRANCH  13  14
ENDBRANCH  12  13
ENDBRANCH  11  12
ENDBRANCH   1  11
TORSDOF 14
ENDMDL
MODEL 3
REMARK VINA RESULT:    -2.742      3.902      8.092
REMARK INTER + INTRA:          -5.884
REMARK INTER:                  -4.752
REMARK INTRA:                  -1.132
REMARK UNBOUND:                -0.897
REMARK SMILES CCCCCCCCCCCCCCCC(=O)[O-]
REMARK SMILES IDX 9 1 10 2 11 3 12 4 13 5 14 6 15 7 16 8 17 9 18 10 8 11 7 12
REMARK SMILES IDX 6 13 5 14 4 15 3 16 2 17 1 18
REMARK H PARENT
REMARK Flexibility Score: inf
ROOT
ATOM      1  C   UNL     1       4.846 -35.577  22.097  1.00  0.00     0.000 C 
ENDROOT
BRANCH   1   2
ATOM      2  C   UNL     1       5.128 -35.890  20.618  1.00  0.00     0.000 C 
BRANCH   2   3
ATOM      3  C   UNL     1       5.015 -37.390  20.292  1.00  0.00     0.000 C 
BRANCH   3   4
ATOM      4  C   UNL     1       4.282 -37.681  18.965  1.00  0.00     0.000 C 
BRANCH   4   5
ATOM      5  C   UNL     1       2.753 -37.643  19.127  1.00  0.00     0.000 C 
BRANCH   5   6
ATOM      6  C   UNL     1       2.011 -37.857  17.798  1.00  0.00     0.006 C 
BRANCH   6   7
ATOM      7  C   UNL     1       2.937 -37.748  16.581  1.00  0.00     0.053 C 
BRANCH   7   8
ATOM      8  C   UNL     1       2.529 -36.595  15.717  1.00  0.00     0.041 C 
ATOM      9  O   UNL     1       1.591 -35.835  16.077  1.00  0.00    -0.550 OA
ATOM     10  O   UNL     1       3.151 -36.389  14.493  1.00  0.00    -0.550 OA
ENDBRANCH   7   8
ENDBRANCH   6   7
ENDBRANCH   5   6
ENDBRANCH   4   5
ENDBRANCH   3   4
ENDBRANCH   2   3
ENDBRANCH   1   2
BRANCH   1  11
ATOM     11  C   UNL     1       6.123 -35.200  22.871  1.00  0.00     0.000 C 
BRANCH  11  12
ATOM     12  C   UNL     1       5.876 -34.861  24.353  1.00  0.00    -0.000 C 
BRANCH  12  13
ATOM     13  C   UNL     1       6.125 -36.064  25.279  1.00  0.00    -0.000 C 
BRANCH  13  14
ATOM     14  C   UNL     1       4.870 -36.933  25.472  1.00  0.00    -0.000 C 
BRANCH  14  15
ATOM     15  C   UNL     1       5.113 -38.438  25.213  1.00  0.00    -0.000 C 
BRANCH  15  16
ATOM     16  C   UNL     1       5.840 -38.715  23.885  1.00  0.00    -0.000 C 
BRANCH  16  17
ATOM     17  C   UNL     1       5.158 -39.825  23.071  1.00  0.00    -0.003 C 
ATOM     18  C   UNL     1       5.943 -40.136  21.800  1.00  0.00     0.004 C 
ENDBRANCH  16  17
ENDBRANCH  15  16
ENDBRANCH  14  15
ENDBRANCH  13  14
ENDBRANCH  12  13
ENDBRANCH  11  12
ENDBRANCH   1  11
TORSDOF 14
ENDMDL
MODEL 4
REMARK VINA RESULT:    -2.459      3.964      8.074
REMARK INTER + INTRA:          -5.368
REMARK INTER:                  -4.205
REMARK INTRA:                  -1.162
REMARK UNBOUND:                -0.897
REMARK SMILES CCCCCCCCCCCCCCCC(=O)[O-]
REMARK SMILES IDX 9 1 10 2 11 3 12 4 13 5 14 6 15 7 16 8 17 9 18 10 8 11 7 12
REMARK SMILES IDX 6 13 5 14 4 15 3 16 2 17 1 18
REMARK H PARENT
REMARK Flexibility Score: inf
ROOT
ATOM      1  C   UNL     1       5.034 -35.226  22.742  1.00  0.00     0.000 C 
ENDROOT
BRANCH   1   2
ATOM      2  C   UNL     1       5.748 -36.056  21.662  1.00  0.00     0.000 C 
BRANCH   2   3
ATOM      3  C   UNL     1       5.178 -35.818  20.252  1.00  0.00     0.000 C 
BRANCH   3   4
ATOM      4  C   UNL     1       4.892 -37.119  19.472  1.00  0.00     0.000 C 
BRANCH   4   5
ATOM      5  C   UNL     1       3.408 -37.518  19.534  1.00  0.00     0.000 C 
BRANCH   5   6
ATOM      6  C   UNL     1       2.791 -37.722  18.141  1.00  0.00     0.006 C 
BRANCH   6   7
ATOM      7  C   UNL     1       3.420 -36.813  17.078  1.00  0.00     0.053 C 
BRANCH   7   8
ATOM      8  C   UNL     1       2.978 -37.229  15.710  1.00  0.00     0.041 C 
ATOM      9  O   UNL     1       3.507 -38.226  15.149  1.00  0.00    -0.550 OA
ATOM     10  O   UNL     1       2.018 -36.488  15.034  1.00  0.00    -0.550 OA
ENDBRANCH   7   8
ENDBRANCH   6   7
ENDBRANCH   5   6
ENDBRANCH   4   5
ENDBRANCH   3   4
ENDBRANCH   2   3
ENDBRANCH   1   2
BRANCH   1  11
ATOM     11  C   UNL     1       6.016 -34.620  23.762  1.00  0.00     0.000 C 
BRANCH  11  12
ATOM     12  C   UNL     1       5.870 -35.194  25.184  1.00  0.00    -0.000 C 
BRANCH  12  13
ATOM     13  C   UNL     1       6.122 -36.711  25.231  1.00  0.00    -0.000 C 
BRANCH  13  14
ATOM     14  C   UNL     1       4.893 -37.501  25.714  1.00  0.00    -0.000 C 
BRANCH  14  15
ATOM     15  C   UNL     1       4.332 -38.479  24.656  1.00  0.00    -0.000 C 
BRANCH  15  16
ATOM     16  C   UNL     1       5.391 -39.445  24.100  1.00  0.00    -0.000 C 
BRANCH  16  17
ATOM     17  C   UNL     1       5.757 -39.129  22.642  1.00  0.00    -0.003 C 
ATOM     18  C   UNL     1       5.722 -40.388  21.780  1.00  0.00     0.004 C 
ENDBRANCH  16  17
ENDBRANCH  15  16
ENDBRANCH  14  15
ENDBRANCH  13  14
ENDBRANCH  12  13
ENDBRANCH  11  12
ENDBRANCH   1  11
TORSDOF 14
ENDMDL
MODEL 5
REMARK VINA RESULT:    -1.940      2.151      4.122
REMARK INTER + INTRA:          -4.425
REMARK INTER:                  -3.514
REMARK INTRA:                  -0.911
REMARK UNBOUND:                -0.897
REMARK SMILES CCCCCCCCCCCCCCCC(=O)[O-]
REMARK SMILES IDX 9 1 10 2 11 3 12 4 13 5 14 6 15 7 16 8 17 9 18 10 8 11 7 12
REMARK SMILES IDX 6 13 5 14 4 15 3 16 2 17 1 18
REMARK H PARENT
REMARK Flexibility Score: inf
ROOT
ATOM      1  C   UNL     1       5.066 -35.679  21.709  1.00  0.00     0.000 C 
ENDROOT
BRANCH   1   2
ATOM      2  C   UNL     1       5.234 -34.792  22.953  1.00  0.00     0.000 C 
BRANCH   2   3
ATOM      3  C   UNL     1       6.125 -35.436  24.031  1.00  0.00     0.000 C 
BRANCH   3   4
ATOM      4  C   UNL     1       5.332 -36.200  25.113  1.00  0.00     0.000 C 
BRANCH   4   5
ATOM      5  C   UNL     1       5.688 -37.696  25.144  1.00  0.00     0.000 C 
BRANCH   5   6
ATOM      6  C   UNL     1       4.939 -38.506  24.074  1.00  0.00     0.006 C 
BRANCH   6   7
ATOM      7  C   UNL     1       5.712 -39.753  23.629  1.00  0.00     0.053 C 
BRANCH   7   8
ATOM      8  C   UNL     1       5.810 -39.801  22.136  1.00  0.00     0.041 C 
ATOM      9  O   UNL     1       5.645 -38.753  21.457  1.00  0.00    -0.550 OA
ATOM     10  O   UNL     1       6.035 -41.011  21.493  1.00  0.00    -0.550 OA
ENDBRANCH   7   8
ENDBRANCH   6   7
ENDBRANCH   5   6
ENDBRANCH   4   5
ENDBRANCH   3   4
ENDBRANCH   2   3
ENDBRANCH   1   2
BRANCH   1  11
ATOM     11  C   UNL     1       6.125 -35.384  20.630  1.00  0.00     0.000 C 
BRANCH  11  12
ATOM     12  C   UNL     1       5.718 -35.841  19.216  1.00  0.00    -0.000 C 
BRANCH  12  13
ATOM     13  C   UNL     1       4.196 -36.009  19.071  1.00  0.00    -0.000 C 
BRANCH  13  14
ATOM     14  C   UNL     1       3.785 -37.464  18.788  1.00  0.00    -0.000 C 
BRANCH  14  15
ATOM     15  C   UNL     1       2.662 -37.596  17.733  1.00  0.00    -0.000 C 
BRANCH  15  16
ATOM     16  C   UNL     1       3.192 -37.855  16.312  1.00  0.00    -0.000 C 
BRANCH  16  17
ATOM     17  C   UNL     1       3.169 -36.588  15.444  1.00  0.00    -0.003 C 
ATOM     18  C   UNL     1       3.469 -36.916  13.984  1.00  0.00     0.004 C 
ENDBRANCH  16  17
ENDBRANCH  15  16
ENDBRANCH  14  15
ENDBRANCH  13  14
ENDBRANCH  12  13
ENDBRANCH  11  12
ENDBRANCH   1  11
TORSDOF 14
ENDMDL
MODEL 6
REMARK VINA RESULT:    -1.882      1.634      3.077
REMARK INTER + INTRA:          -4.318
REMARK INTER:                  -3.599
REMARK INTRA:                  -0.720
REMARK UNBOUND:                -0.897
REMARK SMILES CCCCCCCCCCCCCCCC(=O)[O-]
REMARK SMILES IDX 9 1 10 2 11 3 12 4 13 5 14 6 15 7 16 8 17 9 18 10 8 11 7 12
REMARK SMILES IDX 6 13 5 14 4 15 3 16 2 17 1 18
REMARK H PARENT
REMARK Flexibility Score: inf
ROOT
ATOM      1  C   UNL     1       5.367 -36.014  20.347  1.00  0.00     0.000 C 
ENDROOT
BRANCH   1   2
ATOM      2  C   UNL     1       5.978 -36.028  21.758  1.00  0.00     0.000 C 
BRANCH   2   3
ATOM      3  C   UNL     1       5.204 -35.145  22.753  1.00  0.00     0.000 C 
BRANCH   3   4
ATOM      4  C   UNL     1       5.731 -35.236  24.201  1.00  0.00     0.000 C 
BRANCH   4   5
ATOM      5  C   UNL     1       5.751 -36.683  24.722  1.00  0.00     0.000 C 
BRANCH   5   6
ATOM      6  C   UNL     1       5.039 -36.835  26.076  1.00  0.00     0.006 C 
BRANCH   6   7
ATOM      7  C   UNL     1       3.957 -37.921  26.055  1.00  0.00     0.053 C 
BRANCH   7   8
ATOM      8  C   UNL     1       2.758 -37.477  26.833  1.00  0.00     0.041 C 
ATOM      9  O   UNL     1       2.732 -36.332  27.359  1.00  0.00    -0.550 OA
ATOM     10  O   UNL     1       1.689 -38.343  27.017  1.00  0.00    -0.550 OA
ENDBRANCH   7   8
ENDBRANCH   6   7
ENDBRANCH   5   6
ENDBRANCH   4   5
ENDBRANCH   3   4
ENDBRANCH   2   3
ENDBRANCH   1   2
BRANCH   1  11
ATOM     11  C   UNL     1       4.898 -37.410  19.896  1.00  0.00     0.000 C 
BRANCH  11  12
ATOM     12  C   UNL     1       3.427 -37.457  19.444  1.00  0.00    -0.000 C 
BRANCH  12  13
ATOM     13  C   UNL     1       3.286 -37.727  17.936  1.00  0.00    -0.000 C 
BRANCH  13  14
ATOM     14  C   UNL     1       1.858 -37.479  17.420  1.00  0.00    -0.000 C 
BRANCH  14  15
ATOM     15  C   UNL     1       1.804 -36.601  16.149  1.00  0.00    -0.000 C 
BRANCH  15  16
ATOM     16  C   UNL     1       3.194 -36.279  15.574  1.00  0.00    -0.000 C 
BRANCH  16  17
ATOM     17  C   UNL     1       3.444 -36.982  14.231  1.00  0.00    -0.003 C 
ATOM     18  C   UNL     1       3.959 -38.403  14.442  1.00  0.00     0.004 C 
ENDBRANCH  16  17
ENDBRANCH  15  16
ENDBRANCH  14  15
ENDBRANCH  13  14
ENDBRANCH  12  13
ENDBRANCH  11  12
ENDBRANCH   1  11
TORSDOF 14
ENDMDL
MODEL 7
REMARK VINA RESULT:    -1.659      4.044      8.230
REMARK INTER + INTRA:          -3.915
REMARK INTER:                  -2.794
REMARK INTRA:                  -1.121
REMARK UNBOUND:                -0.897
REMARK SMILES CCCCCCCCCCCCCCCC(=O)[O-]
REMARK SMILES IDX 9 1 10 2 11 3 12 4 13 5 14 6 15 7 16 8 17 9 18 10 8 11 7 12
REMARK SMILES IDX 6 13 5 14 4 15 3 16 2 17 1 18
REMARK H PARENT
REMARK Flexibility Score: inf
ROOT
ATOM      1  C   UNL     1       4.990 -39.641  22.588  1.00  0.00     0.000 C 
ENDROOT
BRANCH   1   2
ATOM      2  C   UNL     1       5.741 -39.283  21.295  1.00  0.00     0.000 C 
BRANCH   2   3
ATOM      3  C   UNL     1       5.363 -37.894  20.749  1.00  0.00     0.000 C 
BRANCH   3   4
ATOM      4  C   UNL     1       4.920 -37.909  19.271  1.00  0.00     0.000 C 
BRANCH   4   5
ATOM      5  C   UNL     1       3.538 -37.263  19.072  1.00  0.00     0.000 C 
BRANCH   5   6
ATOM      6  C   UNL     1       2.897 -37.637  17.726  1.00  0.00     0.006 C 
BRANCH   6   7
ATOM      7  C   UNL     1       3.129 -36.572  16.647  1.00  0.00     0.053 C 
BRANCH   7   8
ATOM      8  C   UNL     1       3.048 -37.186  15.284  1.00  0.00     0.041 C 
ATOM      9  O   UNL     1       3.652 -38.265  15.038  1.00  0.00    -0.550 OA
ATOM     10  O   UNL     1       2.347 -36.543  14.272  1.00  0.00    -0.550 OA
ENDBRANCH   7   8
ENDBRANCH   6   7
ENDBRANCH   5   6
ENDBRANCH   4   5
ENDBRANCH   3   4
ENDBRANCH   2   3
ENDBRANCH   1   2
BRANCH   1  11
ATOM     11  C   UNL     1       5.658 -39.043  23.840  1.00  0.00     0.000 C 
BRANCH  11  12
ATOM     12  C   UNL     1       4.720 -38.937  25.057  1.00  0.00    -0.000 C 
BRANCH  12  13
ATOM     13  C   UNL     1       4.815 -37.568  25.752  1.00  0.00    -0.000 C 
BRANCH  13  14
ATOM     14  C   UNL     1       6.122 -36.825  25.422  1.00  0.00    -0.000 C 
BRANCH  14  15
ATOM     15  C   UNL     1       5.899 -35.428  24.799  1.00  0.00    -0.000 C 
BRANCH  15  16
ATOM     16  C   UNL     1       5.794 -35.457  23.265  1.00  0.00    -0.000 C 
BRANCH  16  17
ATOM     17  C   UNL     1       4.892 -34.337  22.723  1.00  0.00    -0.003 C 
ATOM     18  C   UNL     1       3.851 -34.890  21.754  1.00  0.00     0.004 C 
ENDBRANCH  16  17
ENDBRANCH  15  16
ENDBRANCH  14  15
ENDBRANCH  13  14
ENDBRANCH  12  13
ENDBRANCH  11  12
ENDBRANCH   1  11
TORSDOF 14
ENDMDL
