MODEL 1
REMARK VINA RESULT:    -8.139      0.000      0.000
REMARK INTER + INTRA:          -9.673
REMARK INTER:                  -9.566
REMARK INTRA:                  -0.107
REMARK UNBOUND:                -0.107
REMARK SMILES O=c1c(O)c(-c2ccc(O)cc2)oc2cc(O)cc(O)c12
REMARK SMILES IDX 5 1 3 2 2 3 1 4 21 5 19 6 18 7 16 8 15 9 14 10 13 11 6 12
REMARK SMILES IDX 7 13 8 14 9 15 12 16 11 17 10 18 4 20 20 22 17 24
REMARK H PARENT 10 19 4 21 20 23 17 25
REMARK Flexibility Score: inf
ROOT
ATOM      1  C   UNL     1     -34.408  44.244  39.973  1.00  0.00     0.180 A 
ATOM      2  C   UNL     1     -35.121  44.864  41.013  1.00  0.00     0.208 A 
ATOM      3  C   UNL     1     -35.485  44.105  42.137  1.00  0.00     0.238 A 
ATOM      4  O   UNL     1     -36.187  44.647  43.028  1.00  0.00    -0.285 OA
ATOM      5  C   UNL     1     -35.082  42.751  42.233  1.00  0.00     0.111 A 
ATOM      6  C   UNL     1     -35.356  41.899  43.346  1.00  0.00     0.134 A 
ATOM      7  C   UNL     1     -35.001  40.545  43.284  1.00  0.00     0.093 A 
ATOM      8  C   UNL     1     -34.324  40.028  42.176  1.00  0.00     0.123 A 
ATOM      9  C   UNL     1     -34.004  40.863  41.110  1.00  0.00     0.094 A 
ATOM     10  C   UNL     1     -34.379  42.209  41.125  1.00  0.00     0.146 A 
ATOM     11  O   UNL     1     -34.072  42.963  40.077  1.00  0.00    -0.452 OA
ENDROOT
BRANCH   1  12
ATOM     12  C   UNL     1     -34.001  44.974  38.750  1.00  0.00     0.021 A 
ATOM     13  C   UNL     1     -32.646  45.197  38.446  1.00  0.00     0.016 A 
ATOM     14  C   UNL     1     -32.287  45.911  37.299  1.00  0.00     0.047 A 
ATOM     15  C   UNL     1     -33.277  46.421  36.449  1.00  0.00     0.115 A 
ATOM     16  C   UNL     1     -34.987  45.508  37.904  1.00  0.00     0.016 A 
ATOM     17  C   UNL     1     -34.625  46.220  36.757  1.00  0.00     0.047 A 
BRANCH  15  18
ATOM     18  O   UNL     1     -32.931  47.133  35.302  1.00  0.00    -0.508 OA
ATOM     19  H   UNL     1     -32.383  47.983  35.352  1.00  0.00     0.293 HD
ENDBRANCH  15  18
ENDBRANCH   1  12
BRANCH   2  20
ATOM     20  O   UNL     1     -35.443  46.222  40.933  1.00  0.00    -0.502 OA
ATOM     21  H   UNL     1     -36.276  46.609  41.359  1.00  0.00     0.293 HD
ENDBRANCH   2  20
BRANCH   6  22
ATOM     22  O   UNL     1     -35.947  42.332  44.536  1.00  0.00    -0.507 OA
ATOM     23  H   UNL     1     -36.639  43.062  44.607  1.00  0.00     0.293 HD
ENDBRANCH   6  22
BRANCH   8  24
ATOM     24  O   UNL     1     -33.959  38.684  42.131  1.00  0.00    -0.508 OA
ATOM     25  H   UNL     1     -33.695  38.236  41.262  1.00  0.00     0.293 HD
ENDBRANCH   8  24
TORSDOF 5
ENDMDL
MODEL 2
REMARK VINA RESULT:    -8.071      5.604      7.896
REMARK INTER + INTRA:          -9.594
REMARK INTER:                  -9.296
REMARK INTRA:                  -0.297
REMARK UNBOUND:                -0.107
REMARK SMILES O=c1c(O)c(-c2ccc(O)cc2)oc2cc(O)cc(O)c12
REMARK SMILES IDX 5 1 3 2 2 3 1 4 21 5 19 6 18 7 16 8 15 9 14 10 13 11 6 12
REMARK SMILES IDX 7 13 8 14 9 15 12 16 11 17 10 18 4 20 20 22 17 24
REMARK H PARENT 10 19 4 21 20 23 17 25
REMARK Flexibility Score: inf
ROOT
ATOM      1  C   UNL     1     -36.961  39.787  44.990  1.00  0.00     0.180 A 
ATOM      2  C   UNL     1     -38.120  39.941  44.209  1.00  0.00     0.208 A 
ATOM      3  C   UNL     1     -39.356  39.535  44.737  1.00  0.00     0.238 A 
ATOM      4  O   UNL     1     -40.376  39.606  44.004  1.00  0.00    -0.285 OA
ATOM      5  C   UNL     1     -39.427  39.032  46.058  1.00  0.00     0.111 A 
ATOM      6  C   UNL     1     -40.633  38.632  46.711  1.00  0.00     0.134 A 
ATOM      7  C   UNL     1     -40.568  38.049  47.984  1.00  0.00     0.093 A 
ATOM      8  C   UNL     1     -39.349  37.911  48.652  1.00  0.00     0.123 A 
ATOM      9  C   UNL     1     -38.175  38.349  48.046  1.00  0.00     0.094 A 
ATOM     10  C   UNL     1     -38.202  38.899  46.762  1.00  0.00     0.146 A 
ATOM     11  O   UNL     1     -37.055  39.282  46.214  1.00  0.00    -0.452 OA
ENDROOT
BRANCH   1  12
ATOM     12  C   UNL     1     -35.620  40.179  44.498  1.00  0.00     0.021 A 
ATOM     13  C   UNL     1     -34.817  39.284  43.769  1.00  0.00     0.016 A 
ATOM     14  C   UNL     1     -33.544  39.668  43.336  1.00  0.00     0.047 A 
ATOM     15  C   UNL     1     -33.053  40.945  43.639  1.00  0.00     0.115 A 
ATOM     16  C   UNL     1     -35.112  41.449  44.816  1.00  0.00     0.016 A 
ATOM     17  C   UNL     1     -33.839  41.831  44.381  1.00  0.00     0.047 A 
BRANCH  15  18
ATOM     18  O   UNL     1     -31.787  41.339  43.212  1.00  0.00    -0.508 OA
ATOM     19  H   UNL     1     -30.969  41.220  43.799  1.00  0.00     0.293 HD
ENDBRANCH  15  18
ENDBRANCH   1  12
BRANCH   2  20
ATOM     20  O   UNL     1     -38.038  40.511  42.935  1.00  0.00    -0.502 OA
ATOM     21  H   UNL     1     -37.162  40.817  42.531  1.00  0.00     0.293 HD
ENDBRANCH   2  20
BRANCH   6  22
ATOM     22  O   UNL     1     -41.910  38.806  46.172  1.00  0.00    -0.507 OA
ATOM     23  H   UNL     1     -42.154  38.664  45.204  1.00  0.00     0.293 HD
ENDBRANCH   6  22
BRANCH   8  24
ATOM     24  O   UNL     1     -39.297  37.347  49.925  1.00  0.00    -0.508 OA
ATOM     25  H   UNL     1     -38.905  37.849  50.712  1.00  0.00     0.293 HD
ENDBRANCH   8  24
TORSDOF 5
ENDMDL
MODEL 3
REMARK VINA RESULT:    -7.904      1.902      6.858
REMARK INTER + INTRA:          -9.398
REMARK INTER:                  -9.104
REMARK INTRA:                  -0.294
REMARK UNBOUND:                -0.107
REMARK SMILES O=c1c(O)c(-c2ccc(O)cc2)oc2cc(O)cc(O)c12
REMARK SMILES IDX 5 1 3 2 2 3 1 4 21 5 19 6 18 7 16 8 15 9 14 10 13 11 6 12
REMARK SMILES IDX 7 13 8 14 9 15 12 16 11 17 10 18 4 20 20 22 17 24
REMARK H PARENT 10 19 4 21 20 23 17 25
REMARK Flexibility Score: inf
ROOT
ATOM      1  C   UNL     1     -35.402  41.267  42.255  1.00  0.00     0.180 A 
ATOM      2  C   UNL     1     -35.745  42.380  43.042  1.00  0.00     0.208 A 
ATOM      3  C   UNL     1     -35.618  43.666  42.495  1.00  0.00     0.238 A 
ATOM      4  O   UNL     1     -35.854  44.660  43.229  1.00  0.00    -0.285 OA
ATOM      5  C   UNL     1     -35.204  43.822  41.150  1.00  0.00     0.111 A 
ATOM      6  C   UNL     1     -35.084  45.077  40.477  1.00  0.00     0.134 A 
ATOM      7  C   UNL     1     -34.562  45.116  39.177  1.00  0.00     0.093 A 
ATOM      8  C   UNL     1     -34.218  43.942  38.503  1.00  0.00     0.123 A 
ATOM      9  C   UNL     1     -34.384  42.711  39.130  1.00  0.00     0.094 A 
ATOM     10  C   UNL     1     -34.865  42.641  40.440  1.00  0.00     0.146 A 
ATOM     11  O   UNL     1     -34.986  41.446  41.007  1.00  0.00    -0.452 OA
ENDROOT
BRANCH   1  12
ATOM     12  C   UNL     1     -35.496  39.880  42.766  1.00  0.00     0.021 A 
ATOM     13  C   UNL     1     -34.394  39.245  43.368  1.00  0.00     0.016 A 
ATOM     14  C   UNL     1     -34.499  37.926  43.821  1.00  0.00     0.047 A 
ATOM     15  C   UNL     1     -35.700  37.222  43.664  1.00  0.00     0.115 A 
ATOM     16  C   UNL     1     -36.689  39.159  42.594  1.00  0.00     0.016 A 
ATOM     17  C   UNL     1     -36.791  37.841  43.048  1.00  0.00     0.047 A 
BRANCH  15  18
ATOM     18  O   UNL     1     -35.817  35.908  44.113  1.00  0.00    -0.508 OA
ATOM     19  H   UNL     1     -36.280  35.198  43.558  1.00  0.00     0.293 HD
ENDBRANCH  15  18
ENDBRANCH   1  12
BRANCH   2  20
ATOM     20  O   UNL     1     -36.224  42.200  44.343  1.00  0.00    -0.502 OA
ATOM     21  H   UNL     1     -37.121  42.559  44.647  1.00  0.00     0.293 HD
ENDBRANCH   2  20
BRANCH   6  22
ATOM     22  O   UNL     1     -35.481  46.300  41.024  1.00  0.00    -0.507 OA
ATOM     23  H   UNL     1     -35.018  46.770  41.787  1.00  0.00     0.293 HD
ENDBRANCH   6  22
BRANCH   8  24
ATOM     24  O   UNL     1     -33.717  43.990  37.204  1.00  0.00    -0.508 OA
ATOM     25  H   UNL     1     -33.920  43.261  36.530  1.00  0.00     0.293 HD
ENDBRANCH   8  24
TORSDOF 5
ENDMDL
MODEL 4
REMARK VINA RESULT:    -7.830      5.602      7.097
REMARK INTER + INTRA:          -9.311
REMARK INTER:                  -9.028
REMARK INTRA:                  -0.283
REMARK UNBOUND:                -0.107
REMARK SMILES O=c1c(O)c(-c2ccc(O)cc2)oc2cc(O)cc(O)c12
REMARK SMILES IDX 5 1 3 2 2 3 1 4 21 5 19 6 18 7 16 8 15 9 14 10 13 11 6 12
REMARK SMILES IDX 7 13 8 14 9 15 12 16 11 17 10 18 4 20 20 22 17 24
REMARK H PARENT 10 19 4 21 20 23 17 25
REMARK Flexibility Score: inf
ROOT
ATOM      1  C   UNL     1     -35.259  39.766  44.318  1.00  0.00     0.180 A 
ATOM      2  C   UNL     1     -36.337  39.963  43.437  1.00  0.00     0.208 A 
ATOM      3  C   UNL     1     -37.641  39.705  43.889  1.00  0.00     0.238 A 
ATOM      4  O   UNL     1     -38.593  39.811  43.073  1.00  0.00    -0.285 OA
ATOM      5  C   UNL     1     -37.857  39.308  45.231  1.00  0.00     0.111 A 
ATOM      6  C   UNL     1     -39.141  39.064  45.809  1.00  0.00     0.134 A 
ATOM      7  C   UNL     1     -39.225  38.572  47.118  1.00  0.00     0.093 A 
ATOM      8  C   UNL     1     -38.077  38.378  47.891  1.00  0.00     0.123 A 
ATOM      9  C   UNL     1     -36.826  38.666  47.354  1.00  0.00     0.094 A 
ATOM     10  C   UNL     1     -36.706  39.121  46.039  1.00  0.00     0.146 A 
ATOM     11  O   UNL     1     -35.491  39.362  45.562  1.00  0.00    -0.452 OA
ENDROOT
BRANCH   1  12
ATOM     12  C   UNL     1     -33.855  40.002  43.911  1.00  0.00     0.021 A 
ATOM     13  C   UNL     1     -33.232  41.246  44.118  1.00  0.00     0.016 A 
ATOM     14  C   UNL     1     -31.913  41.454  43.704  1.00  0.00     0.047 A 
ATOM     15  C   UNL     1     -31.206  40.426  43.065  1.00  0.00     0.115 A 
ATOM     16  C   UNL     1     -33.146  38.985  43.251  1.00  0.00     0.016 A 
ATOM     17  C   UNL     1     -31.827  39.195  42.838  1.00  0.00     0.047 A 
BRANCH  15  18
ATOM     18  O   UNL     1     -29.891  40.621  42.649  1.00  0.00    -0.508 OA
ATOM     19  H   UNL     1     -29.533  41.546  42.439  1.00  0.00     0.293 HD
ENDBRANCH  15  18
ENDBRANCH   1  12
BRANCH   2  20
ATOM     20  O   UNL     1     -36.109  40.428  42.139  1.00  0.00    -0.502 OA
ATOM     21  H   UNL     1     -36.333  39.879  41.318  1.00  0.00     0.293 HD
ENDBRANCH   2  20
BRANCH   6  22
ATOM     22  O   UNL     1     -40.352  39.308  45.157  1.00  0.00    -0.507 OA
ATOM     23  H   UNL     1     -41.131  38.668  45.124  1.00  0.00     0.293 HD
ENDBRANCH   6  22
BRANCH   8  24
ATOM     24  O   UNL     1     -38.173  37.906  49.198  1.00  0.00    -0.508 OA
ATOM     25  H   UNL     1     -37.468  38.123  49.893  1.00  0.00     0.293 HD
ENDBRANCH   8  24
TORSDOF 5
ENDMDL
MODEL 5
REMARK VINA RESULT:    -7.765      3.824      6.402
REMARK INTER + INTRA:          -9.234
REMARK INTER:                  -8.940
REMARK INTRA:                  -0.294
REMARK UNBOUND:                -0.107
REMARK SMILES O=c1c(O)c(-c2ccc(O)cc2)oc2cc(O)cc(O)c12
REMARK SMILES IDX 5 1 3 2 2 3 1 4 21 5 19 6 18 7 16 8 15 9 14 10 13 11 6 12
REMARK SMILES IDX 7 13 8 14 9 15 12 16 11 17 10 18 4 20 20 22 17 24
REMARK H PARENT 10 19 4 21 20 23 17 25
REMARK Flexibility Score: inf
ROOT
ATOM      1  C   UNL     1     -36.380  40.467  43.956  1.00  0.00     0.180 A 
ATOM      2  C   UNL     1     -35.468  40.097  44.959  1.00  0.00     0.208 A 
ATOM      3  C   UNL     1     -35.952  39.490  46.130  1.00  0.00     0.238 A 
ATOM      4  O   UNL     1     -35.140  39.230  47.054  1.00  0.00    -0.285 OA
ATOM      5  C   UNL     1     -37.334  39.209  46.257  1.00  0.00     0.111 A 
ATOM      6  C   UNL     1     -37.930  38.556  47.380  1.00  0.00     0.134 A 
ATOM      7  C   UNL     1     -39.323  38.427  47.444  1.00  0.00     0.093 A 
ATOM      8  C   UNL     1     -40.137  38.869  46.397  1.00  0.00     0.123 A 
ATOM      9  C   UNL     1     -39.561  39.456  45.275  1.00  0.00     0.094 A 
ATOM     10  C   UNL     1     -38.178  39.634  45.198  1.00  0.00     0.146 A 
ATOM     11  O   UNL     1     -37.674  40.220  44.118  1.00  0.00    -0.452 OA
ENDROOT
BRANCH   1  12
ATOM     12  C   UNL     1     -35.948  41.124  42.701  1.00  0.00     0.021 A 
ATOM     13  C   UNL     1     -35.778  42.518  42.624  1.00  0.00     0.016 A 
ATOM     14  C   UNL     1     -35.393  43.119  41.422  1.00  0.00     0.047 A 
ATOM     15  C   UNL     1     -35.188  42.336  40.278  1.00  0.00     0.115 A 
ATOM     16  C   UNL     1     -35.760  40.349  41.544  1.00  0.00     0.016 A 
ATOM     17  C   UNL     1     -35.374  40.952  40.343  1.00  0.00     0.047 A 
BRANCH  15  18
ATOM     18  O   UNL     1     -34.803  42.923  39.075  1.00  0.00    -0.508 OA
ATOM     19  H   UNL     1     -34.674  42.372  38.234  1.00  0.00     0.293 HD
ENDBRANCH  15  18
ENDBRANCH   1  12
BRANCH   2  20
ATOM     20  O   UNL     1     -34.099  40.314  44.781  1.00  0.00    -0.502 OA
ATOM     21  H   UNL     1     -33.711  40.652  43.909  1.00  0.00     0.293 HD
ENDBRANCH   2  20
BRANCH   6  22
ATOM     22  O   UNL     1     -37.205  37.999  48.437  1.00  0.00    -0.507 OA
ATOM     23  H   UNL     1     -37.081  37.010  48.596  1.00  0.00     0.293 HD
ENDBRANCH   6  22
BRANCH   8  24
ATOM     24  O   UNL     1     -41.520  38.719  46.463  1.00  0.00    -0.508 OA
ATOM     25  H   UNL     1     -42.114  39.443  46.851  1.00  0.00     0.293 HD
ENDBRANCH   8  24
TORSDOF 5
ENDMDL
MODEL 6
REMARK VINA RESULT:    -7.724      4.811      9.556
REMARK INTER + INTRA:          -9.186
REMARK INTER:                  -8.905
REMARK INTRA:                  -0.281
REMARK UNBOUND:                -0.107
REMARK SMILES O=c1c(O)c(-c2ccc(O)cc2)oc2cc(O)cc(O)c12
REMARK SMILES IDX 5 1 3 2 2 3 1 4 21 5 19 6 18 7 16 8 15 9 14 10 13 11 6 12
REMARK SMILES IDX 7 13 8 14 9 15 12 16 11 17 10 18 4 20 20 22 17 24
REMARK H PARENT 10 19 4 21 20 23 17 25
REMARK Flexibility Score: inf
ROOT
ATOM      1  C   UNL     1     -38.038  39.254  45.407  1.00  0.00     0.180 A 
ATOM      2  C   UNL     1     -37.217  40.293  45.879  1.00  0.00     0.208 A 
ATOM      3  C   UNL     1     -36.530  41.093  44.952  1.00  0.00     0.238 A 
ATOM      4  O   UNL     1     -35.740  41.972  45.383  1.00  0.00    -0.285 OA
ATOM      5  C   UNL     1     -36.716  40.881  43.564  1.00  0.00     0.111 A 
ATOM      6  C   UNL     1     -36.105  41.661  42.534  1.00  0.00     0.134 A 
ATOM      7  C   UNL     1     -36.278  41.291  41.194  1.00  0.00     0.093 A 
ATOM      8  C   UNL     1     -37.091  40.210  40.844  1.00  0.00     0.123 A 
ATOM      9  C   UNL     1     -37.734  39.478  41.838  1.00  0.00     0.094 A 
ATOM     10  C   UNL     1     -37.551  39.798  43.185  1.00  0.00     0.146 A 
ATOM     11  O   UNL     1     -38.167  39.059  44.100  1.00  0.00    -0.452 OA
ENDROOT
BRANCH   1  12
ATOM     12  C   UNL     1     -38.783  38.359  46.322  1.00  0.00     0.021 A 
ATOM     13  C   UNL     1     -38.286  37.091  46.674  1.00  0.00     0.016 A 
ATOM     14  C   UNL     1     -39.018  36.254  47.520  1.00  0.00     0.047 A 
ATOM     15  C   UNL     1     -40.263  36.667  48.014  1.00  0.00     0.115 A 
ATOM     16  C   UNL     1     -40.041  38.757  46.805  1.00  0.00     0.016 A 
ATOM     17  C   UNL     1     -40.771  37.918  47.652  1.00  0.00     0.047 A 
BRANCH  15  18
ATOM     18  O   UNL     1     -41.001  35.842  48.859  1.00  0.00    -0.508 OA
ATOM     19  H   UNL     1     -40.593  35.438  49.694  1.00  0.00     0.293 HD
ENDBRANCH  15  18
ENDBRANCH   1  12
BRANCH   2  20
ATOM     20  O   UNL     1     -37.107  40.534  47.251  1.00  0.00    -0.502 OA
ATOM     21  H   UNL     1     -36.432  41.184  47.636  1.00  0.00     0.293 HD
ENDBRANCH   2  20
BRANCH   6  22
ATOM     22  O   UNL     1     -35.348  42.811  42.769  1.00  0.00    -0.507 OA
ATOM     23  H   UNL     1     -35.149  43.198  43.679  1.00  0.00     0.293 HD
ENDBRANCH   6  22
BRANCH   8  24
ATOM     24  O   UNL     1     -37.272  39.862  39.507  1.00  0.00    -0.508 OA
ATOM     25  H   UNL     1     -36.853  39.026  39.116  1.00  0.00     0.293 HD
ENDBRANCH   8  24
TORSDOF 5
ENDMDL
MODEL 7
REMARK VINA RESULT:    -7.711      8.294     11.639
REMARK INTER + INTRA:          -9.171
REMARK INTER:                  -9.086
REMARK INTRA:                  -0.085
REMARK UNBOUND:                -0.107
REMARK SMILES O=c1c(O)c(-c2ccc(O)cc2)oc2cc(O)cc(O)c12
REMARK SMILES IDX 5 1 3 2 2 3 1 4 21 5 19 6 18 7 16 8 15 9 14 10 13 11 6 12
REMARK SMILES IDX 7 13 8 14 9 15 12 16 11 17 10 18 4 20 20 22 17 24
REMARK H PARENT 10 19 4 21 20 23 17 25
REMARK Flexibility Score: inf
ROOT
ATOM      1  C   UNL     1     -38.498  37.019  47.075  1.00  0.00     0.180 A 
ATOM      2  C   UNL     1     -38.250  38.141  46.266  1.00  0.00     0.208 A 
ATOM      3  C   UNL     1     -37.286  38.048  45.249  1.00  0.00     0.238 A 
ATOM      4  O   UNL     1     -37.016  39.077  44.579  1.00  0.00    -0.285 OA
ATOM      5  C   UNL     1     -36.624  36.818  45.017  1.00  0.00     0.111 A 
ATOM      6  C   UNL     1     -35.662  36.596  43.984  1.00  0.00     0.134 A 
ATOM      7  C   UNL     1     -34.993  35.367  43.917  1.00  0.00     0.093 A 
ATOM      8  C   UNL     1     -35.298  34.331  44.804  1.00  0.00     0.123 A 
ATOM      9  C   UNL     1     -36.273  34.520  45.778  1.00  0.00     0.094 A 
ATOM     10  C   UNL     1     -36.931  35.747  45.896  1.00  0.00     0.146 A 
ATOM     11  O   UNL     1     -37.838  35.888  46.854  1.00  0.00    -0.452 OA
ENDROOT
BRANCH   1  12
ATOM     12  C   UNL     1     -39.489  37.044  48.176  1.00  0.00     0.021 A 
ATOM     13  C   UNL     1     -39.385  37.965  49.235  1.00  0.00     0.016 A 
ATOM     14  C   UNL     1     -40.318  37.953  50.276  1.00  0.00     0.047 A 
ATOM     15  C   UNL     1     -41.356  37.012  50.280  1.00  0.00     0.115 A 
ATOM     16  C   UNL     1     -40.520  36.091  48.200  1.00  0.00     0.016 A 
ATOM     17  C   UNL     1     -41.453  36.082  49.242  1.00  0.00     0.047 A 
BRANCH  15  18
ATOM     18  O   UNL     1     -42.293  36.992  51.312  1.00  0.00    -0.508 OA
ATOM     19  H   UNL     1     -42.050  37.280  52.252  1.00  0.00     0.293 HD
ENDBRANCH  15  18
ENDBRANCH   1  12
BRANCH   2  20
ATOM     20  O   UNL     1     -38.969  39.324  46.463  1.00  0.00    -0.502 OA
ATOM     21  H   UNL     1     -39.207  39.949  45.702  1.00  0.00     0.293 HD
ENDBRANCH   2  20
BRANCH   6  22
ATOM     22  O   UNL     1     -35.347  37.530  42.994  1.00  0.00    -0.507 OA
ATOM     23  H   UNL     1     -34.525  37.499  42.409  1.00  0.00     0.293 HD
ENDBRANCH   6  22
BRANCH   8  24
ATOM     24  O   UNL     1     -34.639  33.107  44.717  1.00  0.00    -0.508 OA
ATOM     25  H   UNL     1     -34.358  32.596  45.546  1.00  0.00     0.293 HD
ENDBRANCH   8  24
TORSDOF 5
ENDMDL
MODEL 8
REMARK VINA RESULT:    -7.605      6.076     10.864
REMARK INTER + INTRA:          -9.046
REMARK INTER:                  -8.757
REMARK INTRA:                  -0.289
REMARK UNBOUND:                -0.107
REMARK SMILES O=c1c(O)c(-c2ccc(O)cc2)oc2cc(O)cc(O)c12
REMARK SMILES IDX 5 1 3 2 2 3 1 4 21 5 19 6 18 7 16 8 15 9 14 10 13 11 6 12
REMARK SMILES IDX 7 13 8 14 9 15 12 16 11 17 10 18 4 20 20 22 17 24
REMARK H PARENT 10 19 4 21 20 23 17 25
REMARK Flexibility Score: inf
ROOT
ATOM      1  C   UNL     1     -37.923  37.638  46.241  1.00  0.00     0.180 A 
ATOM      2  C   UNL     1     -36.588  37.199  46.248  1.00  0.00     0.208 A 
ATOM      3  C   UNL     1     -35.776  37.466  45.134  1.00  0.00     0.238 A 
ATOM      4  O   UNL     1     -34.606  37.006  45.116  1.00  0.00    -0.285 OA
ATOM      5  C   UNL     1     -36.293  38.218  44.051  1.00  0.00     0.111 A 
ATOM      6  C   UNL     1     -35.547  38.587  42.889  1.00  0.00     0.134 A 
ATOM      7  C   UNL     1     -36.194  39.241  41.832  1.00  0.00     0.093 A 
ATOM      8  C   UNL     1     -37.542  39.596  41.922  1.00  0.00     0.123 A 
ATOM      9  C   UNL     1     -38.263  39.289  43.072  1.00  0.00     0.094 A 
ATOM     10  C   UNL     1     -37.657  38.604  44.128  1.00  0.00     0.146 A 
ATOM     11  O   UNL     1     -38.388  38.313  45.196  1.00  0.00    -0.452 OA
ENDROOT
BRANCH   1  12
ATOM     12  C   UNL     1     -38.844  37.382  47.372  1.00  0.00     0.021 A 
ATOM     13  C   UNL     1     -38.932  38.268  48.461  1.00  0.00     0.016 A 
ATOM     14  C   UNL     1     -39.790  37.993  49.529  1.00  0.00     0.047 A 
ATOM     15  C   UNL     1     -40.560  36.822  49.530  1.00  0.00     0.115 A 
ATOM     16  C   UNL     1     -39.603  36.200  47.391  1.00  0.00     0.016 A 
ATOM     17  C   UNL     1     -40.461  35.928  48.461  1.00  0.00     0.047 A 
BRANCH  15  18
ATOM     18  O   UNL     1     -41.420  36.538  50.589  1.00  0.00    -0.508 OA
ATOM     19  H   UNL     1     -41.115  36.607  51.552  1.00  0.00     0.293 HD
ENDBRANCH  15  18
ENDBRANCH   1  12
BRANCH   2  20
ATOM     20  O   UNL     1     -36.075  36.524  47.360  1.00  0.00    -0.502 OA
ATOM     21  H   UNL     1     -36.668  36.042  48.024  1.00  0.00     0.293 HD
ENDBRANCH   2  20
BRANCH   6  22
ATOM     22  O   UNL     1     -34.177  38.360  42.734  1.00  0.00    -0.507 OA
ATOM     23  H   UNL     1     -33.764  37.771  42.027  1.00  0.00     0.293 HD
ENDBRANCH   6  22
BRANCH   8  24
ATOM     24  O   UNL     1     -38.172  40.262  40.873  1.00  0.00    -0.508 OA
ATOM     25  H   UNL     1     -37.678  40.936  40.300  1.00  0.00     0.293 HD
ENDBRANCH   8  24
TORSDOF 5
ENDMDL
MODEL 9
REMARK VINA RESULT:    -7.604      2.345      7.936
REMARK INTER + INTRA:          -9.045
REMARK INTER:                  -8.757
REMARK INTRA:                  -0.288
REMARK UNBOUND:                -0.107
REMARK SMILES O=c1c(O)c(-c2ccc(O)cc2)oc2cc(O)cc(O)c12
REMARK SMILES IDX 5 1 3 2 2 3 1 4 21 5 19 6 18 7 16 8 15 9 14 10 13 11 6 12
REMARK SMILES IDX 7 13 8 14 9 15 12 16 11 17 10 18 4 20 20 22 17 24
REMARK H PARENT 10 19 4 21 20 23 17 25
REMARK Flexibility Score: inf
ROOT
ATOM      1  C   UNL     1     -35.484  40.623  43.251  1.00  0.00     0.180 A 
ATOM      2  C   UNL     1     -35.085  39.882  42.125  1.00  0.00     0.208 A 
ATOM      3  C   UNL     1     -34.814  40.558  40.925  1.00  0.00     0.238 A 
ATOM      4  O   UNL     1     -34.531  39.882  39.903  1.00  0.00    -0.285 OA
ATOM      5  C   UNL     1     -34.891  41.971  40.880  1.00  0.00     0.111 A 
ATOM      6  C   UNL     1     -34.594  42.765  39.730  1.00  0.00     0.134 A 
ATOM      7  C   UNL     1     -34.808  44.149  39.772  1.00  0.00     0.093 A 
ATOM      8  C   UNL     1     -35.246  44.775  40.941  1.00  0.00     0.123 A 
ATOM      9  C   UNL     1     -35.485  44.017  42.084  1.00  0.00     0.094 A 
ATOM     10  C   UNL     1     -35.318  42.630  42.063  1.00  0.00     0.146 A 
ATOM     11  O   UNL     1     -35.579  41.945  43.169  1.00  0.00    -0.452 OA
ENDROOT
BRANCH   1  12
ATOM     12  C   UNL     1     -35.801  39.980  44.547  1.00  0.00     0.021 A 
ATOM     13  C   UNL     1     -34.809  39.766  45.521  1.00  0.00     0.016 A 
ATOM     14  C   UNL     1     -35.126  39.135  46.727  1.00  0.00     0.047 A 
ATOM     15  C   UNL     1     -36.435  38.697  46.969  1.00  0.00     0.115 A 
ATOM     16  C   UNL     1     -37.105  39.518  44.789  1.00  0.00     0.016 A 
ATOM     17  C   UNL     1     -37.420  38.888  45.997  1.00  0.00     0.047 A 
BRANCH  15  18
ATOM     18  O   UNL     1     -36.763  38.068  48.168  1.00  0.00    -0.508 OA
ATOM     19  H   UNL     1     -37.505  38.417  48.763  1.00  0.00     0.293 HD
ENDBRANCH  15  18
ENDBRANCH   1  12
BRANCH   2  20
ATOM     20  O   UNL     1     -34.942  38.494  42.211  1.00  0.00    -0.502 OA
ATOM     21  H   UNL     1     -35.149  37.877  41.436  1.00  0.00     0.293 HD
ENDBRANCH   2  20
BRANCH   6  22
ATOM     22  O   UNL     1     -34.069  42.253  38.540  1.00  0.00    -0.507 OA
ATOM     23  H   UNL     1     -33.256  42.615  38.064  1.00  0.00     0.293 HD
ENDBRANCH   6  22
BRANCH   8  24
ATOM     24  O   UNL     1     -35.438  46.154  40.978  1.00  0.00    -0.508 OA
ATOM     25  H   UNL     1     -35.400  46.672  41.849  1.00  0.00     0.293 HD
ENDBRANCH   8  24
TORSDOF 5
ENDMDL
