MODEL 1
REMARK VINA RESULT:    -4.870      0.000      0.000
REMARK INTER + INTRA:         -15.896
REMARK INTER:                 -12.271
REMARK INTRA:                  -3.625
REMARK UNBOUND:                -3.625
REMARK SMILES CCCCCCCCCCCCCCCCCCCCCCCCCCCC(=O)[O-]
REMARK SMILES IDX 15 1 16 2 17 3 18 4 19 5 20 6 21 7 22 8 23 9 24 10 25 11
REMARK SMILES IDX 26 12 27 13 28 14 29 15 30 16 14 17 13 18 12 19 11 20 10 21
REMARK SMILES IDX 9 22 8 23 7 24 6 25 5 26 4 27 3 28 2 29 1 30
REMARK H PARENT
REMARK Flexibility Score: inf
ROOT
ATOM      1  C   UNL     1      36.392   6.372  11.512  1.00  0.00     0.000 C 
ENDROOT
BRANCH   1   2
ATOM      2  C   UNL     1      35.195   7.225  11.972  1.00  0.00     0.000 C 
BRANCH   2   3
ATOM      3  C   UNL     1      34.305   7.716  10.815  1.00  0.00     0.000 C 
BRANCH   3   4
ATOM      4  C   UNL     1      32.853   7.943  11.272  1.00  0.00     0.000 C 
BRANCH   4   5
ATOM      5  C   UNL     1      32.519   7.164  12.558  1.00  0.00     0.000 C 
BRANCH   5   6
ATOM      6  C   UNL     1      31.644   5.924  12.286  1.00  0.00     0.000 C 
BRANCH   6   7
ATOM      7  C   UNL     1      32.235   4.934  11.257  1.00  0.00     0.000 C 
BRANCH   7   8
ATOM      8  C   UNL     1      33.392   4.052  11.772  1.00  0.00     0.000 C 
BRANCH   8   9
ATOM      9  C   UNL     1      32.939   2.899  12.692  1.00  0.00     0.000 C 
BRANCH   9  10
ATOM     10  C   UNL     1      33.506   3.016  14.118  1.00  0.00     0.000 C 
BRANCH  10  11
ATOM     11  C   UNL     1      34.235   4.345  14.369  1.00  0.00     0.000 C 
BRANCH  11  12
ATOM     12  C   UNL     1      35.219   4.280  15.547  1.00  0.00     0.006 C 
BRANCH  12  13
ATOM     13  C   UNL     1      36.030   5.576  15.660  1.00  0.00     0.053 C 
BRANCH  13  14
ATOM     14  C   UNL     1      37.297   5.357  16.431  1.00  0.00     0.041 C 
ATOM     15  O   UNL     1      38.241   6.189  16.361  1.00  0.00    -0.550 OA
ATOM     16  O   UNL     1      37.423   4.240  17.246  1.00  0.00    -0.550 OA
ENDBRANCH  13  14
ENDBRANCH  12  13
ENDBRANCH  11  12
ENDBRANCH  10  11
ENDBRANCH   9  10
ENDBRANCH   8   9
ENDBRANCH   7   8
ENDBRANCH   6   7
ENDBRANCH   5   6
ENDBRANCH   4   5
ENDBRANCH   3   4
ENDBRANCH   2   3
ENDBRANCH   1   2
BRANCH   1  17
ATOM     17  C   UNL     1      36.475   6.143   9.987  1.00  0.00     0.000 C 
BRANCH  17  18
ATOM     18  C   UNL     1      35.900   4.807   9.477  1.00  0.00     0.000 C 
BRANCH  18  19
ATOM     19  C   UNL     1      35.195   4.869   8.108  1.00  0.00     0.000 C 
BRANCH  19  20
ATOM     20  C   UNL     1      33.723   5.327   8.185  1.00  0.00     0.000 C 
BRANCH  20  21
ATOM     21  C   UNL     1      33.027   5.303   6.812  1.00  0.00     0.000 C 
BRANCH  21  22
ATOM     22  C   UNL     1      31.964   4.188   6.712  1.00  0.00    -0.000 C 
BRANCH  22  23
ATOM     23  C   UNL     1      31.675   3.735   5.270  1.00  0.00    -0.000 C 
BRANCH  23  24
ATOM     24  C   UNL     1      31.369   4.906   4.321  1.00  0.00    -0.000 C 
BRANCH  24  25
ATOM     25  C   UNL     1      30.324   4.534   3.247  1.00  0.00    -0.000 C 
BRANCH  25  26
ATOM     26  C   UNL     1      29.551   3.238   3.557  1.00  0.00    -0.000 C 
BRANCH  26  27
ATOM     27  C   UNL     1      28.054   3.346   3.229  1.00  0.00    -0.000 C 
BRANCH  27  28
ATOM     28  C   UNL     1      27.216   3.778   4.448  1.00  0.00    -0.000 C 
BRANCH  28  29
ATOM     29  C   UNL     1      27.933   3.566   5.794  1.00  0.00    -0.003 C 
ATOM     30  C   UNL     1      28.151   4.871   6.556  1.00  0.00     0.004 C 
ENDBRANCH  28  29
ENDBRANCH  27  28
ENDBRANCH  26  27
ENDBRANCH  25  26
ENDBRANCH  24  25
ENDBRANCH  23  24
ENDBRANCH  22  23
ENDBRANCH  21  22
ENDBRANCH  20  21
ENDBRANCH  19  20
ENDBRANCH  18  19
ENDBRANCH  17  18
ENDBRANCH   1  17
TORSDOF 26
ENDMDL
MODEL 2
REMARK VINA RESULT:    -4.752      1.024      2.043
REMARK INTER + INTRA:         -15.599
REMARK INTER:                 -11.750
REMARK INTRA:                  -3.849
REMARK UNBOUND:                -3.625
REMARK SMILES CCCCCCCCCCCCCCCCCCCCCCCCCCCC(=O)[O-]
REMARK SMILES IDX 15 1 16 2 17 3 18 4 19 5 20 6 21 7 22 8 23 9 24 10 25 11
REMARK SMILES IDX 26 12 27 13 28 14 29 15 30 16 14 17 13 18 12 19 11 20 10 21
REMARK SMILES IDX 9 22 8 23 7 24 6 25 5 26 4 27 3 28 2 29 1 30
REMARK H PARENT
REMARK Flexibility Score: inf
ROOT
ATOM      1  C   UNL     1      35.340   7.069  11.847  1.00  0.00     0.000 C 
ENDROOT
BRANCH   1   2
ATOM      2  C   UNL     1      34.328   8.227  11.772  1.00  0.00     0.000 C 
BRANCH   2   3
ATOM      3  C   UNL     1      32.893   7.774  11.445  1.00  0.00     0.000 C 
BRANCH   3   4
ATOM      4  C   UNL     1      32.230   7.077  12.646  1.00  0.00     0.000 C 
BRANCH   4   5
ATOM      5  C   UNL     1      31.742   5.658  12.299  1.00  0.00     0.000 C 
BRANCH   5   6
ATOM      6  C   UNL     1      32.547   5.021  11.148  1.00  0.00     0.000 C 
BRANCH   6   7
ATOM      7  C   UNL     1      33.146   3.634  11.475  1.00  0.00     0.000 C 
BRANCH   7   8
ATOM      8  C   UNL     1      32.666   2.997  12.796  1.00  0.00     0.000 C 
BRANCH   8   9
ATOM      9  C   UNL     1      33.802   2.401  13.653  1.00  0.00     0.000 C 
BRANCH   9  10
ATOM     10  C   UNL     1      34.157   3.278  14.868  1.00  0.00     0.000 C 
BRANCH  10  11
ATOM     11  C   UNL     1      34.381   4.753  14.500  1.00  0.00     0.000 C 
BRANCH  11  12
ATOM     12  C   UNL     1      35.769   5.272  14.907  1.00  0.00     0.006 C 
BRANCH  12  13
ATOM     13  C   UNL     1      36.004   5.094  16.411  1.00  0.00     0.053 C 
BRANCH  13  14
ATOM     14  C   UNL     1      37.454   5.261  16.755  1.00  0.00     0.041 C 
ATOM     15  O   UNL     1      38.170   6.087  16.128  1.00  0.00    -0.550 OA
ATOM     16  O   UNL     1      38.008   4.518  17.789  1.00  0.00    -0.550 OA
ENDBRANCH  13  14
ENDBRANCH  12  13
ENDBRANCH  11  12
ENDBRANCH  10  11
ENDBRANCH   9  10
ENDBRANCH   8   9
ENDBRANCH   7   8
ENDBRANCH   6   7
ENDBRANCH   5   6
ENDBRANCH   4   5
ENDBRANCH   3   4
ENDBRANCH   2   3
ENDBRANCH   1   2
BRANCH   1  17
ATOM     17  C   UNL     1      36.364   7.029  10.692  1.00  0.00     0.000 C 
BRANCH  17  18
ATOM     18  C   UNL     1      36.646   5.637  10.094  1.00  0.00     0.000 C 
BRANCH  18  19
ATOM     19  C   UNL     1      35.583   5.110   9.111  1.00  0.00     0.000 C 
BRANCH  19  20
ATOM     20  C   UNL     1      34.728   6.220   8.464  1.00  0.00     0.000 C 
BRANCH  20  21
ATOM     21  C   UNL     1      33.568   5.655   7.625  1.00  0.00     0.000 C 
BRANCH  21  22
ATOM     22  C   UNL     1      33.458   4.120   7.734  1.00  0.00    -0.000 C 
BRANCH  22  23
ATOM     23  C   UNL     1      32.011   3.608   7.841  1.00  0.00    -0.000 C 
BRANCH  23  24
ATOM     24  C   UNL     1      31.844   2.164   7.338  1.00  0.00    -0.000 C 
BRANCH  24  25
ATOM     25  C   UNL     1      30.932   2.076   6.095  1.00  0.00    -0.000 C 
BRANCH  25  26
ATOM     26  C   UNL     1      29.526   2.664   6.314  1.00  0.00    -0.000 C 
BRANCH  26  27
ATOM     27  C   UNL     1      29.245   3.883   5.422  1.00  0.00    -0.000 C 
BRANCH  27  28
ATOM     28  C   UNL     1      29.735   3.677   3.976  1.00  0.00    -0.000 C 
BRANCH  28  29
ATOM     29  C   UNL     1      31.028   4.446   3.649  1.00  0.00    -0.003 C 
ATOM     30  C   UNL     1      31.323   5.556   4.657  1.00  0.00     0.004 C 
ENDBRANCH  28  29
ENDBRANCH  27  28
ENDBRANCH  26  27
ENDBRANCH  25  26
ENDBRANCH  24  25
ENDBRANCH  23  24
ENDBRANCH  22  23
ENDBRANCH  21  22
ENDBRANCH  20  21
ENDBRANCH  19  20
ENDBRANCH  18  19
ENDBRANCH  17  18
ENDBRANCH   1  17
TORSDOF 26
ENDMDL
MODEL 3
REMARK VINA RESULT:    -4.580      3.948      8.963
REMARK INTER + INTRA:         -15.167
REMARK INTER:                 -11.738
REMARK INTRA:                  -3.430
REMARK UNBOUND:                -3.625
REMARK SMILES CCCCCCCCCCCCCCCCCCCCCCCCCCCC(=O)[O-]
REMARK SMILES IDX 15 1 16 2 17 3 18 4 19 5 20 6 21 7 22 8 23 9 24 10 25 11
REMARK SMILES IDX 26 12 27 13 28 14 29 15 30 16 14 17 13 18 12 19 11 20 10 21
REMARK SMILES IDX 9 22 8 23 7 24 6 25 5 26 4 27 3 28 2 29 1 30
REMARK H PARENT
REMARK Flexibility Score: inf
ROOT
ATOM      1  C   UNL     1      36.072   6.768  10.134  1.00  0.00     0.000 C 
ENDROOT
BRANCH   1   2
ATOM      2  C   UNL     1      34.645   7.324   9.980  1.00  0.00     0.000 C 
BRANCH   2   3
ATOM      3  C   UNL     1      33.920   6.828   8.715  1.00  0.00     0.000 C 
BRANCH   3   4
ATOM      4  C   UNL     1      34.644   5.628   8.080  1.00  0.00     0.000 C 
BRANCH   4   5
ATOM      5  C   UNL     1      33.784   4.351   8.103  1.00  0.00     0.000 C 
BRANCH   5   6
ATOM      6  C   UNL     1      32.418   4.546   7.416  1.00  0.00     0.000 C 
BRANCH   6   7
ATOM      7  C   UNL     1      32.500   4.885   5.910  1.00  0.00     0.000 C 
BRANCH   7   8
ATOM      8  C   UNL     1      31.163   4.826   5.141  1.00  0.00     0.000 C 
BRANCH   8   9
ATOM      9  C   UNL     1      30.925   3.494   4.399  1.00  0.00     0.000 C 
BRANCH   9  10
ATOM     10  C   UNL     1      29.681   3.530   3.493  1.00  0.00     0.000 C 
BRANCH  10  11
ATOM     11  C   UNL     1      28.808   2.271   3.619  1.00  0.00     0.000 C 
BRANCH  11  12
ATOM     12  C   UNL     1      27.410   2.560   4.187  1.00  0.00     0.006 C 
BRANCH  12  13
ATOM     13  C   UNL     1      27.318   3.996   4.717  1.00  0.00     0.053 C 
BRANCH  13  14
ATOM     14  C   UNL     1      27.416   4.028   6.213  1.00  0.00     0.041 C 
ATOM     15  O   UNL     1      27.648   5.111   6.816  1.00  0.00    -0.550 OA
ATOM     16  O   UNL     1      27.227   2.862   6.942  1.00  0.00    -0.550 OA
ENDBRANCH  13  14
ENDBRANCH  12  13
ENDBRANCH  11  12
ENDBRANCH  10  11
ENDBRANCH   9  10
ENDBRANCH   8   9
ENDBRANCH   7   8
ENDBRANCH   6   7
ENDBRANCH   5   6
ENDBRANCH   4   5
ENDBRANCH   3   4
ENDBRANCH   2   3
ENDBRANCH   1   2
BRANCH   1  17
ATOM     17  C   UNL     1      36.414   6.244  11.545  1.00  0.00     0.000 C 
BRANCH  17  18
ATOM     18  C   UNL     1      35.339   6.474  12.625  1.00  0.00     0.000 C 
BRANCH  18  19
ATOM     19  C   UNL     1      35.523   5.669  13.926  1.00  0.00     0.000 C 
BRANCH  19  20
ATOM     20  C   UNL     1      34.206   5.110  14.505  1.00  0.00     0.000 C 
BRANCH  20  21
ATOM     21  C   UNL     1      34.107   3.580  14.372  1.00  0.00     0.000 C 
BRANCH  21  22
ATOM     22  C   UNL     1      32.922   3.142  13.486  1.00  0.00    -0.000 C 
BRANCH  22  23
ATOM     23  C   UNL     1      33.208   3.238  11.978  1.00  0.00    -0.000 C 
BRANCH  23  24
ATOM     24  C   UNL     1      32.527   4.445  11.311  1.00  0.00    -0.000 C 
BRANCH  24  25
ATOM     25  C   UNL     1      31.746   5.312  12.322  1.00  0.00    -0.000 C 
BRANCH  25  26
ATOM     26  C   UNL     1      31.591   6.781  11.889  1.00  0.00    -0.000 C 
BRANCH  26  27
ATOM     27  C   UNL     1      32.034   7.773  12.976  1.00  0.00    -0.000 C 
BRANCH  27  28
ATOM     28  C   UNL     1      32.216   9.201  12.428  1.00  0.00    -0.000 C 
BRANCH  28  29
ATOM     29  C   UNL     1      30.910   9.834  11.913  1.00  0.00    -0.003 C 
ATOM     30  C   UNL     1      30.778  11.307  12.298  1.00  0.00     0.004 C 
ENDBRANCH  28  29
ENDBRANCH  27  28
ENDBRANCH  26  27
ENDBRANCH  25  26
ENDBRANCH  24  25
ENDBRANCH  23  24
ENDBRANCH  22  23
ENDBRANCH  21  22
ENDBRANCH  20  21
ENDBRANCH  19  20
ENDBRANCH  18  19
ENDBRANCH  17  18
ENDBRANCH   1  17
TORSDOF 26
ENDMDL
MODEL 4
REMARK VINA RESULT:    -4.560      3.856      9.292
REMARK INTER + INTRA:         -15.117
REMARK INTER:                 -11.378
REMARK INTRA:                  -3.739
REMARK UNBOUND:                -3.625
REMARK SMILES CCCCCCCCCCCCCCCCCCCCCCCCCCCC(=O)[O-]
REMARK SMILES IDX 15 1 16 2 17 3 18 4 19 5 20 6 21 7 22 8 23 9 24 10 25 11
REMARK SMILES IDX 26 12 27 13 28 14 29 15 30 16 14 17 13 18 12 19 11 20 10 21
REMARK SMILES IDX 9 22 8 23 7 24 6 25 5 26 4 27 3 28 2 29 1 30
REMARK H PARENT
REMARK Flexibility Score: inf
ROOT
ATOM      1  C   UNL     1      34.705   7.905  11.330  1.00  0.00     0.000 C 
ENDROOT
BRANCH   1   2
ATOM      2  C   UNL     1      33.717   7.367  10.279  1.00  0.00     0.000 C 
BRANCH   2   3
ATOM      3  C   UNL     1      33.760   8.130   8.942  1.00  0.00     0.000 C 
BRANCH   3   4
ATOM      4  C   UNL     1      33.943   7.175   7.750  1.00  0.00     0.000 C 
BRANCH   4   5
ATOM      5  C   UNL     1      33.210   5.836   7.958  1.00  0.00     0.000 C 
BRANCH   5   6
ATOM      6  C   UNL     1      33.072   5.029   6.651  1.00  0.00     0.000 C 
BRANCH   6   7
ATOM      7  C   UNL     1      31.855   4.078   6.610  1.00  0.00     0.000 C 
BRANCH   7   8
ATOM      8  C   UNL     1      31.535   3.466   5.230  1.00  0.00     0.000 C 
BRANCH   8   9
ATOM      9  C   UNL     1      31.086   4.498   4.175  1.00  0.00     0.000 C 
BRANCH   9  10
ATOM     10  C   UNL     1      29.846   4.042   3.384  1.00  0.00     0.000 C 
BRANCH  10  11
ATOM     11  C   UNL     1      29.409   2.609   3.725  1.00  0.00     0.000 C 
BRANCH  11  12
ATOM     12  C   UNL     1      27.972   2.529   4.264  1.00  0.00     0.006 C 
BRANCH  12  13
ATOM     13  C   UNL     1      27.486   3.903   4.741  1.00  0.00     0.053 C 
BRANCH  13  14
ATOM     14  C   UNL     1      27.461   3.979   6.238  1.00  0.00     0.041 C 
ATOM     15  O   UNL     1      27.593   5.086   6.825  1.00  0.00    -0.550 OA
ATOM     16  O   UNL     1      27.267   2.823   6.984  1.00  0.00    -0.550 OA
ENDBRANCH  13  14
ENDBRANCH  12  13
ENDBRANCH  11  12
ENDBRANCH  10  11
ENDBRANCH   9  10
ENDBRANCH   8   9
ENDBRANCH   7   8
ENDBRANCH   6   7
ENDBRANCH   5   6
ENDBRANCH   4   5
ENDBRANCH   3   4
ENDBRANCH   2   3
ENDBRANCH   1   2
BRANCH   1  17
ATOM     17  C   UNL     1      36.190   7.596  11.040  1.00  0.00     0.000 C 
BRANCH  17  18
ATOM     18  C   UNL     1      36.593   6.110  11.112  1.00  0.00     0.000 C 
BRANCH  18  19
ATOM     19  C   UNL     1      36.883   5.436   9.757  1.00  0.00     0.000 C 
BRANCH  19  20
ATOM     20  C   UNL     1      35.823   4.393   9.339  1.00  0.00     0.000 C 
BRANCH  20  21
ATOM     21  C   UNL     1      34.947   3.939  10.521  1.00  0.00     0.000 C 
BRANCH  21  22
ATOM     22  C   UNL     1      33.690   3.172  10.059  1.00  0.00    -0.000 C 
BRANCH  22  23
ATOM     23  C   UNL     1      32.415   3.548  10.833  1.00  0.00    -0.000 C 
BRANCH  23  24
ATOM     24  C   UNL     1      32.692   4.448  12.049  1.00  0.00    -0.000 C 
BRANCH  24  25
ATOM     25  C   UNL     1      32.787   3.646  13.365  1.00  0.00    -0.000 C 
BRANCH  25  26
ATOM     26  C   UNL     1      33.980   4.046  14.251  1.00  0.00    -0.000 C 
BRANCH  26  27
ATOM     27  C   UNL     1      34.652   5.349  13.791  1.00  0.00    -0.000 C 
BRANCH  27  28
ATOM     28  C   UNL     1      35.863   5.726  14.667  1.00  0.00    -0.000 C 
BRANCH  28  29
ATOM     29  C   UNL     1      35.957   4.910  15.970  1.00  0.00    -0.003 C 
ATOM     30  C   UNL     1      37.284   5.116  16.698  1.00  0.00     0.004 C 
ENDBRANCH  28  29
ENDBRANCH  27  28
ENDBRANCH  26  27
ENDBRANCH  25  26
ENDBRANCH  24  25
ENDBRANCH  23  24
ENDBRANCH  22  23
ENDBRANCH  21  22
ENDBRANCH  20  21
ENDBRANCH  19  20
ENDBRANCH  18  19
ENDBRANCH  17  18
ENDBRANCH   1  17
TORSDOF 26
ENDMDL
MODEL 5
REMARK VINA RESULT:    -4.557      1.485      3.993
REMARK INTER + INTRA:         -15.108
REMARK INTER:                 -11.316
REMARK INTRA:                  -3.792
REMARK UNBOUND:                -3.625
REMARK SMILES CCCCCCCCCCCCCCCCCCCCCCCCCCCC(=O)[O-]
REMARK SMILES IDX 15 1 16 2 17 3 18 4 19 5 20 6 21 7 22 8 23 9 24 10 25 11
REMARK SMILES IDX 26 12 27 13 28 14 29 15 30 16 14 17 13 18 12 19 11 20 10 21
REMARK SMILES IDX 9 22 8 23 7 24 6 25 5 26 4 27 3 28 2 29 1 30
REMARK H PARENT
REMARK Flexibility Score: inf
ROOT
ATOM      1  C   UNL     1      32.110   7.677  12.611  1.00  0.00     0.000 C 
ENDROOT
BRANCH   1   2
ATOM      2  C   UNL     1      32.705   8.416  11.399  1.00  0.00     0.000 C 
BRANCH   2   3
ATOM      3  C   UNL     1      33.419   7.488  10.398  1.00  0.00     0.000 C 
BRANCH   3   4
ATOM      4  C   UNL     1      33.739   8.213   9.079  1.00  0.00     0.000 C 
BRANCH   4   5
ATOM      5  C   UNL     1      34.067   7.230   7.940  1.00  0.00     0.000 C 
BRANCH   5   6
ATOM      6  C   UNL     1      33.818   5.761   8.337  1.00  0.00     0.000 C 
BRANCH   6   7
ATOM      7  C   UNL     1      35.094   4.892   8.415  1.00  0.00     0.000 C 
BRANCH   7   8
ATOM      8  C   UNL     1      35.932   5.055   9.701  1.00  0.00     0.000 C 
BRANCH   8   9
ATOM      9  C   UNL     1      37.001   6.164   9.618  1.00  0.00     0.000 C 
BRANCH   9  10
ATOM     10  C   UNL     1      37.279   6.828  10.978  1.00  0.00     0.000 C 
BRANCH  10  11
ATOM     11  C   UNL     1      36.024   6.950  11.857  1.00  0.00     0.000 C 
BRANCH  11  12
ATOM     12  C   UNL     1      36.184   6.283  13.232  1.00  0.00     0.006 C 
BRANCH  12  13
ATOM     13  C   UNL     1      34.865   5.653  13.695  1.00  0.00     0.053 C 
BRANCH  13  14
ATOM     14  C   UNL     1      35.068   4.815  14.922  1.00  0.00     0.041 C 
ATOM     15  O   UNL     1      34.408   3.754  15.090  1.00  0.00    -0.550 OA
ATOM     16  O   UNL     1      36.007   5.198  15.871  1.00  0.00    -0.550 OA
ENDBRANCH  13  14
ENDBRANCH  12  13
ENDBRANCH  11  12
ENDBRANCH  10  11
ENDBRANCH   9  10
ENDBRANCH   8   9
ENDBRANCH   7   8
ENDBRANCH   6   7
ENDBRANCH   5   6
ENDBRANCH   4   5
ENDBRANCH   3   4
ENDBRANCH   2   3
ENDBRANCH   1   2
BRANCH   1  17
ATOM     17  C   UNL     1      31.168   6.506  12.256  1.00  0.00     0.000 C 
BRANCH  17  18
ATOM     18  C   UNL     1      31.718   5.094  12.536  1.00  0.00     0.000 C 
BRANCH  18  19
ATOM     19  C   UNL     1      32.395   4.397  11.340  1.00  0.00     0.000 C 
BRANCH  19  20
ATOM     20  C   UNL     1      33.222   3.153  11.730  1.00  0.00     0.000 C 
BRANCH  20  21
ATOM     21  C   UNL     1      33.282   2.109  10.600  1.00  0.00     0.000 C 
BRANCH  21  22
ATOM     22  C   UNL     1      32.054   2.181   9.668  1.00  0.00    -0.000 C 
BRANCH  22  23
ATOM     23  C   UNL     1      32.407   2.477   8.200  1.00  0.00    -0.000 C 
BRANCH  23  24
ATOM     24  C   UNL     1      31.168   2.611   7.298  1.00  0.00    -0.000 C 
BRANCH  24  25
ATOM     25  C   UNL     1      31.063   4.008   6.649  1.00  0.00    -0.000 C 
BRANCH  25  26
ATOM     26  C   UNL     1      31.802   4.124   5.303  1.00  0.00    -0.000 C 
BRANCH  26  27
ATOM     27  C   UNL     1      31.150   5.139   4.351  1.00  0.00    -0.000 C 
BRANCH  27  28
ATOM     28  C   UNL     1      30.334   4.457   3.236  1.00  0.00    -0.000 C 
BRANCH  28  29
ATOM     29  C   UNL     1      29.012   3.841   3.729  1.00  0.00    -0.003 C 
ATOM     30  C   UNL     1      28.816   2.404   3.249  1.00  0.00     0.004 C 
ENDBRANCH  28  29
ENDBRANCH  27  28
ENDBRANCH  26  27
ENDBRANCH  25  26
ENDBRANCH  24  25
ENDBRANCH  23  24
ENDBRANCH  22  23
ENDBRANCH  21  22
ENDBRANCH  20  21
ENDBRANCH  19  20
ENDBRANCH  18  19
ENDBRANCH  17  18
ENDBRANCH   1  17
TORSDOF 26
ENDMDL
MODEL 6
REMARK VINA RESULT:    -4.526      3.893      9.348
REMARK INTER + INTRA:         -15.031
REMARK INTER:                 -11.589
REMARK INTRA:                  -3.442
REMARK UNBOUND:                -3.625
REMARK SMILES CCCCCCCCCCCCCCCCCCCCCCCCCCCC(=O)[O-]
REMARK SMILES IDX 15 1 16 2 17 3 18 4 19 5 20 6 21 7 22 8 23 9 24 10 25 11
REMARK SMILES IDX 26 12 27 13 28 14 29 15 30 16 14 17 13 18 12 19 11 20 10 21
REMARK SMILES IDX 9 22 8 23 7 24 6 25 5 26 4 27 3 28 2 29 1 30
REMARK H PARENT
REMARK Flexibility Score: inf
ROOT
ATOM      1  C   UNL     1      36.496   4.896   9.903  1.00  0.00     0.000 C 
ENDROOT
BRANCH   1   2
ATOM      2  C   UNL     1      35.712   4.474   8.647  1.00  0.00     0.000 C 
BRANCH   2   3
ATOM      3  C   UNL     1      34.238   4.921   8.658  1.00  0.00     0.000 C 
BRANCH   3   4
ATOM      4  C   UNL     1      33.334   3.880   9.341  1.00  0.00     0.000 C 
BRANCH   4   5
ATOM      5  C   UNL     1      32.013   3.666   8.577  1.00  0.00     0.000 C 
BRANCH   5   6
ATOM      6  C   UNL     1      32.099   2.509   7.562  1.00  0.00     0.000 C 
BRANCH   6   7
ATOM      7  C   UNL     1      31.526   2.838   6.164  1.00  0.00     0.000 C 
BRANCH   7   8
ATOM      8  C   UNL     1      31.951   4.200   5.575  1.00  0.00     0.000 C 
BRANCH   8   9
ATOM      9  C   UNL     1      30.814   4.950   4.850  1.00  0.00     0.000 C 
BRANCH   9  10
ATOM     10  C   UNL     1      30.567   4.426   3.424  1.00  0.00     0.000 C 
BRANCH  10  11
ATOM     11  C   UNL     1      29.495   3.326   3.365  1.00  0.00     0.000 C 
BRANCH  11  12
ATOM     12  C   UNL     1      28.063   3.875   3.449  1.00  0.00     0.006 C 
BRANCH  12  13
ATOM     13  C   UNL     1      27.220   3.067   4.443  1.00  0.00     0.053 C 
BRANCH  13  14
ATOM     14  C   UNL     1      27.566   3.420   5.858  1.00  0.00     0.041 C 
ATOM     15  O   UNL     1      27.429   4.602   6.275  1.00  0.00    -0.550 OA
ATOM     16  O   UNL     1      28.019   2.434   6.724  1.00  0.00    -0.550 OA
ENDBRANCH  13  14
ENDBRANCH  12  13
ENDBRANCH  11  12
ENDBRANCH  10  11
ENDBRANCH   9  10
ENDBRANCH   8   9
ENDBRANCH   7   8
ENDBRANCH   6   7
ENDBRANCH   5   6
ENDBRANCH   4   5
ENDBRANCH   3   4
ENDBRANCH   2   3
ENDBRANCH   1   2
BRANCH   1  17
ATOM     17  C   UNL     1      37.093   6.318   9.846  1.00  0.00     0.000 C 
BRANCH  17  18
ATOM     18  C   UNL     1      37.001   7.138  11.147  1.00  0.00     0.000 C 
BRANCH  18  19
ATOM     19  C   UNL     1      35.672   7.888  11.365  1.00  0.00     0.000 C 
BRANCH  19  20
ATOM     20  C   UNL     1      34.713   7.822  10.157  1.00  0.00     0.000 C 
BRANCH  20  21
ATOM     21  C   UNL     1      33.234   7.890  10.575  1.00  0.00     0.000 C 
BRANCH  21  22
ATOM     22  C   UNL     1      33.057   8.365  12.033  1.00  0.00    -0.000 C 
BRANCH  22  23
ATOM     23  C   UNL     1      32.135   7.462  12.871  1.00  0.00    -0.000 C 
BRANCH  23  24
ATOM     24  C   UNL     1      31.906   6.080  12.236  1.00  0.00    -0.000 C 
BRANCH  24  25
ATOM     25  C   UNL     1      31.912   4.945  13.283  1.00  0.00    -0.000 C 
BRANCH  25  26
ATOM     26  C   UNL     1      33.204   4.107  13.281  1.00  0.00    -0.000 C 
BRANCH  26  27
ATOM     27  C   UNL     1      34.423   4.895  12.776  1.00  0.00    -0.000 C 
BRANCH  27  28
ATOM     28  C   UNL     1      35.136   5.661  13.907  1.00  0.00    -0.000 C 
BRANCH  28  29
ATOM     29  C   UNL     1      35.219   4.873  15.227  1.00  0.00    -0.003 C 
ATOM     30  C   UNL     1      36.360   5.348  16.126  1.00  0.00     0.004 C 
ENDBRANCH  28  29
ENDBRANCH  27  28
ENDBRANCH  26  27
ENDBRANCH  25  26
ENDBRANCH  24  25
ENDBRANCH  23  24
ENDBRANCH  22  23
ENDBRANCH  21  22
ENDBRANCH  20  21
ENDBRANCH  19  20
ENDBRANCH  18  19
ENDBRANCH  17  18
ENDBRANCH   1  17
TORSDOF 26
ENDMDL
MODEL 7
REMARK VINA RESULT:    -4.504      3.795      9.611
REMARK INTER + INTRA:         -14.975
REMARK INTER:                 -11.661
REMARK INTRA:                  -3.315
REMARK UNBOUND:                -3.625
REMARK SMILES CCCCCCCCCCCCCCCCCCCCCCCCCCCC(=O)[O-]
REMARK SMILES IDX 15 1 16 2 17 3 18 4 19 5 20 6 21 7 22 8 23 9 24 10 25 11
REMARK SMILES IDX 26 12 27 13 28 14 29 15 30 16 14 17 13 18 12 19 11 20 10 21
REMARK SMILES IDX 9 22 8 23 7 24 6 25 5 26 4 27 3 28 2 29 1 30
REMARK H PARENT
REMARK Flexibility Score: inf
ROOT
ATOM      1  C   UNL     1      36.765   6.460  10.894  1.00  0.00     0.000 C 
ENDROOT
BRANCH   1   2
ATOM      2  C   UNL     1      36.273   5.419   9.872  1.00  0.00     0.000 C 
BRANCH   2   3
ATOM      3  C   UNL     1      35.299   5.993   8.826  1.00  0.00     0.000 C 
BRANCH   3   4
ATOM      4  C   UNL     1      34.751   4.895   7.897  1.00  0.00     0.000 C 
BRANCH   4   5
ATOM      5  C   UNL     1      33.336   5.220   7.384  1.00  0.00     0.000 C 
BRANCH   5   6
ATOM      6  C   UNL     1      32.417   3.982   7.360  1.00  0.00     0.000 C 
BRANCH   6   7
ATOM      7  C   UNL     1      31.428   3.939   6.174  1.00  0.00     0.000 C 
BRANCH   7   8
ATOM      8  C   UNL     1      31.690   4.966   5.051  1.00  0.00     0.000 C 
BRANCH   8   9
ATOM      9  C   UNL     1      30.738   4.833   3.845  1.00  0.00     0.000 C 
BRANCH   9  10
ATOM     10  C   UNL     1      30.083   3.443   3.753  1.00  0.00     0.000 C 
BRANCH  10  11
ATOM     11  C   UNL     1      28.780   3.445   2.938  1.00  0.00     0.000 C 
BRANCH  11  12
ATOM     12  C   UNL     1      27.558   2.991   3.753  1.00  0.00     0.006 C 
BRANCH  12  13
ATOM     13  C   UNL     1      27.006   4.141   4.604  1.00  0.00     0.053 C 
BRANCH  13  14
ATOM     14  C   UNL     1      27.438   4.012   6.033  1.00  0.00     0.041 C 
ATOM     15  O   UNL     1      27.555   2.876   6.567  1.00  0.00    -0.550 OA
ATOM     16  O   UNL     1      27.737   5.152   6.769  1.00  0.00    -0.550 OA
ENDBRANCH  13  14
ENDBRANCH  12  13
ENDBRANCH  11  12
ENDBRANCH  10  11
ENDBRANCH   9  10
ENDBRANCH   8   9
ENDBRANCH   7   8
ENDBRANCH   6   7
ENDBRANCH   5   6
ENDBRANCH   4   5
ENDBRANCH   3   4
ENDBRANCH   2   3
ENDBRANCH   1   2
BRANCH   1  17
ATOM     17  C   UNL     1      35.781   7.619  11.163  1.00  0.00     0.000 C 
BRANCH  17  18
ATOM     18  C   UNL     1      34.726   7.363  12.256  1.00  0.00     0.000 C 
BRANCH  18  19
ATOM     19  C   UNL     1      33.586   8.397  12.332  1.00  0.00     0.000 C 
BRANCH  19  20
ATOM     20  C   UNL     1      32.178   7.787  12.154  1.00  0.00     0.000 C 
BRANCH  20  21
ATOM     21  C   UNL     1      32.186   6.250  12.252  1.00  0.00     0.000 C 
BRANCH  21  22
ATOM     22  C   UNL     1      32.270   5.575  10.866  1.00  0.00    -0.000 C 
BRANCH  22  23
ATOM     23  C   UNL     1      32.482   4.053  10.931  1.00  0.00    -0.000 C 
BRANCH  23  24
ATOM     24  C   UNL     1      33.667   3.647  11.823  1.00  0.00    -0.000 C 
BRANCH  24  25
ATOM     25  C   UNL     1      33.242   2.708  12.974  1.00  0.00    -0.000 C 
BRANCH  25  26
ATOM     26  C   UNL     1      33.399   3.332  14.373  1.00  0.00    -0.000 C 
BRANCH  26  27
ATOM     27  C   UNL     1      34.488   4.415  14.423  1.00  0.00    -0.000 C 
BRANCH  27  28
ATOM     28  C   UNL     1      35.286   4.383  15.741  1.00  0.00    -0.000 C 
BRANCH  28  29
ATOM     29  C   UNL     1      36.295   5.538  15.876  1.00  0.00    -0.003 C 
ATOM     30  C   UNL     1      37.539   5.142  16.670  1.00  0.00     0.004 C 
ENDBRANCH  28  29
ENDBRANCH  27  28
ENDBRANCH  26  27
ENDBRANCH  25  26
ENDBRANCH  24  25
ENDBRANCH  23  24
ENDBRANCH  22  23
ENDBRANCH  21  22
ENDBRANCH  20  21
ENDBRANCH  19  20
ENDBRANCH  18  19
ENDBRANCH  17  18
ENDBRANCH   1  17
TORSDOF 26
ENDMDL
MODEL 8
REMARK VINA RESULT:    -4.463      4.065      9.417
REMARK INTER + INTRA:         -14.871
REMARK INTER:                 -11.629
REMARK INTRA:                  -3.242
REMARK UNBOUND:                -3.625
REMARK SMILES CCCCCCCCCCCCCCCCCCCCCCCCCCCC(=O)[O-]
REMARK SMILES IDX 15 1 16 2 17 3 18 4 19 5 20 6 21 7 22 8 23 9 24 10 25 11
REMARK SMILES IDX 26 12 27 13 28 14 29 15 30 16 14 17 13 18 12 19 11 20 10 21
REMARK SMILES IDX 9 22 8 23 7 24 6 25 5 26 4 27 3 28 2 29 1 30
REMARK H PARENT
REMARK Flexibility Score: inf
ROOT
ATOM      1  C   UNL     1      32.291   4.862  13.119  1.00  0.00     0.000 C 
ENDROOT
BRANCH   1   2
ATOM      2  C   UNL     1      32.821   3.472  12.725  1.00  0.00     0.000 C 
BRANCH   2   3
ATOM      3  C   UNL     1      33.155   3.339  11.227  1.00  0.00     0.000 C 
BRANCH   3   4
ATOM      4  C   UNL     1      32.854   1.925  10.701  1.00  0.00     0.000 C 
BRANCH   4   5
ATOM      5  C   UNL     1      32.089   1.952   9.364  1.00  0.00     0.000 C 
BRANCH   5   6
ATOM      6  C   UNL     1      32.554   3.096   8.440  1.00  0.00     0.000 C 
BRANCH   6   7
ATOM      7  C   UNL     1      31.517   3.524   7.377  1.00  0.00     0.000 C 
BRANCH   7   8
ATOM      8  C   UNL     1      32.097   4.205   6.119  1.00  0.00     0.000 C 
BRANCH   8   9
ATOM      9  C   UNL     1      31.402   3.790   4.805  1.00  0.00     0.000 C 
BRANCH   9  10
ATOM     10  C   UNL     1      30.672   2.440   4.917  1.00  0.00     0.000 C 
BRANCH  10  11
ATOM     11  C   UNL     1      29.404   2.368   4.052  1.00  0.00     0.000 C 
BRANCH  11  12
ATOM     12  C   UNL     1      28.760   3.743   3.810  1.00  0.00     0.006 C 
BRANCH  12  13
ATOM     13  C   UNL     1      27.429   3.868   4.561  1.00  0.00     0.053 C 
BRANCH  13  14
ATOM     14  C   UNL     1      27.649   3.937   6.042  1.00  0.00     0.041 C 
ATOM     15  O   UNL     1      27.183   3.044   6.801  1.00  0.00    -0.550 OA
ATOM     16  O   UNL     1      28.392   4.979   6.582  1.00  0.00    -0.550 OA
ENDBRANCH  13  14
ENDBRANCH  12  13
ENDBRANCH  11  12
ENDBRANCH  10  11
ENDBRANCH   9  10
ENDBRANCH   8   9
ENDBRANCH   7   8
ENDBRANCH   6   7
ENDBRANCH   5   6
ENDBRANCH   4   5
ENDBRANCH   3   4
ENDBRANCH   2   3
ENDBRANCH   1   2
BRANCH   1  17
ATOM     17  C   UNL     1      32.012   5.809  11.932  1.00  0.00     0.000 C 
BRANCH  17  18
ATOM     18  C   UNL     1      31.749   7.283  12.297  1.00  0.00     0.000 C 
BRANCH  18  19
ATOM     19  C   UNL     1      32.608   8.316  11.543  1.00  0.00     0.000 C 
BRANCH  19  20
ATOM     20  C   UNL     1      33.846   7.709  10.847  1.00  0.00     0.000 C 
BRANCH  20  21
ATOM     21  C   UNL     1      33.757   7.792   9.312  1.00  0.00     0.000 C 
BRANCH  21  22
ATOM     22  C   UNL     1      33.734   6.398   8.649  1.00  0.00    -0.000 C 
BRANCH  22  23
ATOM     23  C   UNL     1      35.127   5.873   8.261  1.00  0.00    -0.000 C 
BRANCH  23  24
ATOM     24  C   UNL     1      35.577   4.673   9.110  1.00  0.00    -0.000 C 
BRANCH  24  25
ATOM     25  C   UNL     1      36.813   4.998   9.978  1.00  0.00    -0.000 C 
BRANCH  25  26
ATOM     26  C   UNL     1      36.517   5.960  11.142  1.00  0.00    -0.000 C 
BRANCH  26  27
ATOM     27  C   UNL     1      37.503   7.137  11.207  1.00  0.00    -0.000 C 
BRANCH  27  28
ATOM     28  C   UNL     1      38.747   6.813  12.058  1.00  0.00    -0.000 C 
BRANCH  28  29
ATOM     29  C   UNL     1      40.072   7.219  11.388  1.00  0.00    -0.003 C 
ATOM     30  C   UNL     1      41.282   6.523  12.009  1.00  0.00     0.004 C 
ENDBRANCH  28  29
ENDBRANCH  27  28
ENDBRANCH  26  27
ENDBRANCH  25  26
ENDBRANCH  24  25
ENDBRANCH  23  24
ENDBRANCH  22  23
ENDBRANCH  21  22
ENDBRANCH  20  21
ENDBRANCH  19  20
ENDBRANCH  18  19
ENDBRANCH  17  18
ENDBRANCH   1  17
TORSDOF 26
ENDMDL
MODEL 9
REMARK VINA RESULT:    -4.383      3.913      8.911
REMARK INTER + INTRA:         -14.670
REMARK INTER:                 -11.063
REMARK INTRA:                  -3.607
REMARK UNBOUND:                -3.625
REMARK SMILES CCCCCCCCCCCCCCCCCCCCCCCCCCCC(=O)[O-]
REMARK SMILES IDX 15 1 16 2 17 3 18 4 19 5 20 6 21 7 22 8 23 9 24 10 25 11
REMARK SMILES IDX 26 12 27 13 28 14 29 15 30 16 14 17 13 18 12 19 11 20 10 21
REMARK SMILES IDX 9 22 8 23 7 24 6 25 5 26 4 27 3 28 2 29 1 30
REMARK H PARENT
REMARK Flexibility Score: inf
ROOT
ATOM      1  C   UNL     1      32.629   8.511  11.382  1.00  0.00     0.000 C 
ENDROOT
BRANCH   1   2
ATOM      2  C   UNL     1      33.667   7.775  10.515  1.00  0.00     0.000 C 
BRANCH   2   3
ATOM      3  C   UNL     1      33.652   8.204   9.036  1.00  0.00     0.000 C 
BRANCH   3   4
ATOM      4  C   UNL     1      34.265   7.125   8.126  1.00  0.00     0.000 C 
BRANCH   4   5
ATOM      5  C   UNL     1      33.303   6.697   7.001  1.00  0.00     0.000 C 
BRANCH   5   6
ATOM      6  C   UNL     1      33.296   5.171   6.779  1.00  0.00     0.000 C 
BRANCH   6   7
ATOM      7  C   UNL     1      31.921   4.498   6.988  1.00  0.00     0.000 C 
BRANCH   7   8
ATOM      8  C   UNL     1      31.833   3.017   6.563  1.00  0.00     0.000 C 
BRANCH   8   9
ATOM      9  C   UNL     1      31.394   2.809   5.099  1.00  0.00     0.000 C 
BRANCH   9  10
ATOM     10  C   UNL     1      31.223   4.134   4.334  1.00  0.00     0.000 C 
BRANCH  10  11
ATOM     11  C   UNL     1      30.005   4.135   3.397  1.00  0.00     0.000 C 
BRANCH  11  12
ATOM     12  C   UNL     1      28.947   3.088   3.781  1.00  0.00     0.006 C 
BRANCH  12  13
ATOM     13  C   UNL     1      27.758   3.743   4.494  1.00  0.00     0.053 C 
BRANCH  13  14
ATOM     14  C   UNL     1      27.961   3.760   5.979  1.00  0.00     0.041 C 
ATOM     15  O   UNL     1      28.160   2.687   6.611  1.00  0.00    -0.550 OA
ATOM     16  O   UNL     1      27.953   4.969   6.663  1.00  0.00    -0.550 OA
ENDBRANCH  13  14
ENDBRANCH  12  13
ENDBRANCH  11  12
ENDBRANCH  10  11
ENDBRANCH   9  10
ENDBRANCH   8   9
ENDBRANCH   7   8
ENDBRANCH   6   7
ENDBRANCH   5   6
ENDBRANCH   4   5
ENDBRANCH   3   4
ENDBRANCH   2   3
ENDBRANCH   1   2
BRANCH   1  17
ATOM     17  C   UNL     1      32.145   7.724  12.619  1.00  0.00     0.000 C 
BRANCH  17  18
ATOM     18  C   UNL     1      32.571   6.244  12.682  1.00  0.00     0.000 C 
BRANCH  18  19
ATOM     19  C   UNL     1      33.911   5.969  13.391  1.00  0.00     0.000 C 
BRANCH  19  20
ATOM     20  C   UNL     1      34.074   4.511  13.872  1.00  0.00     0.000 C 
BRANCH  20  21
ATOM     21  C   UNL     1      32.836   3.648  13.566  1.00  0.00     0.000 C 
BRANCH  21  22
ATOM     22  C   UNL     1      33.130   2.550  12.521  1.00  0.00    -0.000 C 
BRANCH  22  23
ATOM     23  C   UNL     1      32.499   2.821  11.144  1.00  0.00    -0.000 C 
BRANCH  23  24
ATOM     24  C   UNL     1      33.541   2.967  10.023  1.00  0.00    -0.000 C 
BRANCH  24  25
ATOM     25  C   UNL     1      34.329   4.292  10.122  1.00  0.00    -0.000 C 
BRANCH  25  26
ATOM     26  C   UNL     1      35.609   4.317   9.268  1.00  0.00    -0.000 C 
BRANCH  26  27
ATOM     27  C   UNL     1      36.836   4.813  10.049  1.00  0.00    -0.000 C 
BRANCH  27  28
ATOM     28  C   UNL     1      36.477   5.909  11.071  1.00  0.00    -0.000 C 
BRANCH  28  29
ATOM     29  C   UNL     1      37.360   7.166  10.961  1.00  0.00    -0.003 C 
ATOM     30  C   UNL     1      38.822   6.890  11.309  1.00  0.00     0.004 C 
ENDBRANCH  28  29
ENDBRANCH  27  28
ENDBRANCH  26  27
ENDBRANCH  25  26
ENDBRANCH  24  25
ENDBRANCH  23  24
ENDBRANCH  22  23
ENDBRANCH  21  22
ENDBRANCH  20  21
ENDBRANCH  19  20
ENDBRANCH  18  19
ENDBRANCH  17  18
ENDBRANCH   1  17
TORSDOF 26
ENDMDL
