MODEL 1
REMARK VINA RESULT:    -3.445      0.000      0.000
REMARK INTER + INTRA:          -4.154
REMARK INTER:                  -4.049
REMARK INTRA:                  -0.105
REMARK UNBOUND:                -0.105
REMARK SMILES CCCCC(=O)[O-]
REMARK SMILES IDX 4 1 5 2 6 3 7 4 3 5 2 6 1 7
REMARK H PARENT
REMARK Flexibility Score: inf
ROOT
ATOM      1  C   UNL     1      63.464   1.432  19.385  1.00  0.00     0.053 C 
ENDROOT
BRANCH   1   2
ATOM      2  C   UNL     1      62.074   1.902  19.694  1.00  0.00     0.041 C 
ATOM      3  O   UNL     1      61.249   1.125  20.242  1.00  0.00    -0.550 OA
ATOM      4  O   UNL     1      61.700   3.208  19.403  1.00  0.00    -0.550 OA
ENDBRANCH   1   2
BRANCH   1   5
ATOM      5  C   UNL     1      64.542   2.436  19.829  1.00  0.00     0.006 C 
BRANCH   5   6
ATOM      6  C   UNL     1      65.329   3.062  18.662  1.00  0.00    -0.003 C 
ATOM      7  C   UNL     1      64.839   4.458  18.286  1.00  0.00     0.004 C 
ENDBRANCH   5   6
ENDBRANCH   1   5
TORSDOF 3
ENDMDL
MODEL 2
REMARK VINA RESULT:    -3.411      5.130      5.676
REMARK INTER + INTRA:          -4.114
REMARK INTER:                  -4.076
REMARK INTRA:                  -0.039
REMARK UNBOUND:                -0.105
REMARK SMILES CCCCC(=O)[O-]
REMARK SMILES IDX 4 1 5 2 6 3 7 4 3 5 2 6 1 7
REMARK H PARENT
REMARK Flexibility Score: inf
ROOT
ATOM      1  C   UNL     1      65.790   2.461  24.422  1.00  0.00     0.053 C 
ENDROOT
BRANCH   1   2
ATOM      2  C   UNL     1      64.911   1.989  23.303  1.00  0.00     0.041 C 
ATOM      3  O   UNL     1      65.131   0.882  22.746  1.00  0.00    -0.550 OA
ATOM      4  O   UNL     1      63.830   2.760  22.896  1.00  0.00    -0.550 OA
ENDBRANCH   1   2
BRANCH   1   5
ATOM      5  C   UNL     1      66.697   3.634  24.010  1.00  0.00     0.006 C 
BRANCH   5   6
ATOM      6  C   UNL     1      66.454   4.923  24.818  1.00  0.00    -0.003 C 
ATOM      7  C   UNL     1      67.034   4.868  26.229  1.00  0.00     0.004 C 
ENDBRANCH   5   6
ENDBRANCH   1   5
TORSDOF 3
ENDMDL
MODEL 3
REMARK VINA RESULT:    -3.348      2.218      2.988
REMARK INTER + INTRA:          -4.040
REMARK INTER:                  -3.980
REMARK INTRA:                  -0.060
REMARK UNBOUND:                -0.105
REMARK SMILES CCCCC(=O)[O-]
REMARK SMILES IDX 4 1 5 2 6 3 7 4 3 5 2 6 1 7
REMARK H PARENT
REMARK Flexibility Score: inf
ROOT
ATOM      1  C   UNL     1      60.919   3.095  19.934  1.00  0.00     0.053 C 
ENDROOT
BRANCH   1   2
ATOM      2  C   UNL     1      61.000   3.445  21.389  1.00  0.00     0.041 C 
ATOM      3  O   UNL     1      60.875   2.549  22.265  1.00  0.00    -0.550 OA
ATOM      4  O   UNL     1      61.244   4.756  21.777  1.00  0.00    -0.550 OA
ENDBRANCH   1   2
BRANCH   1   5
ATOM      5  C   UNL     1      61.652   1.785  19.595  1.00  0.00     0.006 C 
BRANCH   5   6
ATOM      6  C   UNL     1      63.182   1.934  19.503  1.00  0.00    -0.003 C 
ATOM      7  C   UNL     1      63.902   0.609  19.259  1.00  0.00     0.004 C 
ENDBRANCH   5   6
ENDBRANCH   1   5
TORSDOF 3
ENDMDL
MODEL 4
REMARK VINA RESULT:    -3.326     13.544     14.400
REMARK INTER + INTRA:          -4.014
REMARK INTER:                  -3.902
REMARK INTRA:                  -0.112
REMARK UNBOUND:                -0.105
REMARK SMILES CCCCC(=O)[O-]
REMARK SMILES IDX 4 1 5 2 6 3 7 4 3 5 2 6 1 7
REMARK H PARENT
REMARK Flexibility Score: inf
ROOT
ATOM      1  C   UNL     1      77.854   2.877  21.360  1.00  0.00     0.053 C 
ENDROOT
BRANCH   1   2
ATOM      2  C   UNL     1      76.454   2.956  21.888  1.00  0.00     0.041 C 
ATOM      3  O   UNL     1      76.146   3.827  22.744  1.00  0.00    -0.550 OA
ATOM      4  O   UNL     1      75.480   2.087  21.411  1.00  0.00    -0.550 OA
ENDBRANCH   1   2
BRANCH   1   5
ATOM      5  C   UNL     1      78.765   3.982  21.923  1.00  0.00     0.006 C 
BRANCH   5   6
ATOM      6  C   UNL     1      79.012   5.144  20.943  1.00  0.00    -0.003 C 
ATOM      7  C   UNL     1      78.140   6.366  21.226  1.00  0.00     0.004 C 
ENDBRANCH   5   6
ENDBRANCH   1   5
TORSDOF 3
ENDMDL
MODEL 5
REMARK VINA RESULT:    -3.317      2.601      3.412
REMARK INTER + INTRA:          -4.003
REMARK INTER:                  -3.900
REMARK INTRA:                  -0.103
REMARK UNBOUND:                -0.105
REMARK SMILES CCCCC(=O)[O-]
REMARK SMILES IDX 4 1 5 2 6 3 7 4 3 5 2 6 1 7
REMARK H PARENT
REMARK Flexibility Score: inf
ROOT
ATOM      1  C   UNL     1      62.106   1.405  19.756  1.00  0.00     0.053 C 
ENDROOT
BRANCH   1   2
ATOM      2  C   UNL     1      63.521   1.130  20.166  1.00  0.00     0.041 C 
ATOM      3  O   UNL     1      64.254   0.388  19.460  1.00  0.00    -0.550 OA
ATOM      4  O   UNL     1      64.040   1.717  21.313  1.00  0.00    -0.550 OA
ENDBRANCH   1   2
BRANCH   1   5
ATOM      5  C   UNL     1      61.791   2.909  19.681  1.00  0.00     0.006 C 
BRANCH   5   6
ATOM      6  C   UNL     1      60.883   3.413  20.818  1.00  0.00    -0.003 C 
ATOM      7  C   UNL     1      61.590   4.371  21.774  1.00  0.00     0.004 C 
ENDBRANCH   5   6
ENDBRANCH   1   5
TORSDOF 3
ENDMDL
MODEL 6
REMARK VINA RESULT:    -3.302      2.275      2.613
REMARK INTER + INTRA:          -3.986
REMARK INTER:                  -3.910
REMARK INTRA:                  -0.076
REMARK UNBOUND:                -0.105
REMARK SMILES CCCCC(=O)[O-]
REMARK SMILES IDX 4 1 5 2 6 3 7 4 3 5 2 6 1 7
REMARK H PARENT
REMARK Flexibility Score: inf
ROOT
ATOM      1  C   UNL     1      64.125   1.208  20.339  1.00  0.00     0.053 C 
ENDROOT
BRANCH   1   2
ATOM      2  C   UNL     1      64.234   1.876  21.676  1.00  0.00     0.041 C 
ATOM      3  O   UNL     1      63.597   2.937  21.910  1.00  0.00    -0.550 OA
ATOM      4  O   UNL     1      65.017   1.311  22.675  1.00  0.00    -0.550 OA
ENDBRANCH   1   2
BRANCH   1   5
ATOM      5  C   UNL     1      63.905   2.208  19.191  1.00  0.00     0.006 C 
BRANCH   5   6
ATOM      6  C   UNL     1      65.171   2.991  18.796  1.00  0.00    -0.003 C 
ATOM      7  C   UNL     1      64.891   4.450  18.442  1.00  0.00     0.004 C 
ENDBRANCH   5   6
ENDBRANCH   1   5
TORSDOF 3
ENDMDL
MODEL 7
REMARK VINA RESULT:    -3.235     13.294     14.224
REMARK INTER + INTRA:          -3.907
REMARK INTER:                  -3.890
REMARK INTRA:                  -0.017
REMARK UNBOUND:                -0.105
REMARK SMILES CCCCC(=O)[O-]
REMARK SMILES IDX 4 1 5 2 6 3 7 4 3 5 2 6 1 7
REMARK H PARENT
REMARK Flexibility Score: inf
ROOT
ATOM      1  C   UNL     1      76.858   3.592  22.448  1.00  0.00     0.053 C 
ENDROOT
BRANCH   1   2
ATOM      2  C   UNL     1      78.314   3.690  22.106  1.00  0.00     0.041 C 
ATOM      3  O   UNL     1      79.161   2.994  22.726  1.00  0.00    -0.550 OA
ATOM      4  O   UNL     1      78.733   4.529  21.081  1.00  0.00    -0.550 OA
ENDBRANCH   1   2
BRANCH   1   5
ATOM      5  C   UNL     1      76.117   2.546  21.596  1.00  0.00     0.006 C 
BRANCH   5   6
ATOM      6  C   UNL     1      74.648   2.905  21.307  1.00  0.00    -0.003 C 
ATOM      7  C   UNL     1      74.017   2.037  20.221  1.00  0.00     0.004 C 
ENDBRANCH   5   6
ENDBRANCH   1   5
TORSDOF 3
ENDMDL
MODEL 8
REMARK VINA RESULT:    -3.226      2.729      3.844
REMARK INTER + INTRA:          -3.897
REMARK INTER:                  -3.873
REMARK INTRA:                  -0.025
REMARK UNBOUND:                -0.105
REMARK SMILES CCCCC(=O)[O-]
REMARK SMILES IDX 4 1 5 2 6 3 7 4 3 5 2 6 1 7
REMARK H PARENT
REMARK Flexibility Score: inf
ROOT
ATOM      1  C   UNL     1      63.750   3.199  19.156  1.00  0.00     0.053 C 
ENDROOT
BRANCH   1   2
ATOM      2  C   UNL     1      65.215   3.481  19.008  1.00  0.00     0.041 C 
ATOM      3  O   UNL     1      65.746   3.498  17.866  1.00  0.00    -0.550 OA
ATOM      4  O   UNL     1      65.988   3.755  20.129  1.00  0.00    -0.550 OA
ENDBRANCH   1   2
BRANCH   1   5
ATOM      5  C   UNL     1      63.452   1.705  19.372  1.00  0.00     0.006 C 
BRANCH   5   6
ATOM      6  C   UNL     1      62.014   1.419  19.843  1.00  0.00    -0.003 C 
ATOM      7  C   UNL     1      61.042   2.557  19.538  1.00  0.00     0.004 C 
ENDBRANCH   5   6
ENDBRANCH   1   5
TORSDOF 3
ENDMDL
