MODEL 1
REMARK VINA RESULT:    -4.980      0.000      0.000
REMARK INTER + INTRA:         -10.629
REMARK INTER:                  -9.638
REMARK INTRA:                  -0.991
REMARK UNBOUND:                -0.991
REMARK SMILES CCCCCCCCCCCCCCCCCC(=O)[O-]
REMARK SMILES IDX 10 1 11 2 12 3 13 4 14 5 15 6 16 7 17 8 18 9 19 10 20 11
REMARK SMILES IDX 9 12 8 13 7 14 6 15 5 16 4 17 3 18 2 19 1 20
REMARK H PARENT
REMARK Flexibility Score: inf
ROOT
ATOM      1  C   UNL     1      97.689  85.605  80.798  1.00  0.00     0.000 C 
ENDROOT
BRANCH   1   2
ATOM      2  C   UNL     1      97.461  84.604  81.937  1.00  0.00     0.000 C 
BRANCH   2   3
ATOM      3  C   UNL     1      98.457  83.438  81.855  1.00  0.00     0.000 C 
BRANCH   3   4
ATOM      4  C   UNL     1      99.918  83.919  81.717  1.00  0.00     0.000 C 
BRANCH   4   5
ATOM      5  C   UNL     1     100.753  83.739  83.000  1.00  0.00     0.000 C 
BRANCH   5   6
ATOM      6  C   UNL     1     101.376  85.031  83.560  1.00  0.00     0.000 C 
BRANCH   6   7
ATOM      7  C   UNL     1     100.489  85.816  84.546  1.00  0.00     0.006 C 
BRANCH   7   8
ATOM      8  C   UNL     1     100.945  85.718  86.014  1.00  0.00     0.053 C 
BRANCH   8   9
ATOM      9  C   UNL     1     100.258  84.613  86.759  1.00  0.00     0.041 C 
ATOM     10  O   UNL     1     100.568  83.411  86.542  1.00  0.00    -0.550 OA
ATOM     11  O   UNL     1      99.306  84.911  87.725  1.00  0.00    -0.550 OA
ENDBRANCH   8   9
ENDBRANCH   7   8
ENDBRANCH   6   7
ENDBRANCH   5   6
ENDBRANCH   4   5
ENDBRANCH   3   4
ENDBRANCH   2   3
ENDBRANCH   1   2
BRANCH   1  12
ATOM     12  C   UNL     1      96.396  85.839  80.005  1.00  0.00     0.000 C 
BRANCH  12  13
ATOM     13  C   UNL     1      95.245  84.923  80.454  1.00  0.00    -0.000 C 
BRANCH  13  14
ATOM     14  C   UNL     1      94.622  84.063  79.336  1.00  0.00    -0.000 C 
BRANCH  14  15
ATOM     15  C   UNL     1      93.145  83.678  79.554  1.00  0.00    -0.000 C 
BRANCH  15  16
ATOM     16  C   UNL     1      92.405  84.509  80.621  1.00  0.00    -0.000 C 
BRANCH  16  17
ATOM     17  C   UNL     1      90.986  84.018  80.962  1.00  0.00    -0.000 C 
BRANCH  17  18
ATOM     18  C   UNL     1      89.916  84.571  80.006  1.00  0.00    -0.000 C 
BRANCH  18  19
ATOM     19  C   UNL     1      88.565  83.856  80.157  1.00  0.00    -0.003 C 
ATOM     20  C   UNL     1      87.947  83.465  78.814  1.00  0.00     0.004 C 
ENDBRANCH  18  19
ENDBRANCH  17  18
ENDBRANCH  16  17
ENDBRANCH  15  16
ENDBRANCH  14  15
ENDBRANCH  13  14
ENDBRANCH  12  13
ENDBRANCH   1  12
TORSDOF 16
ENDMDL
MODEL 2
REMARK VINA RESULT:    -4.942      4.073      8.654
REMARK INTER + INTRA:         -10.555
REMARK INTER:                  -8.421
REMARK INTRA:                  -2.135
REMARK UNBOUND:                -0.991
REMARK SMILES CCCCCCCCCCCCCCCCCC(=O)[O-]
REMARK SMILES IDX 10 1 11 2 12 3 13 4 14 5 15 6 16 7 17 8 18 9 19 10 20 11
REMARK SMILES IDX 9 12 8 13 7 14 6 15 5 16 4 17 3 18 2 19 1 20
REMARK H PARENT
REMARK Flexibility Score: inf
ROOT
ATOM      1  C   UNL     1      97.568  84.511  81.728  1.00  0.00     0.000 C 
ENDROOT
BRANCH   1   2
ATOM      2  C   UNL     1      98.131  85.585  80.789  1.00  0.00     0.000 C 
BRANCH   2   3
ATOM      3  C   UNL     1      97.074  86.655  80.478  1.00  0.00     0.000 C 
BRANCH   3   4
ATOM      4  C   UNL     1      96.174  86.266  79.286  1.00  0.00     0.000 C 
BRANCH   4   5
ATOM      5  C   UNL     1      94.782  85.753  79.703  1.00  0.00     0.000 C 
BRANCH   5   6
ATOM      6  C   UNL     1      94.616  84.223  79.676  1.00  0.00     0.000 C 
BRANCH   6   7
ATOM      7  C   UNL     1      93.159  83.719  79.648  1.00  0.00     0.006 C 
BRANCH   7   8
ATOM      8  C   UNL     1      92.235  84.412  80.666  1.00  0.00     0.053 C 
BRANCH   8   9
ATOM      9  C   UNL     1      90.940  84.862  80.058  1.00  0.00     0.041 C 
ATOM     10  O   UNL     1      90.876  85.956  79.437  1.00  0.00    -0.550 OA
ATOM     11  O   UNL     1      89.814  84.054  80.143  1.00  0.00    -0.550 OA
ENDBRANCH   8   9
ENDBRANCH   7   8
ENDBRANCH   6   7
ENDBRANCH   5   6
ENDBRANCH   4   5
ENDBRANCH   3   4
ENDBRANCH   2   3
ENDBRANCH   1   2
BRANCH   1  12
ATOM     12  C   UNL     1      98.580  83.375  81.933  1.00  0.00     0.000 C 
BRANCH  12  13
ATOM     13  C   UNL     1     100.035  83.874  81.989  1.00  0.00    -0.000 C 
BRANCH  13  14
ATOM     14  C   UNL     1     100.648  83.937  83.402  1.00  0.00    -0.000 C 
BRANCH  14  15
ATOM     15  C   UNL     1     101.415  85.235  83.723  1.00  0.00    -0.000 C 
BRANCH  15  16
ATOM     16  C   UNL     1     100.775  86.525  83.172  1.00  0.00    -0.000 C 
BRANCH  16  17
ATOM     17  C   UNL     1      99.985  87.354  84.202  1.00  0.00    -0.000 C 
BRANCH  17  18
ATOM     18  C   UNL     1      98.515  86.917  84.320  1.00  0.00    -0.000 C 
BRANCH  18  19
ATOM     19  C   UNL     1      98.250  86.077  85.578  1.00  0.00    -0.003 C 
ATOM     20  C   UNL     1      97.183  85.004  85.362  1.00  0.00     0.004 C 
ENDBRANCH  18  19
ENDBRANCH  17  18
ENDBRANCH  16  17
ENDBRANCH  15  16
ENDBRANCH  14  15
ENDBRANCH  13  14
ENDBRANCH  12  13
ENDBRANCH   1  12
TORSDOF 16
ENDMDL
MODEL 3
REMARK VINA RESULT:    -4.897      4.169      8.619
REMARK INTER + INTRA:         -10.469
REMARK INTER:                  -7.992
REMARK INTRA:                  -2.476
REMARK UNBOUND:                -0.991
REMARK SMILES CCCCCCCCCCCCCCCCCC(=O)[O-]
REMARK SMILES IDX 10 1 11 2 12 3 13 4 14 5 15 6 16 7 17 8 18 9 19 10 20 11
REMARK SMILES IDX 9 12 8 13 7 14 6 15 5 16 4 17 3 18 2 19 1 20
REMARK H PARENT
REMARK Flexibility Score: inf
ROOT
ATOM      1  C   UNL     1      98.772  87.534  81.130  1.00  0.00     0.000 C 
ENDROOT
BRANCH   1   2
ATOM      2  C   UNL     1      97.437  87.388  80.390  1.00  0.00     0.000 C 
BRANCH   2   3
ATOM      3  C   UNL     1      96.252  87.643  81.333  1.00  0.00     0.000 C 
BRANCH   3   4
ATOM      4  C   UNL     1      95.242  86.475  81.341  1.00  0.00     0.000 C 
BRANCH   4   5
ATOM      5  C   UNL     1      95.079  85.788  79.971  1.00  0.00     0.000 C 
BRANCH   5   6
ATOM      6  C   UNL     1      94.998  84.252  80.016  1.00  0.00     0.000 C 
BRANCH   6   7
ATOM      7  C   UNL     1      93.655  83.650  79.559  1.00  0.00     0.006 C 
BRANCH   7   8
ATOM      8  C   UNL     1      92.425  84.249  80.266  1.00  0.00     0.053 C 
BRANCH   8   9
ATOM      9  C   UNL     1      91.437  84.839  79.305  1.00  0.00     0.041 C 
ATOM     10  O   UNL     1      90.223  84.504  79.355  1.00  0.00    -0.550 OA
ATOM     11  O   UNL     1      91.848  85.791  78.380  1.00  0.00    -0.550 OA
ENDBRANCH   8   9
ENDBRANCH   7   8
ENDBRANCH   6   7
ENDBRANCH   5   6
ENDBRANCH   4   5
ENDBRANCH   3   4
ENDBRANCH   2   3
ENDBRANCH   1   2
BRANCH   1  12
ATOM     12  C   UNL     1      98.600  88.352  82.417  1.00  0.00     0.000 C 
BRANCH  12  13
ATOM     13  C   UNL     1      99.646  88.004  83.491  1.00  0.00    -0.000 C 
BRANCH  13  14
ATOM     14  C   UNL     1     100.850  87.184  82.987  1.00  0.00    -0.000 C 
BRANCH  14  15
ATOM     15  C   UNL     1     101.217  85.963  83.855  1.00  0.00    -0.000 C 
BRANCH  15  16
ATOM     16  C   UNL     1     101.613  84.698  83.068  1.00  0.00    -0.000 C 
BRANCH  16  17
ATOM     17  C   UNL     1     100.481  83.673  82.868  1.00  0.00    -0.000 C 
BRANCH  17  18
ATOM     18  C   UNL     1      99.578  84.007  81.668  1.00  0.00    -0.000 C 
BRANCH  18  19
ATOM     19  C   UNL     1      98.084  83.957  82.023  1.00  0.00    -0.003 C 
ATOM     20  C   UNL     1      97.750  84.741  83.292  1.00  0.00     0.004 C 
ENDBRANCH  18  19
ENDBRANCH  17  18
ENDBRANCH  16  17
ENDBRANCH  15  16
ENDBRANCH  14  15
ENDBRANCH  13  14
ENDBRANCH  12  13
ENDBRANCH   1  12
TORSDOF 16
ENDMDL
MODEL 4
REMARK VINA RESULT:    -4.882      2.165      4.134
REMARK INTER + INTRA:         -10.440
REMARK INTER:                  -8.203
REMARK INTRA:                  -2.237
REMARK UNBOUND:                -0.991
REMARK SMILES CCCCCCCCCCCCCCCCCC(=O)[O-]
REMARK SMILES IDX 10 1 11 2 12 3 13 4 14 5 15 6 16 7 17 8 18 9 19 10 20 11
REMARK SMILES IDX 9 12 8 13 7 14 6 15 5 16 4 17 3 18 2 19 1 20
REMARK H PARENT
REMARK Flexibility Score: inf
ROOT
ATOM      1  C   UNL     1     100.154  83.958  81.939  1.00  0.00     0.000 C 
ENDROOT
BRANCH   1   2
ATOM      2  C   UNL     1     101.014  83.940  83.208  1.00  0.00     0.000 C 
BRANCH   2   3
ATOM      3  C   UNL     1     101.738  85.281  83.404  1.00  0.00     0.000 C 
BRANCH   3   4
ATOM      4  C   UNL     1     100.966  86.236  84.339  1.00  0.00     0.000 C 
BRANCH   4   5
ATOM      5  C   UNL     1      99.954  87.138  83.606  1.00  0.00     0.000 C 
BRANCH   5   6
ATOM      6  C   UNL     1      98.602  87.317  84.320  1.00  0.00     0.000 C 
BRANCH   6   7
ATOM      7  C   UNL     1      98.046  86.053  85.005  1.00  0.00     0.006 C 
BRANCH   7   8
ATOM      8  C   UNL     1      96.625  85.669  84.554  1.00  0.00     0.053 C 
BRANCH   8   9
ATOM      9  C   UNL     1      95.706  85.398  85.708  1.00  0.00     0.041 C 
ATOM     10  O   UNL     1      96.174  85.213  86.863  1.00  0.00    -0.550 OA
ATOM     11  O   UNL     1      94.331  85.392  85.516  1.00  0.00    -0.550 OA
ENDBRANCH   8   9
ENDBRANCH   7   8
ENDBRANCH   6   7
ENDBRANCH   5   6
ENDBRANCH   4   5
ENDBRANCH   3   4
ENDBRANCH   2   3
ENDBRANCH   1   2
BRANCH   1  12
ATOM     12  C   UNL     1      98.727  83.477  82.235  1.00  0.00     0.000 C 
BRANCH  12  13
ATOM     13  C   UNL     1      97.655  84.289  81.488  1.00  0.00    -0.000 C 
BRANCH  13  14
ATOM     14  C   UNL     1      98.163  85.586  80.827  1.00  0.00    -0.000 C 
BRANCH  14  15
ATOM     15  C   UNL     1      97.059  86.552  80.353  1.00  0.00    -0.000 C 
BRANCH  15  16
ATOM     16  C   UNL     1      95.619  86.016  80.487  1.00  0.00    -0.000 C 
BRANCH  16  17
ATOM     17  C   UNL     1      95.009  85.452  79.191  1.00  0.00    -0.000 C 
BRANCH  17  18
ATOM     18  C   UNL     1      94.479  84.017  79.355  1.00  0.00    -0.000 C 
BRANCH  18  19
ATOM     19  C   UNL     1      93.069  83.976  79.962  1.00  0.00    -0.003 C 
ATOM     20  C   UNL     1      92.050  84.777  79.151  1.00  0.00     0.004 C 
ENDBRANCH  18  19
ENDBRANCH  17  18
ENDBRANCH  16  17
ENDBRANCH  15  16
ENDBRANCH  14  15
ENDBRANCH  13  14
ENDBRANCH  12  13
ENDBRANCH   1  12
TORSDOF 16
ENDMDL
MODEL 5
REMARK VINA RESULT:    -4.867      1.481      2.586
REMARK INTER + INTRA:         -10.411
REMARK INTER:                  -8.748
REMARK INTRA:                  -1.663
REMARK UNBOUND:                -0.991
REMARK SMILES CCCCCCCCCCCCCCCCCC(=O)[O-]
REMARK SMILES IDX 10 1 11 2 12 3 13 4 14 5 15 6 16 7 17 8 18 9 19 10 20 11
REMARK SMILES IDX 9 12 8 13 7 14 6 15 5 16 4 17 3 18 2 19 1 20
REMARK H PARENT
REMARK Flexibility Score: inf
ROOT
ATOM      1  C   UNL     1      98.006  83.557  82.125  1.00  0.00     0.000 C 
ENDROOT
BRANCH   1   2
ATOM      2  C   UNL     1      99.505  83.626  81.810  1.00  0.00     0.000 C 
BRANCH   2   3
ATOM      3  C   UNL     1     100.336  83.717  83.098  1.00  0.00     0.000 C 
BRANCH   3   4
ATOM      4  C   UNL     1     101.681  84.443  82.882  1.00  0.00     0.000 C 
BRANCH   4   5
ATOM      5  C   UNL     1     101.763  85.815  83.579  1.00  0.00     0.000 C 
BRANCH   5   6
ATOM      6  C   UNL     1     100.497  86.683  83.464  1.00  0.00     0.000 C 
BRANCH   6   7
ATOM      7  C   UNL     1      99.664  86.806  84.756  1.00  0.00     0.006 C 
BRANCH   7   8
ATOM      8  C   UNL     1     100.335  86.188  85.997  1.00  0.00     0.053 C 
BRANCH   8   9
ATOM      9  C   UNL     1      99.634  84.953  86.478  1.00  0.00     0.041 C 
ATOM     10  O   UNL     1      98.379  84.936  86.584  1.00  0.00    -0.550 OA
ATOM     11  O   UNL     1     100.363  83.808  86.769  1.00  0.00    -0.550 OA
ENDBRANCH   8   9
ENDBRANCH   7   8
ENDBRANCH   6   7
ENDBRANCH   5   6
ENDBRANCH   4   5
ENDBRANCH   3   4
ENDBRANCH   2   3
ENDBRANCH   1   2
BRANCH   1  12
ATOM     12  C   UNL     1      97.389  84.961  82.171  1.00  0.00     0.000 C 
BRANCH  12  13
ATOM     13  C   UNL     1      97.131  85.548  80.772  1.00  0.00    -0.000 C 
BRANCH  13  14
ATOM     14  C   UNL     1      95.860  86.412  80.652  1.00  0.00    -0.000 C 
BRANCH  14  15
ATOM     15  C   UNL     1      94.827  85.911  79.622  1.00  0.00    -0.000 C 
BRANCH  15  16
ATOM     16  C   UNL     1      94.886  84.401  79.318  1.00  0.00    -0.000 C 
BRANCH  16  17
ATOM     17  C   UNL     1      93.614  83.612  79.681  1.00  0.00    -0.000 C 
BRANCH  17  18
ATOM     18  C   UNL     1      92.360  84.499  79.747  1.00  0.00    -0.000 C 
BRANCH  18  19
ATOM     19  C   UNL     1      91.551  84.279  81.035  1.00  0.00    -0.003 C 
ATOM     20  C   UNL     1      91.993  85.194  82.177  1.00  0.00     0.004 C 
ENDBRANCH  18  19
ENDBRANCH  17  18
ENDBRANCH  16  17
ENDBRANCH  15  16
ENDBRANCH  14  15
ENDBRANCH  13  14
ENDBRANCH  12  13
ENDBRANCH   1  12
TORSDOF 16
ENDMDL
MODEL 6
REMARK VINA RESULT:    -4.820      3.990      8.887
REMARK INTER + INTRA:         -10.320
REMARK INTER:                  -8.149
REMARK INTRA:                  -2.171
REMARK UNBOUND:                -0.991
REMARK SMILES CCCCCCCCCCCCCCCCCC(=O)[O-]
REMARK SMILES IDX 10 1 11 2 12 3 13 4 14 5 15 6 16 7 17 8 18 9 19 10 20 11
REMARK SMILES IDX 9 12 8 13 7 14 6 15 5 16 4 17 3 18 2 19 1 20
REMARK H PARENT
REMARK Flexibility Score: inf
ROOT
ATOM      1  C   UNL     1      97.069  87.667  83.570  1.00  0.00     0.000 C 
ENDROOT
BRANCH   1   2
ATOM      2  C   UNL     1      95.910  86.664  83.610  1.00  0.00     0.000 C 
BRANCH   2   3
ATOM      3  C   UNL     1      94.836  87.018  82.571  1.00  0.00     0.000 C 
BRANCH   3   4
ATOM      4  C   UNL     1      94.515  85.838  81.630  1.00  0.00     0.000 C 
BRANCH   4   5
ATOM      5  C   UNL     1      94.900  86.094  80.160  1.00  0.00     0.000 C 
BRANCH   5   6
ATOM      6  C   UNL     1      94.939  84.840  79.268  1.00  0.00     0.000 C 
BRANCH   6   7
ATOM      7  C   UNL     1      93.663  83.975  79.291  1.00  0.00     0.006 C 
BRANCH   7   8
ATOM      8  C   UNL     1      92.385  84.731  78.882  1.00  0.00     0.053 C 
BRANCH   8   9
ATOM      9  C   UNL     1      91.265  84.545  79.862  1.00  0.00     0.041 C 
ATOM     10  O   UNL     1      91.487  84.030  80.990  1.00  0.00    -0.550 OA
ATOM     11  O   UNL     1      89.985  84.978  79.545  1.00  0.00    -0.550 OA
ENDBRANCH   8   9
ENDBRANCH   7   8
ENDBRANCH   6   7
ENDBRANCH   5   6
ENDBRANCH   4   5
ENDBRANCH   3   4
ENDBRANCH   2   3
ENDBRANCH   1   2
BRANCH   1  12
ATOM     12  C   UNL     1      98.349  87.007  83.038  1.00  0.00     0.000 C 
BRANCH  12  13
ATOM     13  C   UNL     1      98.494  87.127  81.511  1.00  0.00    -0.000 C 
BRANCH  13  14
ATOM     14  C   UNL     1      98.345  85.802  80.736  1.00  0.00    -0.000 C 
BRANCH  14  15
ATOM     15  C   UNL     1      98.085  84.560  81.612  1.00  0.00    -0.000 C 
BRANCH  15  16
ATOM     16  C   UNL     1      99.274  83.587  81.736  1.00  0.00    -0.000 C 
BRANCH  16  17
ATOM     17  C   UNL     1      99.988  83.599  83.101  1.00  0.00    -0.000 C 
BRANCH  17  18
ATOM     18  C   UNL     1     101.386  84.239  83.038  1.00  0.00    -0.000 C 
BRANCH  18  19
ATOM     19  C   UNL     1     101.577  85.341  84.091  1.00  0.00    -0.003 C 
ATOM     20  C   UNL     1     102.704  86.311  83.738  1.00  0.00     0.004 C 
ENDBRANCH  18  19
ENDBRANCH  17  18
ENDBRANCH  16  17
ENDBRANCH  15  16
ENDBRANCH  14  15
ENDBRANCH  13  14
ENDBRANCH  12  13
ENDBRANCH   1  12
TORSDOF 16
ENDMDL
MODEL 7
REMARK VINA RESULT:    -4.815      2.969      4.519
REMARK INTER + INTRA:         -10.310
REMARK INTER:                  -8.149
REMARK INTRA:                  -2.161
REMARK UNBOUND:                -0.991
REMARK SMILES CCCCCCCCCCCCCCCCCC(=O)[O-]
REMARK SMILES IDX 10 1 11 2 12 3 13 4 14 5 15 6 16 7 17 8 18 9 19 10 20 11
REMARK SMILES IDX 9 12 8 13 7 14 6 15 5 16 4 17 3 18 2 19 1 20
REMARK H PARENT
REMARK Flexibility Score: inf
ROOT
ATOM      1  C   UNL     1      99.811  83.873  81.740  1.00  0.00     0.000 C 
ENDROOT
BRANCH   1   2
ATOM      2  C   UNL     1     100.479  83.876  83.120  1.00  0.00     0.000 C 
BRANCH   2   3
ATOM      3  C   UNL     1     101.860  84.547  83.064  1.00  0.00     0.000 C 
BRANCH   3   4
ATOM      4  C   UNL     1     101.925  85.834  83.913  1.00  0.00     0.000 C 
BRANCH   4   5
ATOM      5  C   UNL     1     100.548  86.322  84.405  1.00  0.00     0.000 C 
BRANCH   5   6
ATOM      6  C   UNL     1     100.058  87.638  83.775  1.00  0.00     0.000 C 
BRANCH   6   7
ATOM      7  C   UNL     1      99.841  87.595  82.249  1.00  0.00     0.006 C 
BRANCH   7   8
ATOM      8  C   UNL     1     100.391  88.825  81.502  1.00  0.00     0.053 C 
BRANCH   8   9
ATOM      9  C   UNL     1     101.677  89.327  82.087  1.00  0.00     0.041 C 
ATOM     10  O   UNL     1     102.744  88.676  81.930  1.00  0.00    -0.550 OA
ATOM     11  O   UNL     1     101.706  90.536  82.770  1.00  0.00    -0.550 OA
ENDBRANCH   8   9
ENDBRANCH   7   8
ENDBRANCH   6   7
ENDBRANCH   5   6
ENDBRANCH   4   5
ENDBRANCH   3   4
ENDBRANCH   2   3
ENDBRANCH   1   2
BRANCH   1  12
ATOM     12  C   UNL     1      98.301  83.629  81.861  1.00  0.00     0.000 C 
BRANCH  12  13
ATOM     13  C   UNL     1      97.601  84.650  82.775  1.00  0.00    -0.000 C 
BRANCH  13  14
ATOM     14  C   UNL     1      96.582  85.566  82.067  1.00  0.00    -0.000 C 
BRANCH  14  15
ATOM     15  C   UNL     1      96.850  85.804  80.567  1.00  0.00    -0.000 C 
BRANCH  15  16
ATOM     16  C   UNL     1      95.688  85.423  79.628  1.00  0.00    -0.000 C 
BRANCH  16  17
ATOM     17  C   UNL     1      94.911  84.156  80.031  1.00  0.00    -0.000 C 
BRANCH  17  18
ATOM     18  C   UNL     1      93.526  84.069  79.369  1.00  0.00    -0.000 C 
BRANCH  18  19
ATOM     19  C   UNL     1      92.385  84.017  80.396  1.00  0.00    -0.003 C 
ATOM     20  C   UNL     1      92.551  85.039  81.520  1.00  0.00     0.004 C 
ENDBRANCH  18  19
ENDBRANCH  17  18
ENDBRANCH  16  17
ENDBRANCH  15  16
ENDBRANCH  14  15
ENDBRANCH  13  14
ENDBRANCH  12  13
ENDBRANCH   1  12
TORSDOF 16
ENDMDL
MODEL 8
REMARK VINA RESULT:    -4.786      1.932      2.472
REMARK INTER + INTRA:         -10.254
REMARK INTER:                  -8.716
REMARK INTRA:                  -1.539
REMARK UNBOUND:                -0.991
REMARK SMILES CCCCCCCCCCCCCCCCCC(=O)[O-]
REMARK SMILES IDX 10 1 11 2 12 3 13 4 14 5 15 6 16 7 17 8 18 9 19 10 20 11
REMARK SMILES IDX 9 12 8 13 7 14 6 15 5 16 4 17 3 18 2 19 1 20
REMARK H PARENT
REMARK Flexibility Score: inf
ROOT
ATOM      1  C   UNL     1      96.656  86.461  81.775  1.00  0.00     0.000 C 
ENDROOT
BRANCH   1   2
ATOM      2  C   UNL     1      97.594  85.497  82.511  1.00  0.00     0.000 C 
BRANCH   2   3
ATOM      3  C   UNL     1      97.238  84.035  82.200  1.00  0.00     0.000 C 
BRANCH   3   4
ATOM      4  C   UNL     1      98.487  83.170  81.928  1.00  0.00     0.000 C 
BRANCH   4   5
ATOM      5  C   UNL     1      99.743  83.989  81.570  1.00  0.00     0.000 C 
BRANCH   5   6
ATOM      6  C   UNL     1     100.907  83.867  82.568  1.00  0.00     0.000 C 
BRANCH   6   7
ATOM      7  C   UNL     1     100.514  83.975  84.055  1.00  0.00     0.006 C 
BRANCH   7   8
ATOM      8  C   UNL     1     100.690  85.384  84.651  1.00  0.00     0.053 C 
BRANCH   8   9
ATOM      9  C   UNL     1     101.650  86.227  83.866  1.00  0.00     0.041 C 
ATOM     10  O   UNL     1     101.221  87.079  83.042  1.00  0.00    -0.550 OA
ATOM     11  O   UNL     1     103.017  86.101  84.073  1.00  0.00    -0.550 OA
ENDBRANCH   8   9
ENDBRANCH   7   8
ENDBRANCH   6   7
ENDBRANCH   5   6
ENDBRANCH   4   5
ENDBRANCH   3   4
ENDBRANCH   2   3
ENDBRANCH   1   2
BRANCH   1  12
ATOM     12  C   UNL     1      97.154  86.732  80.349  1.00  0.00     0.000 C 
BRANCH  12  13
ATOM     13  C   UNL     1      96.138  86.315  79.271  1.00  0.00    -0.000 C 
BRANCH  13  14
ATOM     14  C   UNL     1      94.845  85.670  79.809  1.00  0.00    -0.000 C 
BRANCH  14  15
ATOM     15  C   UNL     1      94.540  84.263  79.257  1.00  0.00    -0.000 C 
BRANCH  15  16
ATOM     16  C   UNL     1      93.474  83.471  80.041  1.00  0.00    -0.000 C 
BRANCH  16  17
ATOM     17  C   UNL     1      92.424  84.332  80.767  1.00  0.00    -0.000 C 
BRANCH  17  18
ATOM     18  C   UNL     1      91.125  84.498  79.959  1.00  0.00    -0.000 C 
BRANCH  18  19
ATOM     19  C   UNL     1      89.868  84.281  80.815  1.00  0.00    -0.003 C 
ATOM     20  C   UNL     1      89.599  85.439  81.776  1.00  0.00     0.004 C 
ENDBRANCH  18  19
ENDBRANCH  17  18
ENDBRANCH  16  17
ENDBRANCH  15  16
ENDBRANCH  14  15
ENDBRANCH  13  14
ENDBRANCH  12  13
ENDBRANCH   1  12
TORSDOF 16
ENDMDL
MODEL 9
REMARK VINA RESULT:    -4.757      1.748      2.076
REMARK INTER + INTRA:         -10.197
REMARK INTER:                  -8.679
REMARK INTRA:                  -1.518
REMARK UNBOUND:                -0.991
REMARK SMILES CCCCCCCCCCCCCCCCCC(=O)[O-]
REMARK SMILES IDX 10 1 11 2 12 3 13 4 14 5 15 6 16 7 17 8 18 9 19 10 20 11
REMARK SMILES IDX 9 12 8 13 7 14 6 15 5 16 4 17 3 18 2 19 1 20
REMARK H PARENT
REMARK Flexibility Score: inf
ROOT
ATOM      1  C   UNL     1      98.375  85.430  81.081  1.00  0.00     0.000 C 
ENDROOT
BRANCH   1   2
ATOM      2  C   UNL     1      97.873  84.194  81.837  1.00  0.00     0.000 C 
BRANCH   2   3
ATOM      3  C   UNL     1      99.038  83.272  82.223  1.00  0.00     0.000 C 
BRANCH   3   4
ATOM      4  C   UNL     1     100.377  84.031  82.342  1.00  0.00     0.000 C 
BRANCH   4   5
ATOM      5  C   UNL     1     100.871  84.192  83.793  1.00  0.00     0.000 C 
BRANCH   5   6
ATOM      6  C   UNL     1     100.970  85.645  84.291  1.00  0.00     0.000 C 
BRANCH   6   7
ATOM      7  C   UNL     1      99.623  86.369  84.483  1.00  0.00     0.006 C 
BRANCH   7   8
ATOM      8  C   UNL     1      98.692  85.700  85.511  1.00  0.00     0.053 C 
BRANCH   8   9
ATOM      9  C   UNL     1      97.265  85.653  85.053  1.00  0.00     0.041 C 
ATOM     10  O   UNL     1      96.815  86.541  84.280  1.00  0.00    -0.550 OA
ATOM     11  O   UNL     1      96.442  84.606  85.447  1.00  0.00    -0.550 OA
ENDBRANCH   8   9
ENDBRANCH   7   8
ENDBRANCH   6   7
ENDBRANCH   5   6
ENDBRANCH   4   5
ENDBRANCH   3   4
ENDBRANCH   2   3
ENDBRANCH   1   2
BRANCH   1  12
ATOM     12  C   UNL     1      97.225  86.122  80.335  1.00  0.00     0.000 C 
BRANCH  12  13
ATOM     13  C   UNL     1      95.870  85.426  80.547  1.00  0.00    -0.000 C 
BRANCH  13  14
ATOM     14  C   UNL     1      95.053  85.185  79.261  1.00  0.00    -0.000 C 
BRANCH  14  15
ATOM     15  C   UNL     1      94.089  83.983  79.317  1.00  0.00    -0.000 C 
BRANCH  15  16
ATOM     16  C   UNL     1      92.595  84.337  79.180  1.00  0.00    -0.000 C 
BRANCH  16  17
ATOM     17  C   UNL     1      91.938  84.899  80.454  1.00  0.00    -0.000 C 
BRANCH  17  18
ATOM     18  C   UNL     1      90.887  83.949  81.053  1.00  0.00    -0.000 C 
BRANCH  18  19
ATOM     19  C   UNL     1      89.500  84.131  80.418  1.00  0.00    -0.003 C 
ATOM     20  C   UNL     1      88.753  85.350  80.962  1.00  0.00     0.004 C 
ENDBRANCH  18  19
ENDBRANCH  17  18
ENDBRANCH  16  17
ENDBRANCH  15  16
ENDBRANCH  14  15
ENDBRANCH  13  14
ENDBRANCH  12  13
ENDBRANCH   1  12
TORSDOF 16
ENDMDL
