MODEL 1
REMARK VINA RESULT:    -2.979      0.000      0.000
REMARK INTER + INTRA:          -4.972
REMARK INTER:                  -4.372
REMARK INTRA:                  -0.600
REMARK UNBOUND:                -0.600
REMARK SMILES C=C1C=C[C@H](C(C)C)CCC(C)=CCC1
REMARK SMILES IDX 3 1 4 2 5 3 9 4 10 5 11 6 12 7 13 8 6 10 7 11 8 12 2 13 1 14
REMARK SMILES IDX 15 15 14 16
REMARK H PARENT
REMARK Flexibility Score: 70.00
ROOT
ATOM      1  C   UNL     1      15.208   5.485  19.887  1.00  0.00    -0.001 C 
ATOM      2  C   UNL     1      15.695   6.148  18.816  1.00  0.00    -0.023 C 
ENDROOT
BRANCH   2   3
ATOM      3  C   UNL     1      15.533   5.893  17.318  1.00  0.00     0.014 C 
BRANCH   3   4
ATOM      4  C   UNL     1      14.473   6.749  16.579  1.00  0.00     0.012 C 
BRANCH   4   5
ATOM      5  C   UNL     1      13.398   5.876  15.903  1.00  0.00     0.031 C 
BRANCH   5   6
ATOM      6  C   UNL     1      12.040   6.080  16.541  1.00  0.00    -0.077 C 
ATOM      7  C   UNL     1      11.166   7.191  16.017  1.00  0.00     0.039 C 
ATOM      8  C   UNL     1      11.586   5.348  17.585  1.00  0.00    -0.028 CG0
ATOM      9  G   UNL     1      12.331   4.228  18.273  1.00  0.00     0.000 G0
ENDBRANCH   5   6
ENDBRANCH   4   5
ENDBRANCH   3   4
BRANCH   3  10
ATOM     10  C   UNL     1      16.921   5.808  16.610  1.00  0.00    -0.010 C 
ATOM     11  C   UNL     1      17.575   4.426  16.697  1.00  0.00     0.008 C 
ATOM     12  C   UNL     1      17.901   6.891  17.095  1.00  0.00     0.008 C 
ENDBRANCH   3  10
ENDBRANCH   2   3
BRANCH   1  13
ATOM     13  C   UNL     1      14.269   4.339  19.921  1.00  0.00    -0.055 C 
ATOM     14  C   UNL     1      14.728   3.090  19.793  1.00  0.00     0.012 C 
BRANCH  13  15
ATOM     15  C   UNL     1      12.797   4.603  19.694  1.00  0.00     0.039 C 
BRANCH  15  16
ATOM     16  C   UNL     1      12.318   4.211  18.293  1.00  0.00     0.032 CG0
ATOM     17  G   UNL     1      11.602   5.348  17.602  1.00  0.00     0.000 G0
ENDBRANCH  15  16
ENDBRANCH  13  15
ENDBRANCH   1  13
TORSDOF 1
ENDMDL
MODEL 2
REMARK VINA RESULT:    -2.921      1.848      4.784
REMARK INTER + INTRA:          -4.888
REMARK INTER:                  -4.331
REMARK INTRA:                  -0.556
REMARK UNBOUND:                -0.600
REMARK SMILES C=C1C=C[C@H](C(C)C)CCC(C)=CCC1
REMARK SMILES IDX 3 1 4 2 5 3 9 4 10 5 11 6 12 7 13 8 6 10 7 11 8 12 2 13 1 14
REMARK SMILES IDX 15 15 14 16
REMARK H PARENT
REMARK Flexibility Score: 70.00
ROOT
ATOM      1  C   UNL     1      12.582   5.692  19.896  1.00  0.00    -0.001 C 
ATOM      2  C   UNL     1      13.195   4.750  20.645  1.00  0.00    -0.023 C 
ENDROOT
BRANCH   2   3
ATOM      3  C   UNL     1      13.812   3.405  20.261  1.00  0.00     0.014 C 
BRANCH   3   4
ATOM      4  C   UNL     1      15.227   3.448  19.629  1.00  0.00     0.012 C 
BRANCH   4   5
ATOM      5  C   UNL     1      15.202   3.070  18.135  1.00  0.00     0.031 C 
BRANCH   5   6
ATOM      6  C   UNL     1      16.010   4.045  17.305  1.00  0.00    -0.077 C 
ATOM      7  C   UNL     1      17.512   3.929  17.332  1.00  0.00     0.039 C 
ATOM      8  C   UNL     1      15.458   5.043  16.577  1.00  0.00    -0.028 CG0
ATOM      9  G   UNL     1      13.982   5.347  16.462  1.00  0.00     0.000 G0
ENDBRANCH   5   6
ENDBRANCH   4   5
ENDBRANCH   3   4
BRANCH   3  10
ATOM     10  C   UNL     1      13.632   2.359  21.404  1.00  0.00    -0.010 C 
ATOM     11  C   UNL     1      13.161   2.967  22.729  1.00  0.00     0.008 C 
ATOM     12  C   UNL     1      14.891   1.504  21.630  1.00  0.00     0.008 C 
ENDBRANCH   3  10
ENDBRANCH   2   3
BRANCH   1  13
ATOM     13  C   UNL     1      12.411   5.741  18.425  1.00  0.00    -0.055 C 
ATOM     14  C   UNL     1      11.475   4.993  17.832  1.00  0.00     0.012 C 
BRANCH  13  15
ATOM     15  C   UNL     1      13.533   6.307  17.584  1.00  0.00     0.039 C 
BRANCH  15  16
ATOM     16  C   UNL     1      13.985   5.369  16.460  1.00  0.00     0.032 CG0
ATOM     17  G   UNL     1      15.455   5.034  16.561  1.00  0.00     0.000 G0
ENDBRANCH  15  16
ENDBRANCH  13  15
ENDBRANCH   1  13
TORSDOF 1
ENDMDL
MODEL 3
REMARK VINA RESULT:    -2.836      1.655      4.006
REMARK INTER + INTRA:          -4.762
REMARK INTER:                  -4.255
REMARK INTRA:                  -0.507
REMARK UNBOUND:                -0.600
REMARK SMILES C=C1C=C[C@H](C(C)C)CCC(C)=CCC1
REMARK SMILES IDX 3 1 4 2 5 3 9 4 10 5 11 6 12 7 13 8 6 10 7 11 8 12 2 13 1 14
REMARK SMILES IDX 15 15 14 16
REMARK H PARENT
REMARK Flexibility Score: 70.00
ROOT
ATOM      1  C   UNL     1      16.244   3.348  17.960  1.00  0.00    -0.001 C 
ATOM      2  C   UNL     1      15.280   2.989  18.835  1.00  0.00    -0.023 C 
ENDROOT
BRANCH   2   3
ATOM      3  C   UNL     1      14.276   3.828  19.624  1.00  0.00     0.014 C 
BRANCH   3   4
ATOM      4  C   UNL     1      12.912   4.100  18.941  1.00  0.00     0.012 C 
BRANCH   4   5
ATOM      5  C   UNL     1      12.693   5.602  18.669  1.00  0.00     0.031 C 
BRANCH   5   6
ATOM      6  C   UNL     1      12.435   5.865  17.201  1.00  0.00    -0.077 C 
ATOM      7  C   UNL     1      11.037   5.666  16.676  1.00  0.00     0.039 C 
ATOM      8  C   UNL     1      13.402   6.226  16.324  1.00  0.00    -0.028 CG0
ATOM      9  G   UNL     1      14.863   6.430  16.650  1.00  0.00     0.000 G0
ENDBRANCH   5   6
ENDBRANCH   4   5
ENDBRANCH   3   4
BRANCH   3  10
ATOM     10  C   UNL     1      14.187   3.348  21.106  1.00  0.00    -0.010 C 
ATOM     11  C   UNL     1      14.763   1.948  21.337  1.00  0.00     0.008 C 
ATOM     12  C   UNL     1      12.759   3.435  21.673  1.00  0.00     0.008 C 
ENDBRANCH   3  10
ENDBRANCH   2   3
BRANCH   1  13
ATOM     13  C   UNL     1      16.555   4.693  17.423  1.00  0.00    -0.055 C 
ATOM     14  C   UNL     1      17.290   5.550  18.139  1.00  0.00     0.012 C 
BRANCH  13  15
ATOM     15  C   UNL     1      15.720   5.227  16.280  1.00  0.00     0.039 C 
BRANCH  15  16
ATOM     16  C   UNL     1      14.859   6.434  16.667  1.00  0.00     0.032 CG0
ATOM     17  G   UNL     1      13.406   6.230  16.305  1.00  0.00     0.000 G0
ENDBRANCH  15  16
ENDBRANCH  13  15
ENDBRANCH   1  13
TORSDOF 1
ENDMDL
MODEL 4
REMARK VINA RESULT:    -2.773      2.347      4.539
REMARK INTER + INTRA:          -4.669
REMARK INTER:                  -4.248
REMARK INTRA:                  -0.421
REMARK UNBOUND:                -0.600
REMARK SMILES C=C1C=C[C@H](C(C)C)CCC(C)=CCC1
REMARK SMILES IDX 3 1 4 2 5 3 9 4 10 5 11 6 12 7 13 8 6 10 7 11 8 12 2 13 1 14
REMARK SMILES IDX 15 15 14 16
REMARK H PARENT
REMARK Flexibility Score: 70.00
ROOT
ATOM      1  C   UNL     1      12.234   5.785  16.437  1.00  0.00    -0.001 C 
ATOM      2  C   UNL     1      12.156   5.052  17.569  1.00  0.00    -0.023 C 
ENDROOT
BRANCH   2   3
ATOM      3  C   UNL     1      13.007   5.067  18.838  1.00  0.00     0.014 C 
BRANCH   3   4
ATOM      4  C   UNL     1      12.540   6.011  19.975  1.00  0.00     0.012 C 
BRANCH   4   5
ATOM      5  C   UNL     1      11.176   6.659  19.662  1.00  0.00     0.031 C 
BRANCH   5   6
ATOM      6  C   UNL     1      11.274   8.170  19.646  1.00  0.00    -0.077 C 
ATOM      7  C   UNL     1      11.272   8.898  20.965  1.00  0.00     0.039 C 
ATOM      8  C   UNL     1      11.318   8.904  18.510  1.00  0.00    -0.028 CG0
ATOM      9  G   UNL     1      11.285   8.361  17.100  1.00  0.00     0.000 G0
ENDBRANCH   5   6
ENDBRANCH   4   5
ENDBRANCH   3   4
BRANCH   3  10
ATOM     10  C   UNL     1      13.367   3.618  19.290  1.00  0.00    -0.010 C 
ATOM     11  C   UNL     1      13.658   3.494  20.789  1.00  0.00     0.008 C 
ATOM     12  C   UNL     1      14.519   3.010  18.472  1.00  0.00     0.008 C 
ENDBRANCH   3  10
ENDBRANCH   2   3
BRANCH   1  13
ATOM     13  C   UNL     1      13.138   6.918  16.127  1.00  0.00    -0.055 C 
ATOM     14  C   UNL     1      14.432   6.696  15.877  1.00  0.00     0.012 C 
BRANCH  13  15
ATOM     15  C   UNL     1      12.693   8.318  16.487  1.00  0.00     0.039 C 
BRANCH  15  16
ATOM     16  C   UNL     1      11.291   8.373  17.100  1.00  0.00     0.032 CG0
ATOM     17  G   UNL     1      11.312   8.910  18.512  1.00  0.00     0.000 G0
ENDBRANCH  15  16
ENDBRANCH  13  15
ENDBRANCH   1  13
TORSDOF 1
ENDMDL
MODEL 5
REMARK VINA RESULT:    -2.717      2.220      3.818
REMARK INTER + INTRA:          -4.588
REMARK INTER:                  -4.204
REMARK INTRA:                  -0.384
REMARK UNBOUND:                -0.600
REMARK SMILES C=C1C=C[C@H](C(C)C)CCC(C)=CCC1
REMARK SMILES IDX 3 1 4 2 5 3 9 4 10 5 11 6 12 7 13 8 6 10 7 11 8 12 2 13 1 14
REMARK SMILES IDX 15 15 14 16
REMARK H PARENT
REMARK Flexibility Score: 70.00
ROOT
ATOM      1  C   UNL     1      12.767   4.600  21.792  1.00  0.00    -0.001 C 
ATOM      2  C   UNL     1      12.214   5.702  21.242  1.00  0.00    -0.023 C 
ENDROOT
BRANCH   2   3
ATOM      3  C   UNL     1      12.247   6.237  19.810  1.00  0.00     0.014 C 
BRANCH   3   4
ATOM      4  C   UNL     1      11.152   5.710  18.848  1.00  0.00     0.012 C 
BRANCH   4   5
ATOM      5  C   UNL     1      11.683   4.594  17.927  1.00  0.00     0.031 C 
BRANCH   5   6
ATOM      6  C   UNL     1      13.026   4.962  17.332  1.00  0.00    -0.077 C 
ATOM      7  C   UNL     1      13.063   6.009  16.249  1.00  0.00     0.039 C 
ATOM      8  C   UNL     1      14.190   4.369  17.689  1.00  0.00    -0.028 CG0
ATOM      9  G   UNL     1      14.349   3.274  18.717  1.00  0.00     0.000 G0
ENDBRANCH   5   6
ENDBRANCH   4   5
ENDBRANCH   3   4
BRANCH   3  10
ATOM     10  C   UNL     1      12.452   7.783  19.793  1.00  0.00    -0.010 C 
ATOM     11  C   UNL     1      13.901   8.217  20.037  1.00  0.00     0.008 C 
ATOM     12  C   UNL     1      11.507   8.517  20.761  1.00  0.00     0.008 C 
ENDBRANCH   3  10
ENDBRANCH   2   3
BRANCH   1  13
ATOM     13  C   UNL     1      13.511   3.505  21.127  1.00  0.00    -0.055 C 
ATOM     14  C   UNL     1      13.489   2.270  21.638  1.00  0.00     0.012 C 
BRANCH  13  15
ATOM     15  C   UNL     1      14.594   3.864  20.134  1.00  0.00     0.039 C 
BRANCH  15  16
ATOM     16  C   UNL     1      14.358   3.281  18.738  1.00  0.00     0.032 CG0
ATOM     17  G   UNL     1      14.202   4.361  17.693  1.00  0.00     0.000 G0
ENDBRANCH  15  16
ENDBRANCH  13  15
ENDBRANCH   1  13
TORSDOF 1
ENDMDL
MODEL 6
REMARK VINA RESULT:    -2.655      2.142      4.335
REMARK INTER + INTRA:          -4.496
REMARK INTER:                  -4.106
REMARK INTRA:                  -0.391
REMARK UNBOUND:                -0.600
REMARK SMILES C=C1C=C[C@H](C(C)C)CCC(C)=CCC1
REMARK SMILES IDX 3 1 4 2 5 3 9 4 10 5 11 6 12 7 13 8 6 10 7 11 8 12 2 13 1 14
REMARK SMILES IDX 15 15 14 16
REMARK H PARENT
REMARK Flexibility Score: 70.00
ROOT
ATOM      1  C   UNL     1      11.975   7.054  20.829  1.00  0.00    -0.001 C 
ATOM      2  C   UNL     1      11.374   6.779  19.651  1.00  0.00    -0.023 C 
ENDROOT
BRANCH   2   3
ATOM      3  C   UNL     1      11.905   6.111  18.383  1.00  0.00     0.014 C 
BRANCH   3   4
ATOM      4  C   UNL     1      11.805   4.566  18.320  1.00  0.00     0.012 C 
BRANCH   4   5
ATOM      5  C   UNL     1      13.057   3.883  18.906  1.00  0.00     0.031 C 
BRANCH   5   6
ATOM      6  C   UNL     1      14.310   4.302  18.166  1.00  0.00    -0.077 C 
ATOM      7  C   UNL     1      14.491   3.831  16.747  1.00  0.00     0.039 C 
ATOM      8  C   UNL     1      15.298   5.039  18.727  1.00  0.00    -0.028 CG0
ATOM      9  G   UNL     1      15.319   5.563  20.144  1.00  0.00     0.000 G0
ENDBRANCH   5   6
ENDBRANCH   4   5
ENDBRANCH   3   4
BRANCH   3  10
ATOM     10  C   UNL     1      11.409   6.857  17.106  1.00  0.00    -0.010 C 
ATOM     11  C   UNL     1      12.340   6.700  15.899  1.00  0.00     0.008 C 
ATOM     12  C   UNL     1      11.118   8.346  17.363  1.00  0.00     0.008 C 
ENDBRANCH   3  10
ENDBRANCH   2   3
BRANCH   1  13
ATOM     13  C   UNL     1      13.338   6.690  21.282  1.00  0.00    -0.055 C 
ATOM     14  C   UNL     1      13.606   6.583  22.587  1.00  0.00     0.012 C 
BRANCH  13  15
ATOM     15  C   UNL     1      14.488   6.839  20.311  1.00  0.00     0.039 C 
BRANCH  15  16
ATOM     16  C   UNL     1      15.323   5.564  20.155  1.00  0.00     0.032 CG0
ATOM     17  G   UNL     1      15.302   5.046  18.736  1.00  0.00     0.000 G0
ENDBRANCH  15  16
ENDBRANCH  13  15
ENDBRANCH   1  13
TORSDOF 1
ENDMDL
MODEL 7
REMARK VINA RESULT:    -2.650      2.235      4.536
REMARK INTER + INTRA:          -4.489
REMARK INTER:                  -3.981
REMARK INTRA:                  -0.509
REMARK UNBOUND:                -0.600
REMARK SMILES C=C1C=C[C@H](C(C)C)CCC(C)=CCC1
REMARK SMILES IDX 3 1 4 2 5 3 9 4 10 5 11 6 12 7 13 8 6 10 7 11 8 12 2 13 1 14
REMARK SMILES IDX 15 15 14 16
REMARK H PARENT
REMARK Flexibility Score: 70.00
ROOT
ATOM      1  C   UNL     1      14.164   3.148  18.685  1.00  0.00    -0.001 C 
ATOM      2  C   UNL     1      13.867   4.024  17.700  1.00  0.00    -0.023 C 
ENDROOT
BRANCH   2   3
ATOM      3  C   UNL     1      14.055   5.538  17.612  1.00  0.00     0.014 C 
BRANCH   3   4
ATOM      4  C   UNL     1      15.058   6.051  16.547  1.00  0.00     0.012 C 
BRANCH   4   5
ATOM      5  C   UNL     1      16.138   5.001  16.220  1.00  0.00     0.031 C 
BRANCH   5   6
ATOM      6  C   UNL     1      17.387   5.219  17.048  1.00  0.00    -0.077 C 
ATOM      7  C   UNL     1      18.297   6.362  16.680  1.00  0.00     0.039 C 
ATOM      8  C   UNL     1      17.754   4.415  18.074  1.00  0.00    -0.028 CG0
ATOM      9  G   UNL     1      17.000   3.200  18.562  1.00  0.00     0.000 G0
ENDBRANCH   5   6
ENDBRANCH   4   5
ENDBRANCH   3   4
BRANCH   3  10
ATOM     10  C   UNL     1      12.681   6.277  17.633  1.00  0.00    -0.010 C 
ATOM     11  C   UNL     1      11.885   6.061  18.924  1.00  0.00     0.008 C 
ATOM     12  C   UNL     1      11.810   5.945  16.409  1.00  0.00     0.008 C 
ENDBRANCH   3  10
ENDBRANCH   2   3
BRANCH   1  13
ATOM     13  C   UNL     1      14.867   3.394  19.965  1.00  0.00    -0.055 C 
ATOM     14  C   UNL     1      14.202   3.895  21.011  1.00  0.00     0.012 C 
BRANCH  13  15
ATOM     15  C   UNL     1      16.378   3.464  19.960  1.00  0.00     0.039 C 
BRANCH  15  16
ATOM     16  C   UNL     1      16.994   3.216  18.580  1.00  0.00     0.032 CG0
ATOM     17  G   UNL     1      17.753   4.422  18.076  1.00  0.00     0.000 G0
ENDBRANCH  15  16
ENDBRANCH  13  15
ENDBRANCH   1  13
TORSDOF 1
ENDMDL
MODEL 8
REMARK VINA RESULT:    -2.597      1.847      4.544
REMARK INTER + INTRA:          -4.412
REMARK INTER:                  -3.829
REMARK INTRA:                  -0.583
REMARK UNBOUND:                -0.600
REMARK SMILES C=C1C=C[C@H](C(C)C)CCC(C)=CCC1
REMARK SMILES IDX 3 1 4 2 5 3 9 4 10 5 11 6 12 7 13 8 6 10 7 11 8 12 2 13 1 14
REMARK SMILES IDX 15 15 14 16
REMARK H PARENT
REMARK Flexibility Score: 70.00
ROOT
ATOM      1  C   UNL     1      11.707   5.720  18.421  1.00  0.00    -0.001 C 
ATOM      2  C   UNL     1      12.346   4.900  19.284  1.00  0.00    -0.023 C 
ENDROOT
BRANCH   2   3
ATOM      3  C   UNL     1      13.642   5.082  20.072  1.00  0.00     0.014 C 
BRANCH   3   4
ATOM      4  C   UNL     1      14.904   5.456  19.253  1.00  0.00     0.012 C 
BRANCH   4   5
ATOM      5  C   UNL     1      15.073   4.555  18.013  1.00  0.00     0.031 C 
BRANCH   5   6
ATOM      6  C   UNL     1      15.567   5.347  16.820  1.00  0.00    -0.077 C 
ATOM      7  C   UNL     1      17.053   5.432  16.587  1.00  0.00     0.039 C 
ATOM      8  C   UNL     1      14.747   6.018  15.978  1.00  0.00    -0.028 CG0
ATOM      9  G   UNL     1      13.241   6.089  16.074  1.00  0.00     0.000 G0
ENDBRANCH   5   6
ENDBRANCH   4   5
ENDBRANCH   3   4
BRANCH   3  10
ATOM     10  C   UNL     1      13.405   5.946  21.349  1.00  0.00    -0.010 C 
ATOM     11  C   UNL     1      11.944   5.984  21.806  1.00  0.00     0.008 C 
ATOM     12  C   UNL     1      13.956   7.376  21.209  1.00  0.00     0.008 C 
ENDBRANCH   3  10
ENDBRANCH   2   3
BRANCH   1  13
ATOM     13  C   UNL     1      12.038   7.116  18.052  1.00  0.00    -0.055 C 
ATOM     14  C   UNL     1      11.427   8.136  18.663  1.00  0.00     0.012 C 
BRANCH  13  15
ATOM     15  C   UNL     1      12.742   7.369  16.737  1.00  0.00     0.039 C 
BRANCH  15  16
ATOM     16  C   UNL     1      13.239   6.090  16.056  1.00  0.00     0.032 CG0
ATOM     17  G   UNL     1      14.747   6.039  15.984  1.00  0.00     0.000 G0
ENDBRANCH  15  16
ENDBRANCH  13  15
ENDBRANCH   1  13
TORSDOF 1
ENDMDL
MODEL 9
REMARK VINA RESULT:    -2.499      2.404      3.866
REMARK INTER + INTRA:          -4.267
REMARK INTER:                  -3.833
REMARK INTRA:                  -0.434
REMARK UNBOUND:                -0.600
REMARK SMILES C=C1C=C[C@H](C(C)C)CCC(C)=CCC1
REMARK SMILES IDX 3 1 4 2 5 3 9 4 10 5 11 6 12 7 13 8 6 10 7 11 8 12 2 13 1 14
REMARK SMILES IDX 15 15 14 16
REMARK H PARENT
REMARK Flexibility Score: 70.00
ROOT
ATOM      1  C   UNL     1      13.891   6.390  21.374  1.00  0.00    -0.001 C 
ATOM      2  C   UNL     1      14.259   5.271  20.712  1.00  0.00    -0.023 C 
ENDROOT
BRANCH   2   3
ATOM      3  C   UNL     1      13.432   4.108  20.166  1.00  0.00     0.014 C 
BRANCH   3   4
ATOM      4  C   UNL     1      12.991   4.207  18.684  1.00  0.00     0.012 C 
BRANCH   4   5
ATOM      5  C   UNL     1      13.495   5.502  18.018  1.00  0.00     0.031 C 
BRANCH   5   6
ATOM      6  C   UNL     1      12.343   6.387  17.591  1.00  0.00    -0.077 C 
ATOM      7  C   UNL     1      11.573   6.007  16.353  1.00  0.00     0.039 C 
ATOM      8  C   UNL     1      11.996   7.526  18.236  1.00  0.00    -0.028 CG0
ATOM      9  G   UNL     1      12.673   8.093  19.462  1.00  0.00     0.000 G0
ENDBRANCH   5   6
ENDBRANCH   4   5
ENDBRANCH   3   4
BRANCH   3  10
ATOM     10  C   UNL     1      14.052   2.737  20.580  1.00  0.00    -0.010 C 
ATOM     11  C   UNL     1      14.140   2.532  22.095  1.00  0.00     0.008 C 
ATOM     12  C   UNL     1      15.422   2.484  19.928  1.00  0.00     0.008 C 
ENDBRANCH   3  10
ENDBRANCH   2   3
BRANCH   1  13
ATOM     13  C   UNL     1      12.527   6.874  21.689  1.00  0.00    -0.055 C 
ATOM     14  C   UNL     1      11.765   6.214  22.567  1.00  0.00     0.012 C 
BRANCH  13  15
ATOM     15  C   UNL     1      11.867   7.849  20.738  1.00  0.00     0.039 C 
BRANCH  15  16
ATOM     16  C   UNL     1      12.675   8.094  19.460  1.00  0.00     0.032 CG0
ATOM     17  G   UNL     1      11.992   7.517  18.242  1.00  0.00     0.000 G0
ENDBRANCH  15  16
ENDBRANCH  13  15
ENDBRANCH   1  13
TORSDOF 1
ENDMDL
