MODEL 1
REMARK VINA RESULT:    -4.788      0.000      0.000
REMARK INTER + INTRA:          -5.324
REMARK INTER:                  -5.208
REMARK INTRA:                  -0.116
REMARK UNBOUND:                -0.116
REMARK SMILES O=C([O-])c1ccccc1O
REMARK SMILES IDX 4 1 9 2 5 3 8 4 6 5 7 6 2 7 1 8 3 9 10 10
REMARK H PARENT 10 11
REMARK Flexibility Score: inf
ROOT
ATOM      1  C   UNL     1      34.224  23.366  24.800  1.00  0.00     0.039 A 
ATOM      2  C   UNL     1      33.652  22.481  25.745  1.00  0.00     0.124 A 
ATOM      3  C   UNL     1      35.625  23.521  24.778  1.00  0.00     0.014 A 
ATOM      4  C   UNL     1      34.479  21.778  26.635  1.00  0.00     0.047 A 
ATOM      5  C   UNL     1      36.436  22.814  25.670  1.00  0.00     0.001 A 
ATOM      6  C   UNL     1      35.864  21.944  26.596  1.00  0.00     0.004 A 
ENDROOT
BRANCH   1   7
ATOM      7  C   UNL     1      33.389  24.131  23.840  1.00  0.00     0.075 C 
ATOM      8  O   UNL     1      33.928  24.879  22.981  1.00  0.00    -0.545 OA
ATOM      9  O   UNL     1      32.001  24.042  23.866  1.00  0.00    -0.545 OA
ENDBRANCH   1   7
BRANCH   2  10
ATOM     10  O   UNL     1      32.271  22.296  25.805  1.00  0.00    -0.507 OA
ATOM     11  H   UNL     1      31.794  21.644  25.193  1.00  0.00     0.293 HD
ENDBRANCH   2  10
TORSDOF 2
ENDMDL
MODEL 2
REMARK VINA RESULT:    -4.681     11.694     13.180
REMARK INTER + INTRA:          -5.207
REMARK INTER:                  -4.957
REMARK INTRA:                  -0.251
REMARK UNBOUND:                -0.116
REMARK SMILES O=C([O-])c1ccccc1O
REMARK SMILES IDX 4 1 9 2 5 3 8 4 6 5 7 6 2 7 1 8 3 9 10 10
REMARK H PARENT 10 11
REMARK Flexibility Score: inf
ROOT
ATOM      1  C   UNL     1      22.088  24.947  22.853  1.00  0.00     0.039 A 
ATOM      2  C   UNL     1      21.467  26.081  22.277  1.00  0.00     0.124 A 
ATOM      3  C   UNL     1      22.295  23.808  22.050  1.00  0.00     0.014 A 
ATOM      4  C   UNL     1      21.073  26.055  20.930  1.00  0.00     0.047 A 
ATOM      5  C   UNL     1      21.898  23.795  20.710  1.00  0.00     0.001 A 
ATOM      6  C   UNL     1      21.289  24.918  20.151  1.00  0.00     0.004 A 
ENDROOT
BRANCH   1   7
ATOM      7  C   UNL     1      22.520  24.930  24.273  1.00  0.00     0.075 C 
ATOM      8  O   UNL     1      21.736  25.309  25.184  1.00  0.00    -0.545 OA
ATOM      9  O   UNL     1      23.793  24.497  24.630  1.00  0.00    -0.545 OA
ENDBRANCH   1   7
BRANCH   2  10
ATOM     10  O   UNL     1      21.240  27.232  23.032  1.00  0.00    -0.507 OA
ATOM     11  H   UNL     1      21.502  28.151  22.696  1.00  0.00     0.293 HD
ENDBRANCH   2  10
TORSDOF 2
ENDMDL
MODEL 3
REMARK VINA RESULT:    -4.679     12.272     13.480
REMARK INTER + INTRA:          -5.205
REMARK INTER:                  -4.975
REMARK INTRA:                  -0.231
REMARK UNBOUND:                -0.116
REMARK SMILES O=C([O-])c1ccccc1O
REMARK SMILES IDX 4 1 9 2 5 3 8 4 6 5 7 6 2 7 1 8 3 9 10 10
REMARK H PARENT 10 11
REMARK Flexibility Score: inf
ROOT
ATOM      1  C   UNL     1      28.207  34.521  21.931  1.00  0.00     0.039 A 
ATOM      2  C   UNL     1      29.273  33.759  21.396  1.00  0.00     0.124 A 
ATOM      3  C   UNL     1      27.028  34.663  21.172  1.00  0.00     0.014 A 
ATOM      4  C   UNL     1      29.141  33.162  20.133  1.00  0.00     0.047 A 
ATOM      5  C   UNL     1      26.911  34.064  19.915  1.00  0.00     0.001 A 
ATOM      6  C   UNL     1      27.965  33.314  19.397  1.00  0.00     0.004 A 
ENDROOT
BRANCH   1   7
ATOM      7  C   UNL     1      28.301  35.170  23.263  1.00  0.00     0.075 C 
ATOM      8  O   UNL     1      29.168  36.059  23.480  1.00  0.00    -0.545 OA
ATOM      9  O   UNL     1      27.442  34.815  24.298  1.00  0.00    -0.545 OA
ENDBRANCH   1   7
BRANCH   2  10
ATOM     10  O   UNL     1      30.459  33.590  22.110  1.00  0.00    -0.507 OA
ATOM     11  H   UNL     1      30.659  34.127  22.946  1.00  0.00     0.293 HD
ENDBRANCH   2  10
TORSDOF 2
ENDMDL
MODEL 4
REMARK VINA RESULT:    -4.669     12.883     14.207
REMARK INTER + INTRA:          -5.195
REMARK INTER:                  -4.958
REMARK INTRA:                  -0.237
REMARK UNBOUND:                -0.116
REMARK SMILES O=C([O-])c1ccccc1O
REMARK SMILES IDX 4 1 9 2 5 3 8 4 6 5 7 6 2 7 1 8 3 9 10 10
REMARK H PARENT 10 11
REMARK Flexibility Score: inf
ROOT
ATOM      1  C   UNL     1      20.426  26.105  23.929  1.00  0.00     0.039 A 
ATOM      2  C   UNL     1      20.929  26.451  22.652  1.00  0.00     0.124 A 
ATOM      3  C   UNL     1      21.038  25.050  24.634  1.00  0.00     0.014 A 
ATOM      4  C   UNL     1      22.017  25.747  22.114  1.00  0.00     0.047 A 
ATOM      5  C   UNL     1      22.121  24.357  24.087  1.00  0.00     0.001 A 
ATOM      6  C   UNL     1      22.610  24.705  22.828  1.00  0.00     0.004 A 
ENDROOT
BRANCH   1   7
ATOM      7  C   UNL     1      19.277  26.822  24.538  1.00  0.00     0.075 C 
ATOM      8  O   UNL     1      18.155  26.830  23.965  1.00  0.00    -0.545 OA
ATOM      9  O   UNL     1      19.411  27.499  25.746  1.00  0.00    -0.545 OA
ENDBRANCH   1   7
BRANCH   2  10
ATOM     10  O   UNL     1      20.356  27.488  21.916  1.00  0.00    -0.507 OA
ATOM     11  H   UNL     1      20.631  28.454  22.052  1.00  0.00     0.293 HD
ENDBRANCH   2  10
TORSDOF 2
ENDMDL
MODEL 5
REMARK VINA RESULT:    -4.630     12.375     14.004
REMARK INTER + INTRA:          -5.152
REMARK INTER:                  -4.940
REMARK INTRA:                  -0.212
REMARK UNBOUND:                -0.116
REMARK SMILES O=C([O-])c1ccccc1O
REMARK SMILES IDX 4 1 9 2 5 3 8 4 6 5 7 6 2 7 1 8 3 9 10 10
REMARK H PARENT 10 11
REMARK Flexibility Score: inf
ROOT
ATOM      1  C   UNL     1      20.609  25.905  22.790  1.00  0.00     0.039 A 
ATOM      2  C   UNL     1      21.877  25.398  23.161  1.00  0.00     0.124 A 
ATOM      3  C   UNL     1      20.232  25.861  21.433  1.00  0.00     0.014 A 
ATOM      4  C   UNL     1      22.730  24.864  22.183  1.00  0.00     0.047 A 
ATOM      5  C   UNL     1      21.091  25.326  20.469  1.00  0.00     0.001 A 
ATOM      6  C   UNL     1      22.338  24.828  20.844  1.00  0.00     0.004 A 
ENDROOT
BRANCH   1   7
ATOM      7  C   UNL     1      19.673  26.479  23.790  1.00  0.00     0.075 C 
ATOM      8  O   UNL     1      20.113  26.994  24.853  1.00  0.00    -0.545 OA
ATOM      9  O   UNL     1      18.298  26.463  23.580  1.00  0.00    -0.545 OA
ENDBRANCH   1   7
BRANCH   2  10
ATOM     10  O   UNL     1      22.294  25.421  24.491  1.00  0.00    -0.507 OA
ATOM     11  H   UNL     1      23.037  24.820  24.828  1.00  0.00     0.293 HD
ENDBRANCH   2  10
TORSDOF 2
ENDMDL
MODEL 6
REMARK VINA RESULT:    -4.567     11.939     13.176
REMARK INTER + INTRA:          -5.084
REMARK INTER:                  -4.838
REMARK INTRA:                  -0.246
REMARK UNBOUND:                -0.116
REMARK SMILES O=C([O-])c1ccccc1O
REMARK SMILES IDX 4 1 9 2 5 3 8 4 6 5 7 6 2 7 1 8 3 9 10 10
REMARK H PARENT 10 11
REMARK Flexibility Score: inf
ROOT
ATOM      1  C   UNL     1      21.902  24.542  22.775  1.00  0.00     0.039 A 
ATOM      2  C   UNL     1      20.893  23.572  22.570  1.00  0.00     0.124 A 
ATOM      3  C   UNL     1      22.537  25.108  21.651  1.00  0.00     0.014 A 
ATOM      4  C   UNL     1      20.542  23.192  21.266  1.00  0.00     0.047 A 
ATOM      5  C   UNL     1      22.177  24.721  20.358  1.00  0.00     0.001 A 
ATOM      6  C   UNL     1      21.180  23.765  20.165  1.00  0.00     0.004 A 
ENDROOT
BRANCH   1   7
ATOM      7  C   UNL     1      22.307  24.974  24.137  1.00  0.00     0.075 C 
ATOM      8  O   UNL     1      23.514  24.908  24.495  1.00  0.00    -0.545 OA
ATOM      9  O   UNL     1      21.371  25.457  25.045  1.00  0.00    -0.545 OA
ENDBRANCH   1   7
BRANCH   2  10
ATOM     10  O   UNL     1      20.238  22.983  23.652  1.00  0.00    -0.507 OA
ATOM     11  H   UNL     1      19.254  22.744  23.613  1.00  0.00     0.293 HD
ENDBRANCH   2  10
TORSDOF 2
ENDMDL
MODEL 7
REMARK VINA RESULT:    -4.565     10.063     11.211
REMARK INTER + INTRA:          -5.081
REMARK INTER:                  -4.832
REMARK INTRA:                  -0.249
REMARK UNBOUND:                -0.116
REMARK SMILES O=C([O-])c1ccccc1O
REMARK SMILES IDX 4 1 9 2 5 3 8 4 6 5 7 6 2 7 1 8 3 9 10 10
REMARK H PARENT 10 11
REMARK Flexibility Score: inf
ROOT
ATOM      1  C   UNL     1      34.195  23.907  35.745  1.00  0.00     0.039 A 
ATOM      2  C   UNL     1      32.991  23.946  36.488  1.00  0.00     0.124 A 
ATOM      3  C   UNL     1      35.307  24.633  36.218  1.00  0.00     0.014 A 
ATOM      4  C   UNL     1      32.924  24.697  37.672  1.00  0.00     0.047 A 
ATOM      5  C   UNL     1      35.226  25.376  37.398  1.00  0.00     0.001 A 
ATOM      6  C   UNL     1      34.036  25.407  38.125  1.00  0.00     0.004 A 
ENDROOT
BRANCH   1   7
ATOM      7  C   UNL     1      34.313  23.128  34.486  1.00  0.00     0.075 C 
ATOM      8  O   UNL     1      33.401  23.177  33.618  1.00  0.00    -0.545 OA
ATOM      9  O   UNL     1      35.424  22.329  34.238  1.00  0.00    -0.545 OA
ENDBRANCH   1   7
BRANCH   2  10
ATOM     10  O   UNL     1      31.865  23.245  36.059  1.00  0.00    -0.507 OA
ATOM     11  H   UNL     1      31.674  22.299  36.369  1.00  0.00     0.293 HD
ENDBRANCH   2  10
TORSDOF 2
ENDMDL
MODEL 8
REMARK VINA RESULT:    -4.526     11.108     12.417
REMARK INTER + INTRA:          -5.039
REMARK INTER:                  -4.789
REMARK INTRA:                  -0.250
REMARK UNBOUND:                -0.116
REMARK SMILES O=C([O-])c1ccccc1O
REMARK SMILES IDX 4 1 9 2 5 3 8 4 6 5 7 6 2 7 1 8 3 9 10 10
REMARK H PARENT 10 11
REMARK Flexibility Score: inf
ROOT
ATOM      1  C   UNL     1      29.621  34.274  21.717  1.00  0.00     0.039 A 
ATOM      2  C   UNL     1      29.709  32.971  21.173  1.00  0.00     0.124 A 
ATOM      3  C   UNL     1      30.783  35.070  21.763  1.00  0.00     0.014 A 
ATOM      4  C   UNL     1      30.939  32.496  20.691  1.00  0.00     0.047 A 
ATOM      5  C   UNL     1      32.001  34.584  21.279  1.00  0.00     0.001 A 
ATOM      6  C   UNL     1      32.078  33.299  20.743  1.00  0.00     0.004 A 
ENDROOT
BRANCH   1   7
ATOM      7  C   UNL     1      28.341  34.818  22.240  1.00  0.00     0.075 C 
ATOM      8  O   UNL     1      27.283  34.720  21.563  1.00  0.00    -0.545 OA
ATOM      9  O   UNL     1      28.281  35.445  23.480  1.00  0.00    -0.545 OA
ENDBRANCH   1   7
BRANCH   2  10
ATOM     10  O   UNL     1      28.586  32.146  21.107  1.00  0.00    -0.507 OA
ATOM     11  H   UNL     1      27.657  32.522  20.957  1.00  0.00     0.293 HD
ENDBRANCH   2  10
TORSDOF 2
ENDMDL
MODEL 9
REMARK VINA RESULT:    -4.321     10.675     12.614
REMARK INTER + INTRA:          -4.816
REMARK INTER:                  -4.569
REMARK INTRA:                  -0.247
REMARK UNBOUND:                -0.116
REMARK SMILES O=C([O-])c1ccccc1O
REMARK SMILES IDX 4 1 9 2 5 3 8 4 6 5 7 6 2 7 1 8 3 9 10 10
REMARK H PARENT 10 11
REMARK Flexibility Score: inf
ROOT
ATOM      1  C   UNL     1      29.516  33.210  21.183  1.00  0.00     0.039 A 
ATOM      2  C   UNL     1      29.390  34.420  21.906  1.00  0.00     0.124 A 
ATOM      3  C   UNL     1      28.399  32.723  20.475  1.00  0.00     0.014 A 
ATOM      4  C   UNL     1      28.168  35.110  21.906  1.00  0.00     0.047 A 
ATOM      5  C   UNL     1      27.188  33.421  20.484  1.00  0.00     0.001 A 
ATOM      6  C   UNL     1      27.073  34.613  21.198  1.00  0.00     0.004 A 
ENDROOT
BRANCH   1   7
ATOM      7  C   UNL     1      30.789  32.446  21.155  1.00  0.00     0.075 C 
ATOM      8  O   UNL     1      31.336  32.077  22.228  1.00  0.00    -0.545 OA
ATOM      9  O   UNL     1      31.405  32.121  19.950  1.00  0.00    -0.545 OA
ENDBRANCH   1   7
BRANCH   2  10
ATOM     10  O   UNL     1      30.468  34.941  22.621  1.00  0.00    -0.507 OA
ATOM     11  H   UNL     1      30.474  35.897  22.956  1.00  0.00     0.293 HD
ENDBRANCH   2  10
TORSDOF 2
ENDMDL
