MODEL 1
REMARK VINA RESULT:    -3.495      0.000      0.000
REMARK INTER + INTRA:          -4.248
REMARK INTER:                  -4.108
REMARK INTRA:                  -0.140
REMARK UNBOUND:                -0.140
REMARK SMILES O=C([O-])CCC(=O)[O-]
REMARK SMILES IDX 4 1 2 2 1 3 3 4 5 5 6 6 7 7 8 8
REMARK H PARENT
REMARK Flexibility Score: inf
ROOT
ATOM      1  C   UNL     1     131.946 122.835 133.512  1.00  0.00     0.059 C 
ENDROOT
BRANCH   1   2
ATOM      2  C   UNL     1     131.593 121.786 134.522  1.00  0.00     0.042 C 
ATOM      3  O   UNL     1     130.504 121.852 135.151  1.00  0.00    -0.550 OA
ATOM      4  O   UNL     1     132.447 120.712 134.737  1.00  0.00    -0.550 OA
ENDBRANCH   1   2
BRANCH   1   5
ATOM      5  C   UNL     1     133.346 123.407 133.760  1.00  0.00     0.059 C 
BRANCH   5   6
ATOM      6  C   UNL     1     133.367 124.323 134.946  1.00  0.00     0.042 C 
ATOM      7  O   UNL     1     133.851 123.932 136.039  1.00  0.00    -0.550 OA
ATOM      8  O   UNL     1     132.813 125.594 134.853  1.00  0.00    -0.550 OA
ENDBRANCH   5   6
ENDBRANCH   1   5
TORSDOF 3
ENDMDL
MODEL 2
REMARK VINA RESULT:    -3.422      0.807      3.829
REMARK INTER + INTRA:          -4.162
REMARK INTER:                  -4.044
REMARK INTRA:                  -0.118
REMARK UNBOUND:                -0.140
REMARK SMILES O=C([O-])CCC(=O)[O-]
REMARK SMILES IDX 4 1 2 2 1 3 3 4 5 5 6 6 7 7 8 8
REMARK H PARENT
REMARK Flexibility Score: inf
ROOT
ATOM      1  C   UNL     1     132.948 123.403 133.837  1.00  0.00     0.059 C 
ENDROOT
BRANCH   1   2
ATOM      2  C   UNL     1     133.197 124.305 135.007  1.00  0.00     0.042 C 
ATOM      3  O   UNL     1     133.661 123.838 136.081  1.00  0.00    -0.550 OA
ATOM      4  O   UNL     1     132.957 125.669 134.898  1.00  0.00    -0.550 OA
ENDBRANCH   1   2
BRANCH   1   5
ATOM      5  C   UNL     1     131.536 122.809 133.874  1.00  0.00     0.059 C 
BRANCH   5   6
ATOM      6  C   UNL     1     131.565 121.330 134.107  1.00  0.00     0.042 C 
ATOM      7  O   UNL     1     130.713 120.585 133.555  1.00  0.00    -0.550 OA
ATOM      8  O   UNL     1     132.506 120.779 134.968  1.00  0.00    -0.550 OA
ENDBRANCH   5   6
ENDBRANCH   1   5
TORSDOF 3
ENDMDL
MODEL 3
REMARK VINA RESULT:    -3.011      2.024      4.038
REMARK INTER + INTRA:          -3.679
REMARK INTER:                  -3.596
REMARK INTRA:                  -0.083
REMARK UNBOUND:                -0.140
REMARK SMILES O=C([O-])CCC(=O)[O-]
REMARK SMILES IDX 4 1 2 2 1 3 3 4 5 5 6 6 7 7 8 8
REMARK H PARENT
REMARK Flexibility Score: inf
ROOT
ATOM      1  C   UNL     1     132.793 125.696 135.268  1.00  0.00     0.059 C 
ENDROOT
BRANCH   1   2
ATOM      2  C   UNL     1     131.612 126.602 135.093  1.00  0.00     0.042 C 
ATOM      3  O   UNL     1     131.559 127.700 135.708  1.00  0.00    -0.550 OA
ATOM      4  O   UNL     1     130.591 126.253 134.219  1.00  0.00    -0.550 OA
ENDBRANCH   1   2
BRANCH   1   5
ATOM      5  C   UNL     1     132.363 124.232 135.411  1.00  0.00     0.059 C 
BRANCH   5   6
ATOM      6  C   UNL     1     132.970 123.371 134.346  1.00  0.00     0.042 C 
ATOM      7  O   UNL     1     133.844 123.842 133.572  1.00  0.00    -0.550 OA
ATOM      8  O   UNL     1     132.539 122.061 134.181  1.00  0.00    -0.550 OA
ENDBRANCH   5   6
ENDBRANCH   1   5
TORSDOF 3
ENDMDL
MODEL 4
REMARK VINA RESULT:    -2.962      2.305      3.382
REMARK INTER + INTRA:          -3.621
REMARK INTER:                  -3.526
REMARK INTRA:                  -0.095
REMARK UNBOUND:                -0.140
REMARK SMILES O=C([O-])CCC(=O)[O-]
REMARK SMILES IDX 4 1 2 2 1 3 3 4 5 5 6 6 7 7 8 8
REMARK H PARENT
REMARK Flexibility Score: inf
ROOT
ATOM      1  C   UNL     1     131.508 123.739 134.241  1.00  0.00     0.059 C 
ENDROOT
BRANCH   1   2
ATOM      2  C   UNL     1     132.955 123.790 134.627  1.00  0.00     0.042 C 
ATOM      3  O   UNL     1     133.847 123.821 133.738  1.00  0.00    -0.550 OA
ATOM      4  O   UNL     1     133.316 123.844 135.967  1.00  0.00    -0.550 OA
ENDBRANCH   1   2
BRANCH   1   5
ATOM      5  C   UNL     1     130.659 124.668 135.114  1.00  0.00     0.059 C 
BRANCH   5   6
ATOM      6  C   UNL     1     130.519 126.028 134.500  1.00  0.00     0.042 C 
ATOM      7  O   UNL     1     129.462 126.344 133.895  1.00  0.00    -0.550 OA
ATOM      8  O   UNL     1     131.574 126.931 134.560  1.00  0.00    -0.550 OA
ENDBRANCH   5   6
ENDBRANCH   1   5
TORSDOF 3
ENDMDL
MODEL 5
REMARK VINA RESULT:    -2.867     14.958     15.829
REMARK INTER + INTRA:          -3.510
REMARK INTER:                  -3.458
REMARK INTRA:                  -0.052
REMARK UNBOUND:                -0.140
REMARK SMILES O=C([O-])CCC(=O)[O-]
REMARK SMILES IDX 4 1 2 2 1 3 3 4 5 5 6 6 7 7 8 8
REMARK H PARENT
REMARK Flexibility Score: inf
ROOT
ATOM      1  C   UNL     1     131.153 121.603 119.972  1.00  0.00     0.059 C 
ENDROOT
BRANCH   1   2
ATOM      2  C   UNL     1     131.391 122.922 120.642  1.00  0.00     0.042 C 
ATOM      3  O   UNL     1     132.553 123.403 120.702  1.00  0.00    -0.550 OA
ATOM      4  O   UNL     1     130.322 123.640 121.163  1.00  0.00    -0.550 OA
ENDBRANCH   1   2
BRANCH   1   5
ATOM      5  C   UNL     1     129.659 121.337 119.765  1.00  0.00     0.059 C 
BRANCH   5   6
ATOM      6  C   UNL     1     129.369 120.866 118.372  1.00  0.00     0.042 C 
ATOM      7  O   UNL     1     130.304 120.463 117.632  1.00  0.00    -0.550 OA
ATOM      8  O   UNL     1     128.072 120.914 117.877  1.00  0.00    -0.550 OA
ENDBRANCH   5   6
ENDBRANCH   1   5
TORSDOF 3
ENDMDL
MODEL 6
REMARK VINA RESULT:    -2.833      1.632      2.106
REMARK INTER + INTRA:          -3.469
REMARK INTER:                  -3.365
REMARK INTRA:                  -0.104
REMARK UNBOUND:                -0.140
REMARK SMILES O=C([O-])CCC(=O)[O-]
REMARK SMILES IDX 4 1 2 2 1 3 3 4 5 5 6 6 7 7 8 8
REMARK H PARENT
REMARK Flexibility Score: inf
ROOT
ATOM      1  C   UNL     1     132.032 123.698 135.707  1.00  0.00     0.059 C 
ENDROOT
BRANCH   1   2
ATOM      2  C   UNL     1     131.627 122.568 134.811  1.00  0.00     0.042 C 
ATOM      3  O   UNL     1     130.411 122.373 134.546  1.00  0.00    -0.550 OA
ATOM      4  O   UNL     1     132.595 121.756 134.235  1.00  0.00    -0.550 OA
ENDBRANCH   1   2
BRANCH   1   5
ATOM      5  C   UNL     1     132.742 124.810 134.927  1.00  0.00     0.059 C 
BRANCH   5   6
ATOM      6  C   UNL     1     131.893 126.040 134.822  1.00  0.00     0.042 C 
ATOM      7  O   UNL     1     132.276 127.121 135.341  1.00  0.00    -0.550 OA
ATOM      8  O   UNL     1     130.658 125.982 134.187  1.00  0.00    -0.550 OA
ENDBRANCH   5   6
ENDBRANCH   1   5
TORSDOF 3
ENDMDL
MODEL 7
REMARK VINA RESULT:    -2.802     18.347     19.274
REMARK INTER + INTRA:          -3.433
REMARK INTER:                  -3.297
REMARK INTRA:                  -0.136
REMARK UNBOUND:                -0.140
REMARK SMILES O=C([O-])CCC(=O)[O-]
REMARK SMILES IDX 4 1 2 2 1 3 3 4 5 5 6 6 7 7 8 8
REMARK H PARENT
REMARK Flexibility Score: inf
ROOT
ATOM      1  C   UNL     1     126.539 130.230 119.050  1.00  0.00     0.059 C 
ENDROOT
BRANCH   1   2
ATOM      2  C   UNL     1     126.501 130.895 117.708  1.00  0.00     0.042 C 
ATOM      3  O   UNL     1     127.210 131.912 117.484  1.00  0.00    -0.550 OA
ATOM      4  O   UNL     1     125.716 130.367 116.691  1.00  0.00    -0.550 OA
ENDBRANCH   1   2
BRANCH   1   5
ATOM      5  C   UNL     1     125.642 130.950 120.062  1.00  0.00     0.059 C 
BRANCH   5   6
ATOM      6  C   UNL     1     124.203 130.562 119.901  1.00  0.00     0.042 C 
ATOM      7  O   UNL     1     123.898 129.386 119.571  1.00  0.00    -0.550 OA
ATOM      8  O   UNL     1     123.203 131.510 120.074  1.00  0.00    -0.550 OA
ENDBRANCH   5   6
ENDBRANCH   1   5
TORSDOF 3
ENDMDL
MODEL 8
REMARK VINA RESULT:    -2.787     18.411     19.256
REMARK INTER + INTRA:          -3.415
REMARK INTER:                  -3.286
REMARK INTRA:                  -0.130
REMARK UNBOUND:                -0.140
REMARK SMILES O=C([O-])CCC(=O)[O-]
REMARK SMILES IDX 4 1 2 2 1 3 3 4 5 5 6 6 7 7 8 8
REMARK H PARENT
REMARK Flexibility Score: inf
ROOT
ATOM      1  C   UNL     1     125.609 131.031 119.938  1.00  0.00     0.059 C 
ENDROOT
BRANCH   1   2
ATOM      2  C   UNL     1     124.173 130.615 119.852  1.00  0.00     0.042 C 
ATOM      3  O   UNL     1     123.872 129.415 119.613  1.00  0.00    -0.550 OA
ATOM      4  O   UNL     1     123.165 131.544 120.077  1.00  0.00    -0.550 OA
ENDBRANCH   1   2
BRANCH   1   5
ATOM      5  C   UNL     1     126.484 130.244 118.956  1.00  0.00     0.059 C 
BRANCH   5   6
ATOM      6  C   UNL     1     126.459 130.852 117.586  1.00  0.00     0.042 C 
ATOM      7  O   UNL     1     125.780 130.320 116.670  1.00  0.00    -0.550 OA
ATOM      8  O   UNL     1     127.221 131.981 117.312  1.00  0.00    -0.550 OA
ENDBRANCH   5   6
ENDBRANCH   1   5
TORSDOF 3
ENDMDL
MODEL 9
REMARK VINA RESULT:    -2.775     18.522     19.212
REMARK INTER + INTRA:          -3.401
REMARK INTER:                  -3.296
REMARK INTRA:                  -0.105
REMARK UNBOUND:                -0.140
REMARK SMILES O=C([O-])CCC(=O)[O-]
REMARK SMILES IDX 4 1 2 2 1 3 3 4 5 5 6 6 7 7 8 8
REMARK H PARENT
REMARK Flexibility Score: inf
ROOT
ATOM      1  C   UNL     1     127.074 129.970 118.639  1.00  0.00     0.059 C 
ENDROOT
BRANCH   1   2
ATOM      2  C   UNL     1     125.768 129.886 117.910  1.00  0.00     0.042 C 
ATOM      3  O   UNL     1     125.690 130.246 116.705  1.00  0.00    -0.550 OA
ATOM      4  O   UNL     1     124.647 129.372 118.548  1.00  0.00    -0.550 OA
ENDBRANCH   1   2
BRANCH   1   5
ATOM      5  C   UNL     1     127.282 131.353 119.265  1.00  0.00     0.059 C 
BRANCH   5   6
ATOM      6  C   UNL     1     128.186 132.208 118.429  1.00  0.00     0.042 C 
ATOM      7  O   UNL     1     127.763 132.722 117.362  1.00  0.00    -0.550 OA
ATOM      8  O   UNL     1     129.509 132.400 118.809  1.00  0.00    -0.550 OA
ENDBRANCH   5   6
ENDBRANCH   1   5
TORSDOF 3
ENDMDL
