MODEL 1
REMARK VINA RESULT:    -4.610      0.000      0.000
REMARK INTER + INTRA:          -6.477
REMARK INTER:                  -6.227
REMARK INTRA:                  -0.250
REMARK UNBOUND:                -0.250
REMARK SMILES CCCCCCC=CC(=O)[O-]
REMARK SMILES IDX 5 1 6 2 7 3 8 4 9 5 10 6 11 7 4 8 3 9 2 10 1 11
REMARK H PARENT
REMARK Flexibility Score: inf
ROOT
ATOM      1  C   UNL     1      18.019  -0.504  45.586  1.00  0.00     0.004 C 
ENDROOT
BRANCH   1   2
ATOM      2  C   UNL     1      18.672  -0.616  44.197  1.00  0.00     0.027 C 
BRANCH   2   3
ATOM      3  C   UNL     1      20.172  -0.666  44.264  1.00  0.00    -0.025 C 
ATOM      4  C   UNL     1      20.931   0.251  43.657  1.00  0.00     0.020 C 
BRANCH   4   5
ATOM      5  C   UNL     1      22.399   0.211  43.710  1.00  0.00     0.064 C 
ATOM      6  O   UNL     1      23.048  -0.162  42.699  1.00  0.00    -0.545 OA
ATOM      7  O   UNL     1      23.085   0.580  44.862  1.00  0.00    -0.545 OA
ENDBRANCH   4   5
ENDBRANCH   2   3
ENDBRANCH   1   2
BRANCH   1   8
ATOM      8  C   UNL     1      16.495  -0.275  45.555  1.00  0.00     0.000 C 
BRANCH   8   9
ATOM      9  C   UNL     1      15.911  -0.364  44.135  1.00  0.00    -0.000 C 
BRANCH   9  10
ATOM     10  C   UNL     1      15.298   0.966  43.668  1.00  0.00    -0.003 C 
ATOM     11  C   UNL     1      14.043   0.776  42.816  1.00  0.00     0.004 C 
ENDBRANCH   9  10
ENDBRANCH   8   9
ENDBRANCH   1   8
TORSDOF 6
ENDMDL
MODEL 2
REMARK VINA RESULT:    -4.478      9.164     10.628
REMARK INTER + INTRA:          -6.298
REMARK INTER:                  -5.564
REMARK INTRA:                  -0.735
REMARK UNBOUND:                -0.250
REMARK SMILES CCCCCCC=CC(=O)[O-]
REMARK SMILES IDX 5 1 6 2 7 3 8 4 9 5 10 6 11 7 4 8 3 9 2 10 1 11
REMARK H PARENT
REMARK Flexibility Score: inf
ROOT
ATOM      1  C   UNL     1      12.418   1.921  40.150  1.00  0.00     0.004 C 
ENDROOT
BRANCH   1   2
ATOM      2  C   UNL     1      13.104   3.297  40.221  1.00  0.00     0.027 C 
BRANCH   2   3
ATOM      3  C   UNL     1      12.125   4.425  40.378  1.00  0.00    -0.025 C 
ATOM      4  C   UNL     1      12.015   5.390  39.459  1.00  0.00     0.020 C 
BRANCH   4   5
ATOM      5  C   UNL     1      11.065   6.502  39.603  1.00  0.00     0.064 C 
ATOM      6  O   UNL     1      11.330   7.448  40.389  1.00  0.00    -0.545 OA
ATOM      7  O   UNL     1       9.876   6.527  38.882  1.00  0.00    -0.545 OA
ENDBRANCH   4   5
ENDBRANCH   2   3
ENDBRANCH   1   2
BRANCH   1   8
ATOM      8  C   UNL     1      11.668   1.653  38.831  1.00  0.00     0.000 C 
BRANCH   8   9
ATOM      9  C   UNL     1      12.486   2.053  37.591  1.00  0.00    -0.000 C 
BRANCH   9  10
ATOM     10  C   UNL     1      11.646   2.820  36.557  1.00  0.00    -0.003 C 
ATOM     11  C   UNL     1      10.240   3.148  37.059  1.00  0.00     0.004 C 
ENDBRANCH   9  10
ENDBRANCH   8   9
ENDBRANCH   1   8
TORSDOF 6
ENDMDL
MODEL 3
REMARK VINA RESULT:    -4.463      8.686      9.884
REMARK INTER + INTRA:          -6.279
REMARK INTER:                  -5.703
REMARK INTRA:                  -0.576
REMARK UNBOUND:                -0.250
REMARK SMILES CCCCCCC=CC(=O)[O-]
REMARK SMILES IDX 5 1 6 2 7 3 8 4 9 5 10 6 11 7 4 8 3 9 2 10 1 11
REMARK H PARENT
REMARK Flexibility Score: inf
ROOT
ATOM      1  C   UNL     1      23.368  -5.964  37.821  1.00  0.00     0.004 C 
ENDROOT
BRANCH   1   2
ATOM      2  C   UNL     1      23.430  -5.085  39.082  1.00  0.00     0.027 C 
BRANCH   2   3
ATOM      3  C   UNL     1      24.670  -5.325  39.895  1.00  0.00    -0.025 C 
ATOM      4  C   UNL     1      25.781  -5.827  39.347  1.00  0.00     0.020 C 
BRANCH   4   5
ATOM      5  C   UNL     1      26.999  -6.071  40.133  1.00  0.00     0.064 C 
ATOM      6  O   UNL     1      26.973  -5.921  41.382  1.00  0.00    -0.545 OA
ATOM      7  O   UNL     1      28.181  -6.469  39.518  1.00  0.00    -0.545 OA
ENDBRANCH   4   5
ENDBRANCH   2   3
ENDBRANCH   1   2
BRANCH   1   8
ATOM      8  C   UNL     1      22.257  -7.032  37.845  1.00  0.00     0.000 C 
BRANCH   8   9
ATOM      9  C   UNL     1      22.541  -8.161  38.849  1.00  0.00    -0.000 C 
BRANCH   9  10
ATOM     10  C   UNL     1      21.550  -8.164  40.025  1.00  0.00    -0.003 C 
ATOM     11  C   UNL     1      20.412  -7.160  39.844  1.00  0.00     0.004 C 
ENDBRANCH   9  10
ENDBRANCH   8   9
ENDBRANCH   1   8
TORSDOF 6
ENDMDL
MODEL 4
REMARK VINA RESULT:    -4.427      9.144     11.341
REMARK INTER + INTRA:          -6.230
REMARK INTER:                  -5.957
REMARK INTRA:                  -0.273
REMARK UNBOUND:                -0.250
REMARK SMILES CCCCCCC=CC(=O)[O-]
REMARK SMILES IDX 5 1 6 2 7 3 8 4 9 5 10 6 11 7 4 8 3 9 2 10 1 11
REMARK H PARENT
REMARK Flexibility Score: inf
ROOT
ATOM      1  C   UNL     1      24.556  -5.237  39.053  1.00  0.00     0.004 C 
ENDROOT
BRANCH   1   2
ATOM      2  C   UNL     1      23.706  -6.345  38.406  1.00  0.00     0.027 C 
BRANCH   2   3
ATOM      3  C   UNL     1      22.734  -6.967  39.369  1.00  0.00    -0.025 C 
ATOM      4  C   UNL     1      21.415  -6.915  39.164  1.00  0.00     0.020 C 
BRANCH   4   5
ATOM      5  C   UNL     1      20.454  -7.515  40.101  1.00  0.00     0.064 C 
ATOM      6  O   UNL     1      20.844  -8.393  40.913  1.00  0.00    -0.545 OA
ATOM      7  O   UNL     1      19.119  -7.125  40.107  1.00  0.00    -0.545 OA
ENDBRANCH   4   5
ENDBRANCH   2   3
ENDBRANCH   1   2
BRANCH   1   8
ATOM      8  C   UNL     1      25.374  -5.697  40.275  1.00  0.00     0.000 C 
BRANCH   8   9
ATOM      9  C   UNL     1      26.257  -6.919  39.972  1.00  0.00    -0.000 C 
BRANCH   9  10
ATOM     10  C   UNL     1      27.698  -6.526  39.608  1.00  0.00    -0.003 C 
ATOM     11  C   UNL     1      28.436  -7.622  38.839  1.00  0.00     0.004 C 
ENDBRANCH   9  10
ENDBRANCH   8   9
ENDBRANCH   1   8
TORSDOF 6
ENDMDL
MODEL 5
REMARK VINA RESULT:    -4.423      9.673     10.926
REMARK INTER + INTRA:          -6.224
REMARK INTER:                  -5.906
REMARK INTRA:                  -0.319
REMARK UNBOUND:                -0.250
REMARK SMILES CCCCCCC=CC(=O)[O-]
REMARK SMILES IDX 5 1 6 2 7 3 8 4 9 5 10 6 11 7 4 8 3 9 2 10 1 11
REMARK H PARENT
REMARK Flexibility Score: inf
ROOT
ATOM      1  C   UNL     1      12.109   2.223  38.033  1.00  0.00     0.004 C 
ENDROOT
BRANCH   1   2
ATOM      2  C   UNL     1      11.941   2.915  39.397  1.00  0.00     0.027 C 
BRANCH   2   3
ATOM      3  C   UNL     1      12.358   4.358  39.370  1.00  0.00    -0.025 C 
ATOM      4  C   UNL     1      11.519   5.336  39.728  1.00  0.00     0.020 C 
BRANCH   4   5
ATOM      5  C   UNL     1      11.914   6.752  39.701  1.00  0.00     0.064 C 
ATOM      6  O   UNL     1      11.197   7.608  40.282  1.00  0.00    -0.545 OA
ATOM      7  O   UNL     1      13.069   7.161  39.045  1.00  0.00    -0.545 OA
ENDBRANCH   4   5
ENDBRANCH   2   3
ENDBRANCH   1   2
BRANCH   1   8
ATOM      8  C   UNL     1      11.787   3.120  36.821  1.00  0.00     0.000 C 
BRANCH   8   9
ATOM      9  C   UNL     1      12.224   2.494  35.487  1.00  0.00    -0.000 C 
BRANCH   9  10
ATOM     10  C   UNL     1      13.140   1.274  35.682  1.00  0.00    -0.003 C 
ATOM     11  C   UNL     1      14.380   1.313  34.789  1.00  0.00     0.004 C 
ENDBRANCH   9  10
ENDBRANCH   8   9
ENDBRANCH   1   8
TORSDOF 6
ENDMDL
MODEL 6
REMARK VINA RESULT:    -4.393      8.279     10.678
REMARK INTER + INTRA:          -6.184
REMARK INTER:                  -5.979
REMARK INTRA:                  -0.205
REMARK UNBOUND:                -0.250
REMARK SMILES CCCCCCC=CC(=O)[O-]
REMARK SMILES IDX 5 1 6 2 7 3 8 4 9 5 10 6 11 7 4 8 3 9 2 10 1 11
REMARK H PARENT
REMARK Flexibility Score: inf
ROOT
ATOM      1  C   UNL     1      22.734  -6.965  39.553  1.00  0.00     0.004 C 
ENDROOT
BRANCH   1   2
ATOM      2  C   UNL     1      21.881  -8.228  39.763  1.00  0.00     0.027 C 
BRANCH   2   3
ATOM      3  C   UNL     1      20.546  -7.929  40.385  1.00  0.00    -0.025 C 
ATOM      4  C   UNL     1      19.764  -6.948  39.925  1.00  0.00     0.020 C 
BRANCH   4   5
ATOM      5  C   UNL     1      18.459  -6.642  40.528  1.00  0.00     0.064 C 
ATOM      6  O   UNL     1      18.406  -6.194  41.702  1.00  0.00    -0.545 OA
ATOM      7  O   UNL     1      17.279  -6.836  39.818  1.00  0.00    -0.545 OA
ENDBRANCH   4   5
ENDBRANCH   2   3
ENDBRANCH   1   2
BRANCH   1   8
ATOM      8  C   UNL     1      24.193  -7.097  40.032  1.00  0.00     0.000 C 
BRANCH   8   9
ATOM      9  C   UNL     1      24.900  -5.738  40.160  1.00  0.00    -0.000 C 
BRANCH   9  10
ATOM     10  C   UNL     1      26.425  -5.851  39.993  1.00  0.00    -0.003 C 
ATOM     11  C   UNL     1      26.875  -7.256  39.595  1.00  0.00     0.004 C 
ENDBRANCH   9  10
ENDBRANCH   8   9
ENDBRANCH   1   8
TORSDOF 6
ENDMDL
MODEL 7
REMARK VINA RESULT:    -4.370     13.474     14.536
REMARK INTER + INTRA:          -6.153
REMARK INTER:                  -5.385
REMARK INTRA:                  -0.768
REMARK UNBOUND:                -0.250
REMARK SMILES CCCCCCC=CC(=O)[O-]
REMARK SMILES IDX 5 1 6 2 7 3 8 4 9 5 10 6 11 7 4 8 3 9 2 10 1 11
REMARK H PARENT
REMARK Flexibility Score: inf
ROOT
ATOM      1  C   UNL     1      22.303  -5.471  33.070  1.00  0.00     0.004 C 
ENDROOT
BRANCH   1   2
ATOM      2  C   UNL     1      21.368  -6.053  34.145  1.00  0.00     0.027 C 
BRANCH   2   3
ATOM      3  C   UNL     1      20.484  -7.146  33.614  1.00  0.00    -0.025 C 
ATOM      4  C   UNL     1      19.154  -7.016  33.580  1.00  0.00     0.020 C 
BRANCH   4   5
ATOM      5  C   UNL     1      18.278  -8.081  33.068  1.00  0.00     0.064 C 
ATOM      6  O   UNL     1      17.470  -8.648  33.847  1.00  0.00    -0.545 OA
ATOM      7  O   UNL     1      18.327  -8.469  31.734  1.00  0.00    -0.545 OA
ENDBRANCH   4   5
ENDBRANCH   2   3
ENDBRANCH   1   2
BRANCH   1   8
ATOM      8  C   UNL     1      22.574  -6.417  31.884  1.00  0.00     0.000 C 
BRANCH   8   9
ATOM      9  C   UNL     1      22.177  -5.803  30.532  1.00  0.00    -0.000 C 
BRANCH   9  10
ATOM     10  C   UNL     1      20.861  -6.382  29.987  1.00  0.00    -0.003 C 
ATOM     11  C   UNL     1      19.662  -5.467  30.234  1.00  0.00     0.004 C 
ENDBRANCH   9  10
ENDBRANCH   8   9
ENDBRANCH   1   8
TORSDOF 6
ENDMDL
MODEL 8
REMARK VINA RESULT:    -4.362      7.606      9.360
REMARK INTER + INTRA:          -6.142
REMARK INTER:                  -5.662
REMARK INTRA:                  -0.480
REMARK UNBOUND:                -0.250
REMARK SMILES CCCCCCC=CC(=O)[O-]
REMARK SMILES IDX 5 1 6 2 7 3 8 4 9 5 10 6 11 7 4 8 3 9 2 10 1 11
REMARK H PARENT
REMARK Flexibility Score: inf
ROOT
ATOM      1  C   UNL     1      21.653   2.636  35.110  1.00  0.00     0.004 C 
ENDROOT
BRANCH   1   2
ATOM      2  C   UNL     1      20.471   2.287  36.031  1.00  0.00     0.027 C 
BRANCH   2   3
ATOM      3  C   UNL     1      20.627   2.853  37.414  1.00  0.00    -0.025 C 
ATOM      4  C   UNL     1      20.389   4.143  37.673  1.00  0.00     0.020 C 
BRANCH   4   5
ATOM      5  C   UNL     1      20.544   4.710  39.020  1.00  0.00     0.064 C 
ATOM      6  O   UNL     1      21.290   4.136  39.855  1.00  0.00    -0.545 OA
ATOM      7  O   UNL     1      19.879   5.875  39.388  1.00  0.00    -0.545 OA
ENDBRANCH   4   5
ENDBRANCH   2   3
ENDBRANCH   1   2
BRANCH   1   8
ATOM      8  C   UNL     1      22.342   1.414  34.470  1.00  0.00     0.000 C 
BRANCH   8   9
ATOM      9  C   UNL     1      21.773   0.079  34.979  1.00  0.00    -0.000 C 
BRANCH   9  10
ATOM     10  C   UNL     1      22.767  -0.679  35.874  1.00  0.00    -0.003 C 
ATOM     11  C   UNL     1      22.206  -0.978  37.264  1.00  0.00     0.004 C 
ENDBRANCH   9  10
ENDBRANCH   8   9
ENDBRANCH   1   8
TORSDOF 6
ENDMDL
MODEL 9
REMARK VINA RESULT:    -4.358      6.586      8.908
REMARK INTER + INTRA:          -6.137
REMARK INTER:                  -5.891
REMARK INTRA:                  -0.246
REMARK UNBOUND:                -0.250
REMARK SMILES CCCCCCC=CC(=O)[O-]
REMARK SMILES IDX 5 1 6 2 7 3 8 4 9 5 10 6 11 7 4 8 3 9 2 10 1 11
REMARK H PARENT
REMARK Flexibility Score: inf
ROOT
ATOM      1  C   UNL     1      12.891   1.614  41.258  1.00  0.00     0.004 C 
ENDROOT
BRANCH   1   2
ATOM      2  C   UNL     1      13.857   2.675  40.701  1.00  0.00     0.027 C 
BRANCH   2   3
ATOM      3  C   UNL     1      13.211   3.566  39.678  1.00  0.00    -0.025 C 
ATOM      4  C   UNL     1      12.405   4.571  40.035  1.00  0.00     0.020 C 
BRANCH   4   5
ATOM      5  C   UNL     1      11.763   5.447  39.043  1.00  0.00     0.064 C 
ATOM      6  O   UNL     1      11.572   5.025  37.873  1.00  0.00    -0.545 OA
ATOM      7  O   UNL     1      11.360   6.735  39.379  1.00  0.00    -0.545 OA
ENDBRANCH   4   5
ENDBRANCH   2   3
ENDBRANCH   1   2
BRANCH   1   8
ATOM      8  C   UNL     1      13.282   1.065  42.644  1.00  0.00     0.000 C 
BRANCH   8   9
ATOM      9  C   UNL     1      14.778   1.243  42.953  1.00  0.00    -0.000 C 
BRANCH   9  10
ATOM     10  C   UNL     1      15.481  -0.094  43.239  1.00  0.00    -0.003 C 
ATOM     11  C   UNL     1      16.166  -0.125  44.605  1.00  0.00     0.004 C 
ENDBRANCH   9  10
ENDBRANCH   8   9
ENDBRANCH   1   8
TORSDOF 6
ENDMDL
