MODEL 1
REMARK VINA RESULT:    -5.122      0.000      0.000
REMARK INTER + INTRA:          -6.021
REMARK INTER:                  -5.871
REMARK INTRA:                  -0.150
REMARK UNBOUND:                -0.150
REMARK SMILES O=C([O-])C=Cc1ccc(O)cc1
REMARK SMILES IDX 6 1 7 2 12 3 8 4 11 5 9 6 5 7 4 8 2 9 1 10 3 11 10 12
REMARK H PARENT 10 13
REMARK Flexibility Score: inf
ROOT
ATOM      1  C   UNL     1       8.678  -1.802  -1.365  1.00  0.00    -0.025 A 
ATOM      2  C   UNL     1       8.986  -2.077  -0.016  1.00  0.00     0.012 A 
ATOM      3  C   UNL     1       8.746  -2.848  -2.301  1.00  0.00     0.012 A 
ATOM      4  C   UNL     1       9.375  -3.362   0.372  1.00  0.00     0.047 A 
ATOM      5  C   UNL     1       9.137  -4.131  -1.908  1.00  0.00     0.047 A 
ATOM      6  C   UNL     1       9.455  -4.390  -0.570  1.00  0.00     0.115 A 
ENDROOT
BRANCH   1   7
ATOM      7  C   UNL     1       8.248  -0.460  -1.830  1.00  0.00     0.010 C 
ATOM      8  C   UNL     1       8.180  -0.106  -3.120  1.00  0.00     0.025 C 
BRANCH   8   9
ATOM      9  C   UNL     1       7.736   1.234  -3.537  1.00  0.00     0.064 C 
ATOM     10  O   UNL     1       8.593   2.112  -3.821  1.00  0.00    -0.545 OA
ATOM     11  O   UNL     1       6.384   1.548  -3.621  1.00  0.00    -0.545 OA
ENDBRANCH   8   9
ENDBRANCH   1   7
BRANCH   6  12
ATOM     12  O   UNL     1       9.846  -5.666  -0.167  1.00  0.00    -0.508 OA
ATOM     13  H   UNL     1      10.808  -5.974  -0.244  1.00  0.00     0.293 HD
ENDBRANCH   6  12
TORSDOF 3
ENDMDL
MODEL 2
REMARK VINA RESULT:    -5.014     14.917     17.119
REMARK INTER + INTRA:          -5.897
REMARK INTER:                  -5.754
REMARK INTRA:                  -0.143
REMARK UNBOUND:                -0.150
REMARK SMILES O=C([O-])C=Cc1ccc(O)cc1
REMARK SMILES IDX 6 1 7 2 12 3 8 4 11 5 9 6 5 7 4 8 2 9 1 10 3 11 10 12
REMARK H PARENT 10 13
REMARK Flexibility Score: inf
ROOT
ATOM      1  C   UNL     1      -7.003   3.694  -4.194  1.00  0.00    -0.025 A 
ATOM      2  C   UNL     1      -6.851   2.309  -4.409  1.00  0.00     0.012 A 
ATOM      3  C   UNL     1      -6.125   4.580  -4.842  1.00  0.00     0.012 A 
ATOM      4  C   UNL     1      -5.828   1.829  -5.233  1.00  0.00     0.047 A 
ATOM      5  C   UNL     1      -5.103   4.096  -5.664  1.00  0.00     0.047 A 
ATOM      6  C   UNL     1      -4.951   2.718  -5.859  1.00  0.00     0.115 A 
ENDROOT
BRANCH   1   7
ATOM      7  C   UNL     1      -8.077   4.258  -3.340  1.00  0.00     0.010 C 
ATOM      8  C   UNL     1      -7.860   5.145  -2.359  1.00  0.00     0.025 C 
BRANCH   8   9
ATOM      9  C   UNL     1      -8.958   5.688  -1.544  1.00  0.00     0.064 C 
ATOM     10  O   UNL     1      -9.980   6.158  -2.110  1.00  0.00    -0.545 OA
ATOM     11  O   UNL     1      -8.886   5.692  -0.155  1.00  0.00    -0.545 OA
ENDBRANCH   8   9
ENDBRANCH   1   7
BRANCH   6  12
ATOM     12  O   UNL     1      -3.936   2.224  -6.677  1.00  0.00    -0.508 OA
ATOM     13  H   UNL     1      -3.989   2.291  -7.686  1.00  0.00     0.293 HD
ENDBRANCH   6  12
TORSDOF 3
ENDMDL
MODEL 3
REMARK VINA RESULT:    -4.979     16.108     16.576
REMARK INTER + INTRA:          -5.857
REMARK INTER:                  -5.706
REMARK INTRA:                  -0.151
REMARK UNBOUND:                -0.150
REMARK SMILES O=C([O-])C=Cc1ccc(O)cc1
REMARK SMILES IDX 6 1 7 2 12 3 8 4 11 5 9 6 5 7 4 8 2 9 1 10 3 11 10 12
REMARK H PARENT 10 13
REMARK Flexibility Score: inf
ROOT
ATOM      1  C   UNL     1      -6.029  -5.354   5.248  1.00  0.00    -0.025 A 
ATOM      2  C   UNL     1      -6.533  -5.511   6.556  1.00  0.00     0.012 A 
ATOM      3  C   UNL     1      -4.637  -5.352   5.054  1.00  0.00     0.012 A 
ATOM      4  C   UNL     1      -5.658  -5.639   7.639  1.00  0.00     0.047 A 
ATOM      5  C   UNL     1      -3.767  -5.479   6.140  1.00  0.00     0.047 A 
ATOM      6  C   UNL     1      -4.276  -5.620   7.437  1.00  0.00     0.115 A 
ENDROOT
BRANCH   1   7
ATOM      7  C   UNL     1      -6.911  -5.227   4.062  1.00  0.00     0.010 C 
ATOM      8  C   UNL     1      -6.458  -5.116   2.805  1.00  0.00     0.025 C 
BRANCH   8   9
ATOM      9  C   UNL     1      -7.370  -5.004   1.656  1.00  0.00     0.064 C 
ATOM     10  O   UNL     1      -7.768  -6.047   1.074  1.00  0.00    -0.545 OA
ATOM     11  O   UNL     1      -7.799  -3.762   1.199  1.00  0.00    -0.545 OA
ENDBRANCH   8   9
ENDBRANCH   1   7
BRANCH   6  12
ATOM     12  O   UNL     1      -3.418  -5.746   8.527  1.00  0.00    -0.508 OA
ATOM     13  H   UNL     1      -3.596  -5.264   9.400  1.00  0.00     0.293 HD
ENDBRANCH   6  12
TORSDOF 3
ENDMDL
MODEL 4
REMARK VINA RESULT:    -4.970     14.845     17.033
REMARK INTER + INTRA:          -5.847
REMARK INTER:                  -5.709
REMARK INTRA:                  -0.138
REMARK UNBOUND:                -0.150
REMARK SMILES O=C([O-])C=Cc1ccc(O)cc1
REMARK SMILES IDX 6 1 7 2 12 3 8 4 11 5 9 6 5 7 4 8 2 9 1 10 3 11 10 12
REMARK H PARENT 10 13
REMARK Flexibility Score: inf
ROOT
ATOM      1  C   UNL     1      -6.910   3.879  -4.221  1.00  0.00    -0.025 A 
ATOM      2  C   UNL     1      -5.946   4.649  -4.905  1.00  0.00     0.012 A 
ATOM      3  C   UNL     1      -6.811   2.478  -4.260  1.00  0.00     0.012 A 
ATOM      4  C   UNL     1      -4.926   4.023  -5.627  1.00  0.00     0.047 A 
ATOM      5  C   UNL     1      -5.789   1.857  -4.985  1.00  0.00     0.047 A 
ATOM      6  C   UNL     1      -4.845   2.629  -5.672  1.00  0.00     0.115 A 
ENDROOT
BRANCH   1   7
ATOM      7  C   UNL     1      -8.007   4.491  -3.430  1.00  0.00     0.010 C 
ATOM      8  C   UNL     1      -7.828   5.075  -2.237  1.00  0.00     0.025 C 
BRANCH   8   9
ATOM      9  C   UNL     1      -8.944   5.680  -1.492  1.00  0.00     0.064 C 
ATOM     10  O   UNL     1      -9.944   6.120  -2.118  1.00  0.00    -0.545 OA
ATOM     11  O   UNL     1      -8.911   5.776  -0.105  1.00  0.00    -0.545 OA
ENDBRANCH   8   9
ENDBRANCH   1   7
BRANCH   6  12
ATOM     12  O   UNL     1      -3.822   2.021  -6.398  1.00  0.00    -0.508 OA
ATOM     13  H   UNL     1      -3.683   2.216  -7.382  1.00  0.00     0.293 HD
ENDBRANCH   6  12
TORSDOF 3
ENDMDL
MODEL 5
REMARK VINA RESULT:    -4.822      9.479     11.229
REMARK INTER + INTRA:          -5.678
REMARK INTER:                  -5.527
REMARK INTRA:                  -0.151
REMARK UNBOUND:                -0.150
REMARK SMILES O=C([O-])C=Cc1ccc(O)cc1
REMARK SMILES IDX 6 1 7 2 12 3 8 4 11 5 9 6 5 7 4 8 2 9 1 10 3 11 10 12
REMARK H PARENT 10 13
REMARK Flexibility Score: inf
ROOT
ATOM      1  C   UNL     1       8.902   5.162   4.738  1.00  0.00    -0.025 A 
ATOM      2  C   UNL     1       9.915   5.156   3.758  1.00  0.00     0.012 A 
ATOM      3  C   UNL     1       8.068   6.288   4.845  1.00  0.00     0.012 A 
ATOM      4  C   UNL     1      10.099   6.264   2.926  1.00  0.00     0.047 A 
ATOM      5  C   UNL     1       8.256   7.394   4.011  1.00  0.00     0.047 A 
ATOM      6  C   UNL     1       9.275   7.385   3.050  1.00  0.00     0.115 A 
ENDROOT
BRANCH   1   7
ATOM      7  C   UNL     1       8.654   4.009   5.640  1.00  0.00     0.010 C 
ATOM      8  C   UNL     1       7.826   4.051   6.693  1.00  0.00     0.025 C 
BRANCH   8   9
ATOM      9  C   UNL     1       7.602   2.880   7.554  1.00  0.00     0.064 C 
ATOM     10  O   UNL     1       6.466   2.337   7.582  1.00  0.00    -0.545 OA
ATOM     11  O   UNL     1       8.625   2.362   8.341  1.00  0.00    -0.545 OA
ENDBRANCH   8   9
ENDBRANCH   1   7
BRANCH   6  12
ATOM     12  O   UNL     1       9.472   8.482   2.213  1.00  0.00    -0.508 OA
ATOM     13  H   UNL     1      10.226   8.503   1.537  1.00  0.00     0.293 HD
ENDBRANCH   6  12
TORSDOF 3
ENDMDL
MODEL 6
REMARK VINA RESULT:    -4.731     16.367     17.242
REMARK INTER + INTRA:          -5.572
REMARK INTER:                  -5.432
REMARK INTRA:                  -0.141
REMARK UNBOUND:                -0.150
REMARK SMILES O=C([O-])C=Cc1ccc(O)cc1
REMARK SMILES IDX 6 1 7 2 12 3 8 4 11 5 9 6 5 7 4 8 2 9 1 10 3 11 10 12
REMARK H PARENT 10 13
REMARK Flexibility Score: inf
ROOT
ATOM      1  C   UNL     1      -7.061  -4.831   2.985  1.00  0.00    -0.025 A 
ATOM      2  C   UNL     1      -6.545  -5.563   1.896  1.00  0.00     0.012 A 
ATOM      3  C   UNL     1      -8.114  -3.930   2.758  1.00  0.00     0.012 A 
ATOM      4  C   UNL     1      -7.060  -5.374   0.610  1.00  0.00     0.047 A 
ATOM      5  C   UNL     1      -8.625  -3.743   1.470  1.00  0.00     0.047 A 
ATOM      6  C   UNL     1      -8.097  -4.464   0.392  1.00  0.00     0.115 A 
ENDROOT
BRANCH   1   7
ATOM      7  C   UNL     1      -6.560  -5.001   4.372  1.00  0.00     0.010 C 
ATOM      8  C   UNL     1      -5.297  -5.334   4.673  1.00  0.00     0.025 C 
BRANCH   8   9
ATOM      9  C   UNL     1      -4.841  -5.481   6.063  1.00  0.00     0.064 C 
ATOM     10  O   UNL     1      -5.686  -5.658   6.980  1.00  0.00    -0.545 OA
ATOM     11  O   UNL     1      -3.489  -5.425   6.385  1.00  0.00    -0.545 OA
ENDBRANCH   8   9
ENDBRANCH   1   7
BRANCH   6  12
ATOM     12  O   UNL     1      -8.598  -4.286  -0.896  1.00  0.00    -0.508 OA
ATOM     13  H   UNL     1      -9.332  -4.878  -1.265  1.00  0.00     0.293 HD
ENDBRANCH   6  12
TORSDOF 3
ENDMDL
MODEL 7
REMARK VINA RESULT:    -4.694     10.475     11.960
REMARK INTER + INTRA:          -5.531
REMARK INTER:                  -5.379
REMARK INTRA:                  -0.152
REMARK UNBOUND:                -0.150
REMARK SMILES O=C([O-])C=Cc1ccc(O)cc1
REMARK SMILES IDX 6 1 7 2 12 3 8 4 11 5 9 6 5 7 4 8 2 9 1 10 3 11 10 12
REMARK H PARENT 10 13
REMARK Flexibility Score: inf
ROOT
ATOM      1  C   UNL     1       6.421   2.330   8.144  1.00  0.00    -0.025 A 
ATOM      2  C   UNL     1       6.743   3.697   8.023  1.00  0.00     0.012 A 
ATOM      3  C   UNL     1       7.282   1.377   7.574  1.00  0.00     0.012 A 
ATOM      4  C   UNL     1       7.888   4.093   7.326  1.00  0.00     0.047 A 
ATOM      5  C   UNL     1       8.425   1.778   6.877  1.00  0.00     0.047 A 
ATOM      6  C   UNL     1       8.729   3.139   6.749  1.00  0.00     0.115 A 
ENDROOT
BRANCH   1   7
ATOM      7  C   UNL     1       5.225   1.853   8.883  1.00  0.00     0.010 C 
ATOM      8  C   UNL     1       4.994   0.565   9.175  1.00  0.00     0.025 C 
BRANCH   8   9
ATOM      9  C   UNL     1       3.800   0.138   9.920  1.00  0.00     0.064 C 
ATOM     10  O   UNL     1       3.160  -0.878   9.540  1.00  0.00    -0.545 OA
ATOM     11  O   UNL     1       3.363   0.839  11.039  1.00  0.00    -0.545 OA
ENDBRANCH   8   9
ENDBRANCH   1   7
BRANCH   6  12
ATOM     12  O   UNL     1       9.866   3.551   6.056  1.00  0.00    -0.508 OA
ATOM     13  H   UNL     1      10.145   3.111   5.187  1.00  0.00     0.293 HD
ENDBRANCH   6  12
TORSDOF 3
ENDMDL
MODEL 8
REMARK VINA RESULT:    -4.658     10.116     10.871
REMARK INTER + INTRA:          -5.489
REMARK INTER:                  -5.348
REMARK INTRA:                  -0.141
REMARK UNBOUND:                -0.150
REMARK SMILES O=C([O-])C=Cc1ccc(O)cc1
REMARK SMILES IDX 6 1 7 2 12 3 8 4 11 5 9 6 5 7 4 8 2 9 1 10 3 11 10 12
REMARK H PARENT 10 13
REMARK Flexibility Score: inf
ROOT
ATOM      1  C   UNL     1       7.209   3.149   7.866  1.00  0.00    -0.025 A 
ATOM      2  C   UNL     1       6.065   3.315   8.673  1.00  0.00     0.012 A 
ATOM      3  C   UNL     1       7.502   1.871   7.360  1.00  0.00     0.012 A 
ATOM      4  C   UNL     1       5.252   2.219   8.981  1.00  0.00     0.047 A 
ATOM      5  C   UNL     1       6.688   0.779   7.671  1.00  0.00     0.047 A 
ATOM      6  C   UNL     1       5.561   0.951   8.485  1.00  0.00     0.115 A 
ENDROOT
BRANCH   1   7
ATOM      7  C   UNL     1       8.099   4.278   7.498  1.00  0.00     0.010 C 
ATOM      8  C   UNL     1       8.168   4.801   6.266  1.00  0.00     0.025 C 
BRANCH   8   9
ATOM      9  C   UNL     1       9.057   5.930   5.948  1.00  0.00     0.064 C 
ATOM     10  O   UNL     1       9.968   6.250   6.757  1.00  0.00    -0.545 OA
ATOM     11  O   UNL     1       8.907   6.652   4.769  1.00  0.00    -0.545 OA
ENDBRANCH   8   9
ENDBRANCH   1   7
BRANCH   6  12
ATOM     12  O   UNL     1       4.742  -0.131   8.803  1.00  0.00    -0.508 OA
ATOM     13  H   UNL     1       4.036  -0.066   9.525  1.00  0.00     0.293 HD
ENDBRANCH   6  12
TORSDOF 3
ENDMDL
MODEL 9
REMARK VINA RESULT:    -4.622     10.431     11.400
REMARK INTER + INTRA:          -5.447
REMARK INTER:                  -5.306
REMARK INTRA:                  -0.142
REMARK UNBOUND:                -0.150
REMARK SMILES O=C([O-])C=Cc1ccc(O)cc1
REMARK SMILES IDX 6 1 7 2 12 3 8 4 11 5 9 6 5 7 4 8 2 9 1 10 3 11 10 12
REMARK H PARENT 10 13
REMARK Flexibility Score: inf
ROOT
ATOM      1  C   UNL     1       5.995   1.807   8.787  1.00  0.00    -0.025 A 
ATOM      2  C   UNL     1       4.592   1.771   8.916  1.00  0.00     0.012 A 
ATOM      3  C   UNL     1       6.759   0.796   9.395  1.00  0.00     0.012 A 
ATOM      4  C   UNL     1       3.977   0.758   9.658  1.00  0.00     0.047 A 
ATOM      5  C   UNL     1       6.139  -0.214  10.136  1.00  0.00     0.047 A 
ATOM      6  C   UNL     1       4.746  -0.233  10.272  1.00  0.00     0.115 A 
ENDROOT
BRANCH   1   7
ATOM      7  C   UNL     1       6.699   2.851   8.001  1.00  0.00     0.010 C 
ATOM      8  C   UNL     1       7.589   2.584   7.035  1.00  0.00     0.025 C 
BRANCH   8   9
ATOM      9  C   UNL     1       8.256   3.651   6.273  1.00  0.00     0.064 C 
ATOM     10  O   UNL     1       7.863   3.921   5.107  1.00  0.00    -0.545 OA
ATOM     11  O   UNL     1       9.315   4.368   6.819  1.00  0.00    -0.545 OA
ENDBRANCH   8   9
ENDBRANCH   1   7
BRANCH   6  12
ATOM     12  O   UNL     1       4.117  -1.235  11.009  1.00  0.00    -0.508 OA
ATOM     13  H   UNL     1       3.676  -2.027  10.558  1.00  0.00     0.293 HD
ENDBRANCH   6  12
TORSDOF 3
ENDMDL
