MODEL 1
REMARK VINA RESULT:    -4.936      0.000      0.000
REMARK INTER + INTRA:          -6.533
REMARK INTER:                  -6.379
REMARK INTRA:                  -0.154
REMARK UNBOUND:                -0.154
REMARK SMILES C=CC(=O)CCCCC
REMARK SMILES IDX 6 1 7 2 8 3 9 4 5 5 3 6 4 7 2 8 1 9
REMARK H PARENT
REMARK Flexibility Score: inf
ROOT
ATOM      1  C   UNL     1     -12.512 -15.164  29.343  1.00  0.00     0.008 C 
ENDROOT
BRANCH   1   2
ATOM      2  C   UNL     1     -13.241 -14.046  28.584  1.00  0.00     0.000 C 
BRANCH   2   3
ATOM      3  C   UNL     1     -14.429 -13.474  29.374  1.00  0.00    -0.003 C 
ATOM      4  C   UNL     1     -14.769 -12.038  28.975  1.00  0.00     0.004 C 
ENDBRANCH   2   3
ENDBRANCH   1   2
BRANCH   1   5
ATOM      5  C   UNL     1     -11.198 -15.532  28.647  1.00  0.00     0.080 C 
BRANCH   5   6
ATOM      6  C   UNL     1     -11.327 -16.848  27.939  1.00  0.00     0.155 C 
ATOM      7  O   UNL     1     -11.205 -17.918  28.598  1.00  0.00    -0.295 OA
BRANCH   6   8
ATOM      8  C   UNL     1     -11.550 -16.887  26.481  1.00  0.00     0.039 C 
ATOM      9  C   UNL     1     -10.608 -17.271  25.623  1.00  0.00     0.012 C 
ENDBRANCH   6   8
ENDBRANCH   5   6
ENDBRANCH   1   5
TORSDOF 5
ENDMDL
MODEL 2
REMARK VINA RESULT:    -4.765      1.942      4.921
REMARK INTER + INTRA:          -6.312
REMARK INTER:                  -6.158
REMARK INTRA:                  -0.154
REMARK UNBOUND:                -0.154
REMARK SMILES C=CC(=O)CCCCC
REMARK SMILES IDX 6 1 7 2 8 3 9 4 5 5 3 6 4 7 2 8 1 9
REMARK H PARENT
REMARK Flexibility Score: inf
ROOT
ATOM      1  C   UNL     1     -11.706 -15.142  28.625  1.00  0.00     0.008 C 
ENDROOT
BRANCH   1   2
ATOM      2  C   UNL     1     -11.977 -16.069  27.431  1.00  0.00     0.000 C 
BRANCH   2   3
ATOM      3  C   UNL     1     -10.863 -17.107  27.224  1.00  0.00    -0.003 C 
ATOM      4  C   UNL     1     -10.583 -17.390  25.749  1.00  0.00     0.004 C 
ENDBRANCH   2   3
ENDBRANCH   1   2
BRANCH   1   5
ATOM      5  C   UNL     1     -12.661 -15.447  29.783  1.00  0.00     0.080 C 
BRANCH   5   6
ATOM      6  C   UNL     1     -13.697 -14.370  29.908  1.00  0.00     0.155 C 
ATOM      7  O   UNL     1     -14.401 -14.308  30.955  1.00  0.00    -0.295 OA
BRANCH   6   8
ATOM      8  C   UNL     1     -13.918 -13.422  28.799  1.00  0.00     0.039 C 
ATOM      9  C   UNL     1     -14.569 -12.272  28.959  1.00  0.00     0.012 C 
ENDBRANCH   6   8
ENDBRANCH   5   6
ENDBRANCH   1   5
TORSDOF 5
ENDMDL
MODEL 3
REMARK VINA RESULT:    -4.728      1.466      1.950
REMARK INTER + INTRA:          -6.264
REMARK INTER:                  -6.080
REMARK INTRA:                  -0.184
REMARK UNBOUND:                -0.154
REMARK SMILES C=CC(=O)CCCCC
REMARK SMILES IDX 6 1 7 2 8 3 9 4 5 5 3 6 4 7 2 8 1 9
REMARK H PARENT
REMARK Flexibility Score: inf
ROOT
ATOM      1  C   UNL     1     -13.368 -14.236  28.582  1.00  0.00     0.008 C 
ENDROOT
BRANCH   1   2
ATOM      2  C   UNL     1     -13.977 -13.959  29.965  1.00  0.00     0.000 C 
BRANCH   2   3
ATOM      3  C   UNL     1     -13.571 -15.011  31.010  1.00  0.00    -0.003 C 
ATOM      4  C   UNL     1     -14.411 -14.934  32.284  1.00  0.00     0.004 C 
ENDBRANCH   2   3
ENDBRANCH   1   2
BRANCH   1   5
ATOM      5  C   UNL     1     -12.055 -15.014  28.707  1.00  0.00     0.080 C 
BRANCH   5   6
ATOM      6  C   UNL     1     -12.168 -16.349  28.032  1.00  0.00     0.155 C 
ATOM      7  O   UNL     1     -12.270 -17.391  28.737  1.00  0.00    -0.295 OA
BRANCH   6   8
ATOM      8  C   UNL     1     -12.115 -16.441  26.560  1.00  0.00     0.039 C 
ATOM      9  C   UNL     1     -11.035 -16.867  25.908  1.00  0.00     0.012 C 
ENDBRANCH   6   8
ENDBRANCH   5   6
ENDBRANCH   1   5
TORSDOF 5
ENDMDL
MODEL 4
REMARK VINA RESULT:    -4.715      2.205      3.605
REMARK INTER + INTRA:          -6.247
REMARK INTER:                  -5.889
REMARK INTRA:                  -0.358
REMARK UNBOUND:                -0.154
REMARK SMILES C=CC(=O)CCCCC
REMARK SMILES IDX 6 1 7 2 8 3 9 4 5 5 3 6 4 7 2 8 1 9
REMARK H PARENT
REMARK Flexibility Score: inf
ROOT
ATOM      1  C   UNL     1     -11.952 -15.002  28.805  1.00  0.00     0.008 C 
ENDROOT
BRANCH   1   2
ATOM      2  C   UNL     1     -13.229 -14.323  28.290  1.00  0.00     0.000 C 
BRANCH   2   3
ATOM      3  C   UNL     1     -14.028 -13.639  29.411  1.00  0.00    -0.003 C 
ATOM      4  C   UNL     1     -14.604 -12.289  28.987  1.00  0.00     0.004 C 
ENDBRANCH   2   3
ENDBRANCH   1   2
BRANCH   1   5
ATOM      5  C   UNL     1     -12.290 -16.196  29.704  1.00  0.00     0.080 C 
BRANCH   5   6
ATOM      6  C   UNL     1     -11.613 -16.060  31.036  1.00  0.00     0.155 C 
ATOM      7  O   UNL     1     -10.370 -15.846  31.077  1.00  0.00    -0.295 OA
BRANCH   6   8
ATOM      8  C   UNL     1     -12.389 -16.220  32.280  1.00  0.00     0.039 C 
ATOM      9  C   UNL     1     -13.668 -15.866  32.377  1.00  0.00     0.012 C 
ENDBRANCH   6   8
ENDBRANCH   5   6
ENDBRANCH   1   5
TORSDOF 5
ENDMDL
MODEL 5
REMARK VINA RESULT:    -4.543      1.515      1.955
REMARK INTER + INTRA:          -6.025
REMARK INTER:                  -5.911
REMARK INTRA:                  -0.114
REMARK UNBOUND:                -0.154
REMARK SMILES C=CC(=O)CCCCC
REMARK SMILES IDX 6 1 7 2 8 3 9 4 5 5 3 6 4 7 2 8 1 9
REMARK H PARENT
REMARK Flexibility Score: inf
ROOT
ATOM      1  C   UNL     1     -12.053 -15.035  28.685  1.00  0.00     0.008 C 
ENDROOT
BRANCH   1   2
ATOM      2  C   UNL     1     -13.321 -14.300  28.228  1.00  0.00     0.000 C 
BRANCH   2   3
ATOM      3  C   UNL     1     -14.047 -13.597  29.386  1.00  0.00    -0.003 C 
ATOM      4  C   UNL     1     -14.625 -12.241  28.986  1.00  0.00     0.004 C 
ENDBRANCH   2   3
ENDBRANCH   1   2
BRANCH   1   5
ATOM      5  C   UNL     1     -11.794 -16.272  27.820  1.00  0.00     0.080 C 
BRANCH   5   6
ATOM      6  C   UNL     1     -11.767 -17.510  28.667  1.00  0.00     0.155 C 
ATOM      7  O   UNL     1     -11.011 -17.550  29.677  1.00  0.00    -0.295 OA
BRANCH   6   8
ATOM      8  C   UNL     1     -12.583 -18.681  28.294  1.00  0.00     0.039 C 
ATOM      9  C   UNL     1     -12.567 -19.817  28.989  1.00  0.00     0.012 C 
ENDBRANCH   6   8
ENDBRANCH   5   6
ENDBRANCH   1   5
TORSDOF 5
ENDMDL
MODEL 6
REMARK VINA RESULT:    -4.514      1.888      2.688
REMARK INTER + INTRA:          -5.988
REMARK INTER:                  -5.835
REMARK INTRA:                  -0.152
REMARK UNBOUND:                -0.154
REMARK SMILES C=CC(=O)CCCCC
REMARK SMILES IDX 6 1 7 2 8 3 9 4 5 5 3 6 4 7 2 8 1 9
REMARK H PARENT
REMARK Flexibility Score: inf
ROOT
ATOM      1  C   UNL     1     -12.128 -14.982  28.593  1.00  0.00     0.008 C 
ENDROOT
BRANCH   1   2
ATOM      2  C   UNL     1     -13.409 -14.239  28.186  1.00  0.00     0.000 C 
BRANCH   2   3
ATOM      3  C   UNL     1     -14.050 -13.481  29.359  1.00  0.00    -0.003 C 
ATOM      4  C   UNL     1     -14.728 -12.182  28.923  1.00  0.00     0.004 C 
ENDBRANCH   2   3
ENDBRANCH   1   2
BRANCH   1   5
ATOM      5  C   UNL     1     -12.370 -15.854  29.830  1.00  0.00     0.080 C 
BRANCH   5   6
ATOM      6  C   UNL     1     -12.086 -17.294  29.522  1.00  0.00     0.155 C 
ATOM      7  O   UNL     1     -12.350 -17.744  28.372  1.00  0.00    -0.295 OA
BRANCH   6   8
ATOM      8  C   UNL     1     -11.547 -18.183  30.570  1.00  0.00     0.039 C 
ATOM      9  C   UNL     1     -12.319 -19.004  31.279  1.00  0.00     0.012 C 
ENDBRANCH   6   8
ENDBRANCH   5   6
ENDBRANCH   1   5
TORSDOF 5
ENDMDL
MODEL 7
REMARK VINA RESULT:    -4.408      2.258      3.563
REMARK INTER + INTRA:          -5.850
REMARK INTER:                  -5.510
REMARK INTRA:                  -0.340
REMARK UNBOUND:                -0.154
REMARK SMILES C=CC(=O)CCCCC
REMARK SMILES IDX 6 1 7 2 8 3 9 4 5 5 3 6 4 7 2 8 1 9
REMARK H PARENT
REMARK Flexibility Score: inf
ROOT
ATOM      1  C   UNL     1     -12.338 -16.629  30.506  1.00  0.00     0.008 C 
ENDROOT
BRANCH   1   2
ATOM      2  C   UNL     1     -12.312 -16.223  31.987  1.00  0.00     0.000 C 
BRANCH   2   3
ATOM      3  C   UNL     1     -13.692 -16.333  32.654  1.00  0.00    -0.003 C 
ATOM      4  C   UNL     1     -14.512 -15.050  32.532  1.00  0.00     0.004 C 
ENDBRANCH   2   3
ENDBRANCH   1   2
BRANCH   1   5
ATOM      5  C   UNL     1     -11.557 -15.627  29.649  1.00  0.00     0.080 C 
BRANCH   5   6
ATOM      6  C   UNL     1     -12.162 -15.522  28.280  1.00  0.00     0.155 C 
ATOM      7  O   UNL     1     -11.666 -16.193  27.333  1.00  0.00    -0.295 OA
BRANCH   6   8
ATOM      8  C   UNL     1     -13.296 -14.609  28.039  1.00  0.00     0.039 C 
ATOM      9  C   UNL     1     -13.675 -13.689  28.925  1.00  0.00     0.012 C 
ENDBRANCH   6   8
ENDBRANCH   5   6
ENDBRANCH   1   5
TORSDOF 5
ENDMDL
MODEL 8
REMARK VINA RESULT:    -4.351      2.829      3.597
REMARK INTER + INTRA:          -5.778
REMARK INTER:                  -5.583
REMARK INTRA:                  -0.194
REMARK UNBOUND:                -0.154
REMARK SMILES C=CC(=O)CCCCC
REMARK SMILES IDX 6 1 7 2 8 3 9 4 5 5 3 6 4 7 2 8 1 9
REMARK H PARENT
REMARK Flexibility Score: inf
ROOT
ATOM      1  C   UNL     1     -12.132 -16.395  29.345  1.00  0.00     0.008 C 
ENDROOT
BRANCH   1   2
ATOM      2  C   UNL     1     -11.946 -15.045  28.638  1.00  0.00     0.000 C 
BRANCH   2   3
ATOM      3  C   UNL     1     -13.250 -14.516  28.021  1.00  0.00    -0.003 C 
ATOM      4  C   UNL     1     -13.921 -13.446  28.883  1.00  0.00     0.004 C 
ENDBRANCH   2   3
ENDBRANCH   1   2
BRANCH   1   5
ATOM      5  C   UNL     1     -11.738 -16.299  30.823  1.00  0.00     0.080 C 
BRANCH   5   6
ATOM      6  C   UNL     1     -12.263 -17.480  31.585  1.00  0.00     0.155 C 
ATOM      7  O   UNL     1     -13.195 -17.311  32.419  1.00  0.00    -0.295 OA
BRANCH   6   8
ATOM      8  C   UNL     1     -11.662 -18.813  31.391  1.00  0.00     0.039 C 
ATOM      9  C   UNL     1     -12.362 -19.857  30.953  1.00  0.00     0.012 C 
ENDBRANCH   6   8
ENDBRANCH   5   6
ENDBRANCH   1   5
TORSDOF 5
ENDMDL
MODEL 9
REMARK VINA RESULT:    -4.303      2.393      4.663
REMARK INTER + INTRA:          -5.715
REMARK INTER:                  -5.537
REMARK INTRA:                  -0.178
REMARK UNBOUND:                -0.154
REMARK SMILES C=CC(=O)CCCCC
REMARK SMILES IDX 6 1 7 2 8 3 9 4 5 5 3 6 4 7 2 8 1 9
REMARK H PARENT
REMARK Flexibility Score: inf
ROOT
ATOM      1  C   UNL     1     -11.900 -16.265  29.429  1.00  0.00     0.008 C 
ENDROOT
BRANCH   1   2
ATOM      2  C   UNL     1     -11.285 -16.263  30.836  1.00  0.00     0.000 C 
BRANCH   2   3
ATOM      3  C   UNL     1     -12.175 -16.971  31.871  1.00  0.00    -0.003 C 
ATOM      4  C   UNL     1     -12.330 -18.465  31.593  1.00  0.00     0.004 C 
ENDBRANCH   2   3
ENDBRANCH   1   2
BRANCH   1   5
ATOM      5  C   UNL     1     -11.848 -14.866  28.806  1.00  0.00     0.080 C 
BRANCH   5   6
ATOM      6  C   UNL     1     -13.216 -14.435  28.366  1.00  0.00     0.155 C 
ATOM      7  O   UNL     1     -13.619 -14.746  27.211  1.00  0.00    -0.295 OA
BRANCH   6   8
ATOM      8  C   UNL     1     -14.058 -13.619  29.261  1.00  0.00     0.039 C 
ATOM      9  C   UNL     1     -14.429 -12.376  28.958  1.00  0.00     0.012 C 
ENDBRANCH   6   8
ENDBRANCH   5   6
ENDBRANCH   1   5
TORSDOF 5
ENDMDL
