MODEL 1
REMARK VINA RESULT:    -4.541      0.000      0.000
REMARK INTER + INTRA:          -7.311
REMARK INTER:                  -6.664
REMARK INTRA:                  -0.647
REMARK UNBOUND:                -0.647
REMARK SMILES O=C([O-])CCCCCCCC(=O)[O-]
REMARK SMILES IDX 7 1 6 2 5 3 4 4 2 5 1 6 3 7 8 8 9 9 10 10 11 11 12 12 13 13
REMARK H PARENT
REMARK Flexibility Score: inf
ROOT
ATOM      1  C   UNL     1      50.139  57.966  94.543  1.00  0.00     0.000 C 
ENDROOT
BRANCH   1   2
ATOM      2  C   UNL     1      50.130  57.579  93.053  1.00  0.00     0.000 C 
BRANCH   2   3
ATOM      3  C   UNL     1      51.400  56.860  92.556  1.00  0.00     0.006 C 
BRANCH   3   4
ATOM      4  C   UNL     1      52.521  56.749  93.602  1.00  0.00     0.053 C 
BRANCH   4   5
ATOM      5  C   UNL     1      52.654  55.357  94.138  1.00  0.00     0.041 C 
ATOM      6  O   UNL     1      52.781  54.385  93.347  1.00  0.00    -0.550 OA
ATOM      7  O   UNL     1      52.672  55.137  95.509  1.00  0.00    -0.550 OA
ENDBRANCH   4   5
ENDBRANCH   3   4
ENDBRANCH   2   3
ENDBRANCH   1   2
BRANCH   1   8
ATOM      8  C   UNL     1      49.765  59.436  94.782  1.00  0.00     0.000 C 
BRANCH   8   9
ATOM      9  C   UNL     1      49.900  60.253  93.492  1.00  0.00     0.006 C 
BRANCH   9  10
ATOM     10  C   UNL     1      50.741  61.512  93.725  1.00  0.00     0.053 C 
BRANCH  10  11
ATOM     11  C   UNL     1      52.125  61.323  93.190  1.00  0.00     0.041 C 
ATOM     12  O   UNL     1      52.425  60.271  92.565  1.00  0.00    -0.550 OA
ATOM     13  O   UNL     1      53.071  62.329  93.339  1.00  0.00    -0.550 OA
ENDBRANCH  10  11
ENDBRANCH   9  10
ENDBRANCH   8   9
ENDBRANCH   1   8
TORSDOF 8
ENDMDL
MODEL 2
REMARK VINA RESULT:    -4.517      2.012      5.358
REMARK INTER + INTRA:          -7.277
REMARK INTER:                  -6.670
REMARK INTRA:                  -0.607
REMARK UNBOUND:                -0.647
REMARK SMILES O=C([O-])CCCCCCCC(=O)[O-]
REMARK SMILES IDX 7 1 6 2 5 3 4 4 2 5 1 6 3 7 8 8 9 9 10 10 11 11 12 12 13 13
REMARK H PARENT
REMARK Flexibility Score: inf
ROOT
ATOM      1  C   UNL     1      52.937  58.316  92.002  1.00  0.00     0.000 C 
ENDROOT
BRANCH   1   2
ATOM      2  C   UNL     1      52.446  59.037  93.270  1.00  0.00     0.000 C 
BRANCH   2   3
ATOM      3  C   UNL     1      51.656  60.337  93.019  1.00  0.00     0.006 C 
BRANCH   3   4
ATOM      4  C   UNL     1      50.136  60.205  93.199  1.00  0.00     0.053 C 
BRANCH   4   5
ATOM      5  C   UNL     1      49.747  60.112  94.642  1.00  0.00     0.041 C 
ATOM      6  O   UNL     1      49.546  61.160  95.311  1.00  0.00    -0.550 OA
ATOM      7  O   UNL     1      49.574  58.870  95.238  1.00  0.00    -0.550 OA
ENDBRANCH   4   5
ENDBRANCH   3   4
ENDBRANCH   2   3
ENDBRANCH   1   2
BRANCH   1   8
ATOM      8  C   UNL     1      51.928  57.288  91.469  1.00  0.00     0.000 C 
BRANCH   8   9
ATOM      9  C   UNL     1      51.320  56.472  92.616  1.00  0.00     0.006 C 
BRANCH   9  10
ATOM     10  C   UNL     1      52.010  55.111  92.749  1.00  0.00     0.053 C 
BRANCH  10  11
ATOM     11  C   UNL     1      52.821  55.056  94.003  1.00  0.00     0.041 C 
ATOM     12  O   UNL     1      53.774  54.238  94.107  1.00  0.00    -0.550 OA
ATOM     13  O   UNL     1      52.558  55.940  95.041  1.00  0.00    -0.550 OA
ENDBRANCH  10  11
ENDBRANCH   9  10
ENDBRANCH   8   9
ENDBRANCH   1   8
TORSDOF 8
ENDMDL
MODEL 3
REMARK VINA RESULT:    -4.508      1.999      2.726
REMARK INTER + INTRA:          -7.263
REMARK INTER:                  -6.689
REMARK INTRA:                  -0.574
REMARK UNBOUND:                -0.647
REMARK SMILES O=C([O-])CCCCCCCC(=O)[O-]
REMARK SMILES IDX 7 1 6 2 5 3 4 4 2 5 1 6 3 7 8 8 9 9 10 10 11 11 12 12 13 13
REMARK H PARENT
REMARK Flexibility Score: inf
ROOT
ATOM      1  C   UNL     1      52.872  58.437  91.837  1.00  0.00     0.000 C 
ENDROOT
BRANCH   1   2
ATOM      2  C   UNL     1      52.021  57.223  91.422  1.00  0.00     0.000 C 
BRANCH   2   3
ATOM      3  C   UNL     1      51.399  56.431  92.590  1.00  0.00     0.006 C 
BRANCH   3   4
ATOM      4  C   UNL     1      52.009  55.039  92.815  1.00  0.00     0.053 C 
BRANCH   4   5
ATOM      5  C   UNL     1      52.867  54.994  94.042  1.00  0.00     0.041 C 
ATOM      6  O   UNL     1      53.850  54.209  94.097  1.00  0.00    -0.550 OA
ATOM      7  O   UNL     1      52.601  55.841  95.110  1.00  0.00    -0.550 OA
ENDBRANCH   4   5
ENDBRANCH   3   4
ENDBRANCH   2   3
ENDBRANCH   1   2
BRANCH   1   8
ATOM      8  C   UNL     1      52.562  58.928  93.259  1.00  0.00     0.000 C 
BRANCH   8   9
ATOM      9  C   UNL     1      51.887  60.304  93.229  1.00  0.00     0.006 C 
BRANCH   9  10
ATOM     10  C   UNL     1      50.361  60.168  93.216  1.00  0.00     0.053 C 
BRANCH  10  11
ATOM     11  C   UNL     1      49.825  60.146  94.612  1.00  0.00     0.041 C 
ATOM     12  O   UNL     1      49.496  61.220  95.182  1.00  0.00    -0.550 OA
ATOM     13  O   UNL     1      49.643  58.935  95.268  1.00  0.00    -0.550 OA
ENDBRANCH  10  11
ENDBRANCH   9  10
ENDBRANCH   8   9
ENDBRANCH   1   8
TORSDOF 8
ENDMDL
MODEL 4
REMARK VINA RESULT:    -4.495      0.146      5.275
REMARK INTER + INTRA:          -7.244
REMARK INTER:                  -6.645
REMARK INTRA:                  -0.599
REMARK UNBOUND:                -0.647
REMARK SMILES O=C([O-])CCCCCCCC(=O)[O-]
REMARK SMILES IDX 7 1 6 2 5 3 4 4 2 5 1 6 3 7 8 8 9 9 10 10 11 11 12 12 13 13
REMARK H PARENT
REMARK Flexibility Score: inf
ROOT
ATOM      1  C   UNL     1      50.290  57.989  94.491  1.00  0.00     0.000 C 
ENDROOT
BRANCH   1   2
ATOM      2  C   UNL     1      49.746  59.405  94.757  1.00  0.00     0.000 C 
BRANCH   2   3
ATOM      3  C   UNL     1      49.836  60.374  93.562  1.00  0.00     0.006 C 
BRANCH   3   4
ATOM      4  C   UNL     1      50.782  61.566  93.775  1.00  0.00     0.053 C 
BRANCH   4   5
ATOM      5  C   UNL     1      52.122  61.339  93.145  1.00  0.00     0.041 C 
ATOM      6  O   UNL     1      52.407  60.216  92.652  1.00  0.00    -0.550 OA
ATOM      7  O   UNL     1      53.042  62.377  93.071  1.00  0.00    -0.550 OA
ENDBRANCH   4   5
ENDBRANCH   3   4
ENDBRANCH   2   3
ENDBRANCH   1   2
BRANCH   1   8
ATOM      8  C   UNL     1      50.112  57.543  93.033  1.00  0.00     0.000 C 
BRANCH   8   9
ATOM      9  C   UNL     1      51.347  56.781  92.537  1.00  0.00     0.006 C 
BRANCH   9  10
ATOM     10  C   UNL     1      52.439  56.747  93.611  1.00  0.00     0.053 C 
BRANCH  10  11
ATOM     11  C   UNL     1      52.680  55.343  94.067  1.00  0.00     0.041 C 
ATOM     12  O   UNL     1      52.751  55.078  95.297  1.00  0.00    -0.550 OA
ATOM     13  O   UNL     1      52.778  54.316  93.136  1.00  0.00    -0.550 OA
ENDBRANCH  10  11
ENDBRANCH   9  10
ENDBRANCH   8   9
ENDBRANCH   1   8
TORSDOF 8
ENDMDL
MODEL 5
REMARK VINA RESULT:    -4.435      1.480      5.615
REMARK INTER + INTRA:          -7.156
REMARK INTER:                  -6.534
REMARK INTRA:                  -0.622
REMARK UNBOUND:                -0.647
REMARK SMILES O=C([O-])CCCCCCCC(=O)[O-]
REMARK SMILES IDX 7 1 6 2 5 3 4 4 2 5 1 6 3 7 8 8 9 9 10 10 11 11 12 12 13 13
REMARK H PARENT
REMARK Flexibility Score: inf
ROOT
ATOM      1  C   UNL     1      51.300  57.658  92.626  1.00  0.00     0.000 C 
ENDROOT
BRANCH   1   2
ATOM      2  C   UNL     1      49.971  58.068  93.286  1.00  0.00     0.000 C 
BRANCH   2   3
ATOM      3  C   UNL     1      50.101  58.668  94.700  1.00  0.00     0.006 C 
BRANCH   3   4
ATOM      4  C   UNL     1      49.467  60.058  94.865  1.00  0.00     0.053 C 
BRANCH   4   5
ATOM      5  C   UNL     1      49.798  60.965  93.720  1.00  0.00     0.041 C 
ATOM      6  O   UNL     1      48.887  61.369  92.950  1.00  0.00    -0.550 OA
ATOM      7  O   UNL     1      51.105  61.391  93.524  1.00  0.00    -0.550 OA
ENDBRANCH   4   5
ENDBRANCH   3   4
ENDBRANCH   2   3
ENDBRANCH   1   2
BRANCH   1   8
ATOM      8  C   UNL     1      52.528  58.240  93.343  1.00  0.00     0.000 C 
BRANCH   8   9
ATOM      9  C   UNL     1      53.481  57.125  93.790  1.00  0.00     0.006 C 
BRANCH   9  10
ATOM     10  C   UNL     1      52.719  56.002  94.501  1.00  0.00     0.053 C 
BRANCH  10  11
ATOM     11  C   UNL     1      53.073  54.675  93.911  1.00  0.00     0.041 C 
ATOM     12  O   UNL     1      52.463  54.248  92.895  1.00  0.00    -0.550 OA
ATOM     13  O   UNL     1      54.111  53.928  94.454  1.00  0.00    -0.550 OA
ENDBRANCH  10  11
ENDBRANCH   9  10
ENDBRANCH   8   9
ENDBRANCH   1   8
TORSDOF 8
ENDMDL
MODEL 6
REMARK VINA RESULT:    -4.426      2.053      5.457
REMARK INTER + INTRA:          -7.143
REMARK INTER:                  -6.491
REMARK INTRA:                  -0.652
REMARK UNBOUND:                -0.647
REMARK SMILES O=C([O-])CCCCCCCC(=O)[O-]
REMARK SMILES IDX 7 1 6 2 5 3 4 4 2 5 1 6 3 7 8 8 9 9 10 10 11 11 12 12 13 13
REMARK H PARENT
REMARK Flexibility Score: inf
ROOT
ATOM      1  C   UNL     1      53.107  58.376  92.292  1.00  0.00     0.000 C 
ENDROOT
BRANCH   1   2
ATOM      2  C   UNL     1      52.752  59.857  92.070  1.00  0.00     0.000 C 
BRANCH   2   3
ATOM      3  C   UNL     1      51.974  60.523  93.223  1.00  0.00     0.006 C 
BRANCH   3   4
ATOM      4  C   UNL     1      50.461  60.253  93.210  1.00  0.00     0.053 C 
BRANCH   4   5
ATOM      5  C   UNL     1      49.905  60.105  94.593  1.00  0.00     0.041 C 
ATOM      6  O   UNL     1      49.538  61.121  95.239  1.00  0.00    -0.550 OA
ATOM      7  O   UNL     1      49.762  58.842  95.155  1.00  0.00    -0.550 OA
ENDBRANCH   4   5
ENDBRANCH   3   4
ENDBRANCH   2   3
ENDBRANCH   1   2
BRANCH   1   8
ATOM      8  C   UNL     1      53.381  58.040  93.766  1.00  0.00     0.000 C 
BRANCH   8   9
ATOM      9  C   UNL     1      52.531  56.849  94.225  1.00  0.00     0.006 C 
BRANCH   9  10
ATOM     10  C   UNL     1      51.922  56.115  93.027  1.00  0.00     0.053 C 
BRANCH  10  11
ATOM     11  C   UNL     1      52.364  54.686  93.010  1.00  0.00     0.041 C 
ATOM     12  O   UNL     1      51.846  53.871  92.201  1.00  0.00    -0.550 OA
ATOM     13  O   UNL     1      53.382  54.262  93.855  1.00  0.00    -0.550 OA
ENDBRANCH  10  11
ENDBRANCH   9  10
ENDBRANCH   8   9
ENDBRANCH   1   8
TORSDOF 8
ENDMDL
MODEL 7
REMARK VINA RESULT:    -4.405      1.511      2.242
REMARK INTER + INTRA:          -7.113
REMARK INTER:                  -6.458
REMARK INTRA:                  -0.655
REMARK UNBOUND:                -0.647
REMARK SMILES O=C([O-])CCCCCCCC(=O)[O-]
REMARK SMILES IDX 7 1 6 2 5 3 4 4 2 5 1 6 3 7 8 8 9 9 10 10 11 11 12 12 13 13
REMARK H PARENT
REMARK Flexibility Score: inf
ROOT
ATOM      1  C   UNL     1      51.105  57.613  92.629  1.00  0.00     0.000 C 
ENDROOT
BRANCH   1   2
ATOM      2  C   UNL     1      52.397  58.216  93.211  1.00  0.00     0.000 C 
BRANCH   2   3
ATOM      3  C   UNL     1      53.403  57.189  93.769  1.00  0.00     0.006 C 
BRANCH   3   4
ATOM      4  C   UNL     1      52.764  56.017  94.529  1.00  0.00     0.053 C 
BRANCH   4   5
ATOM      5  C   UNL     1      53.089  54.696  93.901  1.00  0.00     0.041 C 
ATOM      6  O   UNL     1      52.444  54.299  92.895  1.00  0.00    -0.550 OA
ATOM      7  O   UNL     1      54.125  53.922  94.405  1.00  0.00    -0.550 OA
ENDBRANCH   4   5
ENDBRANCH   3   4
ENDBRANCH   2   3
ENDBRANCH   1   2
BRANCH   1   8
ATOM      8  C   UNL     1      49.848  58.023  93.412  1.00  0.00     0.000 C 
BRANCH   8   9
ATOM      9  C   UNL     1      50.222  58.761  94.703  1.00  0.00     0.006 C 
BRANCH   9  10
ATOM     10  C   UNL     1      49.439  60.071  94.833  1.00  0.00     0.053 C 
BRANCH  10  11
ATOM     11  C   UNL     1      49.788  61.002  93.716  1.00  0.00     0.041 C 
ATOM     12  O   UNL     1      50.974  61.405  93.573  1.00  0.00    -0.550 OA
ATOM     13  O   UNL     1      48.816  61.388  92.802  1.00  0.00    -0.550 OA
ENDBRANCH  10  11
ENDBRANCH   9  10
ENDBRANCH   8   9
ENDBRANCH   1   8
TORSDOF 8
ENDMDL
MODEL 8
REMARK VINA RESULT:    -4.377      2.300      2.849
REMARK INTER + INTRA:          -7.071
REMARK INTER:                  -6.587
REMARK INTRA:                  -0.484
REMARK UNBOUND:                -0.647
REMARK SMILES O=C([O-])CCCCCCCC(=O)[O-]
REMARK SMILES IDX 7 1 6 2 5 3 4 4 2 5 1 6 3 7 8 8 9 9 10 10 11 11 12 12 13 13
REMARK H PARENT
REMARK Flexibility Score: inf
ROOT
ATOM      1  C   UNL     1      53.389  57.837  94.073  1.00  0.00     0.000 C 
ENDROOT
BRANCH   1   2
ATOM      2  C   UNL     1      52.282  57.163  94.904  1.00  0.00     0.000 C 
BRANCH   2   3
ATOM      3  C   UNL     1      52.386  55.629  95.010  1.00  0.00     0.006 C 
BRANCH   3   4
ATOM      4  C   UNL     1      53.012  54.945  93.784  1.00  0.00     0.053 C 
BRANCH   4   5
ATOM      5  C   UNL     1      52.016  54.743  92.684  1.00  0.00     0.041 C 
ATOM      6  O   UNL     1      51.387  53.656  92.593  1.00  0.00    -0.550 OA
ATOM      7  O   UNL     1      51.758  55.766  91.781  1.00  0.00    -0.550 OA
ENDBRANCH   4   5
ENDBRANCH   3   4
ENDBRANCH   2   3
ENDBRANCH   1   2
BRANCH   1   8
ATOM      8  C   UNL     1      52.840  58.825  93.033  1.00  0.00     0.000 C 
BRANCH   8   9
ATOM      9  C   UNL     1      51.389  59.205  93.351  1.00  0.00     0.006 C 
BRANCH   9  10
ATOM     10  C   UNL     1      51.181  60.719  93.239  1.00  0.00     0.053 C 
BRANCH  10  11
ATOM     11  C   UNL     1      49.837  61.103  93.772  1.00  0.00     0.041 C 
ATOM     12  O   UNL     1      48.888  61.351  92.982  1.00  0.00    -0.550 OA
ATOM     13  O   UNL     1      49.618  61.140  95.143  1.00  0.00    -0.550 OA
ENDBRANCH  10  11
ENDBRANCH   9  10
ENDBRANCH   8   9
ENDBRANCH   1   8
TORSDOF 8
ENDMDL
MODEL 9
REMARK VINA RESULT:    -4.350      8.688      9.669
REMARK INTER + INTRA:          -7.032
REMARK INTER:                  -6.670
REMARK INTRA:                  -0.361
REMARK UNBOUND:                -0.647
REMARK SMILES O=C([O-])CCCCCCCC(=O)[O-]
REMARK SMILES IDX 7 1 6 2 5 3 4 4 2 5 1 6 3 7 8 8 9 9 10 10 11 11 12 12 13 13
REMARK H PARENT
REMARK Flexibility Score: inf
ROOT
ATOM      1  C   UNL     1      48.367  66.999  94.404  1.00  0.00     0.000 C 
ENDROOT
BRANCH   1   2
ATOM      2  C   UNL     1      48.931  66.519  93.054  1.00  0.00     0.000 C 
BRANCH   2   3
ATOM      3  C   UNL     1      47.993  65.602  92.244  1.00  0.00     0.006 C 
BRANCH   3   4
ATOM      4  C   UNL     1      46.759  66.307  91.659  1.00  0.00     0.053 C 
BRANCH   4   5
ATOM      5  C   UNL     1      45.483  65.777  92.237  1.00  0.00     0.041 C 
ATOM      6  O   UNL     1      44.832  64.890  91.625  1.00  0.00    -0.550 OA
ATOM      7  O   UNL     1      45.031  66.238  93.467  1.00  0.00    -0.550 OA
ENDBRANCH   4   5
ENDBRANCH   3   4
ENDBRANCH   2   3
ENDBRANCH   1   2
BRANCH   1   8
ATOM      8  C   UNL     1      49.414  67.719  95.267  1.00  0.00     0.000 C 
BRANCH   8   9
ATOM      9  C   UNL     1      50.681  68.018  94.457  1.00  0.00     0.006 C 
BRANCH   9  10
ATOM     10  C   UNL     1      51.913  68.080  95.366  1.00  0.00     0.053 C 
BRANCH  10  11
ATOM     11  C   UNL     1      53.142  67.692  94.609  1.00  0.00     0.041 C 
ATOM     12  O   UNL     1      53.045  67.106  93.498  1.00  0.00    -0.550 OA
ATOM     13  O   UNL     1      54.397  68.020  95.106  1.00  0.00    -0.550 OA
ENDBRANCH  10  11
ENDBRANCH   9  10
ENDBRANCH   8   9
ENDBRANCH   1   8
TORSDOF 8
ENDMDL
