MODEL 1
REMARK VINA RESULT:    -5.461      0.000      0.000
REMARK INTER + INTRA:         -14.562
REMARK INTER:                 -11.845
REMARK INTRA:                  -2.716
REMARK UNBOUND:                -2.716
REMARK SMILES CCCCCCCCCCCCCCCCCCCCCC(=O)[O-]
REMARK SMILES IDX 12 1 11 2 10 3 9 4 8 5 7 6 6 7 5 8 4 9 3 10 2 11 1 12 13 13
REMARK SMILES IDX 14 14 15 15 16 16 17 17 18 18 19 19 20 20 21 21 22 22 23 23
REMARK SMILES IDX 24 24
REMARK H PARENT
REMARK Flexibility Score: inf
ROOT
ATOM      1  C   UNL     1      49.864  52.469  23.972  1.00  0.00     0.000 C 
ENDROOT
BRANCH   1   2
ATOM      2  C   UNL     1      49.444  53.493  25.043  1.00  0.00     0.000 C 
BRANCH   2   3
ATOM      3  C   UNL     1      48.530  52.943  26.154  1.00  0.00     0.000 C 
BRANCH   3   4
ATOM      4  C   UNL     1      47.102  53.506  26.089  1.00  0.00    -0.000 C 
BRANCH   4   5
ATOM      5  C   UNL     1      46.106  52.434  25.632  1.00  0.00    -0.000 C 
BRANCH   5   6
ATOM      6  C   UNL     1      46.008  52.393  24.100  1.00  0.00    -0.000 C 
BRANCH   6   7
ATOM      7  C   UNL     1      46.480  51.054  23.511  1.00  0.00    -0.000 C 
BRANCH   7   8
ATOM      8  C   UNL     1      47.026  50.096  24.584  1.00  0.00    -0.000 C 
BRANCH   8   9
ATOM      9  C   UNL     1      48.297  49.362  24.127  1.00  0.00    -0.000 C 
BRANCH   9  10
ATOM     10  C   UNL     1      48.289  47.872  24.512  1.00  0.00    -0.000 C 
BRANCH  10  11
ATOM     11  C   UNL     1      49.705  47.290  24.644  1.00  0.00    -0.003 C 
ATOM     12  C   UNL     1      50.684  47.886  23.633  1.00  0.00     0.004 C 
ENDBRANCH  10  11
ENDBRANCH   9  10
ENDBRANCH   8   9
ENDBRANCH   7   8
ENDBRANCH   6   7
ENDBRANCH   5   6
ENDBRANCH   4   5
ENDBRANCH   3   4
ENDBRANCH   2   3
ENDBRANCH   1   2
BRANCH   1  13
ATOM     13  C   UNL     1      49.360  52.834  22.566  1.00  0.00     0.000 C 
BRANCH  13  14
ATOM     14  C   UNL     1      49.602  51.715  21.539  1.00  0.00     0.000 C 
BRANCH  14  15
ATOM     15  C   UNL     1      50.955  51.007  21.735  1.00  0.00     0.000 C 
BRANCH  15  16
ATOM     16  C   UNL     1      51.987  51.417  20.670  1.00  0.00     0.000 C 
BRANCH  16  17
ATOM     17  C   UNL     1      53.200  52.141  21.279  1.00  0.00     0.000 C 
BRANCH  17  18
ATOM     18  C   UNL     1      53.089  52.307  22.804  1.00  0.00     0.000 C 
BRANCH  18  19
ATOM     19  C   UNL     1      53.835  53.548  23.324  1.00  0.00     0.000 C 
BRANCH  19  20
ATOM     20  C   UNL     1      52.994  54.830  23.204  1.00  0.00     0.006 C 
BRANCH  20  21
ATOM     21  C   UNL     1      52.110  54.838  21.950  1.00  0.00     0.053 C 
BRANCH  21  22
ATOM     22  C   UNL     1      52.502  55.962  21.044  1.00  0.00     0.041 C 
ATOM     23  O   UNL     1      52.319  55.868  19.801  1.00  0.00    -0.550 OA
ATOM     24  O   UNL     1      53.015  57.138  21.576  1.00  0.00    -0.550 OA
ENDBRANCH  21  22
ENDBRANCH  20  21
ENDBRANCH  19  20
ENDBRANCH  18  19
ENDBRANCH  17  18
ENDBRANCH  16  17
ENDBRANCH  15  16
ENDBRANCH  14  15
ENDBRANCH  13  14
ENDBRANCH   1  13
TORSDOF 20
ENDMDL
MODEL 2
REMARK VINA RESULT:    -5.357      3.130      6.855
REMARK INTER + INTRA:         -14.337
REMARK INTER:                 -11.380
REMARK INTRA:                  -2.957
REMARK UNBOUND:                -2.716
REMARK SMILES CCCCCCCCCCCCCCCCCCCCCC(=O)[O-]
REMARK SMILES IDX 12 1 11 2 10 3 9 4 8 5 7 6 6 7 5 8 4 9 3 10 2 11 1 12 13 13
REMARK SMILES IDX 14 14 15 15 16 16 17 17 18 18 19 19 20 20 21 21 22 22 23 23
REMARK SMILES IDX 24 24
REMARK H PARENT
REMARK Flexibility Score: inf
ROOT
ATOM      1  C   UNL     1      48.718  52.851  26.239  1.00  0.00     0.000 C 
ENDROOT
BRANCH   1   2
ATOM      2  C   UNL     1      49.281  53.655  25.052  1.00  0.00     0.000 C 
BRANCH   2   3
ATOM      3  C   UNL     1      50.734  53.323  24.666  1.00  0.00     0.000 C 
BRANCH   3   4
ATOM      4  C   UNL     1      51.593  54.575  24.431  1.00  0.00    -0.000 C 
BRANCH   4   5
ATOM      5  C   UNL     1      53.087  54.251  24.556  1.00  0.00    -0.000 C 
BRANCH   5   6
ATOM      6  C   UNL     1      53.388  52.836  24.042  1.00  0.00    -0.000 C 
BRANCH   6   7
ATOM      7  C   UNL     1      53.897  52.828  22.592  1.00  0.00    -0.000 C 
BRANCH   7   8
ATOM      8  C   UNL     1      52.892  52.191  21.615  1.00  0.00    -0.000 C 
BRANCH   8   9
ATOM      9  C   UNL     1      52.403  53.181  20.545  1.00  0.00    -0.000 C 
BRANCH   9  10
ATOM     10  C   UNL     1      51.728  54.422  21.155  1.00  0.00    -0.000 C 
BRANCH  10  11
ATOM     11  C   UNL     1      52.188  55.729  20.490  1.00  0.00    -0.003 C 
ATOM     12  C   UNL     1      53.024  56.603  21.424  1.00  0.00     0.004 C 
ENDBRANCH  10  11
ENDBRANCH   9  10
ENDBRANCH   8   9
ENDBRANCH   7   8
ENDBRANCH   6   7
ENDBRANCH   5   6
ENDBRANCH   4   5
ENDBRANCH   3   4
ENDBRANCH   2   3
ENDBRANCH   1   2
BRANCH   1  13
ATOM     13  C   UNL     1      47.324  53.331  26.678  1.00  0.00     0.000 C 
BRANCH  13  14
ATOM     14  C   UNL     1      46.263  53.155  25.578  1.00  0.00     0.000 C 
BRANCH  14  15
ATOM     15  C   UNL     1      45.977  51.678  25.255  1.00  0.00     0.000 C 
BRANCH  15  16
ATOM     16  C   UNL     1      46.130  51.368  23.756  1.00  0.00     0.000 C 
BRANCH  16  17
ATOM     17  C   UNL     1      47.505  50.763  23.420  1.00  0.00     0.000 C 
BRANCH  17  18
ATOM     18  C   UNL     1      48.331  51.653  22.478  1.00  0.00     0.000 C 
BRANCH  18  19
ATOM     19  C   UNL     1      49.593  50.949  21.948  1.00  0.00     0.000 C 
BRANCH  19  20
ATOM     20  C   UNL     1      49.532  49.423  22.131  1.00  0.00     0.006 C 
BRANCH  20  21
ATOM     21  C   UNL     1      50.847  48.841  22.665  1.00  0.00     0.053 C 
BRANCH  21  22
ATOM     22  C   UNL     1      50.575  47.842  23.744  1.00  0.00     0.041 C 
ATOM     23  O   UNL     1      51.511  47.138  24.206  1.00  0.00    -0.550 OA
ATOM     24  O   UNL     1      49.299  47.730  24.283  1.00  0.00    -0.550 OA
ENDBRANCH  21  22
ENDBRANCH  20  21
ENDBRANCH  19  20
ENDBRANCH  18  19
ENDBRANCH  17  18
ENDBRANCH  16  17
ENDBRANCH  15  16
ENDBRANCH  14  15
ENDBRANCH  13  14
ENDBRANCH   1  13
TORSDOF 20
ENDMDL
MODEL 3
REMARK VINA RESULT:    -5.079      2.935      7.041
REMARK INTER + INTRA:         -13.734
REMARK INTER:                  -9.908
REMARK INTRA:                  -3.826
REMARK UNBOUND:                -2.716
REMARK SMILES CCCCCCCCCCCCCCCCCCCCCC(=O)[O-]
REMARK SMILES IDX 12 1 11 2 10 3 9 4 8 5 7 6 6 7 5 8 4 9 3 10 2 11 1 12 13 13
REMARK SMILES IDX 14 14 15 15 16 16 17 17 18 18 19 19 20 20 21 21 22 22 23 23
REMARK SMILES IDX 24 24
REMARK H PARENT
REMARK Flexibility Score: inf
ROOT
ATOM      1  C   UNL     1      49.343  53.448  24.630  1.00  0.00     0.000 C 
ENDROOT
BRANCH   1   2
ATOM      2  C   UNL     1      49.808  52.291  23.725  1.00  0.00     0.000 C 
BRANCH   2   3
ATOM      3  C   UNL     1      49.369  52.394  22.253  1.00  0.00     0.000 C 
BRANCH   3   4
ATOM      4  C   UNL     1      50.121  51.421  21.332  1.00  0.00    -0.000 C 
BRANCH   4   5
ATOM      5  C   UNL     1      51.514  51.102  21.886  1.00  0.00    -0.000 C 
BRANCH   5   6
ATOM      6  C   UNL     1      52.603  51.834  21.090  1.00  0.00    -0.000 C 
BRANCH   6   7
ATOM      7  C   UNL     1      52.031  52.913  20.157  1.00  0.00    -0.000 C 
BRANCH   7   8
ATOM      8  C   UNL     1      52.507  54.329  20.528  1.00  0.00    -0.000 C 
BRANCH   8   9
ATOM      9  C   UNL     1      52.019  54.768  21.918  1.00  0.00    -0.000 C 
BRANCH   9  10
ATOM     10  C   UNL     1      53.165  54.875  22.939  1.00  0.00    -0.000 C 
BRANCH  10  11
ATOM     11  C   UNL     1      52.850  54.151  24.257  1.00  0.00    -0.003 C 
ATOM     12  C   UNL     1      53.674  52.878  24.441  1.00  0.00     0.004 C 
ENDBRANCH  10  11
ENDBRANCH   9  10
ENDBRANCH   8   9
ENDBRANCH   7   8
ENDBRANCH   6   7
ENDBRANCH   5   6
ENDBRANCH   4   5
ENDBRANCH   3   4
ENDBRANCH   2   3
ENDBRANCH   1   2
BRANCH   1  13
ATOM     13  C   UNL     1      49.317  53.067  26.120  1.00  0.00     0.000 C 
BRANCH  13  14
ATOM     14  C   UNL     1      47.928  53.250  26.755  1.00  0.00     0.000 C 
BRANCH  14  15
ATOM     15  C   UNL     1      46.898  53.841  25.777  1.00  0.00     0.000 C 
BRANCH  15  16
ATOM     16  C   UNL     1      45.875  52.794  25.302  1.00  0.00     0.000 C 
BRANCH  16  17
ATOM     17  C   UNL     1      45.995  52.500  23.796  1.00  0.00     0.000 C 
BRANCH  17  18
ATOM     18  C   UNL     1      46.277  51.017  23.501  1.00  0.00     0.000 C 
BRANCH  18  19
ATOM     19  C   UNL     1      46.618  50.212  24.767  1.00  0.00     0.000 C 
BRANCH  19  20
ATOM     20  C   UNL     1      48.102  49.812  24.823  1.00  0.00     0.006 C 
BRANCH  20  21
ATOM     21  C   UNL     1      48.499  48.862  23.685  1.00  0.00     0.053 C 
BRANCH  21  22
ATOM     22  C   UNL     1      49.620  47.971  24.117  1.00  0.00     0.041 C 
ATOM     23  O   UNL     1      50.799  48.209  23.744  1.00  0.00    -0.550 OA
ATOM     24  O   UNL     1      49.373  46.912  24.981  1.00  0.00    -0.550 OA
ENDBRANCH  21  22
ENDBRANCH  20  21
ENDBRANCH  19  20
ENDBRANCH  18  19
ENDBRANCH  17  18
ENDBRANCH  16  17
ENDBRANCH  15  16
ENDBRANCH  14  15
ENDBRANCH  13  14
ENDBRANCH   1  13
TORSDOF 20
ENDMDL
MODEL 4
REMARK VINA RESULT:    -5.062      1.125      2.625
REMARK INTER + INTRA:         -13.696
REMARK INTER:                 -10.613
REMARK INTRA:                  -3.083
REMARK UNBOUND:                -2.716
REMARK SMILES CCCCCCCCCCCCCCCCCCCCCC(=O)[O-]
REMARK SMILES IDX 12 1 11 2 10 3 9 4 8 5 7 6 6 7 5 8 4 9 3 10 2 11 1 12 13 13
REMARK SMILES IDX 14 14 15 15 16 16 17 17 18 18 19 19 20 20 21 21 22 22 23 23
REMARK SMILES IDX 24 24
REMARK H PARENT
REMARK Flexibility Score: inf
ROOT
ATOM      1  C   UNL     1      48.712  53.268  26.738  1.00  0.00     0.000 C 
ENDROOT
BRANCH   1   2
ATOM      2  C   UNL     1      47.221  52.894  26.649  1.00  0.00     0.000 C 
BRANCH   2   3
ATOM      3  C   UNL     1      46.488  53.410  25.397  1.00  0.00     0.000 C 
BRANCH   3   4
ATOM      4  C   UNL     1      45.913  52.281  24.529  1.00  0.00    -0.000 C 
BRANCH   4   5
ATOM      5  C   UNL     1      46.440  50.914  24.980  1.00  0.00    -0.000 C 
BRANCH   5   6
ATOM      6  C   UNL     1      47.388  50.317  23.930  1.00  0.00    -0.000 C 
BRANCH   6   7
ATOM      7  C   UNL     1      47.693  51.293  22.783  1.00  0.00    -0.000 C 
BRANCH   7   8
ATOM      8  C   UNL     1      49.107  51.105  22.206  1.00  0.00    -0.000 C 
BRANCH   8   9
ATOM      9  C   UNL     1      50.026  50.312  23.149  1.00  0.00    -0.000 C 
BRANCH   9  10
ATOM     10  C   UNL     1      50.464  48.964  22.549  1.00  0.00    -0.000 C 
BRANCH  10  11
ATOM     11  C   UNL     1      50.825  47.929  23.626  1.00  0.00    -0.003 C 
ATOM     12  C   UNL     1      49.613  47.481  24.442  1.00  0.00     0.004 C 
ENDBRANCH  10  11
ENDBRANCH   9  10
ENDBRANCH   8   9
ENDBRANCH   7   8
ENDBRANCH   6   7
ENDBRANCH   5   6
ENDBRANCH   4   5
ENDBRANCH   3   4
ENDBRANCH   2   3
ENDBRANCH   1   2
BRANCH   1  13
ATOM     13  C   UNL     1      49.516  52.817  25.507  1.00  0.00     0.000 C 
BRANCH  13  14
ATOM     14  C   UNL     1      50.059  54.000  24.686  1.00  0.00     0.000 C 
BRANCH  14  15
ATOM     15  C   UNL     1      51.587  54.149  24.793  1.00  0.00     0.000 C 
BRANCH  15  16
ATOM     16  C   UNL     1      52.324  52.830  24.501  1.00  0.00     0.000 C 
BRANCH  16  17
ATOM     17  C   UNL     1      53.787  53.058  24.081  1.00  0.00     0.000 C 
BRANCH  17  18
ATOM     18  C   UNL     1      54.029  52.770  22.590  1.00  0.00     0.000 C 
BRANCH  18  19
ATOM     19  C   UNL     1      52.777  52.230  21.877  1.00  0.00     0.000 C 
BRANCH  19  20
ATOM     20  C   UNL     1      52.260  53.191  20.794  1.00  0.00     0.006 C 
BRANCH  20  21
ATOM     21  C   UNL     1      51.682  54.485  21.381  1.00  0.00     0.053 C 
BRANCH  21  22
ATOM     22  C   UNL     1      52.321  55.678  20.745  1.00  0.00     0.041 C 
ATOM     23  O   UNL     1      52.804  56.595  21.460  1.00  0.00    -0.550 OA
ATOM     24  O   UNL     1      52.438  55.750  19.363  1.00  0.00    -0.550 OA
ENDBRANCH  21  22
ENDBRANCH  20  21
ENDBRANCH  19  20
ENDBRANCH  18  19
ENDBRANCH  17  18
ENDBRANCH  16  17
ENDBRANCH  15  16
ENDBRANCH  14  15
ENDBRANCH  13  14
ENDBRANCH   1  13
TORSDOF 20
ENDMDL
MODEL 5
REMARK VINA RESULT:    -5.034      0.958      3.929
REMARK INTER + INTRA:         -13.637
REMARK INTER:                 -10.550
REMARK INTRA:                  -3.086
REMARK UNBOUND:                -2.716
REMARK SMILES CCCCCCCCCCCCCCCCCCCCCC(=O)[O-]
REMARK SMILES IDX 12 1 11 2 10 3 9 4 8 5 7 6 6 7 5 8 4 9 3 10 2 11 1 12 13 13
REMARK SMILES IDX 14 14 15 15 16 16 17 17 18 18 19 19 20 20 21 21 22 22 23 23
REMARK SMILES IDX 24 24
REMARK H PARENT
REMARK Flexibility Score: inf
ROOT
ATOM      1  C   UNL     1      49.333  51.159  21.603  1.00  0.00     0.000 C 
ENDROOT
BRANCH   1   2
ATOM      2  C   UNL     1      50.681  50.463  21.873  1.00  0.00     0.000 C 
BRANCH   2   3
ATOM      3  C   UNL     1      50.583  48.985  22.291  1.00  0.00     0.000 C 
BRANCH   3   4
ATOM      4  C   UNL     1      50.322  48.801  23.793  1.00  0.00    -0.000 C 
BRANCH   4   5
ATOM      5  C   UNL     1      49.334  47.657  24.047  1.00  0.00    -0.000 C 
BRANCH   5   6
ATOM      6  C   UNL     1      48.011  48.190  24.617  1.00  0.00    -0.000 C 
BRANCH   6   7
ATOM      7  C   UNL     1      47.858  49.709  24.439  1.00  0.00    -0.000 C 
BRANCH   7   8
ATOM      8  C   UNL     1      46.503  50.231  24.950  1.00  0.00    -0.000 C 
BRANCH   8   9
ATOM      9  C   UNL     1      45.958  51.387  24.096  1.00  0.00    -0.000 C 
BRANCH   9  10
ATOM     10  C   UNL     1      46.091  52.751  24.796  1.00  0.00    -0.000 C 
BRANCH  10  11
ATOM     11  C   UNL     1      46.338  52.617  26.306  1.00  0.00    -0.003 C 
ATOM     12  C   UNL     1      47.673  53.221  26.740  1.00  0.00     0.004 C 
ENDBRANCH  10  11
ENDBRANCH   9  10
ENDBRANCH   8   9
ENDBRANCH   7   8
ENDBRANCH   6   7
ENDBRANCH   5   6
ENDBRANCH   4   5
ENDBRANCH   3   4
ENDBRANCH   2   3
ENDBRANCH   1   2
BRANCH   1  13
ATOM     13  C   UNL     1      49.156  52.453  22.414  1.00  0.00     0.000 C 
BRANCH  13  14
ATOM     14  C   UNL     1      49.893  52.413  23.764  1.00  0.00     0.000 C 
BRANCH  14  15
ATOM     15  C   UNL     1      50.190  53.816  24.324  1.00  0.00     0.000 C 
BRANCH  15  16
ATOM     16  C   UNL     1      51.665  53.984  24.727  1.00  0.00     0.000 C 
BRANCH  16  17
ATOM     17  C   UNL     1      52.556  52.862  24.167  1.00  0.00     0.000 C 
BRANCH  17  18
ATOM     18  C   UNL     1      53.507  53.353  23.062  1.00  0.00     0.000 C 
BRANCH  18  19
ATOM     19  C   UNL     1      53.369  52.549  21.758  1.00  0.00     0.000 C 
BRANCH  19  20
ATOM     20  C   UNL     1      52.463  53.250  20.731  1.00  0.00     0.006 C 
BRANCH  20  21
ATOM     21  C   UNL     1      51.806  54.516  21.294  1.00  0.00     0.053 C 
BRANCH  21  22
ATOM     22  C   UNL     1      52.377  55.735  20.641  1.00  0.00     0.041 C 
ATOM     23  O   UNL     1      52.892  56.646  21.342  1.00  0.00    -0.550 OA
ATOM     24  O   UNL     1      52.394  55.838  19.257  1.00  0.00    -0.550 OA
ENDBRANCH  21  22
ENDBRANCH  20  21
ENDBRANCH  19  20
ENDBRANCH  18  19
ENDBRANCH  17  18
ENDBRANCH  16  17
ENDBRANCH  15  16
ENDBRANCH  14  15
ENDBRANCH  13  14
ENDBRANCH   1  13
TORSDOF 20
ENDMDL
MODEL 6
REMARK VINA RESULT:    -4.870      1.922      5.745
REMARK INTER + INTRA:         -13.281
REMARK INTER:                 -11.155
REMARK INTRA:                  -2.126
REMARK UNBOUND:                -2.716
REMARK SMILES CCCCCCCCCCCCCCCCCCCCCC(=O)[O-]
REMARK SMILES IDX 12 1 11 2 10 3 9 4 8 5 7 6 6 7 5 8 4 9 3 10 2 11 1 12 13 13
REMARK SMILES IDX 14 14 15 15 16 16 17 17 18 18 19 19 20 20 21 21 22 22 23 23
REMARK SMILES IDX 24 24
REMARK H PARENT
REMARK Flexibility Score: inf
ROOT
ATOM      1  C   UNL     1      46.550  49.401  25.433  1.00  0.00     0.000 C 
ENDROOT
BRANCH   1   2
ATOM      2  C   UNL     1      47.769  49.512  24.498  1.00  0.00     0.000 C 
BRANCH   2   3
ATOM      3  C   UNL     1      48.503  48.188  24.218  1.00  0.00     0.000 C 
BRANCH   3   4
ATOM      4  C   UNL     1      49.950  48.392  23.743  1.00  0.00    -0.000 C 
BRANCH   4   5
ATOM      5  C   UNL     1      50.160  49.812  23.205  1.00  0.00    -0.000 C 
BRANCH   5   6
ATOM      6  C   UNL     1      49.926  49.866  21.688  1.00  0.00    -0.000 C 
BRANCH   6   7
ATOM      7  C   UNL     1      50.599  51.079  21.027  1.00  0.00    -0.000 C 
BRANCH   7   8
ATOM      8  C   UNL     1      51.909  51.483  21.728  1.00  0.00    -0.000 C 
BRANCH   8   9
ATOM      9  C   UNL     1      52.861  52.251  20.797  1.00  0.00    -0.000 C 
BRANCH   9  10
ATOM     10  C   UNL     1      52.216  53.518  20.209  1.00  0.00    -0.000 C 
BRANCH  10  11
ATOM     11  C   UNL     1      52.221  54.696  21.196  1.00  0.00    -0.003 C 
ATOM     12  C   UNL     1      52.344  56.049  20.497  1.00  0.00     0.004 C 
ENDBRANCH  10  11
ENDBRANCH   9  10
ENDBRANCH   8   9
ENDBRANCH   7   8
ENDBRANCH   6   7
ENDBRANCH   5   6
ENDBRANCH   4   5
ENDBRANCH   3   4
ENDBRANCH   2   3
ENDBRANCH   1   2
BRANCH   1  13
ATOM     13  C   UNL     1      46.040  50.770  25.913  1.00  0.00     0.000 C 
BRANCH  13  14
ATOM     14  C   UNL     1      46.092  51.843  24.812  1.00  0.00     0.000 C 
BRANCH  14  15
ATOM     15  C   UNL     1      46.481  53.231  25.349  1.00  0.00     0.000 C 
BRANCH  15  16
ATOM     16  C   UNL     1      47.495  53.148  26.504  1.00  0.00     0.000 C 
BRANCH  16  17
ATOM     17  C   UNL     1      48.951  53.221  26.010  1.00  0.00     0.000 C 
BRANCH  17  18
ATOM     18  C   UNL     1      49.089  52.883  24.516  1.00  0.00     0.000 C 
BRANCH  18  19
ATOM     19  C   UNL     1      50.375  53.455  23.893  1.00  0.00     0.000 C 
BRANCH  19  20
ATOM     20  C   UNL     1      51.320  54.053  24.948  1.00  0.00     0.006 C 
BRANCH  20  21
ATOM     21  C   UNL     1      52.672  54.473  24.357  1.00  0.00     0.053 C 
BRANCH  21  22
ATOM     22  C   UNL     1      53.616  53.313  24.339  1.00  0.00     0.041 C 
ATOM     23  O   UNL     1      54.529  53.252  23.473  1.00  0.00    -0.550 OA
ATOM     24  O   UNL     1      53.526  52.328  25.314  1.00  0.00    -0.550 OA
ENDBRANCH  21  22
ENDBRANCH  20  21
ENDBRANCH  19  20
ENDBRANCH  18  19
ENDBRANCH  17  18
ENDBRANCH  16  17
ENDBRANCH  15  16
ENDBRANCH  14  15
ENDBRANCH  13  14
ENDBRANCH   1  13
TORSDOF 20
ENDMDL
MODEL 7
REMARK VINA RESULT:    -4.835      2.015      6.504
REMARK INTER + INTRA:         -13.205
REMARK INTER:                 -10.911
REMARK INTRA:                  -2.294
REMARK UNBOUND:                -2.716
REMARK SMILES CCCCCCCCCCCCCCCCCCCCCC(=O)[O-]
REMARK SMILES IDX 12 1 11 2 10 3 9 4 8 5 7 6 6 7 5 8 4 9 3 10 2 11 1 12 13 13
REMARK SMILES IDX 14 14 15 15 16 16 17 17 18 18 19 19 20 20 21 21 22 22 23 23
REMARK SMILES IDX 24 24
REMARK H PARENT
REMARK Flexibility Score: inf
ROOT
ATOM      1  C   UNL     1      48.271  52.891  26.347  1.00  0.00     0.000 C 
ENDROOT
BRANCH   1   2
ATOM      2  C   UNL     1      48.882  53.474  25.059  1.00  0.00     0.000 C 
BRANCH   2   3
ATOM      3  C   UNL     1      50.395  53.245  24.888  1.00  0.00     0.000 C 
BRANCH   3   4
ATOM      4  C   UNL     1      51.101  54.406  24.173  1.00  0.00    -0.000 C 
BRANCH   4   5
ATOM      5  C   UNL     1      52.581  54.480  24.566  1.00  0.00    -0.000 C 
BRANCH   5   6
ATOM      6  C   UNL     1      53.306  53.169  24.229  1.00  0.00    -0.000 C 
BRANCH   6   7
ATOM      7  C   UNL     1      53.955  53.192  22.836  1.00  0.00    -0.000 C 
BRANCH   7   8
ATOM      8  C   UNL     1      53.149  52.395  21.794  1.00  0.00    -0.000 C 
BRANCH   8   9
ATOM      9  C   UNL     1      52.704  53.262  20.605  1.00  0.00    -0.000 C 
BRANCH   9  10
ATOM     10  C   UNL     1      51.813  54.441  21.035  1.00  0.00    -0.000 C 
BRANCH  10  11
ATOM     11  C   UNL     1      52.259  55.774  20.415  1.00  0.00    -0.003 C 
ATOM     12  C   UNL     1      52.983  56.675  21.415  1.00  0.00     0.004 C 
ENDBRANCH  10  11
ENDBRANCH   9  10
ENDBRANCH   8   9
ENDBRANCH   7   8
ENDBRANCH   6   7
ENDBRANCH   5   6
ENDBRANCH   4   5
ENDBRANCH   3   4
ENDBRANCH   2   3
ENDBRANCH   1   2
BRANCH   1  13
ATOM     13  C   UNL     1      46.807  53.312  26.558  1.00  0.00     0.000 C 
BRANCH  13  14
ATOM     14  C   UNL     1      45.992  53.300  25.253  1.00  0.00     0.000 C 
BRANCH  14  15
ATOM     15  C   UNL     1      45.932  51.908  24.599  1.00  0.00     0.000 C 
BRANCH  15  16
ATOM     16  C   UNL     1      45.925  50.774  25.639  1.00  0.00     0.000 C 
BRANCH  16  17
ATOM     17  C   UNL     1      46.703  49.536  25.160  1.00  0.00     0.000 C 
BRANCH  17  18
ATOM     18  C   UNL     1      47.858  49.891  24.210  1.00  0.00     0.000 C 
BRANCH  18  19
ATOM     19  C   UNL     1      48.859  48.736  24.031  1.00  0.00     0.000 C 
BRANCH  19  20
ATOM     20  C   UNL     1      49.864  49.004  22.898  1.00  0.00     0.006 C 
BRANCH  20  21
ATOM     21  C   UNL     1      50.372  50.451  22.891  1.00  0.00     0.053 C 
BRANCH  21  22
ATOM     22  C   UNL     1      49.874  51.172  21.679  1.00  0.00     0.041 C 
ATOM     23  O   UNL     1      49.083  52.145  21.800  1.00  0.00    -0.550 OA
ATOM     24  O   UNL     1      50.329  50.808  20.418  1.00  0.00    -0.550 OA
ENDBRANCH  21  22
ENDBRANCH  20  21
ENDBRANCH  19  20
ENDBRANCH  18  19
ENDBRANCH  17  18
ENDBRANCH  16  17
ENDBRANCH  15  16
ENDBRANCH  14  15
ENDBRANCH  13  14
ENDBRANCH   1  13
TORSDOF 20
ENDMDL
MODEL 8
REMARK VINA RESULT:    -4.801      1.535      2.094
REMARK INTER + INTRA:         -13.132
REMARK INTER:                 -10.308
REMARK INTRA:                  -2.824
REMARK UNBOUND:                -2.716
REMARK SMILES CCCCCCCCCCCCCCCCCCCCCC(=O)[O-]
REMARK SMILES IDX 12 1 11 2 10 3 9 4 8 5 7 6 6 7 5 8 4 9 3 10 2 11 1 12 13 13
REMARK SMILES IDX 14 14 15 15 16 16 17 17 18 18 19 19 20 20 21 21 22 22 23 23
REMARK SMILES IDX 24 24
REMARK H PARENT
REMARK Flexibility Score: inf
ROOT
ATOM      1  C   UNL     1      49.303  53.627  24.912  1.00  0.00     0.000 C 
ENDROOT
BRANCH   1   2
ATOM      2  C   UNL     1      48.959  53.201  26.352  1.00  0.00     0.000 C 
BRANCH   2   3
ATOM      3  C   UNL     1      47.455  53.062  26.653  1.00  0.00     0.000 C 
BRANCH   3   4
ATOM      4  C   UNL     1      46.566  53.727  25.592  1.00  0.00    -0.000 C 
BRANCH   4   5
ATOM      5  C   UNL     1      45.876  52.678  24.713  1.00  0.00    -0.000 C 
BRANCH   5   6
ATOM      6  C   UNL     1      45.921  51.292  25.373  1.00  0.00    -0.000 C 
BRANCH   6   7
ATOM      7  C   UNL     1      46.491  50.210  24.443  1.00  0.00    -0.000 C 
BRANCH   7   8
ATOM      8  C   UNL     1      47.984  49.937  24.699  1.00  0.00    -0.000 C 
BRANCH   8   9
ATOM      9  C   UNL     1      48.528  48.786  23.837  1.00  0.00    -0.000 C 
BRANCH   9  10
ATOM     10  C   UNL     1      48.595  47.454  24.605  1.00  0.00    -0.000 C 
BRANCH  10  11
ATOM     11  C   UNL     1      50.029  46.917  24.730  1.00  0.00    -0.003 C 
ATOM     12  C   UNL     1      50.993  47.577  23.745  1.00  0.00     0.004 C 
ENDBRANCH  10  11
ENDBRANCH   9  10
ENDBRANCH   8   9
ENDBRANCH   7   8
ENDBRANCH   6   7
ENDBRANCH   5   6
ENDBRANCH   4   5
ENDBRANCH   3   4
ENDBRANCH   2   3
ENDBRANCH   1   2
BRANCH   1  13
ATOM     13  C   UNL     1      49.656  52.437  24.005  1.00  0.00     0.000 C 
BRANCH  13  14
ATOM     14  C   UNL     1      49.182  52.634  22.555  1.00  0.00     0.000 C 
BRANCH  14  15
ATOM     15  C   UNL     1      49.679  51.527  21.609  1.00  0.00     0.000 C 
BRANCH  15  16
ATOM     16  C   UNL     1      50.977  50.869  22.110  1.00  0.00     0.000 C 
BRANCH  16  17
ATOM     17  C   UNL     1      52.232  51.499  21.483  1.00  0.00     0.000 C 
BRANCH  17  18
ATOM     18  C   UNL     1      51.911  52.371  20.257  1.00  0.00     0.000 C 
BRANCH  18  19
ATOM     19  C   UNL     1      52.549  53.769  20.337  1.00  0.00     0.000 C 
BRANCH  19  20
ATOM     20  C   UNL     1      51.952  54.620  21.470  1.00  0.00     0.006 C 
BRANCH  20  21
ATOM     21  C   UNL     1      53.022  55.153  22.432  1.00  0.00     0.053 C 
BRANCH  21  22
ATOM     22  C   UNL     1      53.194  54.220  23.588  1.00  0.00     0.041 C 
ATOM     23  O   UNL     1      52.492  54.359  24.625  1.00  0.00    -0.550 OA
ATOM     24  O   UNL     1      54.088  53.160  23.500  1.00  0.00    -0.550 OA
ENDBRANCH  21  22
ENDBRANCH  20  21
ENDBRANCH  19  20
ENDBRANCH  18  19
ENDBRANCH  17  18
ENDBRANCH  16  17
ENDBRANCH  15  16
ENDBRANCH  14  15
ENDBRANCH  13  14
ENDBRANCH   1  13
TORSDOF 20
ENDMDL
MODEL 9
REMARK VINA RESULT:    -4.789      2.025      3.399
REMARK INTER + INTRA:         -13.105
REMARK INTER:                 -10.616
REMARK INTRA:                  -2.488
REMARK UNBOUND:                -2.716
REMARK SMILES CCCCCCCCCCCCCCCCCCCCCC(=O)[O-]
REMARK SMILES IDX 12 1 11 2 10 3 9 4 8 5 7 6 6 7 5 8 4 9 3 10 2 11 1 12 13 13
REMARK SMILES IDX 14 14 15 15 16 16 17 17 18 18 19 19 20 20 21 21 22 22 23 23
REMARK SMILES IDX 24 24
REMARK H PARENT
REMARK Flexibility Score: inf
ROOT
ATOM      1  C   UNL     1      50.254  53.954  24.870  1.00  0.00     0.000 C 
ENDROOT
BRANCH   1   2
ATOM      2  C   UNL     1      49.342  52.959  25.613  1.00  0.00     0.000 C 
BRANCH   2   3
ATOM      3  C   UNL     1      47.831  53.216  25.461  1.00  0.00     0.000 C 
BRANCH   3   4
ATOM      4  C   UNL     1      47.078  53.174  26.799  1.00  0.00    -0.000 C 
BRANCH   4   5
ATOM      5  C   UNL     1      45.875  52.226  26.727  1.00  0.00    -0.000 C 
BRANCH   5   6
ATOM      6  C   UNL     1      45.996  51.275  25.527  1.00  0.00    -0.000 C 
BRANCH   6   7
ATOM      7  C   UNL     1      46.234  49.816  25.949  1.00  0.00    -0.000 C 
BRANCH   7   8
ATOM      8  C   UNL     1      47.212  49.083  25.015  1.00  0.00    -0.000 C 
BRANCH   8   9
ATOM      9  C   UNL     1      47.368  47.597  25.376  1.00  0.00    -0.000 C 
BRANCH   9  10
ATOM     10  C   UNL     1      48.721  47.019  24.926  1.00  0.00    -0.000 C 
BRANCH  10  11
ATOM     11  C   UNL     1      49.508  47.989  24.031  1.00  0.00    -0.003 C 
ATOM     12  C   UNL     1      50.974  47.585  23.871  1.00  0.00     0.004 C 
ENDBRANCH  10  11
ENDBRANCH   9  10
ENDBRANCH   8   9
ENDBRANCH   7   8
ENDBRANCH   6   7
ENDBRANCH   5   6
ENDBRANCH   4   5
ENDBRANCH   3   4
ENDBRANCH   2   3
ENDBRANCH   1   2
BRANCH   1  13
ATOM     13  C   UNL     1      51.591  53.330  24.436  1.00  0.00     0.000 C 
BRANCH  13  14
ATOM     14  C   UNL     1      52.717  54.369  24.305  1.00  0.00     0.000 C 
BRANCH  14  15
ATOM     15  C   UNL     1      53.370  54.370  22.912  1.00  0.00     0.000 C 
BRANCH  15  16
ATOM     16  C   UNL     1      52.373  54.743  21.800  1.00  0.00     0.000 C 
BRANCH  16  17
ATOM     17  C   UNL     1      52.222  53.627  20.752  1.00  0.00     0.000 C 
BRANCH  17  18
ATOM     18  C   UNL     1      52.982  52.345  21.133  1.00  0.00     0.000 C 
BRANCH  18  19
ATOM     19  C   UNL     1      52.190  51.066  20.814  1.00  0.00     0.000 C 
BRANCH  19  20
ATOM     20  C   UNL     1      51.169  50.720  21.911  1.00  0.00     0.006 C 
BRANCH  20  21
ATOM     21  C   UNL     1      49.737  50.612  21.371  1.00  0.00     0.053 C 
BRANCH  21  22
ATOM     22  C   UNL     1      48.866  51.658  21.990  1.00  0.00     0.041 C 
ATOM     23  O   UNL     1      49.166  52.877  21.882  1.00  0.00    -0.550 OA
ATOM     24  O   UNL     1      47.693  51.293  22.637  1.00  0.00    -0.550 OA
ENDBRANCH  21  22
ENDBRANCH  20  21
ENDBRANCH  19  20
ENDBRANCH  18  19
ENDBRANCH  17  18
ENDBRANCH  16  17
ENDBRANCH  15  16
ENDBRANCH  14  15
ENDBRANCH  13  14
ENDBRANCH   1  13
TORSDOF 20
ENDMDL
