MODEL 1
REMARK VINA RESULT:    -3.066      0.000      0.000
REMARK INTER + INTRA:          -3.916
REMARK INTER:                  -3.693
REMARK INTRA:                  -0.223
REMARK UNBOUND:                -0.223
REMARK SMILES OCC(O)CO
REMARK SMILES IDX 3 1 5 2 6 3 2 5 1 6 4 8
REMARK H PARENT 6 4 1 7 4 9
REMARK Flexibility Score: inf
ROOT
ATOM      1  C   UNL     1      10.407  -2.287  31.424  1.00  0.00     0.165 C 
ENDROOT
BRANCH   1   2
ATOM      2  C   UNL     1      11.113  -3.545  30.888  1.00  0.00     0.190 C 
BRANCH   2   3
ATOM      3  O   UNL     1      10.513  -4.715  31.377  1.00  0.00    -0.394 OA
ATOM      4  H   UNL     1      10.608  -4.698  32.365  1.00  0.00     0.210 HD
ENDBRANCH   2   3
ENDBRANCH   1   2
BRANCH   1   5
ATOM      5  C   UNL     1       9.939  -2.459  32.881  1.00  0.00     0.190 C 
BRANCH   5   6
ATOM      6  O   UNL     1       8.679  -3.071  32.921  1.00  0.00    -0.394 OA
ATOM      7  H   UNL     1       8.012  -2.364  32.713  1.00  0.00     0.210 HD
ENDBRANCH   5   6
ENDBRANCH   1   5
BRANCH   1   8
ATOM      8  O   UNL     1      11.230  -1.155  31.287  1.00  0.00    -0.388 OA
ATOM      9  H   UNL     1      10.793  -0.540  30.641  1.00  0.00     0.211 HD
ENDBRANCH   1   8
TORSDOF 5
ENDMDL
MODEL 2
REMARK VINA RESULT:    -3.016      1.761      2.711
REMARK INTER + INTRA:          -3.856
REMARK INTER:                  -3.643
REMARK INTRA:                  -0.214
REMARK UNBOUND:                -0.223
REMARK SMILES OCC(O)CO
REMARK SMILES IDX 3 1 5 2 6 3 2 5 1 6 4 8
REMARK H PARENT 6 4 1 7 4 9
REMARK Flexibility Score: inf
ROOT
ATOM      1  C   UNL     1      11.193  -1.943  32.777  1.00  0.00     0.165 C 
ENDROOT
BRANCH   1   2
ATOM      2  C   UNL     1      11.320  -1.979  34.310  1.00  0.00     0.190 C 
BRANCH   2   3
ATOM      3  O   UNL     1      10.351  -1.170  34.922  1.00  0.00    -0.394 OA
ATOM      4  H   UNL     1      10.652  -1.015  35.856  1.00  0.00     0.210 HD
ENDBRANCH   2   3
ENDBRANCH   1   2
BRANCH   1   5
ATOM      5  C   UNL     1      10.072  -2.865  32.264  1.00  0.00     0.190 C 
BRANCH   5   6
ATOM      6  O   UNL     1       8.922  -2.720  33.053  1.00  0.00    -0.394 OA
ATOM      7  H   UNL     1       8.155  -3.019  32.496  1.00  0.00     0.210 HD
ENDBRANCH   5   6
ENDBRANCH   1   5
BRANCH   1   8
ATOM      8  O   UNL     1      11.014  -0.624  32.321  1.00  0.00    -0.388 OA
ATOM      9  H   UNL     1      11.546  -0.026  32.909  1.00  0.00     0.211 HD
ENDBRANCH   1   8
TORSDOF 5
ENDMDL
MODEL 3
REMARK VINA RESULT:    -2.992      1.686      2.932
REMARK INTER + INTRA:          -3.828
REMARK INTER:                  -3.609
REMARK INTRA:                  -0.219
REMARK UNBOUND:                -0.223
REMARK SMILES OCC(O)CO
REMARK SMILES IDX 3 1 5 2 6 3 2 5 1 6 4 8
REMARK H PARENT 6 4 1 7 4 9
REMARK Flexibility Score: inf
ROOT
ATOM      1  C   UNL     1      10.328  -2.610  33.040  1.00  0.00     0.165 C 
ENDROOT
BRANCH   1   2
ATOM      2  C   UNL     1      10.599  -1.697  31.832  1.00  0.00     0.190 C 
BRANCH   2   3
ATOM      3  O   UNL     1      11.397  -0.599  32.190  1.00  0.00    -0.394 OA
ATOM      4  H   UNL     1      12.342  -0.876  32.065  1.00  0.00     0.210 HD
ENDBRANCH   2   3
ENDBRANCH   1   2
BRANCH   1   5
ATOM      5  C   UNL     1      11.103  -2.163  34.294  1.00  0.00     0.190 C 
BRANCH   5   6
ATOM      6  O   UNL     1      10.395  -1.161  34.973  1.00  0.00    -0.394 OA
ATOM      7  H   UNL     1      11.071  -0.522  35.322  1.00  0.00     0.210 HD
ENDBRANCH   5   6
ENDBRANCH   1   5
BRANCH   1   8
ATOM      8  O   UNL     1       8.949  -2.698  33.302  1.00  0.00    -0.388 OA
ATOM      9  H   UNL     1       8.558  -1.795  33.167  1.00  0.00     0.211 HD
ENDBRANCH   1   8
TORSDOF 5
ENDMDL
MODEL 4
REMARK VINA RESULT:    -2.982      0.429      2.258
REMARK INTER + INTRA:          -3.815
REMARK INTER:                  -3.593
REMARK INTRA:                  -0.222
REMARK UNBOUND:                -0.223
REMARK SMILES OCC(O)CO
REMARK SMILES IDX 3 1 5 2 6 3 2 5 1 6 4 8
REMARK H PARENT 6 4 1 7 4 9
REMARK Flexibility Score: inf
ROOT
ATOM      1  C   UNL     1      10.959  -2.423  31.891  1.00  0.00     0.165 C 
ENDROOT
BRANCH   1   2
ATOM      2  C   UNL     1      10.020  -2.692  33.080  1.00  0.00     0.190 C 
BRANCH   2   3
ATOM      3  O   UNL     1       8.723  -3.004  32.646  1.00  0.00    -0.394 OA
ATOM      4  H   UNL     1       8.803  -3.779  32.030  1.00  0.00     0.210 HD
ENDBRANCH   2   3
ENDBRANCH   1   2
BRANCH   1   5
ATOM      5  C   UNL     1      10.906  -3.548  30.841  1.00  0.00     0.190 C 
BRANCH   5   6
ATOM      6  O   UNL     1      10.664  -4.783  31.460  1.00  0.00    -0.394 OA
ATOM      7  H   UNL     1      10.721  -5.474  30.748  1.00  0.00     0.210 HD
ENDBRANCH   5   6
ENDBRANCH   1   5
BRANCH   1   8
ATOM      8  O   UNL     1      10.682  -1.173  31.308  1.00  0.00    -0.388 OA
ATOM      9  H   UNL     1      10.895  -1.237  30.340  1.00  0.00     0.211 HD
ENDBRANCH   1   8
TORSDOF 5
ENDMDL
MODEL 5
REMARK VINA RESULT:    -2.969      1.724      2.805
REMARK INTER + INTRA:          -3.799
REMARK INTER:                  -3.576
REMARK INTRA:                  -0.223
REMARK UNBOUND:                -0.223
REMARK SMILES OCC(O)CO
REMARK SMILES IDX 3 1 5 2 6 3 2 5 1 6 4 8
REMARK H PARENT 6 4 1 7 4 9
REMARK Flexibility Score: inf
ROOT
ATOM      1  C   UNL     1      10.571  -2.028  33.800  1.00  0.00     0.165 C 
ENDROOT
BRANCH   1   2
ATOM      2  C   UNL     1       9.201  -2.460  33.250  1.00  0.00     0.190 C 
BRANCH   2   3
ATOM      3  O   UNL     1       9.328  -3.511  32.329  1.00  0.00    -0.394 OA
ATOM      4  H   UNL     1      10.117  -3.304  31.763  1.00  0.00     0.210 HD
ENDBRANCH   2   3
ENDBRANCH   1   2
BRANCH   1   5
ATOM      5  C   UNL     1      11.439  -1.343  32.728  1.00  0.00     0.190 C 
BRANCH   5   6
ATOM      6  O   UNL     1      10.666  -1.030  31.601  1.00  0.00    -0.394 OA
ATOM      7  H   UNL     1      11.299  -0.926  30.842  1.00  0.00     0.210 HD
ENDBRANCH   5   6
ENDBRANCH   1   5
BRANCH   1   8
ATOM      8  O   UNL     1      10.420  -1.205  34.930  1.00  0.00    -0.388 OA
ATOM      9  H   UNL     1      11.061  -1.518  35.621  1.00  0.00     0.211 HD
ENDBRANCH   1   8
TORSDOF 5
ENDMDL
MODEL 6
REMARK VINA RESULT:    -2.958     13.852     14.676
REMARK INTER + INTRA:          -3.786
REMARK INTER:                  -3.570
REMARK INTRA:                  -0.216
REMARK UNBOUND:                -0.223
REMARK SMILES OCC(O)CO
REMARK SMILES IDX 3 1 5 2 6 3 2 5 1 6 4 8
REMARK H PARENT 6 4 1 7 4 9
REMARK Flexibility Score: inf
ROOT
ATOM      1  C   UNL     1       5.068   7.616  22.266  1.00  0.00     0.165 C 
ENDROOT
BRANCH   1   2
ATOM      2  C   UNL     1       6.231   7.688  23.271  1.00  0.00     0.190 C 
BRANCH   2   3
ATOM      3  O   UNL     1       6.104   6.712  24.271  1.00  0.00    -0.394 OA
ATOM      4  H   UNL     1       6.859   6.845  24.902  1.00  0.00     0.210 HD
ENDBRANCH   2   3
ENDBRANCH   1   2
BRANCH   1   5
ATOM      5  C   UNL     1       3.988   6.607  22.697  1.00  0.00     0.190 C 
BRANCH   5   6
ATOM      6  O   UNL     1       3.161   7.167  23.681  1.00  0.00    -0.394 OA
ATOM      7  H   UNL     1       3.419   8.123  23.758  1.00  0.00     0.210 HD
ENDBRANCH   5   6
ENDBRANCH   1   5
BRANCH   1   8
ATOM      8  O   UNL     1       4.513   8.891  22.052  1.00  0.00    -0.388 OA
ATOM      9  H   UNL     1       4.534   9.380  22.917  1.00  0.00     0.211 HD
ENDBRANCH   1   8
TORSDOF 5
ENDMDL
MODEL 7
REMARK VINA RESULT:    -2.917     13.911     14.796
REMARK INTER + INTRA:          -3.737
REMARK INTER:                  -3.515
REMARK INTRA:                  -0.222
REMARK UNBOUND:                -0.223
REMARK SMILES OCC(O)CO
REMARK SMILES IDX 3 1 5 2 6 3 2 5 1 6 4 8
REMARK H PARENT 6 4 1 7 4 9
REMARK Flexibility Score: inf
ROOT
ATOM      1  C   UNL     1       5.049   8.010  22.422  1.00  0.00     0.165 C 
ENDROOT
BRANCH   1   2
ATOM      2  C   UNL     1       3.968   6.923  22.557  1.00  0.00     0.190 C 
BRANCH   2   3
ATOM      3  O   UNL     1       3.127   7.172  23.652  1.00  0.00    -0.394 OA
ATOM      4  H   UNL     1       3.702   7.518  24.384  1.00  0.00     0.210 HD
ENDBRANCH   2   3
ENDBRANCH   1   2
BRANCH   1   5
ATOM      5  C   UNL     1       6.278   7.721  23.302  1.00  0.00     0.190 C 
BRANCH   5   6
ATOM      6  O   UNL     1       6.015   6.654  24.173  1.00  0.00    -0.394 OA
ATOM      7  H   UNL     1       6.878   6.425  24.611  1.00  0.00     0.210 HD
ENDBRANCH   5   6
ENDBRANCH   1   5
BRANCH   1   8
ATOM      8  O   UNL     1       5.419   8.181  21.075  1.00  0.00    -0.388 OA
ATOM      9  H   UNL     1       5.482   9.157  20.901  1.00  0.00     0.211 HD
ENDBRANCH   1   8
TORSDOF 5
ENDMDL
MODEL 8
REMARK VINA RESULT:    -2.884      1.729      2.225
REMARK INTER + INTRA:          -3.697
REMARK INTER:                  -3.487
REMARK INTRA:                  -0.210
REMARK UNBOUND:                -0.223
REMARK SMILES OCC(O)CO
REMARK SMILES IDX 3 1 5 2 6 3 2 5 1 6 4 8
REMARK H PARENT 6 4 1 7 4 9
REMARK Flexibility Score: inf
ROOT
ATOM      1  C   UNL     1      10.802  -1.330  32.594  1.00  0.00     0.165 C 
ENDROOT
BRANCH   1   2
ATOM      2  C   UNL     1       9.938  -2.452  31.992  1.00  0.00     0.190 C 
BRANCH   2   3
ATOM      3  O   UNL     1       8.917  -2.839  32.873  1.00  0.00    -0.394 OA
ATOM      4  H   UNL     1       8.118  -2.295  32.646  1.00  0.00     0.210 HD
ENDBRANCH   2   3
ENDBRANCH   1   2
BRANCH   1   5
ATOM      5  C   UNL     1      11.300  -1.676  34.009  1.00  0.00     0.190 C 
BRANCH   5   6
ATOM      6  O   UNL     1      10.410  -1.184  34.974  1.00  0.00    -0.394 OA
ATOM      7  H   UNL     1      10.882  -1.231  35.847  1.00  0.00     0.210 HD
ENDBRANCH   5   6
ENDBRANCH   1   5
BRANCH   1   8
ATOM      8  O   UNL     1      11.876  -1.015  31.742  1.00  0.00    -0.388 OA
ATOM      9  H   UNL     1      12.611  -1.655  31.931  1.00  0.00     0.211 HD
ENDBRANCH   1   8
TORSDOF 5
ENDMDL
MODEL 9
REMARK VINA RESULT:    -2.865     13.570     14.560
REMARK INTER + INTRA:          -3.675
REMARK INTER:                  -3.453
REMARK INTRA:                  -0.222
REMARK UNBOUND:                -0.223
REMARK SMILES OCC(O)CO
REMARK SMILES IDX 3 1 5 2 6 3 2 5 1 6 4 8
REMARK H PARENT 6 4 1 7 4 9
REMARK Flexibility Score: inf
ROOT
ATOM      1  C   UNL     1       4.420   6.729  23.527  1.00  0.00     0.165 C 
ENDROOT
BRANCH   1   2
ATOM      2  C   UNL     1       5.601   7.448  24.203  1.00  0.00     0.190 C 
BRANCH   2   3
ATOM      3  O   UNL     1       6.752   7.405  23.401  1.00  0.00    -0.394 OA
ATOM      4  H   UNL     1       7.409   6.828  23.871  1.00  0.00     0.210 HD
ENDBRANCH   2   3
ENDBRANCH   1   2
BRANCH   1   5
ATOM      5  C   UNL     1       3.824   7.550  22.369  1.00  0.00     0.190 C 
BRANCH   5   6
ATOM      6  O   UNL     1       4.501   8.770  22.236  1.00  0.00    -0.394 OA
ATOM      7  H   UNL     1       4.340   9.086  21.308  1.00  0.00     0.210 HD
ENDBRANCH   5   6
ENDBRANCH   1   5
BRANCH   1   8
ATOM      8  O   UNL     1       4.798   5.444  23.095  1.00  0.00    -0.388 OA
ATOM      9  H   UNL     1       5.366   5.552  22.288  1.00  0.00     0.211 HD
ENDBRANCH   1   8
TORSDOF 5
ENDMDL
