MODEL 1
REMARK VINA RESULT:    -4.580      0.000      0.000
REMARK INTER + INTRA:          -4.868
REMARK INTER:                  -4.847
REMARK INTRA:                  -0.021
REMARK UNBOUND:                -0.021
REMARK SMILES O=C([O-])c1cccnc1
REMARK SMILES IDX 4 1 5 2 9 3 6 4 8 5 7 6 2 7 1 8 3 9
REMARK H PARENT
REMARK Flexibility Score: inf
ROOT
ATOM      1  C   UNL     1     -13.580  -3.756  30.353  1.00  0.00     0.016 A 
ATOM      2  C   UNL     1     -14.025  -4.015  29.046  1.00  0.00     0.013 A 
ATOM      3  C   UNL     1     -13.972  -4.633  31.379  1.00  0.00     0.120 A 
ATOM      4  C   UNL     1     -14.838  -5.120  28.789  1.00  0.00     0.021 A 
ATOM      5  N   UNL     1     -14.765  -5.702  31.102  1.00  0.00    -0.264 NA
ATOM      6  C   UNL     1     -15.202  -5.962  29.841  1.00  0.00     0.111 A 
ENDROOT
BRANCH   1   7
ATOM      7  C   UNL     1     -12.718  -2.590  30.646  1.00  0.00     0.073 C 
ATOM      8  O   UNL     1     -11.830  -2.658  31.537  1.00  0.00    -0.545 OA
ATOM      9  O   UNL     1     -12.875  -1.403  29.940  1.00  0.00    -0.545 OA
ENDBRANCH   1   7
TORSDOF 1
ENDMDL
MODEL 2
REMARK VINA RESULT:    -4.424      2.820      3.326
REMARK INTER + INTRA:          -4.703
REMARK INTER:                  -4.687
REMARK INTRA:                  -0.016
REMARK UNBOUND:                -0.021
REMARK SMILES O=C([O-])c1cccnc1
REMARK SMILES IDX 4 1 5 2 9 3 6 4 8 5 7 6 2 7 1 8 3 9
REMARK H PARENT
REMARK Flexibility Score: inf
ROOT
ATOM      1  C   UNL     1     -14.603  -5.412  30.816  1.00  0.00     0.016 A 
ATOM      2  C   UNL     1     -15.263  -6.053  29.754  1.00  0.00     0.013 A 
ATOM      3  C   UNL     1     -13.883  -4.237  30.542  1.00  0.00     0.120 A 
ATOM      4  C   UNL     1     -15.196  -5.523  28.465  1.00  0.00     0.021 A 
ATOM      5  N   UNL     1     -13.832  -3.742  29.277  1.00  0.00    -0.264 NA
ATOM      6  C   UNL     1     -14.468  -4.353  28.243  1.00  0.00     0.111 A 
ENDROOT
BRANCH   1   7
ATOM      7  C   UNL     1     -14.663  -5.958  32.189  1.00  0.00     0.073 C 
ATOM      8  O   UNL     1     -13.804  -6.789  32.586  1.00  0.00    -0.545 OA
ATOM      9  O   UNL     1     -15.668  -5.559  33.062  1.00  0.00    -0.545 OA
ENDBRANCH   1   7
TORSDOF 1
ENDMDL
MODEL 3
REMARK VINA RESULT:    -4.263      3.146      3.921
REMARK INTER + INTRA:          -4.533
REMARK INTER:                  -4.510
REMARK INTRA:                  -0.023
REMARK UNBOUND:                -0.021
REMARK SMILES O=C([O-])c1cccnc1
REMARK SMILES IDX 4 1 5 2 9 3 6 4 8 5 7 6 2 7 1 8 3 9
REMARK H PARENT
REMARK Flexibility Score: inf
ROOT
ATOM      1  C   UNL     1     -14.848  -5.565  30.669  1.00  0.00     0.016 A 
ATOM      2  C   UNL     1     -14.907  -5.248  29.302  1.00  0.00     0.013 A 
ATOM      3  C   UNL     1     -14.005  -4.803  31.495  1.00  0.00     0.120 A 
ATOM      4  C   UNL     1     -14.140  -4.199  28.791  1.00  0.00     0.021 A 
ATOM      5  N   UNL     1     -13.268  -3.787  30.973  1.00  0.00    -0.264 NA
ATOM      6  C   UNL     1     -13.317  -3.471  29.652  1.00  0.00     0.111 A 
ENDROOT
BRANCH   1   7
ATOM      7  C   UNL     1     -15.653  -6.672  31.229  1.00  0.00     0.073 C 
ATOM      8  O   UNL     1     -16.116  -7.571  30.478  1.00  0.00    -0.545 OA
ATOM      9  O   UNL     1     -15.910  -6.735  32.594  1.00  0.00    -0.545 OA
ENDBRANCH   1   7
TORSDOF 1
ENDMDL
MODEL 4
REMARK VINA RESULT:    -4.255      3.418      4.214
REMARK INTER + INTRA:          -4.525
REMARK INTER:                  -4.501
REMARK INTRA:                  -0.024
REMARK UNBOUND:                -0.021
REMARK SMILES O=C([O-])c1cccnc1
REMARK SMILES IDX 4 1 5 2 9 3 6 4 8 5 7 6 2 7 1 8 3 9
REMARK H PARENT
REMARK Flexibility Score: inf
ROOT
ATOM      1  C   UNL     1     -15.821  -7.013  31.093  1.00  0.00     0.016 A 
ATOM      2  C   UNL     1     -15.350  -6.942  29.771  1.00  0.00     0.013 A 
ATOM      3  C   UNL     1     -16.836  -7.938  31.391  1.00  0.00     0.120 A 
ATOM      4  C   UNL     1     -15.887  -7.777  28.790  1.00  0.00     0.021 A 
ATOM      5  N   UNL     1     -17.342  -8.739  30.417  1.00  0.00    -0.264 NA
ATOM      6  C   UNL     1     -16.894  -8.679  29.135  1.00  0.00     0.111 A 
ENDROOT
BRANCH   1   7
ATOM      7  C   UNL     1     -15.265  -6.138  32.147  1.00  0.00     0.073 C 
ATOM      8  O   UNL     1     -14.337  -5.328  31.883  1.00  0.00    -0.545 OA
ATOM      9  O   UNL     1     -15.760  -6.196  33.445  1.00  0.00    -0.545 OA
ENDBRANCH   1   7
TORSDOF 1
ENDMDL
MODEL 5
REMARK VINA RESULT:    -4.240      3.188      4.177
REMARK INTER + INTRA:          -4.508
REMARK INTER:                  -4.486
REMARK INTRA:                  -0.023
REMARK UNBOUND:                -0.021
REMARK SMILES O=C([O-])c1cccnc1
REMARK SMILES IDX 4 1 5 2 9 3 6 4 8 5 7 6 2 7 1 8 3 9
REMARK H PARENT
REMARK Flexibility Score: inf
ROOT
ATOM      1  C   UNL     1     -14.805  -5.524  30.770  1.00  0.00     0.016 A 
ATOM      2  C   UNL     1     -13.972  -4.766  31.610  1.00  0.00     0.013 A 
ATOM      3  C   UNL     1     -14.841  -5.207  29.402  1.00  0.00     0.120 A 
ATOM      4  C   UNL     1     -13.206  -3.725  31.083  1.00  0.00     0.021 A 
ATOM      5  N   UNL     1     -14.085  -4.188  28.913  1.00  0.00    -0.264 NA
ATOM      6  C   UNL     1     -13.276  -3.447  29.717  1.00  0.00     0.111 A 
ENDROOT
BRANCH   1   7
ATOM      7  C   UNL     1     -15.624  -6.631  31.310  1.00  0.00     0.073 C 
ATOM      8  O   UNL     1     -16.087  -7.517  30.544  1.00  0.00    -0.545 OA
ATOM      9  O   UNL     1     -15.893  -6.709  32.671  1.00  0.00    -0.545 OA
ENDBRANCH   1   7
TORSDOF 1
ENDMDL
MODEL 6
REMARK VINA RESULT:    -4.219      7.449      7.753
REMARK INTER + INTRA:          -4.487
REMARK INTER:                  -4.465
REMARK INTRA:                  -0.022
REMARK UNBOUND:                -0.021
REMARK SMILES O=C([O-])c1cccnc1
REMARK SMILES IDX 4 1 5 2 9 3 6 4 8 5 7 6 2 7 1 8 3 9
REMARK H PARENT
REMARK Flexibility Score: inf
ROOT
ATOM      1  C   UNL     1      -8.697  -9.156  28.830  1.00  0.00     0.016 A 
ATOM      2  C   UNL     1      -7.727  -8.914  27.844  1.00  0.00     0.013 A 
ATOM      3  C   UNL     1      -9.850  -9.874  28.470  1.00  0.00     0.120 A 
ATOM      4  C   UNL     1      -7.917  -9.382  26.543  1.00  0.00     0.021 A 
ATOM      5  N   UNL     1     -10.013 -10.318  27.196  1.00  0.00    -0.264 NA
ATOM      6  C   UNL     1      -9.080 -10.090  26.234  1.00  0.00     0.111 A 
ENDROOT
BRANCH   1   7
ATOM      7  C   UNL     1      -8.513  -8.669  30.214  1.00  0.00     0.073 C 
ATOM      8  O   UNL     1      -7.360  -8.579  30.714  1.00  0.00    -0.545 OA
ATOM      9  O   UNL     1      -9.611  -8.303  30.984  1.00  0.00    -0.545 OA
ENDBRANCH   1   7
TORSDOF 1
ENDMDL
MODEL 7
REMARK VINA RESULT:    -4.146      3.971      5.011
REMARK INTER + INTRA:          -4.409
REMARK INTER:                  -4.385
REMARK INTRA:                  -0.024
REMARK UNBOUND:                -0.021
REMARK SMILES O=C([O-])c1cccnc1
REMARK SMILES IDX 4 1 5 2 9 3 6 4 8 5 7 6 2 7 1 8 3 9
REMARK H PARENT
REMARK Flexibility Score: inf
ROOT
ATOM      1  C   UNL     1     -15.826  -7.029  30.569  1.00  0.00     0.016 A 
ATOM      2  C   UNL     1     -16.690  -7.523  31.560  1.00  0.00     0.013 A 
ATOM      3  C   UNL     1     -14.891  -6.044  30.928  1.00  0.00     0.120 A 
ATOM      4  C   UNL     1     -16.610  -7.036  32.866  1.00  0.00     0.021 A 
ATOM      5  N   UNL     1     -14.833  -5.586  32.207  1.00  0.00    -0.264 NA
ATOM      6  C   UNL     1     -15.664  -6.057  33.175  1.00  0.00     0.111 A 
ENDROOT
BRANCH   1   7
ATOM      7  C   UNL     1     -15.895  -7.532  29.180  1.00  0.00     0.073 C 
ATOM      8  O   UNL     1     -15.212  -6.993  28.269  1.00  0.00    -0.545 OA
ATOM      9  O   UNL     1     -16.715  -8.608  28.861  1.00  0.00    -0.545 OA
ENDBRANCH   1   7
TORSDOF 1
ENDMDL
MODEL 8
REMARK VINA RESULT:    -4.104      4.498      5.475
REMARK INTER + INTRA:          -4.365
REMARK INTER:                  -4.342
REMARK INTRA:                  -0.024
REMARK UNBOUND:                -0.021
REMARK SMILES O=C([O-])c1cccnc1
REMARK SMILES IDX 4 1 5 2 9 3 6 4 8 5 7 6 2 7 1 8 3 9
REMARK H PARENT
REMARK Flexibility Score: inf
ROOT
ATOM      1  C   UNL     1     -16.317  -7.581  30.670  1.00  0.00     0.016 A 
ATOM      2  C   UNL     1     -15.287  -6.626  30.674  1.00  0.00     0.013 A 
ATOM      3  C   UNL     1     -17.036  -7.792  31.859  1.00  0.00     0.120 A 
ATOM      4  C   UNL     1     -14.997  -5.912  31.838  1.00  0.00     0.021 A 
ATOM      5  N   UNL     1     -16.733  -7.084  32.979  1.00  0.00    -0.264 NA
ATOM      6  C   UNL     1     -15.739  -6.157  32.994  1.00  0.00     0.111 A 
ENDROOT
BRANCH   1   7
ATOM      7  C   UNL     1     -16.641  -8.347  29.447  1.00  0.00     0.073 C 
ATOM      8  O   UNL     1     -17.564  -9.204  29.454  1.00  0.00    -0.545 OA
ATOM      9  O   UNL     1     -15.931  -8.129  28.272  1.00  0.00    -0.545 OA
ENDBRANCH   1   7
TORSDOF 1
ENDMDL
MODEL 9
REMARK VINA RESULT:    -4.100      3.949      4.825
REMARK INTER + INTRA:          -4.361
REMARK INTER:                  -4.337
REMARK INTRA:                  -0.024
REMARK UNBOUND:                -0.021
REMARK SMILES O=C([O-])c1cccnc1
REMARK SMILES IDX 4 1 5 2 9 3 6 4 8 5 7 6 2 7 1 8 3 9
REMARK H PARENT
REMARK Flexibility Score: inf
ROOT
ATOM      1  C   UNL     1     -15.566  -6.611  29.058  1.00  0.00     0.016 A 
ATOM      2  C   UNL     1     -15.186  -5.619  28.139  1.00  0.00     0.013 A 
ATOM      3  C   UNL     1     -15.235  -6.430  30.411  1.00  0.00     0.120 A 
ATOM      4  C   UNL     1     -14.495  -4.487  28.575  1.00  0.00     0.021 A 
ATOM      5  N   UNL     1     -14.561  -5.319  30.811  1.00  0.00    -0.264 NA
ATOM      6  C   UNL     1     -14.188  -4.353  29.930  1.00  0.00     0.111 A 
ENDROOT
BRANCH   1   7
ATOM      7  C   UNL     1     -16.299  -7.817  28.615  1.00  0.00     0.073 C 
ATOM      8  O   UNL     1     -16.381  -8.104  27.392  1.00  0.00    -0.545 OA
ATOM      9  O   UNL     1     -16.908  -8.652  29.546  1.00  0.00    -0.545 OA
ENDBRANCH   1   7
TORSDOF 1
ENDMDL
