MODEL 1
REMARK VINA RESULT:    -5.220      0.000      0.000
REMARK INTER + INTRA:          -8.289
REMARK INTER:                  -7.967
REMARK INTRA:                  -0.322
REMARK UNBOUND:                -0.322
REMARK SMILES CC1=CCC[C@H](C)C(=O)C[C@@H](C(C)C)C(=O)C1
REMARK SMILES IDX 8 1 9 2 6 3 7 4 5 5 4 6 3 7 2 8 1 9 10 11 11 12 15 13 16 14
REMARK SMILES IDX 17 15 12 17 13 18 14 19
REMARK H PARENT
REMARK Flexibility Score: 70.00
ROOT
ATOM      1  C   UNL     1     -11.238 -38.007  40.301  1.00  0.00     0.136 C 
ATOM      2  O   UNL     1     -10.184 -38.598  40.114  1.00  0.00    -0.299 OA
ENDROOT
BRANCH   1   3
ATOM      3  C   UNL     1     -11.905 -38.151  41.663  1.00  0.00     0.053 C 
ATOM      4  C   UNL     1     -13.240 -37.399  41.722  1.00  0.00     0.016 C 
BRANCH   3   5
ATOM      5  C   UNL     1     -12.073 -39.622  42.111  1.00  0.00     0.015 C 
BRANCH   5   6
ATOM      6  C   UNL     1     -13.324 -40.288  41.503  1.00  0.00     0.028 C 
BRANCH   6   7
ATOM      7  C   UNL     1     -13.010 -41.394  40.533  1.00  0.00    -0.028 C 
ATOM      8  C   UNL     1     -13.059 -41.317  39.178  1.00  0.00    -0.070 CG0
ATOM      9  C   UNL     1     -12.535 -42.510  38.413  1.00  0.00     0.039 C 
ATOM     10  G   UNL     1     -13.748 -40.216  38.372  1.00  0.00     0.000 G0
ENDBRANCH   6   7
ENDBRANCH   5   6
ENDBRANCH   3   5
ENDBRANCH   1   3
BRANCH   1  11
ATOM     11  C   UNL     1     -11.780 -37.156  39.170  1.00  0.00     0.087 C 
BRANCH  11  12
ATOM     12  C   UNL     1     -13.071 -37.683  38.493  1.00  0.00     0.066 C 
BRANCH  12  13
ATOM     13  C   UNL     1     -12.912 -39.070  37.873  1.00  0.00     0.140 C 
ATOM     14  O   UNL     1     -12.184 -39.231  36.904  1.00  0.00    -0.299 OA
BRANCH  13  15
ATOM     15  C   UNL     1     -13.759 -40.222  38.369  1.00  0.00     0.106 CG0
ATOM     16  G   UNL     1     -13.055 -41.302  39.189  1.00  0.00     0.000 G0
ENDBRANCH  13  15
ENDBRANCH  12  13
BRANCH  12  17
ATOM     17  C   UNL     1     -13.634 -36.640  37.475  1.00  0.00    -0.006 C 
ATOM     18  C   UNL     1     -14.612 -35.626  38.095  1.00  0.00     0.008 C 
ATOM     19  C   UNL     1     -12.506 -35.893  36.744  1.00  0.00     0.008 C 
ENDBRANCH  12  17
ENDBRANCH  11  12
ENDBRANCH   1  11
TORSDOF 1
ENDMDL
MODEL 2
REMARK VINA RESULT:    -5.216      2.310      5.025
REMARK INTER + INTRA:          -8.282
REMARK INTER:                  -7.896
REMARK INTRA:                  -0.387
REMARK UNBOUND:                -0.322
REMARK SMILES CC1=CCC[C@H](C)C(=O)C[C@@H](C(C)C)C(=O)C1
REMARK SMILES IDX 8 1 9 2 6 3 7 4 5 5 4 6 3 7 2 8 1 9 10 11 11 12 15 13 16 14
REMARK SMILES IDX 17 15 12 17 13 18 14 19
REMARK H PARENT
REMARK Flexibility Score: 70.00
ROOT
ATOM      1  C   UNL     1     -14.285 -36.701  39.551  1.00  0.00     0.136 C 
ATOM      2  O   UNL     1     -14.753 -36.585  40.674  1.00  0.00    -0.299 OA
ENDROOT
BRANCH   1   3
ATOM      3  C   UNL     1     -14.675 -35.663  38.504  1.00  0.00     0.053 C 
ATOM      4  C   UNL     1     -14.069 -34.290  38.817  1.00  0.00     0.016 C 
BRANCH   3   5
ATOM      5  C   UNL     1     -14.350 -36.101  37.057  1.00  0.00     0.015 C 
BRANCH   5   6
ATOM      6  C   UNL     1     -13.123 -35.368  36.478  1.00  0.00     0.028 C 
BRANCH   6   7
ATOM      7  C   UNL     1     -12.004 -36.289  36.072  1.00  0.00    -0.028 C 
ATOM      8  C   UNL     1     -11.091 -36.862  36.898  1.00  0.00    -0.070 CG0
ATOM      9  C   UNL     1     -10.167 -37.885  36.280  1.00  0.00     0.039 C 
ATOM     10  G   UNL     1     -10.805 -36.440  38.339  1.00  0.00     0.000 G0
ENDBRANCH   6   7
ENDBRANCH   5   6
ENDBRANCH   3   5
ENDBRANCH   1   3
BRANCH   1  11
ATOM     11  C   UNL     1     -13.332 -37.852  39.298  1.00  0.00     0.087 C 
BRANCH  11  12
ATOM     12  C   UNL     1     -12.053 -37.868  40.173  1.00  0.00     0.066 C 
BRANCH  12  13
ATOM     13  C   UNL     1     -10.781 -37.520  39.401  1.00  0.00     0.140 C 
ATOM     14  O   UNL     1      -9.716 -38.036  39.705  1.00  0.00    -0.299 OA
BRANCH  13  15
ATOM     15  C   UNL     1     -10.809 -36.432  38.349  1.00  0.00     0.106 CG0
ATOM     16  G   UNL     1     -11.088 -36.862  36.910  1.00  0.00     0.000 G0
ENDBRANCH  13  15
ENDBRANCH  12  13
BRANCH  12  17
ATOM     17  C   UNL     1     -11.924 -39.217  40.949  1.00  0.00    -0.006 C 
ATOM     18  C   UNL     1     -11.811 -39.052  42.476  1.00  0.00     0.008 C 
ATOM     19  C   UNL     1     -13.076 -40.179  40.615  1.00  0.00     0.008 C 
ENDBRANCH  12  17
ENDBRANCH  11  12
ENDBRANCH   1  11
TORSDOF 1
ENDMDL
MODEL 3
REMARK VINA RESULT:    -5.155      1.478      3.546
REMARK INTER + INTRA:          -8.189
REMARK INTER:                  -7.971
REMARK INTRA:                  -0.218
REMARK UNBOUND:                -0.322
REMARK SMILES CC1=CCC[C@H](C)C(=O)C[C@@H](C(C)C)C(=O)C1
REMARK SMILES IDX 8 1 9 2 6 3 7 4 5 5 4 6 3 7 2 8 1 9 10 11 11 12 15 13 16 14
REMARK SMILES IDX 17 15 12 17 13 18 14 19
REMARK H PARENT
REMARK Flexibility Score: 70.00
ROOT
ATOM      1  C   UNL     1     -13.372 -40.197  38.084  1.00  0.00     0.136 C 
ATOM      2  O   UNL     1     -13.186 -40.289  36.879  1.00  0.00    -0.299 OA
ENDROOT
BRANCH   1   3
ATOM      3  C   UNL     1     -13.497 -41.486  38.887  1.00  0.00     0.053 C 
ATOM      4  C   UNL     1     -12.216 -42.325  38.814  1.00  0.00     0.016 C 
BRANCH   3   5
ATOM      5  C   UNL     1     -13.930 -41.254  40.353  1.00  0.00     0.015 C 
BRANCH   5   6
ATOM      6  C   UNL     1     -12.759 -41.390  41.347  1.00  0.00     0.028 C 
BRANCH   6   7
ATOM      7  C   UNL     1     -12.436 -40.117  42.079  1.00  0.00    -0.028 C 
ATOM      8  C   UNL     1     -11.771 -39.044  41.578  1.00  0.00    -0.070 CG0
ATOM      9  C   UNL     1     -11.715 -37.813  42.452  1.00  0.00     0.039 C 
ATOM     10  G   UNL     1     -10.936 -39.032  40.298  1.00  0.00     0.000 G0
ENDBRANCH   6   7
ENDBRANCH   5   6
ENDBRANCH   3   5
ENDBRANCH   1   3
BRANCH   1  11
ATOM     11  C   UNL     1     -13.433 -38.807  38.685  1.00  0.00     0.087 C 
BRANCH  11  12
ATOM     12  C   UNL     1     -12.259 -37.864  38.315  1.00  0.00     0.066 C 
BRANCH  12  13
ATOM     13  C   UNL     1     -11.143 -37.841  39.358  1.00  0.00     0.140 C 
ATOM     14  O   UNL     1     -10.337 -36.922  39.375  1.00  0.00    -0.299 OA
BRANCH  13  15
ATOM     15  C   UNL     1     -10.947 -39.023  40.282  1.00  0.00     0.106 CG0
ATOM     16  G   UNL     1     -11.763 -39.039  41.574  1.00  0.00     0.000 G0
ENDBRANCH  13  15
ENDBRANCH  12  13
BRANCH  12  17
ATOM     17  C   UNL     1     -12.780 -36.432  37.973  1.00  0.00    -0.006 C 
ATOM     18  C   UNL     1     -12.393 -35.945  36.565  1.00  0.00     0.008 C 
ATOM     19  C   UNL     1     -14.302 -36.321  38.160  1.00  0.00     0.008 C 
ENDBRANCH  12  17
ENDBRANCH  11  12
ENDBRANCH   1  11
TORSDOF 1
ENDMDL
MODEL 4
REMARK VINA RESULT:    -5.013      2.119      5.159
REMARK INTER + INTRA:          -7.972
REMARK INTER:                  -7.563
REMARK INTRA:                  -0.409
REMARK UNBOUND:                -0.322
REMARK SMILES CC1=CCC[C@H](C)C(=O)C[C@@H](C(C)C)C(=O)C1
REMARK SMILES IDX 8 1 9 2 6 3 7 4 5 5 4 6 3 7 2 8 1 9 10 11 11 12 15 13 16 14
REMARK SMILES IDX 17 15 12 17 13 18 14 19
REMARK H PARENT
REMARK Flexibility Score: 70.00
ROOT
ATOM      1  C   UNL     1     -10.808 -37.489  38.387  1.00  0.00     0.136 C 
ATOM      2  O   UNL     1     -10.327 -36.447  38.808  1.00  0.00    -0.299 OA
ENDROOT
BRANCH   1   3
ATOM      3  C   UNL     1     -10.882 -37.682  36.877  1.00  0.00     0.053 C 
ATOM      4  C   UNL     1     -11.588 -38.993  36.508  1.00  0.00     0.016 C 
BRANCH   3   5
ATOM      5  C   UNL     1     -11.513 -36.481  36.136  1.00  0.00     0.015 C 
BRANCH   5   6
ATOM      6  C   UNL     1     -13.049 -36.446  36.263  1.00  0.00     0.028 C 
BRANCH   6   7
ATOM      7  C   UNL     1     -13.558 -35.338  37.144  1.00  0.00    -0.028 C 
ATOM      8  C   UNL     1     -14.061 -35.471  38.399  1.00  0.00    -0.070 CG0
ATOM      9  C   UNL     1     -14.351 -34.194  39.152  1.00  0.00     0.039 C 
ATOM     10  G   UNL     1     -14.516 -36.781  39.041  1.00  0.00     0.000 G0
ENDBRANCH   6   7
ENDBRANCH   5   6
ENDBRANCH   3   5
ENDBRANCH   1   3
BRANCH   1  11
ATOM     11  C   UNL     1     -11.265 -38.517  39.403  1.00  0.00     0.087 C 
BRANCH  11  12
ATOM     12  C   UNL     1     -12.799 -38.714  39.514  1.00  0.00     0.066 C 
BRANCH  12  13
ATOM     13  C   UNL     1     -13.543 -37.464  39.980  1.00  0.00     0.140 C 
ATOM     14  O   UNL     1     -13.438 -37.082  41.137  1.00  0.00    -0.299 OA
BRANCH  13  15
ATOM     15  C   UNL     1     -14.519 -36.775  39.052  1.00  0.00     0.106 CG0
ATOM     16  G   UNL     1     -14.064 -35.465  38.411  1.00  0.00     0.000 G0
ENDBRANCH  13  15
ENDBRANCH  12  13
BRANCH  12  17
ATOM     17  C   UNL     1     -13.139 -39.965  40.386  1.00  0.00    -0.006 C 
ATOM     18  C   UNL     1     -13.447 -41.233  39.567  1.00  0.00     0.008 C 
ATOM     19  C   UNL     1     -12.030 -40.265  41.408  1.00  0.00     0.008 C 
ENDBRANCH  12  17
ENDBRANCH  11  12
ENDBRANCH   1  11
TORSDOF 1
ENDMDL
MODEL 5
REMARK VINA RESULT:    -4.989      1.956      4.239
REMARK INTER + INTRA:          -7.935
REMARK INTER:                  -7.505
REMARK INTRA:                  -0.431
REMARK UNBOUND:                -0.322
REMARK SMILES CC1=CCC[C@H](C)C(=O)C[C@@H](C(C)C)C(=O)C1
REMARK SMILES IDX 8 1 9 2 6 3 7 4 5 5 4 6 3 7 2 8 1 9 10 11 11 12 15 13 16 14
REMARK SMILES IDX 17 15 12 17 13 18 14 19
REMARK H PARENT
REMARK Flexibility Score: 70.00
ROOT
ATOM      1  C   UNL     1     -13.332 -36.123  37.213  1.00  0.00     0.136 C 
ATOM      2  O   UNL     1     -14.215 -35.990  36.378  1.00  0.00    -0.299 OA
ENDROOT
BRANCH   1   3
ATOM      3  C   UNL     1     -13.283 -35.125  38.365  1.00  0.00     0.053 C 
ATOM      4  C   UNL     1     -12.773 -33.755  37.904  1.00  0.00     0.016 C 
BRANCH   3   5
ATOM      5  C   UNL     1     -14.625 -34.996  39.121  1.00  0.00     0.015 C 
BRANCH   5   6
ATOM      6  C   UNL     1     -15.109 -36.338  39.704  1.00  0.00     0.028 C 
BRANCH   6   7
ATOM      7  C   UNL     1     -14.407 -36.735  40.974  1.00  0.00    -0.028 C 
ATOM      8  C   UNL     1     -13.578 -37.799  41.139  1.00  0.00    -0.070 CG0
ATOM      9  C   UNL     1     -12.856 -37.896  42.463  1.00  0.00     0.039 C 
ATOM     10  G   UNL     1     -13.449 -38.984  40.182  1.00  0.00     0.000 G0
ENDBRANCH   6   7
ENDBRANCH   5   6
ENDBRANCH   3   5
ENDBRANCH   1   3
BRANCH   1  11
ATOM     11  C   UNL     1     -12.377 -37.289  37.052  1.00  0.00     0.087 C 
BRANCH  11  12
ATOM     12  C   UNL     1     -12.860 -38.639  37.641  1.00  0.00     0.066 C 
BRANCH  12  13
ATOM     13  C   UNL     1     -12.410 -38.872  39.082  1.00  0.00     0.140 C 
ATOM     14  O   UNL     1     -11.231 -39.073  39.333  1.00  0.00    -0.299 OA
BRANCH  13  15
ATOM     15  C   UNL     1     -13.439 -38.992  40.186  1.00  0.00     0.106 CG0
ATOM     16  G   UNL     1     -13.586 -37.802  41.133  1.00  0.00     0.000 G0
ENDBRANCH  13  15
ENDBRANCH  12  13
BRANCH  12  17
ATOM     17  C   UNL     1     -12.478 -39.827  36.702  1.00  0.00    -0.006 C 
ATOM     18  C   UNL     1     -13.450 -41.018  36.773  1.00  0.00     0.008 C 
ATOM     19  C   UNL     1     -12.323 -39.370  35.242  1.00  0.00     0.008 C 
ENDBRANCH  12  17
ENDBRANCH  11  12
ENDBRANCH   1  11
TORSDOF 1
ENDMDL
MODEL 6
REMARK VINA RESULT:    -4.976      2.151      3.759
REMARK INTER + INTRA:          -7.917
REMARK INTER:                  -7.700
REMARK INTRA:                  -0.217
REMARK UNBOUND:                -0.322
REMARK SMILES CC1=CCC[C@H](C)C(=O)C[C@@H](C(C)C)C(=O)C1
REMARK SMILES IDX 8 1 9 2 6 3 7 4 5 5 4 6 3 7 2 8 1 9 10 11 11 12 15 13 16 14
REMARK SMILES IDX 17 15 12 17 13 18 14 19
REMARK H PARENT
REMARK Flexibility Score: 70.00
ROOT
ATOM      1  C   UNL     1     -13.087 -41.174  38.746  1.00  0.00     0.136 C 
ATOM      2  O   UNL     1     -12.938 -42.349  38.443  1.00  0.00    -0.299 OA
ENDROOT
BRANCH   1   3
ATOM      3  C   UNL     1     -12.988 -40.800  40.221  1.00  0.00     0.053 C 
ATOM      4  C   UNL     1     -13.943 -41.634  41.082  1.00  0.00     0.016 C 
BRANCH   3   5
ATOM      5  C   UNL     1     -11.544 -40.858  40.772  1.00  0.00     0.015 C 
BRANCH   5   6
ATOM      6  C   UNL     1     -11.021 -39.475  41.210  1.00  0.00     0.028 C 
BRANCH   6   7
ATOM      7  C   UNL     1     -12.093 -38.560  41.736  1.00  0.00    -0.028 C 
ATOM      8  C   UNL     1     -12.796 -37.645  41.020  1.00  0.00    -0.070 CG0
ATOM      9  C   UNL     1     -13.941 -36.963  41.731  1.00  0.00     0.039 C 
ATOM     10  G   UNL     1     -12.426 -37.126  39.631  1.00  0.00     0.000 G0
ENDBRANCH   6   7
ENDBRANCH   5   6
ENDBRANCH   3   5
ENDBRANCH   1   3
BRANCH   1  11
ATOM     11  C   UNL     1     -13.328 -40.181  37.628  1.00  0.00     0.087 C 
BRANCH  11  12
ATOM     12  C   UNL     1     -12.464 -38.895  37.675  1.00  0.00     0.066 C 
BRANCH  12  13
ATOM     13  C   UNL     1     -13.126 -37.743  38.430  1.00  0.00     0.140 C 
ATOM     14  O   UNL     1     -14.163 -37.249  38.012  1.00  0.00    -0.299 OA
BRANCH  13  15
ATOM     15  C   UNL     1     -12.428 -37.118  39.619  1.00  0.00     0.106 CG0
ATOM     16  G   UNL     1     -12.796 -37.653  41.002  1.00  0.00     0.000 G0
ENDBRANCH  13  15
ENDBRANCH  12  13
BRANCH  12  17
ATOM     17  C   UNL     1     -12.006 -38.477  36.241  1.00  0.00    -0.006 C 
ATOM     18  C   UNL     1     -10.641 -37.766  36.203  1.00  0.00     0.008 C 
ATOM     19  C   UNL     1     -11.994 -39.674  35.276  1.00  0.00     0.008 C 
ENDBRANCH  12  17
ENDBRANCH  11  12
ENDBRANCH   1  11
TORSDOF 1
ENDMDL
MODEL 7
REMARK VINA RESULT:    -4.955      1.739      4.462
REMARK INTER + INTRA:          -7.884
REMARK INTER:                  -8.143
REMARK INTRA:                   0.259
REMARK UNBOUND:                -0.322
REMARK SMILES CC1=CCC[C@H](C)C(=O)C[C@@H](C(C)C)C(=O)C1
REMARK SMILES IDX 8 1 9 2 6 3 7 4 5 5 4 6 3 7 2 8 1 9 10 11 11 12 15 13 16 14
REMARK SMILES IDX 17 15 12 17 13 18 14 19
REMARK H PARENT
REMARK Flexibility Score: 70.00
ROOT
ATOM      1  C   UNL     1     -10.440 -38.432  40.582  1.00  0.00     0.136 C 
ATOM      2  O   UNL     1      -9.750 -39.054  41.376  1.00  0.00    -0.299 OA
ENDROOT
BRANCH   1   3
ATOM      3  C   UNL     1      -9.793 -37.279  39.823  1.00  0.00     0.053 C 
ATOM      4  C   UNL     1      -8.287 -37.196  40.098  1.00  0.00     0.016 C 
BRANCH   3   5
ATOM      5  C   UNL     1     -10.082 -37.306  38.305  1.00  0.00     0.015 C 
BRANCH   5   6
ATOM      6  C   UNL     1     -10.774 -36.020  37.810  1.00  0.00     0.028 C 
BRANCH   6   7
ATOM      7  C   UNL     1     -12.258 -35.996  38.059  1.00  0.00    -0.028 C 
ATOM      8  C   UNL     1     -13.099 -37.062  38.024  1.00  0.00    -0.070 CG0
ATOM      9  C   UNL     1     -14.520 -36.818  38.476  1.00  0.00     0.039 C 
ATOM     10  G   UNL     1     -12.783 -38.426  37.411  1.00  0.00     0.000 G0
ENDBRANCH   6   7
ENDBRANCH   5   6
ENDBRANCH   3   5
ENDBRANCH   1   3
BRANCH   1  11
ATOM     11  C   UNL     1     -11.877 -38.876  40.396  1.00  0.00     0.087 C 
BRANCH  11  12
ATOM     12  C   UNL     1     -12.097 -40.030  39.384  1.00  0.00     0.066 C 
BRANCH  12  13
ATOM     13  C   UNL     1     -13.052 -39.671  38.247  1.00  0.00     0.140 C 
ATOM     14  O   UNL     1     -13.956 -40.435  37.940  1.00  0.00    -0.299 OA
BRANCH  13  15
ATOM     15  C   UNL     1     -12.799 -38.439  37.407  1.00  0.00     0.106 CG0
ATOM     16  G   UNL     1     -13.112 -37.086  38.044  1.00  0.00     0.000 G0
ENDBRANCH  13  15
ENDBRANCH  12  13
BRANCH  12  17
ATOM     17  C   UNL     1     -12.516 -41.344  40.118  1.00  0.00    -0.006 C 
ATOM     18  C   UNL     1     -11.329 -42.183  40.625  1.00  0.00     0.008 C 
ATOM     19  C   UNL     1     -13.485 -41.063  41.278  1.00  0.00     0.008 C 
ENDBRANCH  12  17
ENDBRANCH  11  12
ENDBRANCH   1  11
TORSDOF 1
ENDMDL
MODEL 8
REMARK VINA RESULT:    -4.830      2.304      3.792
REMARK INTER + INTRA:          -7.694
REMARK INTER:                  -7.829
REMARK INTRA:                   0.135
REMARK UNBOUND:                -0.322
REMARK SMILES CC1=CCC[C@H](C)C(=O)C[C@@H](C(C)C)C(=O)C1
REMARK SMILES IDX 8 1 9 2 6 3 7 4 5 5 4 6 3 7 2 8 1 9 10 11 11 12 15 13 16 14
REMARK SMILES IDX 17 15 12 17 13 18 14 19
REMARK H PARENT
REMARK Flexibility Score: 70.00
ROOT
ATOM      1  C   UNL     1     -13.120 -39.402  38.440  1.00  0.00     0.136 C 
ATOM      2  O   UNL     1     -13.201 -40.046  37.404  1.00  0.00    -0.299 OA
ENDROOT
BRANCH   1   3
ATOM      3  C   UNL     1     -13.001 -40.171  39.751  1.00  0.00     0.053 C 
ATOM      4  C   UNL     1     -13.647 -41.558  39.654  1.00  0.00     0.016 C 
BRANCH   3   5
ATOM      5  C   UNL     1     -11.549 -40.268  40.274  1.00  0.00     0.015 C 
BRANCH   5   6
ATOM      6  C   UNL     1     -11.057 -38.949  40.904  1.00  0.00     0.028 C 
BRANCH   6   7
ATOM      7  C   UNL     1      -9.705 -38.510  40.410  1.00  0.00    -0.028 C 
ATOM      8  C   UNL     1      -9.440 -37.415  39.652  1.00  0.00    -0.070 CG0
ATOM      9  C   UNL     1      -7.982 -37.088  39.423  1.00  0.00     0.039 C 
ATOM     10  G   UNL     1     -10.471 -36.598  38.876  1.00  0.00     0.000 G0
ENDBRANCH   6   7
ENDBRANCH   5   6
ENDBRANCH   3   5
ENDBRANCH   1   3
BRANCH   1  11
ATOM     11  C   UNL     1     -13.115 -37.890  38.334  1.00  0.00     0.087 C 
BRANCH  11  12
ATOM     12  C   UNL     1     -12.314 -37.304  37.143  1.00  0.00     0.066 C 
BRANCH  12  13
ATOM     13  C   UNL     1     -10.856 -37.000  37.480  1.00  0.00     0.140 C 
ATOM     14  O   UNL     1      -9.978 -37.209  36.655  1.00  0.00    -0.299 OA
BRANCH  13  15
ATOM     15  C   UNL     1     -10.476 -36.571  38.880  1.00  0.00     0.106 CG0
ATOM     16  G   UNL     1      -9.439 -37.422  39.612  1.00  0.00     0.000 G0
ENDBRANCH  13  15
ENDBRANCH  12  13
BRANCH  12  17
ATOM     17  C   UNL     1     -13.050 -36.071  36.529  1.00  0.00    -0.006 C 
ATOM     18  C   UNL     1     -14.563 -36.038  36.816  1.00  0.00     0.008 C 
ATOM     19  C   UNL     1     -12.409 -34.746  36.973  1.00  0.00     0.008 C 
ENDBRANCH  12  17
ENDBRANCH  11  12
ENDBRANCH   1  11
TORSDOF 1
ENDMDL
MODEL 9
REMARK VINA RESULT:    -4.600      1.842      4.108
REMARK INTER + INTRA:          -7.342
REMARK INTER:                  -7.267
REMARK INTRA:                  -0.075
REMARK UNBOUND:                -0.322
REMARK SMILES CC1=CCC[C@H](C)C(=O)C[C@@H](C(C)C)C(=O)C1
REMARK SMILES IDX 8 1 9 2 6 3 7 4 5 5 4 6 3 7 2 8 1 9 10 11 11 12 15 13 16 14
REMARK SMILES IDX 17 15 12 17 13 18 14 19
REMARK H PARENT
REMARK Flexibility Score: 70.00
ROOT
ATOM      1  C   UNL     1     -11.745 -41.611  40.362  1.00  0.00     0.136 C 
ATOM      2  O   UNL     1     -11.214 -42.447  41.078  1.00  0.00    -0.299 OA
ENDROOT
BRANCH   1   3
ATOM      3  C   UNL     1     -12.957 -42.039  39.543  1.00  0.00     0.053 C 
ATOM      4  C   UNL     1     -14.214 -41.255  39.939  1.00  0.00     0.016 C 
BRANCH   3   5
ATOM      5  C   UNL     1     -12.719 -41.977  38.017  1.00  0.00     0.015 C 
BRANCH   5   6
ATOM      6  C   UNL     1     -13.598 -40.919  37.321  1.00  0.00     0.028 C 
BRANCH   6   7
ATOM      7  C   UNL     1     -12.827 -39.974  36.441  1.00  0.00    -0.028 C 
ATOM      8  C   UNL     1     -12.356 -38.749  36.790  1.00  0.00    -0.070 CG0
ATOM      9  C   UNL     1     -11.462 -38.057  35.787  1.00  0.00     0.039 C 
ATOM     10  G   UNL     1     -12.786 -37.945  38.016  1.00  0.00     0.000 G0
ENDBRANCH   6   7
ENDBRANCH   5   6
ENDBRANCH   3   5
ENDBRANCH   1   3
BRANCH   1  11
ATOM     11  C   UNL     1     -11.173 -40.207  40.370  1.00  0.00     0.087 C 
BRANCH  11  12
ATOM     12  C   UNL     1     -12.213 -39.059  40.317  1.00  0.00     0.066 C 
BRANCH  12  13
ATOM     13  C   UNL     1     -11.913 -38.013  39.245  1.00  0.00     0.140 C 
ATOM     14  O   UNL     1     -11.041 -37.176  39.429  1.00  0.00    -0.299 OA
BRANCH  13  15
ATOM     15  C   UNL     1     -12.786 -37.922  38.012  1.00  0.00     0.106 CG0
ATOM     16  G   UNL     1     -12.363 -38.747  36.797  1.00  0.00     0.000 G0
ENDBRANCH  13  15
ENDBRANCH  12  13
BRANCH  12  17
ATOM     17  C   UNL     1     -12.412 -38.420  41.728  1.00  0.00    -0.006 C 
ATOM     18  C   UNL     1     -13.769 -37.715  41.911  1.00  0.00     0.008 C 
ATOM     19  C   UNL     1     -12.208 -39.449  42.852  1.00  0.00     0.008 C 
ENDBRANCH  12  17
ENDBRANCH  11  12
ENDBRANCH   1  11
TORSDOF 1
ENDMDL
