MODEL 1
REMARK VINA RESULT:    -2.051      0.000      0.000
REMARK INTER + INTRA:          -6.088
REMARK INTER:                  -3.610
REMARK INTRA:                  -2.478
REMARK UNBOUND:                -2.478
REMARK SMILES CCCCCCC=CCCCCCCCC(=O)[O-]
REMARK SMILES IDX 10 1 11 2 12 3 13 4 14 5 15 6 16 7 17 8 18 9 9 10 8 11 7 12
REMARK SMILES IDX 6 13 5 14 4 15 3 16 2 17 1 18
REMARK H PARENT
REMARK Flexibility Score: inf
ROOT
ATOM      1  C   UNL     1      -0.318   6.882  14.683  1.00  0.00     0.004 C 
ENDROOT
BRANCH   1   2
ATOM      2  C   UNL     1      -0.889   5.703  15.478  1.00  0.00     0.000 C 
BRANCH   2   3
ATOM      3  C   UNL     1      -1.724   6.194  16.669  1.00  0.00     0.000 C 
BRANCH   3   4
ATOM      4  C   UNL     1      -1.481   7.686  16.932  1.00  0.00     0.000 C 
BRANCH   4   5
ATOM      5  C   UNL     1      -1.601   8.009  18.428  1.00  0.00     0.006 C 
BRANCH   5   6
ATOM      6  C   UNL     1      -2.373   9.312  18.680  1.00  0.00     0.053 C 
BRANCH   6   7
ATOM      7  C   UNL     1      -3.794   9.217  18.216  1.00  0.00     0.041 C 
ATOM      8  O   UNL     1      -4.563   8.347  18.704  1.00  0.00    -0.550 OA
ATOM      9  O   UNL     1      -4.281  10.120  17.278  1.00  0.00    -0.550 OA
ENDBRANCH   6   7
ENDBRANCH   5   6
ENDBRANCH   4   5
ENDBRANCH   3   4
ENDBRANCH   2   3
ENDBRANCH   1   2
BRANCH   1  10
ATOM     10  C   UNL     1       1.174   6.682  14.400  1.00  0.00     0.027 C 
BRANCH  10  11
ATOM     11  C   UNL     1       1.937   7.941  14.711  1.00  0.00    -0.031 C 
ATOM     12  C   UNL     1       1.312   9.090  15.009  1.00  0.00    -0.031 C 
BRANCH  12  13
ATOM     13  C   UNL     1       2.082  10.347  15.307  1.00  0.00     0.027 C 
BRANCH  13  14
ATOM     14  C   UNL     1       2.721  10.282  16.702  1.00  0.00     0.004 C 
BRANCH  14  15
ATOM     15  C   UNL     1       1.680  10.286  17.835  1.00  0.00     0.000 C 
BRANCH  15  16
ATOM     16  C   UNL     1       1.776   9.098  18.814  1.00  0.00    -0.000 C 
BRANCH  16  17
ATOM     17  C   UNL     1       2.657   7.930  18.333  1.00  0.00    -0.003 C 
ATOM     18  C   UNL     1       1.886   6.618  18.200  1.00  0.00     0.004 C 
ENDBRANCH  16  17
ENDBRANCH  15  16
ENDBRANCH  14  15
ENDBRANCH  13  14
ENDBRANCH  12  13
ENDBRANCH  10  11
ENDBRANCH   1  10
TORSDOF 13
ENDMDL
MODEL 2
REMARK VINA RESULT:    -1.916      1.670      3.813
REMARK INTER + INTRA:          -5.850
REMARK INTER:                  -3.119
REMARK INTRA:                  -2.731
REMARK UNBOUND:                -2.478
REMARK SMILES CCCCCCC=CCCCCCCCC(=O)[O-]
REMARK SMILES IDX 10 1 11 2 12 3 13 4 14 5 15 6 16 7 17 8 18 9 9 10 8 11 7 12
REMARK SMILES IDX 6 13 5 14 4 15 3 16 2 17 1 18
REMARK H PARENT
REMARK Flexibility Score: inf
ROOT
ATOM      1  C   UNL     1       2.108  10.284  16.360  1.00  0.00     0.004 C 
ENDROOT
BRANCH   1   2
ATOM      2  C   UNL     1       2.795   9.342  17.355  1.00  0.00     0.000 C 
BRANCH   2   3
ATOM      3  C   UNL     1       1.877   9.032  18.545  1.00  0.00     0.000 C 
BRANCH   3   4
ATOM      4  C   UNL     1       1.632   7.523  18.671  1.00  0.00     0.000 C 
BRANCH   4   5
ATOM      5  C   UNL     1       0.130   7.206  18.675  1.00  0.00     0.006 C 
BRANCH   5   6
ATOM      6  C   UNL     1      -0.722   8.424  18.292  1.00  0.00     0.053 C 
BRANCH   6   7
ATOM      7  C   UNL     1      -2.130   8.036  17.956  1.00  0.00     0.041 C 
ATOM      8  O   UNL     1      -3.002   8.923  17.760  1.00  0.00    -0.550 OA
ATOM      9  O   UNL     1      -2.466   6.695  17.812  1.00  0.00    -0.550 OA
ENDBRANCH   6   7
ENDBRANCH   5   6
ENDBRANCH   4   5
ENDBRANCH   3   4
ENDBRANCH   2   3
ENDBRANCH   1   2
BRANCH   1  10
ATOM     10  C   UNL     1       2.176   9.723  14.936  1.00  0.00     0.027 C 
BRANCH  10  11
ATOM     11  C   UNL     1       1.533   8.364  14.881  1.00  0.00    -0.031 C 
ATOM     12  C   UNL     1       0.200   8.213  14.858  1.00  0.00    -0.031 C 
BRANCH  12  13
ATOM     13  C   UNL     1      -0.435   6.850  14.816  1.00  0.00     0.027 C 
BRANCH  13  14
ATOM     14  C   UNL     1       0.630   5.753  14.674  1.00  0.00     0.004 C 
BRANCH  14  15
ATOM     15  C   UNL     1       0.652   4.785  15.869  1.00  0.00     0.000 C 
BRANCH  15  16
ATOM     16  C   UNL     1       2.031   4.600  16.535  1.00  0.00    -0.000 C 
BRANCH  16  17
ATOM     17  C   UNL     1       3.195   5.315  15.825  1.00  0.00    -0.003 C 
ATOM     18  C   UNL     1       4.283   5.784  16.790  1.00  0.00     0.004 C 
ENDBRANCH  16  17
ENDBRANCH  15  16
ENDBRANCH  14  15
ENDBRANCH  13  14
ENDBRANCH  12  13
ENDBRANCH  10  11
ENDBRANCH   1  10
TORSDOF 13
ENDMDL
MODEL 3
REMARK VINA RESULT:    -1.892      2.418      4.580
REMARK INTER + INTRA:          -5.809
REMARK INTER:                  -3.338
REMARK INTRA:                  -2.471
REMARK UNBOUND:                -2.478
REMARK SMILES CCCCCCC=CCCCCCCCC(=O)[O-]
REMARK SMILES IDX 10 1 11 2 12 3 13 4 14 5 15 6 16 7 17 8 18 9 9 10 8 11 7 12
REMARK SMILES IDX 6 13 5 14 4 15 3 16 2 17 1 18
REMARK H PARENT
REMARK Flexibility Score: inf
ROOT
ATOM      1  C   UNL     1       2.929   7.639  14.783  1.00  0.00     0.004 C 
ENDROOT
BRANCH   1   2
ATOM      2  C   UNL     1       3.762   8.631  13.964  1.00  0.00     0.000 C 
BRANCH   2   3
ATOM      3  C   UNL     1       3.335  10.077  14.249  1.00  0.00     0.000 C 
BRANCH   3   4
ATOM      4  C   UNL     1       2.018  10.115  15.035  1.00  0.00     0.000 C 
BRANCH   4   5
ATOM      5  C   UNL     1       2.120  11.064  16.238  1.00  0.00     0.006 C 
BRANCH   5   6
ATOM      6  C   UNL     1       2.822  10.411  17.436  1.00  0.00     0.053 C 
BRANCH   6   7
ATOM      7  C   UNL     1       2.111  10.698  18.723  1.00  0.00     0.041 C 
ATOM      8  O   UNL     1       2.613  10.333  19.819  1.00  0.00    -0.550 OA
ATOM      9  O   UNL     1       0.917  11.410  18.714  1.00  0.00    -0.550 OA
ENDBRANCH   6   7
ENDBRANCH   5   6
ENDBRANCH   4   5
ENDBRANCH   3   4
ENDBRANCH   2   3
ENDBRANCH   1   2
BRANCH   1  10
ATOM     10  C   UNL     1       2.267   6.598  13.875  1.00  0.00     0.027 C 
BRANCH  10  11
ATOM     11  C   UNL     1       0.990   6.101  14.497  1.00  0.00    -0.031 C 
ATOM     12  C   UNL     1       0.066   6.945  14.983  1.00  0.00    -0.031 C 
BRANCH  12  13
ATOM     13  C   UNL     1      -1.202   6.440  15.614  1.00  0.00     0.027 C 
BRANCH  13  14
ATOM     14  C   UNL     1      -1.592   7.299  16.825  1.00  0.00     0.004 C 
BRANCH  14  15
ATOM     15  C   UNL     1      -0.405   8.090  17.402  1.00  0.00     0.000 C 
BRANCH  15  16
ATOM     16  C   UNL     1       0.330   7.405  18.572  1.00  0.00    -0.000 C 
BRANCH  16  17
ATOM     17  C   UNL     1       1.768   6.954  18.261  1.00  0.00    -0.003 C 
ATOM     18  C   UNL     1       1.887   5.446  18.046  1.00  0.00     0.004 C 
ENDBRANCH  16  17
ENDBRANCH  15  16
ENDBRANCH  14  15
ENDBRANCH  13  14
ENDBRANCH  12  13
ENDBRANCH  10  11
ENDBRANCH   1  10
TORSDOF 13
ENDMDL
MODEL 4
REMARK VINA RESULT:    -1.860      2.759      4.529
REMARK INTER + INTRA:          -5.752
REMARK INTER:                  -3.071
REMARK INTRA:                  -2.682
REMARK UNBOUND:                -2.478
REMARK SMILES CCCCCCC=CCCCCCCCC(=O)[O-]
REMARK SMILES IDX 10 1 11 2 12 3 13 4 14 5 15 6 16 7 17 8 18 9 9 10 8 11 7 12
REMARK SMILES IDX 6 13 5 14 4 15 3 16 2 17 1 18
REMARK H PARENT
REMARK Flexibility Score: inf
ROOT
ATOM      1  C   UNL     1      -0.209   7.037  14.581  1.00  0.00     0.004 C 
ENDROOT
BRANCH   1   2
ATOM      2  C   UNL     1       1.183   6.457  14.307  1.00  0.00     0.000 C 
BRANCH   2   3
ATOM      3  C   UNL     1       2.274   7.513  14.530  1.00  0.00     0.000 C 
BRANCH   3   4
ATOM      4  C   UNL     1       1.659   8.865  14.914  1.00  0.00     0.000 C 
BRANCH   4   5
ATOM      5  C   UNL     1       2.610   9.670  15.810  1.00  0.00     0.006 C 
BRANCH   5   6
ATOM      6  C   UNL     1       1.859  10.475  16.880  1.00  0.00     0.053 C 
BRANCH   6   7
ATOM      7  C   UNL     1       2.800  11.169  17.817  1.00  0.00     0.041 C 
ATOM      8  O   UNL     1       3.808  10.564  18.267  1.00  0.00    -0.550 OA
ATOM      9  O   UNL     1       2.587  12.501  18.156  1.00  0.00    -0.550 OA
ENDBRANCH   6   7
ENDBRANCH   5   6
ENDBRANCH   4   5
ENDBRANCH   3   4
ENDBRANCH   2   3
ENDBRANCH   1   2
BRANCH   1  10
ATOM     10  C   UNL     1      -1.083   6.030  15.337  1.00  0.00     0.027 C 
BRANCH  10  11
ATOM     11  C   UNL     1      -1.568   6.630  16.629  1.00  0.00    -0.031 C 
ATOM     12  C   UNL     1      -1.174   7.846  17.035  1.00  0.00    -0.031 C 
BRANCH  12  13
ATOM     13  C   UNL     1      -1.653   8.433  18.335  1.00  0.00     0.027 C 
BRANCH  13  14
ATOM     14  C   UNL     1      -0.470   8.781  19.249  1.00  0.00     0.004 C 
BRANCH  14  15
ATOM     15  C   UNL     1       0.374   7.552  19.628  1.00  0.00     0.000 C 
BRANCH  15  16
ATOM     16  C   UNL     1       1.874   7.659  19.284  1.00  0.00    -0.000 C 
BRANCH  16  17
ATOM     17  C   UNL     1       2.334   6.782  18.105  1.00  0.00    -0.003 C 
ATOM     18  C   UNL     1       1.595   5.447  18.031  1.00  0.00     0.004 C 
ENDBRANCH  16  17
ENDBRANCH  15  16
ENDBRANCH  14  15
ENDBRANCH  13  14
ENDBRANCH  12  13
ENDBRANCH  10  11
ENDBRANCH   1  10
TORSDOF 13
ENDMDL
MODEL 5
REMARK VINA RESULT:    -1.859      2.821      4.916
REMARK INTER + INTRA:          -5.751
REMARK INTER:                  -3.310
REMARK INTRA:                  -2.441
REMARK UNBOUND:                -2.478
REMARK SMILES CCCCCCC=CCCCCCCCC(=O)[O-]
REMARK SMILES IDX 10 1 11 2 12 3 13 4 14 5 15 6 16 7 17 8 18 9 9 10 8 11 7 12
REMARK SMILES IDX 6 13 5 14 4 15 3 16 2 17 1 18
REMARK H PARENT
REMARK Flexibility Score: inf
ROOT
ATOM      1  C   UNL     1      -1.060   4.631  16.072  1.00  0.00     0.004 C 
ENDROOT
BRANCH   1   2
ATOM      2  C   UNL     1      -1.271   5.914  15.260  1.00  0.00     0.000 C 
BRANCH   2   3
ATOM      3  C   UNL     1       0.046   6.396  14.638  1.00  0.00     0.000 C 
BRANCH   3   4
ATOM      4  C   UNL     1       0.179   7.920  14.744  1.00  0.00     0.000 C 
BRANCH   4   5
ATOM      5  C   UNL     1       1.602   8.323  15.156  1.00  0.00     0.006 C 
BRANCH   5   6
ATOM      6  C   UNL     1       1.609   9.308  16.334  1.00  0.00     0.053 C 
BRANCH   6   7
ATOM      7  C   UNL     1       2.176  10.639  15.944  1.00  0.00     0.041 C 
ATOM      8  O   UNL     1       2.926  11.265  16.739  1.00  0.00    -0.550 OA
ATOM      9  O   UNL     1       1.915  11.164  14.684  1.00  0.00    -0.550 OA
ENDBRANCH   6   7
ENDBRANCH   5   6
ENDBRANCH   4   5
ENDBRANCH   3   4
ENDBRANCH   2   3
ENDBRANCH   1   2
BRANCH   1  10
ATOM     10  C   UNL     1       0.414   4.462  16.456  1.00  0.00     0.027 C 
BRANCH  10  11
ATOM     11  C   UNL     1       0.635   4.903  17.878  1.00  0.00    -0.031 C 
ATOM     12  C   UNL     1       1.161   6.102  18.172  1.00  0.00    -0.031 C 
BRANCH  12  13
ATOM     13  C   UNL     1       1.391   6.530  19.596  1.00  0.00     0.027 C 
BRANCH  13  14
ATOM     14  C   UNL     1       0.186   6.170  20.477  1.00  0.00     0.004 C 
BRANCH  14  15
ATOM     15  C   UNL     1      -0.972   7.174  20.342  1.00  0.00     0.000 C 
BRANCH  15  16
ATOM     16  C   UNL     1      -2.268   6.597  19.737  1.00  0.00    -0.000 C 
BRANCH  16  17
ATOM     17  C   UNL     1      -2.657   7.176  18.365  1.00  0.00    -0.003 C 
ATOM     18  C   UNL     1      -1.771   8.345  17.938  1.00  0.00     0.004 C 
ENDBRANCH  16  17
ENDBRANCH  15  16
ENDBRANCH  14  15
ENDBRANCH  13  14
ENDBRANCH  12  13
ENDBRANCH  10  11
ENDBRANCH   1  10
TORSDOF 13
ENDMDL
MODEL 6
REMARK VINA RESULT:    -1.832      1.424      2.719
REMARK INTER + INTRA:          -5.702
REMARK INTER:                  -3.317
REMARK INTRA:                  -2.386
REMARK UNBOUND:                -2.478
REMARK SMILES CCCCCCC=CCCCCCCCC(=O)[O-]
REMARK SMILES IDX 10 1 11 2 12 3 13 4 14 5 15 6 16 7 17 8 18 9 9 10 8 11 7 12
REMARK SMILES IDX 6 13 5 14 4 15 3 16 2 17 1 18
REMARK H PARENT
REMARK Flexibility Score: inf
ROOT
ATOM      1  C   UNL     1      -0.301   4.075  17.030  1.00  0.00     0.004 C 
ENDROOT
BRANCH   1   2
ATOM      2  C   UNL     1      -0.975   4.515  18.335  1.00  0.00     0.000 C 
BRANCH   2   3
ATOM      3  C   UNL     1      -0.236   5.703  18.964  1.00  0.00     0.000 C 
BRANCH   3   4
ATOM      4  C   UNL     1      -1.222   6.796  19.396  1.00  0.00     0.000 C 
BRANCH   4   5
ATOM      5  C   UNL     1      -2.335   6.979  18.353  1.00  0.00     0.006 C 
BRANCH   5   6
ATOM      6  C   UNL     1      -2.378   8.408  17.794  1.00  0.00     0.053 C 
BRANCH   6   7
ATOM      7  C   UNL     1      -3.609   9.141  18.234  1.00  0.00     0.041 C 
ATOM      8  O   UNL     1      -4.123   8.899  19.357  1.00  0.00    -0.550 OA
ATOM      9  O   UNL     1      -4.158  10.127  17.422  1.00  0.00    -0.550 OA
ENDBRANCH   6   7
ENDBRANCH   5   6
ENDBRANCH   4   5
ENDBRANCH   3   4
ENDBRANCH   2   3
ENDBRANCH   1   2
BRANCH   1  10
ATOM     10  C   UNL     1      -1.271   4.180  15.849  1.00  0.00     0.027 C 
BRANCH  10  11
ATOM     11  C   UNL     1      -1.273   5.581  15.300  1.00  0.00    -0.031 C 
ATOM     12  C   UNL     1      -0.139   6.284  15.152  1.00  0.00    -0.031 C 
BRANCH  12  13
ATOM     13  C   UNL     1      -0.152   7.689  14.614  1.00  0.00     0.027 C 
BRANCH  13  14
ATOM     14  C   UNL     1       0.971   8.526  15.242  1.00  0.00     0.004 C 
BRANCH  14  15
ATOM     15  C   UNL     1       1.176   8.223  16.737  1.00  0.00     0.000 C 
BRANCH  15  16
ATOM     16  C   UNL     1       1.864   9.345  17.542  1.00  0.00    -0.000 C 
BRANCH  16  17
ATOM     17  C   UNL     1       0.910  10.240  18.354  1.00  0.00    -0.003 C 
ATOM     18  C   UNL     1       0.815   9.830  19.823  1.00  0.00     0.004 C 
ENDBRANCH  16  17
ENDBRANCH  15  16
ENDBRANCH  14  15
ENDBRANCH  13  14
ENDBRANCH  12  13
ENDBRANCH  10  11
ENDBRANCH   1  10
TORSDOF 13
ENDMDL
MODEL 7
REMARK VINA RESULT:    -1.803      1.240      3.862
REMARK INTER + INTRA:          -5.652
REMARK INTER:                  -3.283
REMARK INTRA:                  -2.368
REMARK UNBOUND:                -2.478
REMARK SMILES CCCCCCC=CCCCCCCCC(=O)[O-]
REMARK SMILES IDX 10 1 11 2 12 3 13 4 14 5 15 6 16 7 17 8 18 9 9 10 8 11 7 12
REMARK SMILES IDX 6 13 5 14 4 15 3 16 2 17 1 18
REMARK H PARENT
REMARK Flexibility Score: inf
ROOT
ATOM      1  C   UNL     1       2.511   9.730  17.009  1.00  0.00     0.004 C 
ENDROOT
BRANCH   1   2
ATOM      2  C   UNL     1       1.385   9.535  18.032  1.00  0.00     0.000 C 
BRANCH   2   3
ATOM      3  C   UNL     1       1.413   8.118  18.619  1.00  0.00     0.000 C 
BRANCH   3   4
ATOM      4  C   UNL     1       0.012   7.492  18.607  1.00  0.00     0.000 C 
BRANCH   4   5
ATOM      5  C   UNL     1      -1.020   8.459  18.011  1.00  0.00     0.006 C 
BRANCH   5   6
ATOM      6  C   UNL     1      -2.431   7.857  17.980  1.00  0.00     0.053 C 
BRANCH   6   7
ATOM      7  C   UNL     1      -3.404   8.675  18.774  1.00  0.00     0.041 C 
ATOM      8  O   UNL     1      -4.333   9.295  18.192  1.00  0.00    -0.550 OA
ATOM      9  O   UNL     1      -3.312   8.713  20.160  1.00  0.00    -0.550 OA
ENDBRANCH   6   7
ENDBRANCH   5   6
ENDBRANCH   4   5
ENDBRANCH   3   4
ENDBRANCH   2   3
ENDBRANCH   1   2
BRANCH   1  10
ATOM     10  C   UNL     1       1.941  10.015  15.615  1.00  0.00     0.027 C 
BRANCH  10  11
ATOM     11  C   UNL     1       1.143   8.837  15.128  1.00  0.00    -0.031 C 
ATOM     12  C   UNL     1       1.702   7.631  14.944  1.00  0.00    -0.031 C 
BRANCH  12  13
ATOM     13  C   UNL     1       0.899   6.462  14.444  1.00  0.00     0.027 C 
BRANCH  13  14
ATOM     14  C   UNL     1      -0.599   6.671  14.711  1.00  0.00     0.004 C 
BRANCH  14  15
ATOM     15  C   UNL     1      -1.251   5.472  15.420  1.00  0.00     0.000 C 
BRANCH  15  16
ATOM     16  C   UNL     1      -0.272   4.544  16.168  1.00  0.00    -0.000 C 
BRANCH  16  17
ATOM     17  C   UNL     1      -0.711   4.147  17.590  1.00  0.00    -0.003 C 
ATOM     18  C   UNL     1      -2.229   4.093  17.751  1.00  0.00     0.004 C 
ENDBRANCH  16  17
ENDBRANCH  15  16
ENDBRANCH  14  15
ENDBRANCH  13  14
ENDBRANCH  12  13
ENDBRANCH  10  11
ENDBRANCH   1  10
TORSDOF 13
ENDMDL
MODEL 8
REMARK VINA RESULT:    -1.795      3.015      5.141
REMARK INTER + INTRA:          -5.637
REMARK INTER:                  -3.339
REMARK INTRA:                  -2.297
REMARK UNBOUND:                -2.478
REMARK SMILES CCCCCCC=CCCCCCCCC(=O)[O-]
REMARK SMILES IDX 10 1 11 2 12 3 13 4 14 5 15 6 16 7 17 8 18 9 9 10 8 11 7 12
REMARK SMILES IDX 6 13 5 14 4 15 3 16 2 17 1 18
REMARK H PARENT
REMARK Flexibility Score: inf
ROOT
ATOM      1  C   UNL     1      -0.127   7.735  14.605  1.00  0.00     0.004 C 
ENDROOT
BRANCH   1   2
ATOM      2  C   UNL     1      -0.933   6.917  15.621  1.00  0.00     0.000 C 
BRANCH   2   3
ATOM      3  C   UNL     1      -1.137   7.702  16.924  1.00  0.00     0.000 C 
BRANCH   3   4
ATOM      4  C   UNL     1       0.112   7.626  17.812  1.00  0.00     0.000 C 
BRANCH   4   5
ATOM      5  C   UNL     1       0.734   9.016  18.010  1.00  0.00     0.006 C 
BRANCH   5   6
ATOM      6  C   UNL     1       2.037   9.189  17.218  1.00  0.00     0.053 C 
BRANCH   6   7
ATOM      7  C   UNL     1       2.042  10.459  16.423  1.00  0.00     0.041 C 
ATOM      8  O   UNL     1       2.024  11.573  17.010  1.00  0.00    -0.550 OA
ATOM      9  O   UNL     1       2.115  10.411  15.036  1.00  0.00    -0.550 OA
ENDBRANCH   6   7
ENDBRANCH   5   6
ENDBRANCH   4   5
ENDBRANCH   3   4
ENDBRANCH   2   3
ENDBRANCH   1   2
BRANCH   1  10
ATOM     10  C   UNL     1       1.182   7.024  14.244  1.00  0.00     0.027 C 
BRANCH  10  11
ATOM     11  C   UNL     1       1.184   5.625  14.798  1.00  0.00    -0.031 C 
ATOM     12  C   UNL     1       2.124   5.208  15.660  1.00  0.00    -0.031 C 
BRANCH  12  13
ATOM     13  C   UNL     1       2.126   3.803  16.199  1.00  0.00     0.027 C 
BRANCH  13  14
ATOM     14  C   UNL     1       1.191   2.901  15.382  1.00  0.00     0.004 C 
BRANCH  14  15
ATOM     15  C   UNL     1       0.034   2.328  16.219  1.00  0.00     0.000 C 
BRANCH  15  16
ATOM     16  C   UNL     1      -1.307   3.076  16.077  1.00  0.00    -0.000 C 
BRANCH  16  17
ATOM     17  C   UNL     1      -1.695   3.949  17.284  1.00  0.00    -0.003 C 
ATOM     18  C   UNL     1      -0.788   3.731  18.494  1.00  0.00     0.004 C 
ENDBRANCH  16  17
ENDBRANCH  15  16
ENDBRANCH  14  15
ENDBRANCH  13  14
ENDBRANCH  12  13
ENDBRANCH  10  11
ENDBRANCH   1  10
TORSDOF 13
ENDMDL
MODEL 9
REMARK VINA RESULT:    -1.789      9.617     11.882
REMARK INTER + INTRA:          -5.626
REMARK INTER:                  -3.021
REMARK INTRA:                  -2.606
REMARK UNBOUND:                -2.478
REMARK SMILES CCCCCCC=CCCCCCCCC(=O)[O-]
REMARK SMILES IDX 10 1 11 2 12 3 13 4 14 5 15 6 16 7 17 8 18 9 9 10 8 11 7 12
REMARK SMILES IDX 6 13 5 14 4 15 3 16 2 17 1 18
REMARK H PARENT
REMARK Flexibility Score: inf
ROOT
ATOM      1  C   UNL     1       1.462   3.395  25.581  1.00  0.00     0.004 C 
ENDROOT
BRANCH   1   2
ATOM      2  C   UNL     1       0.773   2.044  25.356  1.00  0.00     0.000 C 
BRANCH   2   3
ATOM      3  C   UNL     1       0.162   1.965  23.950  1.00  0.00     0.000 C 
BRANCH   3   4
ATOM      4  C   UNL     1       0.421   0.592  23.316  1.00  0.00     0.000 C 
BRANCH   4   5
ATOM      5  C   UNL     1       1.098  -0.358  24.315  1.00  0.00     0.006 C 
BRANCH   5   6
ATOM      6  C   UNL     1       0.485  -1.765  24.285  1.00  0.00     0.053 C 
BRANCH   6   7
ATOM      7  C   UNL     1      -0.516  -1.960  25.384  1.00  0.00     0.041 C 
ATOM      8  O   UNL     1      -0.596  -1.125  26.323  1.00  0.00    -0.550 OA
ATOM      9  O   UNL     1      -1.391  -3.039  25.344  1.00  0.00    -0.550 OA
ENDBRANCH   6   7
ENDBRANCH   5   6
ENDBRANCH   4   5
ENDBRANCH   3   4
ENDBRANCH   2   3
ENDBRANCH   1   2
BRANCH   1  10
ATOM     10  C   UNL     1       2.814   3.212  26.278  1.00  0.00     0.027 C 
BRANCH  10  11
ATOM     11  C   UNL     1       3.189   1.755  26.311  1.00  0.00    -0.031 C 
ATOM     12  C   UNL     1       4.371   1.319  25.850  1.00  0.00    -0.031 C 
BRANCH  12  13
ATOM     13  C   UNL     1       4.733  -0.141  25.875  1.00  0.00     0.027 C 
BRANCH  13  14
ATOM     14  C   UNL     1       4.845  -0.703  24.451  1.00  0.00     0.004 C 
BRANCH  14  15
ATOM     15  C   UNL     1       5.007   0.397  23.387  1.00  0.00     0.000 C 
BRANCH  15  16
ATOM     16  C   UNL     1       4.038   0.297  22.191  1.00  0.00    -0.000 C 
BRANCH  16  17
ATOM     17  C   UNL     1       3.641   1.645  21.562  1.00  0.00    -0.003 C 
ATOM     18  C   UNL     1       3.548   2.776  22.586  1.00  0.00     0.004 C 
ENDBRANCH  16  17
ENDBRANCH  15  16
ENDBRANCH  14  15
ENDBRANCH  13  14
ENDBRANCH  12  13
ENDBRANCH  10  11
ENDBRANCH   1  10
TORSDOF 13
ENDMDL
