MODEL 1
REMARK VINA RESULT:    -4.335      0.000      0.000
REMARK INTER + INTRA:          -4.681
REMARK INTER:                  -4.588
REMARK INTRA:                  -0.093
REMARK UNBOUND:                -0.093
REMARK SMILES C=C(C)[C@H]1CC=C(C)C(=O)C1
REMARK SMILES IDX 8 1 7 2 6 3 5 4 4 5 11 6 9 7 10 8 2 9 1 10 3 11
REMARK H PARENT
REMARK Flexibility Score: inf
ROOT
ATOM      1  C   UNL     1      20.940  24.398  27.407  1.00  0.00     0.048 C 
ATOM      2  C   UNL     1      19.518  24.049  27.065  1.00  0.00    -0.012 C 
ATOM      3  C   UNL     1      19.248  22.955  26.332  1.00  0.00    -0.019 C 
ATOM      4  C   UNL     1      17.849  22.609  25.897  1.00  0.00     0.036 C 
ATOM      5  C   UNL     1      16.809  23.106  26.919  1.00  0.00     0.025 C 
ATOM      6  C   UNL     1      16.986  24.614  27.172  1.00  0.00     0.089 C 
ATOM      7  C   UNL     1      18.415  24.931  27.519  1.00  0.00     0.158 C 
ATOM      8  O   UNL     1      18.671  25.982  28.166  1.00  0.00    -0.295 OA
ENDROOT
BRANCH   5   9
ATOM      9  C   UNL     1      15.389  22.772  26.485  1.00  0.00    -0.077 C 
ATOM     10  C   UNL     1      14.972  22.993  25.227  1.00  0.00     0.008 C 
ATOM     11  C   UNL     1      14.416  22.178  27.472  1.00  0.00     0.039 C 
ENDBRANCH   5   9
TORSDOF 1
ENDMDL
MODEL 2
REMARK VINA RESULT:    -4.300      1.212      2.205
REMARK INTER + INTRA:          -4.644
REMARK INTER:                  -4.549
REMARK INTRA:                  -0.095
REMARK UNBOUND:                -0.093
REMARK SMILES C=C(C)[C@H]1CC=C(C)C(=O)C1
REMARK SMILES IDX 8 1 7 2 6 3 5 4 4 5 11 6 9 7 10 8 2 9 1 10 3 11
REMARK H PARENT
REMARK Flexibility Score: inf
ROOT
ATOM      1  C   UNL     1      21.750  25.842  28.713  1.00  0.00     0.048 C 
ATOM      2  C   UNL     1      20.742  25.101  27.878  1.00  0.00    -0.012 C 
ATOM      3  C   UNL     1      21.151  24.277  26.898  1.00  0.00    -0.019 C 
ATOM      4  C   UNL     1      20.179  23.578  25.985  1.00  0.00     0.036 C 
ATOM      5  C   UNL     1      18.847  23.291  26.704  1.00  0.00     0.025 C 
ATOM      6  C   UNL     1      18.265  24.590  27.290  1.00  0.00     0.089 C 
ATOM      7  C   UNL     1      19.293  25.303  28.125  1.00  0.00     0.158 C 
ATOM      8  O   UNL     1      18.909  26.112  29.012  1.00  0.00    -0.295 OA
ENDROOT
BRANCH   5   9
ATOM      9  C   UNL     1      17.851  22.593  25.787  1.00  0.00    -0.077 C 
ATOM     10  C   UNL     1      18.259  21.737  24.835  1.00  0.00     0.008 C 
ATOM     11  C   UNL     1      16.374  22.854  25.937  1.00  0.00     0.039 C 
ENDBRANCH   5   9
TORSDOF 1
ENDMDL
MODEL 3
REMARK VINA RESULT:    -4.277      2.225      4.403
REMARK INTER + INTRA:          -4.620
REMARK INTER:                  -4.522
REMARK INTRA:                  -0.098
REMARK UNBOUND:                -0.093
REMARK SMILES C=C(C)[C@H]1CC=C(C)C(=O)C1
REMARK SMILES IDX 8 1 7 2 6 3 5 4 4 5 11 6 9 7 10 8 2 9 1 10 3 11
REMARK H PARENT
REMARK Flexibility Score: inf
ROOT
ATOM      1  C   UNL     1      18.369  22.127  26.002  1.00  0.00     0.048 C 
ATOM      2  C   UNL     1      18.470  23.465  26.682  1.00  0.00    -0.012 C 
ATOM      3  C   UNL     1      19.674  24.004  26.937  1.00  0.00    -0.019 C 
ATOM      4  C   UNL     1      19.827  25.302  27.686  1.00  0.00     0.036 C 
ATOM      5  C   UNL     1      18.622  26.231  27.442  1.00  0.00     0.025 C 
ATOM      6  C   UNL     1      17.309  25.506  27.789  1.00  0.00     0.089 C 
ATOM      7  C   UNL     1      17.233  24.177  27.090  1.00  0.00     0.158 C 
ATOM      8  O   UNL     1      16.106  23.650  26.893  1.00  0.00    -0.295 OA
ENDROOT
BRANCH   5   9
ATOM      9  C   UNL     1      18.759  27.542  28.203  1.00  0.00    -0.077 C 
ATOM     10  C   UNL     1      17.682  28.276  28.531  1.00  0.00     0.008 C 
ATOM     11  C   UNL     1      20.122  28.043  28.607  1.00  0.00     0.039 C 
ENDBRANCH   5   9
TORSDOF 1
ENDMDL
MODEL 4
REMARK VINA RESULT:    -4.256      2.514      5.476
REMARK INTER + INTRA:          -4.598
REMARK INTER:                  -4.504
REMARK INTRA:                  -0.095
REMARK UNBOUND:                -0.093
REMARK SMILES C=C(C)[C@H]1CC=C(C)C(=O)C1
REMARK SMILES IDX 8 1 7 2 6 3 5 4 4 5 11 6 9 7 10 8 2 9 1 10 3 11
REMARK H PARENT
REMARK Flexibility Score: inf
ROOT
ATOM      1  C   UNL     1      19.085  22.969  26.326  1.00  0.00     0.048 C 
ATOM      2  C   UNL     1      19.599  24.119  27.148  1.00  0.00    -0.012 C 
ATOM      3  C   UNL     1      20.907  24.208  27.442  1.00  0.00    -0.019 C 
ATOM      4  C   UNL     1      21.455  25.296  28.328  1.00  0.00     0.036 C 
ATOM      5  C   UNL     1      20.620  26.585  28.209  1.00  0.00     0.025 C 
ATOM      6  C   UNL     1      19.136  26.290  28.496  1.00  0.00     0.089 C 
ATOM      7  C   UNL     1      18.650  25.142  27.654  1.00  0.00     0.158 C 
ATOM      8  O   UNL     1      17.417  25.032  27.419  1.00  0.00    -0.295 OA
ENDROOT
BRANCH   5   9
ATOM      9  C   UNL     1      21.157  27.689  29.109  1.00  0.00    -0.077 C 
ATOM     10  C   UNL     1      20.652  27.898  30.337  1.00  0.00     0.008 C 
ATOM     11  C   UNL     1      22.279  28.576  28.631  1.00  0.00     0.039 C 
ENDBRANCH   5   9
TORSDOF 1
ENDMDL
MODEL 5
REMARK VINA RESULT:    -4.245      2.498      4.250
REMARK INTER + INTRA:          -4.587
REMARK INTER:                  -4.493
REMARK INTRA:                  -0.094
REMARK UNBOUND:                -0.093
REMARK SMILES C=C(C)[C@H]1CC=C(C)C(=O)C1
REMARK SMILES IDX 8 1 7 2 6 3 5 4 4 5 11 6 9 7 10 8 2 9 1 10 3 11
REMARK H PARENT
REMARK Flexibility Score: inf
ROOT
ATOM      1  C   UNL     1      19.924  28.163  30.442  1.00  0.00     0.048 C 
ATOM      2  C   UNL     1      19.940  27.124  29.354  1.00  0.00    -0.012 C 
ATOM      3  C   UNL     1      21.058  26.419  29.111  1.00  0.00    -0.019 C 
ATOM      4  C   UNL     1      21.147  25.427  27.982  1.00  0.00     0.036 C 
ATOM      5  C   UNL     1      19.775  24.788  27.691  1.00  0.00     0.025 C 
ATOM      6  C   UNL     1      18.722  25.881  27.428  1.00  0.00     0.089 C 
ATOM      7  C   UNL     1      18.724  26.899  28.535  1.00  0.00     0.158 C 
ATOM      8  O   UNL     1      17.691  27.594  28.731  1.00  0.00    -0.295 OA
ENDROOT
BRANCH   5   9
ATOM      9  C   UNL     1      19.849  23.791  26.544  1.00  0.00    -0.077 C 
ATOM     10  C   UNL     1      18.902  22.854  26.369  1.00  0.00     0.008 C 
ATOM     11  C   UNL     1      21.001  23.841  25.572  1.00  0.00     0.039 C 
ENDBRANCH   5   9
TORSDOF 1
ENDMDL
MODEL 6
REMARK VINA RESULT:    -4.239      2.010      4.689
REMARK INTER + INTRA:          -4.580
REMARK INTER:                  -4.485
REMARK INTRA:                  -0.095
REMARK UNBOUND:                -0.093
REMARK SMILES C=C(C)[C@H]1CC=C(C)C(=O)C1
REMARK SMILES IDX 8 1 7 2 6 3 5 4 4 5 11 6 9 7 10 8 2 9 1 10 3 11
REMARK H PARENT
REMARK Flexibility Score: inf
ROOT
ATOM      1  C   UNL     1      14.546  25.463  27.912  1.00  0.00     0.048 C 
ATOM      2  C   UNL     1      16.008  25.263  27.621  1.00  0.00    -0.012 C 
ATOM      3  C   UNL     1      16.881  26.266  27.823  1.00  0.00    -0.019 C 
ATOM      4  C   UNL     1      18.339  26.139  27.472  1.00  0.00     0.036 C 
ATOM      5  C   UNL     1      18.821  24.682  27.609  1.00  0.00     0.025 C 
ATOM      6  C   UNL     1      17.934  23.744  26.769  1.00  0.00     0.089 C 
ATOM      7  C   UNL     1      16.480  23.962  27.087  1.00  0.00     0.158 C 
ATOM      8  O   UNL     1      15.655  23.038  26.852  1.00  0.00    -0.295 OA
ENDROOT
BRANCH   5   9
ATOM      9  C   UNL     1      20.292  24.538  27.245  1.00  0.00    -0.077 C 
ATOM     10  C   UNL     1      20.673  24.076  26.041  1.00  0.00     0.008 C 
ATOM     11  C   UNL     1      21.358  24.919  28.240  1.00  0.00     0.039 C 
ENDBRANCH   5   9
TORSDOF 1
ENDMDL
MODEL 7
REMARK VINA RESULT:    -4.229      2.510      4.217
REMARK INTER + INTRA:          -4.570
REMARK INTER:                  -4.475
REMARK INTRA:                  -0.095
REMARK UNBOUND:                -0.093
REMARK SMILES C=C(C)[C@H]1CC=C(C)C(=O)C1
REMARK SMILES IDX 8 1 7 2 6 3 5 4 4 5 11 6 9 7 10 8 2 9 1 10 3 11
REMARK H PARENT
REMARK Flexibility Score: inf
ROOT
ATOM      1  C   UNL     1      18.069  28.127  30.022  1.00  0.00     0.048 C 
ATOM      2  C   UNL     1      18.456  26.945  29.176  1.00  0.00    -0.012 C 
ATOM      3  C   UNL     1      17.565  26.398  28.330  1.00  0.00    -0.019 C 
ATOM      4  C   UNL     1      17.881  25.167  27.524  1.00  0.00     0.036 C 
ATOM      5  C   UNL     1      19.383  25.088  27.190  1.00  0.00     0.025 C 
ATOM      6  C   UNL     1      20.222  25.174  28.478  1.00  0.00     0.089 C 
ATOM      7  C   UNL     1      19.818  26.369  29.298  1.00  0.00     0.158 C 
ATOM      8  O   UNL     1      20.637  26.851  30.125  1.00  0.00    -0.295 OA
ENDROOT
BRANCH   5   9
ATOM      9  C   UNL     1      19.716  23.841  26.384  1.00  0.00    -0.077 C 
ATOM     10  C   UNL     1      18.903  22.771  26.383  1.00  0.00     0.008 C 
ATOM     11  C   UNL     1      20.979  23.786  25.563  1.00  0.00     0.039 C 
ENDBRANCH   5   9
TORSDOF 1
ENDMDL
MODEL 8
REMARK VINA RESULT:    -4.197      1.898      4.882
REMARK INTER + INTRA:          -4.536
REMARK INTER:                  -4.440
REMARK INTRA:                  -0.097
REMARK UNBOUND:                -0.093
REMARK SMILES C=C(C)[C@H]1CC=C(C)C(=O)C1
REMARK SMILES IDX 8 1 7 2 6 3 5 4 4 5 11 6 9 7 10 8 2 9 1 10 3 11
REMARK H PARENT
REMARK Flexibility Score: inf
ROOT
ATOM      1  C   UNL     1      15.767  22.818  26.352  1.00  0.00     0.048 C 
ATOM      2  C   UNL     1      16.957  23.638  26.771  1.00  0.00    -0.012 C 
ATOM      3  C   UNL     1      16.780  24.815  27.396  1.00  0.00    -0.019 C 
ATOM      4  C   UNL     1      17.936  25.707  27.762  1.00  0.00     0.036 C 
ATOM      5  C   UNL     1      19.205  24.884  28.053  1.00  0.00     0.025 C 
ATOM      6  C   UNL     1      19.531  23.964  26.861  1.00  0.00     0.089 C 
ATOM      7  C   UNL     1      18.326  23.152  26.471  1.00  0.00     0.158 C 
ATOM      8  O   UNL     1      18.491  22.072  25.843  1.00  0.00    -0.295 OA
ENDROOT
BRANCH   5   9
ATOM      9  C   UNL     1      20.385  25.775  28.413  1.00  0.00    -0.077 C 
ATOM     10  C   UNL     1      21.603  25.260  28.654  1.00  0.00     0.008 C 
ATOM     11  C   UNL     1      20.204  27.269  28.505  1.00  0.00     0.039 C 
ENDBRANCH   5   9
TORSDOF 1
ENDMDL
MODEL 9
REMARK VINA RESULT:    -4.183      1.530      4.370
REMARK INTER + INTRA:          -4.521
REMARK INTER:                  -4.424
REMARK INTRA:                  -0.097
REMARK UNBOUND:                -0.093
REMARK SMILES C=C(C)[C@H]1CC=C(C)C(=O)C1
REMARK SMILES IDX 8 1 7 2 6 3 5 4 4 5 11 6 9 7 10 8 2 9 1 10 3 11
REMARK H PARENT
REMARK Flexibility Score: inf
ROOT
ATOM      1  C   UNL     1      15.205  22.649  25.739  1.00  0.00     0.048 C 
ATOM      2  C   UNL     1      16.435  23.260  26.353  1.00  0.00    -0.012 C 
ATOM      3  C   UNL     1      17.652  22.772  26.056  1.00  0.00    -0.019 C 
ATOM      4  C   UNL     1      18.904  23.298  26.706  1.00  0.00     0.036 C 
ATOM      5  C   UNL     1      18.759  24.787  27.072  1.00  0.00     0.025 C 
ATOM      6  C   UNL     1      17.510  25.004  27.948  1.00  0.00     0.089 C 
ATOM      7  C   UNL     1      16.297  24.389  27.305  1.00  0.00     0.158 C 
ATOM      8  O   UNL     1      15.154  24.816  27.620  1.00  0.00    -0.295 OA
ENDROOT
BRANCH   5   9
ATOM      9  C   UNL     1      20.015  25.328  27.740  1.00  0.00    -0.077 C 
ATOM     10  C   UNL     1      21.150  24.610  27.781  1.00  0.00     0.008 C 
ATOM     11  C   UNL     1      20.005  26.697  28.373  1.00  0.00     0.039 C 
ENDBRANCH   5   9
TORSDOF 1
ENDMDL
