MODEL 1
REMARK VINA RESULT:    -2.030      0.000      0.000
REMARK INTER + INTRA:          -1.762
REMARK INTER:                  -2.505
REMARK INTRA:                   0.743
REMARK UNBOUND:                 0.743
REMARK SMILES CC1=CC=CC(C)(C)CC1=O
REMARK SMILES IDX 1 1 2 2 3 3 10 4 11 5 9 6 4 8 5 9 6 10 7 11 8 12
REMARK H PARENT
REMARK Flexibility Score: 80.00
ROOT
ATOM      1  C   UNL     1     152.720 153.621 153.081  1.00  0.00     0.048 C 
ATOM      2  C   UNL     1     153.469 153.283 151.812  1.00  0.00    -0.008 C 
ATOM      3  C   UNL     1     152.750 152.817 150.768  1.00  0.00     0.007 C 
ENDROOT
BRANCH   2   4
ATOM      4  C   UNL     1     154.927 153.562 151.793  1.00  0.00     0.159 C 
ATOM      5  O   UNL     1     155.433 154.219 152.743  1.00  0.00    -0.295 OA
BRANCH   4   6
ATOM      6  C   UNL     1     155.842 153.092 150.706  1.00  0.00     0.091 CG0
ATOM      7  G   UNL     1     155.430 153.590 149.302  1.00  0.00     0.000 G0
ENDBRANCH   4   6
ENDBRANCH   2   4
BRANCH   3   8
ATOM      8  C   UNL     1     153.191 152.432 149.406  1.00  0.00    -0.003 C 
ATOM      9  C   UNL     1     154.317 152.759 148.759  1.00  0.00    -0.020 C 
BRANCH   9  10
ATOM     10  C   UNL     1     155.448 153.603 149.297  1.00  0.00    -0.010 CG0
ATOM     11  C   UNL     1     155.054 155.097 149.263  1.00  0.00     0.016 C 
ATOM     12  C   UNL     1     156.676 153.412 148.377  1.00  0.00     0.016 C 
ATOM     13  G   UNL     1     155.830 153.120 150.714  1.00  0.00     0.000 G0
ENDBRANCH   9  10
ENDBRANCH   3   8
TORSDOF 0
ENDMDL
MODEL 2
REMARK VINA RESULT:    -2.026     21.642     22.765
REMARK INTER + INTRA:          -1.757
REMARK INTER:                  -2.531
REMARK INTRA:                   0.774
REMARK UNBOUND:                 0.743
REMARK SMILES CC1=CC=CC(C)(C)CC1=O
REMARK SMILES IDX 1 1 2 2 3 3 10 4 11 5 9 6 4 8 5 9 6 10 7 11 8 12
REMARK H PARENT
REMARK Flexibility Score: 80.00
ROOT
ATOM      1  C   UNL     1     169.944 170.444 152.578  1.00  0.00     0.048 C 
ATOM      2  C   UNL     1     169.595 170.983 151.210  1.00  0.00    -0.008 C 
ATOM      3  C   UNL     1     170.603 171.471 150.455  1.00  0.00     0.007 C 
ENDROOT
BRANCH   2   4
ATOM      4  C   UNL     1     168.180 170.864 150.777  1.00  0.00     0.159 C 
ATOM      5  O   UNL     1     167.394 170.151 151.459  1.00  0.00    -0.295 OA
BRANCH   4   6
ATOM      6  C   UNL     1     167.624 171.558 149.573  1.00  0.00     0.091 CG0
ATOM      7  G   UNL     1     168.320 171.147 148.256  1.00  0.00     0.000 G0
ENDBRANCH   4   6
ENDBRANCH   2   4
BRANCH   3   8
ATOM      8  C   UNL     1     170.578 172.033 149.084  1.00  0.00    -0.003 C 
ATOM      9  C   UNL     1     169.643 171.902 148.134  1.00  0.00    -0.020 C 
BRANCH   9  10
ATOM     10  C   UNL     1     168.341 171.147 148.256  1.00  0.00    -0.010 CG0
ATOM     11  C   UNL     1     168.602 169.626 148.169  1.00  0.00     0.016 C 
ATOM     12  C   UNL     1     167.436 171.545 147.066  1.00  0.00     0.016 C 
ATOM     13  G   UNL     1     167.623 171.553 149.562  1.00  0.00     0.000 G0
ENDBRANCH   9  10
ENDBRANCH   3   8
TORSDOF 0
ENDMDL
MODEL 3
REMARK VINA RESULT:    -1.904     21.504     22.749
REMARK INTER + INTRA:          -1.607
REMARK INTER:                  -2.352
REMARK INTRA:                   0.745
REMARK UNBOUND:                 0.743
REMARK SMILES CC1=CC=CC(C)(C)CC1=O
REMARK SMILES IDX 1 1 2 2 3 3 10 4 11 5 9 6 4 8 5 9 6 10 7 11 8 12
REMARK H PARENT
REMARK Flexibility Score: 80.00
ROOT
ATOM      1  C   UNL     1     170.559 168.578 152.019  1.00  0.00     0.048 C 
ATOM      2  C   UNL     1     170.196 169.636 151.003  1.00  0.00    -0.008 C 
ATOM      3  C   UNL     1     171.005 170.712 150.905  1.00  0.00     0.007 C 
ENDROOT
BRANCH   2   4
ATOM      4  C   UNL     1     169.017 169.369 150.141  1.00  0.00     0.159 C 
ATOM      5  O   UNL     1     168.506 168.216 150.151  1.00  0.00    -0.295 OA
BRANCH   4   6
ATOM      6  C   UNL     1     168.386 170.404 149.262  1.00  0.00     0.091 CG0
ATOM      7  G   UNL     1     169.362 171.000 148.223  1.00  0.00     0.000 G0
ENDBRANCH   4   6
ENDBRANCH   2   4
BRANCH   3   8
ATOM      8  C   UNL     1     170.926 171.883 149.999  1.00  0.00    -0.003 C 
ATOM      9  C   UNL     1     170.251 172.017 148.850  1.00  0.00    -0.020 C 
BRANCH   9  10
ATOM     10  C   UNL     1     169.362 170.981 148.206  1.00  0.00    -0.010 CG0
ATOM     11  C   UNL     1     170.227 169.903 147.511  1.00  0.00     0.016 C 
ATOM     12  C   UNL     1     168.509 171.680 147.122  1.00  0.00     0.016 C 
ATOM     13  G   UNL     1     168.405 170.385 149.262  1.00  0.00     0.000 G0
ENDBRANCH   9  10
ENDBRANCH   3   8
TORSDOF 0
ENDMDL
MODEL 4
REMARK VINA RESULT:    -1.827      8.299      9.919
REMARK INTER + INTRA:          -1.511
REMARK INTER:                  -2.262
REMARK INTRA:                   0.751
REMARK UNBOUND:                 0.743
REMARK SMILES CC1=CC=CC(C)(C)CC1=O
REMARK SMILES IDX 1 1 2 2 3 3 10 4 11 5 9 6 4 8 5 9 6 10 7 11 8 12
REMARK H PARENT
REMARK Flexibility Score: 80.00
ROOT
ATOM      1  C   UNL     1     155.684 152.144 142.731  1.00  0.00     0.048 C 
ATOM      2  C   UNL     1     155.904 153.382 141.893  1.00  0.00    -0.008 C 
ATOM      3  C   UNL     1     156.729 153.279 140.830  1.00  0.00     0.007 C 
ENDROOT
BRANCH   2   4
ATOM      4  C   UNL     1     155.133 154.595 142.265  1.00  0.00     0.159 C 
ATOM      5  O   UNL     1     154.226 154.495 143.137  1.00  0.00    -0.295 OA
BRANCH   4   6
ATOM      6  C   UNL     1     155.381 155.945 141.669  1.00  0.00     0.091 CG0
ATOM      7  G   UNL     1     155.239 155.969 140.131  1.00  0.00     0.000 G0
ENDBRANCH   4   6
ENDBRANCH   2   4
BRANCH   3   8
ATOM      8  C   UNL     1     157.114 154.296 139.823  1.00  0.00    -0.003 C 
ATOM      9  C   UNL     1     156.499 155.442 139.502  1.00  0.00    -0.020 C 
BRANCH   9  10
ATOM     10  C   UNL     1     155.244 155.994 140.135  1.00  0.00    -0.010 CG0
ATOM     11  C   UNL     1     154.008 155.230 139.608  1.00  0.00     0.016 C 
ATOM     12  C   UNL     1     155.103 157.476 139.718  1.00  0.00     0.016 C 
ATOM     13  G   UNL     1     155.368 155.936 141.674  1.00  0.00     0.000 G0
ENDBRANCH   9  10
ENDBRANCH   3   8
TORSDOF 0
ENDMDL
MODEL 5
REMARK VINA RESULT:    -1.796      5.352      7.496
REMARK INTER + INTRA:          -1.472
REMARK INTER:                  -2.217
REMARK INTRA:                   0.745
REMARK UNBOUND:                 0.743
REMARK SMILES CC1=CC=CC(C)(C)CC1=O
REMARK SMILES IDX 1 1 2 2 3 3 10 4 11 5 9 6 4 8 5 9 6 10 7 11 8 12
REMARK H PARENT
REMARK Flexibility Score: 80.00
ROOT
ATOM      1  C   UNL     1     156.053 153.995 141.109  1.00  0.00     0.048 C 
ATOM      2  C   UNL     1     156.513 153.302 142.371  1.00  0.00    -0.008 C 
ATOM      3  C   UNL     1     157.765 152.796 142.385  1.00  0.00     0.007 C 
ENDROOT
BRANCH   2   4
ATOM      4  C   UNL     1     155.576 153.301 143.521  1.00  0.00     0.159 C 
ATOM      5  O   UNL     1     154.553 154.038 143.473  1.00  0.00    -0.295 OA
BRANCH   4   6
ATOM      6  C   UNL     1     155.769 152.457 144.742  1.00  0.00     0.091 CG0
ATOM      7  G   UNL     1     157.086 152.759 145.491  1.00  0.00     0.000 G0
ENDBRANCH   4   6
ENDBRANCH   2   4
BRANCH   3   8
ATOM      8  C   UNL     1     158.496 152.098 143.468  1.00  0.00    -0.003 C 
ATOM      9  C   UNL     1     158.238 152.073 144.782  1.00  0.00    -0.020 C 
BRANCH   9  10
ATOM     10  C   UNL     1     157.087 152.754 145.482  1.00  0.00    -0.010 CG0
ATOM     11  C   UNL     1     157.373 154.267 145.620  1.00  0.00     0.016 C 
ATOM     12  C   UNL     1     156.965 152.160 146.905  1.00  0.00     0.016 C 
ATOM     13  G   UNL     1     155.771 152.463 144.726  1.00  0.00     0.000 G0
ENDBRANCH   9  10
ENDBRANCH   3   8
TORSDOF 0
ENDMDL
MODEL 6
REMARK VINA RESULT:    -1.752     21.424     22.909
REMARK INTER + INTRA:          -1.419
REMARK INTER:                  -2.176
REMARK INTRA:                   0.757
REMARK UNBOUND:                 0.743
REMARK SMILES CC1=CC=CC(C)(C)CC1=O
REMARK SMILES IDX 1 1 2 2 3 3 10 4 11 5 9 6 4 8 5 9 6 10 7 11 8 12
REMARK H PARENT
REMARK Flexibility Score: 80.00
ROOT
ATOM      1  C   UNL     1     164.933 170.510 143.451  1.00  0.00     0.048 C 
ATOM      2  C   UNL     1     166.247 170.569 142.706  1.00  0.00    -0.008 C 
ATOM      3  C   UNL     1     167.084 171.588 142.997  1.00  0.00     0.007 C 
ENDROOT
BRANCH   2   4
ATOM      4  C   UNL     1     166.542 169.458 141.768  1.00  0.00     0.159 C 
ATOM      5  O   UNL     1     165.797 168.440 141.777  1.00  0.00    -0.295 OA
BRANCH   4   6
ATOM      6  C   UNL     1     167.678 169.481 140.793  1.00  0.00     0.091 CG0
ATOM      7  G   UNL     1     169.057 169.657 141.466  1.00  0.00     0.000 G0
ENDBRANCH   4   6
ENDBRANCH   2   4
BRANCH   3   8
ATOM      8  C   UNL     1     168.431 171.893 142.461  1.00  0.00    -0.003 C 
ATOM      9  C   UNL     1     169.287 171.089 141.818  1.00  0.00    -0.020 C 
BRANCH   9  10
ATOM     10  C   UNL     1     169.056 169.641 141.454  1.00  0.00    -0.010 CG0
ATOM     11  C   UNL     1     169.224 168.750 142.706  1.00  0.00     0.016 C 
ATOM     12  C   UNL     1     170.130 169.223 140.423  1.00  0.00     0.016 C 
ATOM     13  G   UNL     1     167.668 169.485 140.794  1.00  0.00     0.000 G0
ENDBRANCH   9  10
ENDBRANCH   3   8
TORSDOF 0
ENDMDL
MODEL 7
REMARK VINA RESULT:    -1.680      2.989      4.785
REMARK INTER + INTRA:          -1.330
REMARK INTER:                  -2.089
REMARK INTRA:                   0.759
REMARK UNBOUND:                 0.743
REMARK SMILES CC1=CC=CC(C)(C)CC1=O
REMARK SMILES IDX 1 1 2 2 3 3 10 4 11 5 9 6 4 8 5 9 6 10 7 11 8 12
REMARK H PARENT
REMARK Flexibility Score: 80.00
ROOT
ATOM      1  C   UNL     1     158.041 152.265 145.839  1.00  0.00     0.048 C 
ATOM      2  C   UNL     1     156.928 152.471 146.840  1.00  0.00    -0.008 C 
ATOM      3  C   UNL     1     157.217 152.282 148.145  1.00  0.00     0.007 C 
ENDROOT
BRANCH   2   4
ATOM      4  C   UNL     1     155.622 152.940 146.311  1.00  0.00     0.159 C 
ATOM      5  O   UNL     1     155.556 153.326 145.112  1.00  0.00    -0.295 OA
BRANCH   4   6
ATOM      6  C   UNL     1     154.365 152.968 147.123  1.00  0.00     0.091 CG0
ATOM      7  G   UNL     1     154.470 153.861 148.380  1.00  0.00     0.000 G0
ENDBRANCH   4   6
ENDBRANCH   2   4
BRANCH   3   8
ATOM      8  C   UNL     1     156.356 152.432 149.341  1.00  0.00    -0.003 C 
ATOM      9  C   UNL     1     155.201 153.097 149.473  1.00  0.00    -0.020 C 
BRANCH   9  10
ATOM     10  C   UNL     1     154.471 153.850 148.386  1.00  0.00    -0.010 CG0
ATOM     11  C   UNL     1     155.173 155.201 148.118  1.00  0.00     0.016 C 
ATOM     12  C   UNL     1     153.037 154.146 148.881  1.00  0.00     0.016 C 
ATOM     13  G   UNL     1     154.371 152.970 147.120  1.00  0.00     0.000 G0
ENDBRANCH   9  10
ENDBRANCH   3   8
TORSDOF 0
ENDMDL
MODEL 8
REMARK VINA RESULT:    -1.674     21.394     22.572
REMARK INTER + INTRA:          -1.322
REMARK INTER:                  -2.095
REMARK INTRA:                   0.773
REMARK UNBOUND:                 0.743
REMARK SMILES CC1=CC=CC(C)(C)CC1=O
REMARK SMILES IDX 1 1 2 2 3 3 10 4 11 5 9 6 4 8 5 9 6 10 7 11 8 12
REMARK H PARENT
REMARK Flexibility Score: 80.00
ROOT
ATOM      1  C   UNL     1     168.890 171.729 144.823  1.00  0.00     0.048 C 
ATOM      2  C   UNL     1     168.195 171.020 143.684  1.00  0.00    -0.008 C 
ATOM      3  C   UNL     1     167.672 171.782 142.700  1.00  0.00     0.007 C 
ENDROOT
BRANCH   2   4
ATOM      4  C   UNL     1     168.209 169.536 143.702  1.00  0.00     0.159 C 
ATOM      5  O   UNL     1     168.939 168.945 144.545  1.00  0.00    -0.295 OA
BRANCH   4   6
ATOM      6  C   UNL     1     167.389 168.691 142.778  1.00  0.00     0.091 CG0
ATOM      7  G   UNL     1     167.695 168.946 141.285  1.00  0.00     0.000 G0
ENDBRANCH   4   6
ENDBRANCH   2   4
BRANCH   3   8
ATOM      8  C   UNL     1     166.967 171.381 141.460  1.00  0.00    -0.003 C 
ATOM      9  C   UNL     1     166.962 170.196 140.836  1.00  0.00    -0.020 C 
BRANCH   9  10
ATOM     10  C   UNL     1     167.678 168.944 141.283  1.00  0.00    -0.010 CG0
ATOM     11  C   UNL     1     169.190 169.064 140.982  1.00  0.00     0.016 C 
ATOM     12  C   UNL     1     167.123 167.751 140.472  1.00  0.00     0.016 C 
ATOM     13  G   UNL     1     167.388 168.685 142.779  1.00  0.00     0.000 G0
ENDBRANCH   9  10
ENDBRANCH   3   8
TORSDOF 0
ENDMDL
MODEL 9
REMARK VINA RESULT:    -1.633     20.993     22.213
REMARK INTER + INTRA:          -1.271
REMARK INTER:                  -2.026
REMARK INTRA:                   0.754
REMARK UNBOUND:                 0.743
REMARK SMILES CC1=CC=CC(C)(C)CC1=O
REMARK SMILES IDX 1 1 2 2 3 3 10 4 11 5 9 6 4 8 5 9 6 10 7 11 8 12
REMARK H PARENT
REMARK Flexibility Score: 80.00
ROOT
ATOM      1  C   UNL     1     166.762 170.403 142.469  1.00  0.00     0.048 C 
ATOM      2  C   UNL     1     167.324 170.584 143.860  1.00  0.00    -0.008 C 
ATOM      3  C   UNL     1     168.240 171.558 144.042  1.00  0.00     0.007 C 
ENDROOT
BRANCH   2   4
ATOM      4  C   UNL     1     166.765 169.722 144.932  1.00  0.00     0.159 C 
ATOM      5  O   UNL     1     165.735 169.035 144.685  1.00  0.00    -0.295 OA
BRANCH   4   6
ATOM      6  C   UNL     1     167.367 169.609 146.298  1.00  0.00     0.091 CG0
ATOM      7  G   UNL     1     167.442 170.959 147.045  1.00  0.00     0.000 G0
ENDBRANCH   4   6
ENDBRANCH   2   4
BRANCH   3   8
ATOM      8  C   UNL     1     168.940 171.987 145.276  1.00  0.00    -0.003 C 
ATOM      9  C   UNL     1     168.615 171.757 146.555  1.00  0.00    -0.020 C 
BRANCH   9  10
ATOM     10  C   UNL     1     167.433 170.959 147.050  1.00  0.00    -0.010 CG0
ATOM     11  C   UNL     1     166.138 171.793 146.916  1.00  0.00     0.016 C 
ATOM     12  C   UNL     1     167.649 170.651 148.550  1.00  0.00     0.016 C 
ATOM     13  G   UNL     1     167.357 169.615 146.290  1.00  0.00     0.000 G0
ENDBRANCH   9  10
ENDBRANCH   3   8
TORSDOF 0
ENDMDL
