MODEL 1
REMARK VINA RESULT:    -5.887      0.000      0.000
REMARK INTER + INTRA:          -9.136
REMARK INTER:                  -7.952
REMARK INTRA:                  -1.185
REMARK UNBOUND:                -1.185
REMARK SMILES O=c1c(-c2ccc(O)cc2)coc2c([C@@H]3O[C@H](CO)[C@@H](O)[C@@H](O)[C@H]3O)c(O)ccc12
REMARK SMILES IDX 3 1 11 2 12 3 13 4 30 5 2 6 1 7 29 8 28 9 26 10 14 11 4 12
REMARK SMILES IDX 5 13 6 14 7 15 10 16 9 17 8 18 15 20 24 21 16 22 22 23 17 24
REMARK SMILES IDX 20 25 25 26 23 28 18 30 19 31 21 33 27 35
REMARK H PARENT 8 19 25 27 23 29 19 32 21 34 27 36
REMARK Flexibility Score: inf
ROOT
ATOM      1  C   UNL     1      -3.367  38.565  19.044  1.00  0.00     0.065 A 
ATOM      2  C   UNL     1      -4.216  37.743  18.292  1.00  0.00     0.208 A 
ATOM      3  O   UNL     1      -3.802  36.565  17.842  1.00  0.00    -0.463 OA
ATOM      4  C   UNL     1      -2.579  36.089  18.064  1.00  0.00     0.147 A 
ATOM      5  C   UNL     1      -1.652  36.859  18.807  1.00  0.00     0.066 A 
ATOM      6  C   UNL     1      -2.059  38.115  19.296  1.00  0.00     0.200 A 
ATOM      7  O   UNL     1      -1.249  38.840  19.938  1.00  0.00    -0.288 OA
ATOM      8  C   UNL     1      -0.357  36.365  19.025  1.00  0.00     0.020 A 
ATOM      9  C   UNL     1       0.018  35.127  18.507  1.00  0.00     0.047 A 
ATOM     10  C   UNL     1      -0.889  34.358  17.770  1.00  0.00     0.125 A 
ATOM     11  C   UNL     1      -2.208  34.821  17.557  1.00  0.00     0.069 A 
ENDROOT
BRANCH   1  12
ATOM     12  C   UNL     1      -3.856  39.875  19.544  1.00  0.00    -0.011 A 
ATOM     13  C   UNL     1      -4.407  39.991  20.832  1.00  0.00     0.013 A 
ATOM     14  C   UNL     1      -4.874  41.225  21.295  1.00  0.00     0.047 A 
ATOM     15  C   UNL     1      -4.801  42.358  20.473  1.00  0.00     0.115 A 
ATOM     16  C   UNL     1      -3.794  41.016  18.723  1.00  0.00     0.013 A 
ATOM     17  C   UNL     1      -4.261  42.248  19.188  1.00  0.00     0.047 A 
BRANCH  15  18
ATOM     18  O   UNL     1      -5.263  43.592  20.922  1.00  0.00    -0.508 OA
ATOM     19  H   UNL     1      -5.038  43.937  21.848  1.00  0.00     0.293 HD
ENDBRANCH  15  18
ENDBRANCH   1  12
BRANCH  11  20
ATOM     20  C   UNL     1      -3.196  34.001  16.736  1.00  0.00     0.188 C 
ATOM     21  C   UNL     1      -2.893  34.163  15.229  1.00  0.00     0.179 C 
ATOM     22  O   UNL     1      -3.108  32.641  17.126  1.00  0.00    -0.362 OA
ATOM     23  C   UNL     1      -3.810  33.256  14.379  1.00  0.00     0.177 C 
ATOM     24  C   UNL     1      -4.107  31.862  16.488  1.00  0.00     0.176 C 
ATOM     25  C   UNL     1      -3.869  31.827  14.956  1.00  0.00     0.177 C 
BRANCH  21  26
ATOM     26  O   UNL     1      -3.056  35.507  14.851  1.00  0.00    -0.387 OA
ATOM     27  H   UNL     1      -3.784  35.528  14.178  1.00  0.00     0.211 HD
ENDBRANCH  21  26
BRANCH  23  28
ATOM     28  O   UNL     1      -5.095  33.812  14.219  1.00  0.00    -0.387 OA
ATOM     29  H   UNL     1      -5.599  33.685  15.061  1.00  0.00     0.211 HD
ENDBRANCH  23  28
BRANCH  24  30
ATOM     30  C   UNL     1      -4.086  30.454  17.101  1.00  0.00     0.191 C 
BRANCH  30  31
ATOM     31  O   UNL     1      -3.644  29.504  16.167  1.00  0.00    -0.394 OA
ATOM     32  H   UNL     1      -4.433  29.242  15.624  1.00  0.00     0.210 HD
ENDBRANCH  30  31
ENDBRANCH  24  30
BRANCH  25  33
ATOM     33  O   UNL     1      -4.894  31.108  14.315  1.00  0.00    -0.388 OA
ATOM     34  H   UNL     1      -5.613  30.962  14.984  1.00  0.00     0.211 HD
ENDBRANCH  25  33
ENDBRANCH  11  20
BRANCH  10  35
ATOM     35  O   UNL     1      -0.477  33.132  17.245  1.00  0.00    -0.507 OA
ATOM     36  H   UNL     1      -0.241  32.348  17.842  1.00  0.00     0.293 HD
ENDBRANCH  10  35
TORSDOF 9
ENDMDL
MODEL 2
REMARK VINA RESULT:    -5.690      1.087      1.219
REMARK INTER + INTRA:          -8.870
REMARK INTER:                  -8.012
REMARK INTRA:                  -0.858
REMARK UNBOUND:                -1.185
REMARK SMILES O=c1c(-c2ccc(O)cc2)coc2c([C@@H]3O[C@H](CO)[C@@H](O)[C@@H](O)[C@H]3O)c(O)ccc12
REMARK SMILES IDX 3 1 11 2 12 3 13 4 30 5 2 6 1 7 29 8 28 9 26 10 14 11 4 12
REMARK SMILES IDX 5 13 6 14 7 15 10 16 9 17 8 18 15 20 24 21 16 22 22 23 17 24
REMARK SMILES IDX 20 25 25 26 23 28 18 30 19 31 21 33 27 35
REMARK H PARENT 8 19 25 27 23 29 19 32 21 34 27 36
REMARK Flexibility Score: inf
ROOT
ATOM      1  C   UNL     1      -3.347  39.011  19.266  1.00  0.00     0.065 A 
ATOM      2  C   UNL     1      -3.915  38.398  18.142  1.00  0.00     0.208 A 
ATOM      3  O   UNL     1      -3.403  37.279  17.642  1.00  0.00    -0.463 OA
ATOM      4  C   UNL     1      -2.336  36.674  18.157  1.00  0.00     0.147 A 
ATOM      5  C   UNL     1      -1.692  37.231  19.288  1.00  0.00     0.066 A 
ATOM      6  C   UNL     1      -2.209  38.418  19.841  1.00  0.00     0.200 A 
ATOM      7  O   UNL     1      -1.642  38.957  20.832  1.00  0.00    -0.288 OA
ATOM      8  C   UNL     1      -0.557  36.601  19.821  1.00  0.00     0.020 A 
ATOM      9  C   UNL     1      -0.059  35.439  19.234  1.00  0.00     0.047 A 
ATOM     10  C   UNL     1      -0.687  34.880  18.115  1.00  0.00     0.125 A 
ATOM     11  C   UNL     1      -1.847  35.480  17.574  1.00  0.00     0.069 A 
ENDROOT
BRANCH   1  12
ATOM     12  C   UNL     1      -3.944  40.257  19.812  1.00  0.00    -0.011 A 
ATOM     13  C   UNL     1      -4.710  40.228  20.990  1.00  0.00     0.013 A 
ATOM     14  C   UNL     1      -5.277  41.403  21.494  1.00  0.00     0.047 A 
ATOM     15  C   UNL     1      -5.089  42.619  20.825  1.00  0.00     0.115 A 
ATOM     16  C   UNL     1      -3.766  41.481  19.141  1.00  0.00     0.013 A 
ATOM     17  C   UNL     1      -4.334  42.653  19.649  1.00  0.00     0.047 A 
BRANCH  15  18
ATOM     18  O   UNL     1      -5.649  43.795  21.317  1.00  0.00    -0.508 OA
ATOM     19  H   UNL     1      -5.077  44.516  21.741  1.00  0.00     0.293 HD
ENDBRANCH  15  18
ENDBRANCH   1  12
BRANCH  11  20
ATOM     20  C   UNL     1      -2.523  34.893  16.342  1.00  0.00     0.188 C 
ATOM     21  C   UNL     1      -1.610  35.060  15.107  1.00  0.00     0.179 C 
ATOM     22  O   UNL     1      -2.810  33.524  16.577  1.00  0.00    -0.362 OA
ATOM     23  C   UNL     1      -2.223  34.375  13.866  1.00  0.00     0.177 C 
ATOM     24  C   UNL     1      -3.565  32.970  15.512  1.00  0.00     0.176 C 
ATOM     25  C   UNL     1      -2.729  32.958  14.206  1.00  0.00     0.177 C 
BRANCH  21  26
ATOM     26  O   UNL     1      -1.399  36.426  14.852  1.00  0.00    -0.387 OA
ATOM     27  H   UNL     1      -0.578  36.490  14.297  1.00  0.00     0.211 HD
ENDBRANCH  21  26
BRANCH  23  28
ATOM     28  O   UNL     1      -3.230  35.164  13.275  1.00  0.00    -0.387 OA
ATOM     29  H   UNL     1      -4.091  34.960  13.720  1.00  0.00     0.211 HD
ENDBRANCH  23  28
BRANCH  24  30
ATOM     30  C   UNL     1      -4.009  31.557  15.919  1.00  0.00     0.191 C 
BRANCH  30  31
ATOM     31  O   UNL     1      -3.381  31.153  17.107  1.00  0.00    -0.394 OA
ATOM     32  H   UNL     1      -3.780  30.282  17.364  1.00  0.00     0.210 HD
ENDBRANCH  30  31
ENDBRANCH  24  30
BRANCH  25  33
ATOM     33  O   UNL     1      -3.497  32.469  13.134  1.00  0.00    -0.388 OA
ATOM     34  H   UNL     1      -4.427  32.364  13.464  1.00  0.00     0.211 HD
ENDBRANCH  25  33
ENDBRANCH  11  20
BRANCH  10  35
ATOM     35  O   UNL     1      -0.152  33.728  17.536  1.00  0.00    -0.507 OA
ATOM     36  H   UNL     1      -0.064  33.627  16.532  1.00  0.00     0.293 HD
ENDBRANCH  10  35
TORSDOF 9
ENDMDL
MODEL 3
REMARK VINA RESULT:    -5.461      1.929      3.189
REMARK INTER + INTRA:          -8.562
REMARK INTER:                  -7.456
REMARK INTRA:                  -1.106
REMARK UNBOUND:                -1.185
REMARK SMILES O=c1c(-c2ccc(O)cc2)coc2c([C@@H]3O[C@H](CO)[C@@H](O)[C@@H](O)[C@H]3O)c(O)ccc12
REMARK SMILES IDX 3 1 11 2 12 3 13 4 30 5 2 6 1 7 29 8 28 9 26 10 14 11 4 12
REMARK SMILES IDX 5 13 6 14 7 15 10 16 9 17 8 18 15 20 24 21 16 22 22 23 17 24
REMARK SMILES IDX 20 25 25 26 23 28 18 30 19 31 21 33 27 35
REMARK H PARENT 8 19 25 27 23 29 19 32 21 34 27 36
REMARK Flexibility Score: inf
ROOT
ATOM      1  C   UNL     1      -4.128  41.197  19.212  1.00  0.00     0.065 A 
ATOM      2  C   UNL     1      -4.399  40.338  18.139  1.00  0.00     0.208 A 
ATOM      3  O   UNL     1      -3.804  39.155  18.045  1.00  0.00    -0.463 OA
ATOM      4  C   UNL     1      -2.925  38.708  18.940  1.00  0.00     0.147 A 
ATOM      5  C   UNL     1      -2.586  39.516  20.051  1.00  0.00     0.066 A 
ATOM      6  C   UNL     1      -3.197  40.778  20.179  1.00  0.00     0.200 A 
ATOM      7  O   UNL     1      -2.895  41.536  21.143  1.00  0.00    -0.288 OA
ATOM      8  C   UNL     1      -1.646  39.053  20.985  1.00  0.00     0.020 A 
ATOM      9  C   UNL     1      -1.044  37.808  20.815  1.00  0.00     0.047 A 
ATOM     10  C   UNL     1      -1.372  37.000  19.719  1.00  0.00     0.125 A 
ATOM     11  C   UNL     1      -2.333  37.433  18.778  1.00  0.00     0.069 A 
ENDROOT
BRANCH   1  12
ATOM     12  C   UNL     1      -4.813  42.512  19.300  1.00  0.00    -0.011 A 
ATOM     13  C   UNL     1      -4.501  43.544  18.398  1.00  0.00     0.013 A 
ATOM     14  C   UNL     1      -5.144  44.783  18.491  1.00  0.00     0.047 A 
ATOM     15  C   UNL     1      -6.102  45.006  19.489  1.00  0.00     0.115 A 
ATOM     16  C   UNL     1      -5.771  42.746  20.303  1.00  0.00     0.013 A 
ATOM     17  C   UNL     1      -6.412  43.985  20.392  1.00  0.00     0.047 A 
BRANCH  15  18
ATOM     18  O   UNL     1      -6.749  46.235  19.592  1.00  0.00    -0.508 OA
ATOM     19  H   UNL     1      -7.536  46.469  18.999  1.00  0.00     0.293 HD
ENDBRANCH  15  18
ENDBRANCH   1  12
BRANCH  11  20
ATOM     20  C   UNL     1      -2.679  36.572  17.569  1.00  0.00     0.188 C 
ATOM     21  C   UNL     1      -1.560  36.677  16.507  1.00  0.00     0.179 C 
ATOM     22  O   UNL     1      -2.852  35.229  17.989  1.00  0.00    -0.362 OA
ATOM     23  C   UNL     1      -1.832  35.729  15.320  1.00  0.00     0.177 C 
ATOM     24  C   UNL     1      -3.312  34.416  16.922  1.00  0.00     0.176 C 
ATOM     25  C   UNL     1      -2.235  34.323  15.810  1.00  0.00     0.177 C 
BRANCH  21  26
ATOM     26  O   UNL     1      -1.456  38.004  16.055  1.00  0.00    -0.387 OA
ATOM     27  H   UNL     1      -2.171  38.132  15.379  1.00  0.00     0.211 HD
ENDBRANCH  21  26
BRANCH  23  28
ATOM     28  O   UNL     1      -2.781  36.265  14.427  1.00  0.00    -0.387 OA
ATOM     29  H   UNL     1      -3.682  36.155  14.823  1.00  0.00     0.211 HD
ENDBRANCH  23  28
BRANCH  24  30
ATOM     30  C   UNL     1      -3.669  33.033  17.487  1.00  0.00     0.191 C 
BRANCH  30  31
ATOM     31  O   UNL     1      -2.591  32.142  17.358  1.00  0.00    -0.394 OA
ATOM     32  H   UNL     1      -1.773  32.693  17.247  1.00  0.00     0.210 HD
ENDBRANCH  30  31
ENDBRANCH  24  30
BRANCH  25  33
ATOM     33  O   UNL     1      -2.713  33.570  14.723  1.00  0.00    -0.388 OA
ATOM     34  H   UNL     1      -2.186  32.729  14.694  1.00  0.00     0.211 HD
ENDBRANCH  25  33
ENDBRANCH  11  20
BRANCH  10  35
ATOM     35  O   UNL     1      -0.735  35.768  19.564  1.00  0.00    -0.507 OA
ATOM     36  H   UNL     1      -0.328  35.485  18.681  1.00  0.00     0.293 HD
ENDBRANCH  10  35
TORSDOF 9
ENDMDL
MODEL 4
REMARK VINA RESULT:    -5.219      2.049      3.054
REMARK INTER + INTRA:          -8.234
REMARK INTER:                  -7.112
REMARK INTRA:                  -1.123
REMARK UNBOUND:                -1.185
REMARK SMILES O=c1c(-c2ccc(O)cc2)coc2c([C@@H]3O[C@H](CO)[C@@H](O)[C@@H](O)[C@H]3O)c(O)ccc12
REMARK SMILES IDX 3 1 11 2 12 3 13 4 30 5 2 6 1 7 29 8 28 9 26 10 14 11 4 12
REMARK SMILES IDX 5 13 6 14 7 15 10 16 9 17 8 18 15 20 24 21 16 22 22 23 17 24
REMARK SMILES IDX 20 25 25 26 23 28 18 30 19 31 21 33 27 35
REMARK H PARENT 8 19 25 27 23 29 19 32 21 34 27 36
REMARK Flexibility Score: inf
ROOT
ATOM      1  C   UNL     1      -2.819  37.076  18.408  1.00  0.00     0.065 A 
ATOM      2  C   UNL     1      -3.665  36.050  18.848  1.00  0.00     0.208 A 
ATOM      3  O   UNL     1      -3.785  34.922  18.159  1.00  0.00    -0.463 OA
ATOM      4  C   UNL     1      -3.128  34.687  17.025  1.00  0.00     0.147 A 
ATOM      5  C   UNL     1      -2.258  35.675  16.503  1.00  0.00     0.066 A 
ATOM      6  C   UNL     1      -2.111  36.884  17.208  1.00  0.00     0.200 A 
ATOM      7  O   UNL     1      -1.365  37.797  16.756  1.00  0.00    -0.288 OA
ATOM      8  C   UNL     1      -1.579  35.435  15.299  1.00  0.00     0.020 A 
ATOM      9  C   UNL     1      -1.767  34.235  14.615  1.00  0.00     0.047 A 
ATOM     10  C   UNL     1      -2.625  33.252  15.122  1.00  0.00     0.125 A 
ATOM     11  C   UNL     1      -3.302  33.459  16.346  1.00  0.00     0.069 A 
ENDROOT
BRANCH   1  12
ATOM     12  C   UNL     1      -2.694  38.325  19.202  1.00  0.00    -0.011 A 
ATOM     13  C   UNL     1      -3.520  39.431  18.933  1.00  0.00     0.013 A 
ATOM     14  C   UNL     1      -3.393  40.608  19.678  1.00  0.00     0.047 A 
ATOM     15  C   UNL     1      -2.436  40.695  20.697  1.00  0.00     0.115 A 
ATOM     16  C   UNL     1      -1.731  38.424  20.222  1.00  0.00     0.013 A 
ATOM     17  C   UNL     1      -1.607  39.602  20.965  1.00  0.00     0.047 A 
BRANCH  15  18
ATOM     18  O   UNL     1      -2.299  41.861  21.446  1.00  0.00    -0.508 OA
ATOM     19  H   UNL     1      -1.715  41.893  22.274  1.00  0.00     0.293 HD
ENDBRANCH  15  18
ENDBRANCH   1  12
BRANCH  11  20
ATOM     20  C   UNL     1      -4.256  32.405  16.893  1.00  0.00     0.188 C 
ATOM     21  C   UNL     1      -5.660  32.590  16.274  1.00  0.00     0.179 C 
ATOM     22  O   UNL     1      -3.742  31.116  16.602  1.00  0.00    -0.362 OA
ATOM     23  C   UNL     1      -6.619  31.468  16.727  1.00  0.00     0.177 C 
ATOM     24  C   UNL     1      -4.525  30.104  17.214  1.00  0.00     0.176 C 
ATOM     25  C   UNL     1      -5.951  30.083  16.606  1.00  0.00     0.177 C 
BRANCH  21  26
ATOM     26  O   UNL     1      -6.178  33.846  16.634  1.00  0.00    -0.387 OA
ATOM     27  H   UNL     1      -7.116  33.872  16.311  1.00  0.00     0.211 HD
ENDBRANCH  21  26
BRANCH  23  28
ATOM     28  O   UNL     1      -7.120  31.698  18.024  1.00  0.00    -0.387 OA
ATOM     29  H   UNL     1      -6.847  32.606  18.309  1.00  0.00     0.211 HD
ENDBRANCH  23  28
BRANCH  24  30
ATOM     30  C   UNL     1      -3.806  28.759  17.030  1.00  0.00     0.191 C 
BRANCH  30  31
ATOM     31  O   UNL     1      -4.074  27.894  18.104  1.00  0.00    -0.394 OA
ATOM     32  H   UNL     1      -3.617  27.036  17.904  1.00  0.00     0.210 HD
ENDBRANCH  30  31
ENDBRANCH  24  30
BRANCH  25  33
ATOM     33  O   UNL     1      -6.749  29.123  17.255  1.00  0.00    -0.388 OA
ATOM     34  H   UNL     1      -6.496  28.236  16.891  1.00  0.00     0.211 HD
ENDBRANCH  25  33
ENDBRANCH  11  20
BRANCH  10  35
ATOM     35  O   UNL     1      -2.809  32.069  14.404  1.00  0.00    -0.507 OA
ATOM     36  H   UNL     1      -2.959  32.071  13.401  1.00  0.00     0.293 HD
ENDBRANCH  10  35
TORSDOF 9
ENDMDL
MODEL 5
REMARK VINA RESULT:    -5.182      1.404      2.918
REMARK INTER + INTRA:          -8.184
REMARK INTER:                  -8.004
REMARK INTRA:                  -0.180
REMARK UNBOUND:                -1.185
REMARK SMILES O=c1c(-c2ccc(O)cc2)coc2c([C@@H]3O[C@H](CO)[C@@H](O)[C@@H](O)[C@H]3O)c(O)ccc12
REMARK SMILES IDX 3 1 11 2 12 3 13 4 30 5 2 6 1 7 29 8 28 9 26 10 14 11 4 12
REMARK SMILES IDX 5 13 6 14 7 15 10 16 9 17 8 18 15 20 24 21 16 22 22 23 17 24
REMARK SMILES IDX 20 25 25 26 23 28 18 30 19 31 21 33 27 35
REMARK H PARENT 8 19 25 27 23 29 19 32 21 34 27 36
REMARK Flexibility Score: inf
ROOT
ATOM      1  C   UNL     1      -3.062  39.142  19.236  1.00  0.00     0.065 A 
ATOM      2  C   UNL     1      -3.474  38.513  18.053  1.00  0.00     0.208 A 
ATOM      3  O   UNL     1      -2.888  37.398  17.635  1.00  0.00    -0.463 OA
ATOM      4  C   UNL     1      -1.890  36.810  18.289  1.00  0.00     0.147 A 
ATOM      5  C   UNL     1      -1.404  37.383  19.489  1.00  0.00     0.066 A 
ATOM      6  C   UNL     1      -2.002  38.568  19.959  1.00  0.00     0.200 A 
ATOM      7  O   UNL     1      -1.575  39.121  21.010  1.00  0.00    -0.288 OA
ATOM      8  C   UNL     1      -0.340  36.772  20.169  1.00  0.00     0.020 A 
ATOM      9  C   UNL     1       0.243  35.612  19.662  1.00  0.00     0.047 A 
ATOM     10  C   UNL     1      -0.228  35.037  18.476  1.00  0.00     0.125 A 
ATOM     11  C   UNL     1      -1.316  35.618  17.785  1.00  0.00     0.069 A 
ENDROOT
BRANCH   1  12
ATOM     12  C   UNL     1      -3.739  40.384  19.689  1.00  0.00    -0.011 A 
ATOM     13  C   UNL     1      -3.756  41.530  18.874  1.00  0.00     0.013 A 
ATOM     14  C   UNL     1      -4.388  42.699  19.309  1.00  0.00     0.047 A 
ATOM     15  C   UNL     1      -5.006  42.739  20.566  1.00  0.00     0.115 A 
ATOM     16  C   UNL     1      -4.356  40.435  20.952  1.00  0.00     0.013 A 
ATOM     17  C   UNL     1      -4.987  41.605  21.384  1.00  0.00     0.047 A 
BRANCH  15  18
ATOM     18  O   UNL     1      -5.638  43.897  21.011  1.00  0.00    -0.508 OA
ATOM     19  H   UNL     1      -5.272  44.816  20.794  1.00  0.00     0.293 HD
ENDBRANCH  15  18
ENDBRANCH   1  12
BRANCH  11  20
ATOM     20  C   UNL     1      -1.820  35.013  16.481  1.00  0.00     0.188 C 
ATOM     21  C   UNL     1      -3.086  34.167  16.745  1.00  0.00     0.179 C 
ATOM     22  O   UNL     1      -2.093  36.056  15.559  1.00  0.00    -0.362 OA
ATOM     23  C   UNL     1      -3.682  33.633  15.424  1.00  0.00     0.177 C 
ATOM     24  C   UNL     1      -2.433  35.535  14.285  1.00  0.00     0.176 C 
ATOM     25  C   UNL     1      -3.765  34.746  14.361  1.00  0.00     0.177 C 
BRANCH  21  26
ATOM     26  O   UNL     1      -2.774  33.099  17.604  1.00  0.00    -0.387 OA
ATOM     27  H   UNL     1      -2.968  32.264  17.104  1.00  0.00     0.211 HD
ENDBRANCH  21  26
BRANCH  23  28
ATOM     28  O   UNL     1      -2.981  32.505  14.951  1.00  0.00    -0.387 OA
ATOM     29  H   UNL     1      -2.092  32.800  14.631  1.00  0.00     0.211 HD
ENDBRANCH  23  28
BRANCH  24  30
ATOM     30  C   UNL     1      -2.518  36.704  13.292  1.00  0.00     0.191 C 
BRANCH  30  31
ATOM     31  O   UNL     1      -1.262  37.307  13.114  1.00  0.00    -0.394 OA
ATOM     32  H   UNL     1      -1.428  38.255  12.872  1.00  0.00     0.210 HD
ENDBRANCH  30  31
ENDBRANCH  24  30
BRANCH  25  33
ATOM     33  O   UNL     1      -4.071  34.174  13.112  1.00  0.00    -0.388 OA
ATOM     34  H   UNL     1      -4.899  34.613  12.784  1.00  0.00     0.211 HD
ENDBRANCH  25  33
ENDBRANCH  11  20
BRANCH  10  35
ATOM     35  O   UNL     1       0.390  33.887  17.982  1.00  0.00    -0.507 OA
ATOM     36  H   UNL     1       1.321  33.614  18.274  1.00  0.00     0.293 HD
ENDBRANCH  10  35
TORSDOF 9
ENDMDL
MODEL 6
REMARK VINA RESULT:    -5.161      2.570      8.943
REMARK INTER + INTRA:          -8.156
REMARK INTER:                  -7.446
REMARK INTRA:                  -0.709
REMARK UNBOUND:                -1.185
REMARK SMILES O=c1c(-c2ccc(O)cc2)coc2c([C@@H]3O[C@H](CO)[C@@H](O)[C@@H](O)[C@H]3O)c(O)ccc12
REMARK SMILES IDX 3 1 11 2 12 3 13 4 30 5 2 6 1 7 29 8 28 9 26 10 14 11 4 12
REMARK SMILES IDX 5 13 6 14 7 15 10 16 9 17 8 18 15 20 24 21 16 22 22 23 17 24
REMARK SMILES IDX 20 25 25 26 23 28 18 30 19 31 21 33 27 35
REMARK H PARENT 8 19 25 27 23 29 19 32 21 34 27 36
REMARK Flexibility Score: inf
ROOT
ATOM      1  C   UNL     1      -2.199  37.183  17.222  1.00  0.00     0.065 A 
ATOM      2  C   UNL     1      -3.129  38.143  16.801  1.00  0.00     0.208 A 
ATOM      3  O   UNL     1      -3.405  39.200  17.554  1.00  0.00    -0.463 OA
ATOM      4  C   UNL     1      -2.837  39.421  18.737  1.00  0.00     0.147 A 
ATOM      5  C   UNL     1      -1.893  38.496  19.244  1.00  0.00     0.066 A 
ATOM      6  C   UNL     1      -1.579  37.362  18.471  1.00  0.00     0.200 A 
ATOM      7  O   UNL     1      -0.763  36.503  18.905  1.00  0.00    -0.288 OA
ATOM      8  C   UNL     1      -1.307  38.720  20.499  1.00  0.00     0.020 A 
ATOM      9  C   UNL     1      -1.658  39.841  21.247  1.00  0.00     0.047 A 
ATOM     10  C   UNL     1      -2.591  40.763  20.756  1.00  0.00     0.125 A 
ATOM     11  C   UNL     1      -3.178  40.574  19.484  1.00  0.00     0.069 A 
ENDROOT
BRANCH   1  12
ATOM     12  C   UNL     1      -1.900  36.013  16.357  1.00  0.00    -0.011 A 
ATOM     13  C   UNL     1      -1.736  34.733  16.914  1.00  0.00     0.013 A 
ATOM     14  C   UNL     1      -1.446  33.636  16.095  1.00  0.00     0.047 A 
ATOM     15  C   UNL     1      -1.310  33.808  14.711  1.00  0.00     0.115 A 
ATOM     16  C   UNL     1      -1.754  36.178  14.967  1.00  0.00     0.013 A 
ATOM     17  C   UNL     1      -1.464  35.080  14.152  1.00  0.00     0.047 A 
BRANCH  15  18
ATOM     18  O   UNL     1      -1.020  32.725  13.885  1.00  0.00    -0.508 OA
ATOM     19  H   UNL     1      -0.403  32.819  13.087  1.00  0.00     0.293 HD
ENDBRANCH  15  18
ENDBRANCH   1  12
BRANCH  11  20
ATOM     20  C   UNL     1      -4.212  41.558  18.952  1.00  0.00     0.188 C 
ATOM     21  C   UNL     1      -5.596  41.258  19.572  1.00  0.00     0.179 C 
ATOM     22  O   UNL     1      -3.797  42.879  19.257  1.00  0.00    -0.362 OA
ATOM     23  C   UNL     1      -6.639  42.310  19.135  1.00  0.00     0.177 C 
ATOM     24  C   UNL     1      -4.657  43.835  18.659  1.00  0.00     0.176 C 
ATOM     25  C   UNL     1      -6.079  43.740  19.271  1.00  0.00     0.177 C 
BRANCH  21  26
ATOM     26  O   UNL     1      -6.017  39.971  19.197  1.00  0.00    -0.387 OA
ATOM     27  H   UNL     1      -6.475  39.579  19.986  1.00  0.00     0.211 HD
ENDBRANCH  21  26
BRANCH  23  28
ATOM     28  O   UNL     1      -7.125  42.057  17.836  1.00  0.00    -0.387 OA
ATOM     29  H   UNL     1      -6.904  42.833  17.262  1.00  0.00     0.211 HD
ENDBRANCH  23  28
BRANCH  24  30
ATOM     30  C   UNL     1      -4.042  45.229  18.858  1.00  0.00     0.191 C 
BRANCH  30  31
ATOM     31  O   UNL     1      -4.726  45.944  19.854  1.00  0.00    -0.394 OA
ATOM     32  H   UNL     1      -4.597  45.449  20.705  1.00  0.00     0.210 HD
ENDBRANCH  30  31
ENDBRANCH  24  30
BRANCH  25  33
ATOM     33  O   UNL     1      -6.950  44.643  18.636  1.00  0.00    -0.388 OA
ATOM     34  H   UNL     1      -6.603  44.789  17.717  1.00  0.00     0.211 HD
ENDBRANCH  25  33
ENDBRANCH  11  20
BRANCH  10  35
ATOM     35  O   UNL     1      -2.939  41.865  21.539  1.00  0.00    -0.507 OA
ATOM     36  H   UNL     1      -3.850  41.942  21.977  1.00  0.00     0.293 HD
ENDBRANCH  10  35
TORSDOF 9
ENDMDL
MODEL 7
REMARK VINA RESULT:    -5.061      1.969      8.670
REMARK INTER + INTRA:          -8.021
REMARK INTER:                  -6.852
REMARK INTRA:                  -1.169
REMARK UNBOUND:                -1.185
REMARK SMILES O=c1c(-c2ccc(O)cc2)coc2c([C@@H]3O[C@H](CO)[C@@H](O)[C@@H](O)[C@H]3O)c(O)ccc12
REMARK SMILES IDX 3 1 11 2 12 3 13 4 30 5 2 6 1 7 29 8 28 9 26 10 14 11 4 12
REMARK SMILES IDX 5 13 6 14 7 15 10 16 9 17 8 18 15 20 24 21 16 22 22 23 17 24
REMARK SMILES IDX 20 25 25 26 23 28 18 30 19 31 21 33 27 35
REMARK H PARENT 8 19 25 27 23 29 19 32 21 34 27 36
REMARK Flexibility Score: inf
ROOT
ATOM      1  C   UNL     1      -4.217  31.938  16.479  1.00  0.00     0.065 A 
ATOM      2  C   UNL     1      -4.010  32.718  17.624  1.00  0.00     0.208 A 
ATOM      3  O   UNL     1      -3.418  33.903  17.544  1.00  0.00    -0.463 OA
ATOM      4  C   UNL     1      -2.984  34.425  16.399  1.00  0.00     0.147 A 
ATOM      5  C   UNL     1      -3.144  33.699  15.194  1.00  0.00     0.066 A 
ATOM      6  C   UNL     1      -3.766  32.438  15.245  1.00  0.00     0.200 A 
ATOM      7  O   UNL     1      -3.898  31.752  14.193  1.00  0.00    -0.288 OA
ATOM      8  C   UNL     1      -2.671  34.242  13.989  1.00  0.00     0.020 A 
ATOM      9  C   UNL     1      -2.039  35.484  13.980  1.00  0.00     0.047 A 
ATOM     10  C   UNL     1      -1.875  36.210  15.165  1.00  0.00     0.125 A 
ATOM     11  C   UNL     1      -2.365  35.697  16.388  1.00  0.00     0.069 A 
ENDROOT
BRANCH   1  12
ATOM     12  C   UNL     1      -4.891  30.619  16.593  1.00  0.00    -0.011 A 
ATOM     13  C   UNL     1      -6.287  30.514  16.467  1.00  0.00     0.013 A 
ATOM     14  C   UNL     1      -6.917  29.271  16.584  1.00  0.00     0.047 A 
ATOM     15  C   UNL     1      -6.159  28.119  16.833  1.00  0.00     0.115 A 
ATOM     16  C   UNL     1      -4.138  29.458  16.850  1.00  0.00     0.013 A 
ATOM     17  C   UNL     1      -4.771  28.217  16.965  1.00  0.00     0.047 A 
BRANCH  15  18
ATOM     18  O   UNL     1      -6.775  26.875  16.952  1.00  0.00    -0.508 OA
ATOM     19  H   UNL     1      -7.426  26.538  16.252  1.00  0.00     0.293 HD
ENDBRANCH  15  18
ENDBRANCH   1  12
BRANCH  11  20
ATOM     20  C   UNL     1      -2.170  36.469  17.687  1.00  0.00     0.188 C 
ATOM     21  C   UNL     1      -0.727  36.275  18.207  1.00  0.00     0.179 C 
ATOM     22  O   UNL     1      -2.445  37.841  17.459  1.00  0.00    -0.362 OA
ATOM     23  C   UNL     1      -0.469  37.135  19.463  1.00  0.00     0.177 C 
ATOM     24  C   UNL     1      -2.412  38.577  18.671  1.00  0.00     0.176 C 
ATOM     25  C   UNL     1      -0.980  38.577  19.265  1.00  0.00     0.177 C 
BRANCH  21  26
ATOM     26  O   UNL     1      -0.502  34.918  18.493  1.00  0.00    -0.387 OA
ATOM     27  H   UNL     1      -0.375  34.850  19.475  1.00  0.00     0.211 HD
ENDBRANCH  21  26
BRANCH  23  28
ATOM     28  O   UNL     1      -1.006  36.542  20.623  1.00  0.00    -0.387 OA
ATOM     29  H   UNL     1      -1.822  37.041  20.882  1.00  0.00     0.211 HD
ENDBRANCH  23  28
BRANCH  24  30
ATOM     30  C   UNL     1      -2.911  40.001  18.385  1.00  0.00     0.191 C 
BRANCH  30  31
ATOM     31  O   UNL     1      -3.000  40.751  19.569  1.00  0.00    -0.394 OA
ATOM     32  H   UNL     1      -3.966  40.904  19.743  1.00  0.00     0.210 HD
ENDBRANCH  30  31
ENDBRANCH  24  30
BRANCH  25  33
ATOM     33  O   UNL     1      -0.958  39.251  20.499  1.00  0.00    -0.388 OA
ATOM     34  H   UNL     1      -1.539  38.742  21.123  1.00  0.00     0.211 HD
ENDBRANCH  25  33
ENDBRANCH  11  20
BRANCH  10  35
ATOM     35  O   UNL     1      -1.219  37.442  15.127  1.00  0.00    -0.507 OA
ATOM     36  H   UNL     1      -1.726  38.318  15.178  1.00  0.00     0.293 HD
ENDBRANCH  10  35
TORSDOF 9
ENDMDL
MODEL 8
REMARK VINA RESULT:    -4.929      3.279      5.499
REMARK INTER + INTRA:          -7.843
REMARK INTER:                  -7.138
REMARK INTRA:                  -0.706
REMARK UNBOUND:                -1.185
REMARK SMILES O=c1c(-c2ccc(O)cc2)coc2c([C@@H]3O[C@H](CO)[C@@H](O)[C@@H](O)[C@H]3O)c(O)ccc12
REMARK SMILES IDX 3 1 11 2 12 3 13 4 30 5 2 6 1 7 29 8 28 9 26 10 14 11 4 12
REMARK SMILES IDX 5 13 6 14 7 15 10 16 9 17 8 18 15 20 24 21 16 22 22 23 17 24
REMARK SMILES IDX 20 25 25 26 23 28 18 30 19 31 21 33 27 35
REMARK H PARENT 8 19 25 27 23 29 19 32 21 34 27 36
REMARK Flexibility Score: inf
ROOT
ATOM      1  C   UNL     1      -2.717  34.644  18.002  1.00  0.00     0.065 A 
ATOM      2  C   UNL     1      -2.165  33.614  17.227  1.00  0.00     0.208 A 
ATOM      3  O   UNL     1      -2.888  32.553  16.889  1.00  0.00    -0.463 OA
ATOM      4  C   UNL     1      -4.157  32.389  17.253  1.00  0.00     0.147 A 
ATOM      5  C   UNL     1      -4.791  33.376  18.045  1.00  0.00     0.066 A 
ATOM      6  C   UNL     1      -4.052  34.513  18.423  1.00  0.00     0.200 A 
ATOM      7  O   UNL     1      -4.578  35.399  19.153  1.00  0.00    -0.288 OA
ATOM      8  C   UNL     1      -6.124  33.195  18.444  1.00  0.00     0.020 A 
ATOM      9  C   UNL     1      -6.818  32.046  18.070  1.00  0.00     0.047 A 
ATOM     10  C   UNL     1      -6.201  31.063  17.288  1.00  0.00     0.125 A 
ATOM     11  C   UNL     1      -4.867  31.233  16.852  1.00  0.00     0.069 A 
ENDROOT
BRANCH   1  12
ATOM     12  C   UNL     1      -1.892  35.826  18.359  1.00  0.00    -0.011 A 
ATOM     13  C   UNL     1      -1.463  36.726  17.368  1.00  0.00     0.013 A 
ATOM     14  C   UNL     1      -0.679  37.833  17.710  1.00  0.00     0.047 A 
ATOM     15  C   UNL     1      -0.311  38.050  19.044  1.00  0.00     0.115 A 
ATOM     16  C   UNL     1      -1.512  36.047  19.695  1.00  0.00     0.013 A 
ATOM     17  C   UNL     1      -0.729  37.154  20.033  1.00  0.00     0.047 A 
BRANCH  15  18
ATOM     18  O   UNL     1       0.470  39.148  19.397  1.00  0.00    -0.508 OA
ATOM     19  H   UNL     1       0.647  39.902  18.744  1.00  0.00     0.293 HD
ENDBRANCH  15  18
ENDBRANCH   1  12
BRANCH  11  20
ATOM     20  C   UNL     1      -4.179  30.158  16.020  1.00  0.00     0.188 C 
ATOM     21  C   UNL     1      -4.262  28.794  16.745  1.00  0.00     0.179 C 
ATOM     22  O   UNL     1      -4.795  30.091  14.745  1.00  0.00    -0.362 OA
ATOM     23  C   UNL     1      -3.670  27.666  15.872  1.00  0.00     0.177 C 
ATOM     24  C   UNL     1      -4.099  29.201  13.888  1.00  0.00     0.176 C 
ATOM     25  C   UNL     1      -4.192  27.749  14.424  1.00  0.00     0.177 C 
BRANCH  21  26
ATOM     26  O   UNL     1      -3.583  28.865  17.973  1.00  0.00    -0.387 OA
ATOM     27  H   UNL     1      -3.868  28.076  18.503  1.00  0.00     0.211 HD
ENDBRANCH  21  26
BRANCH  23  28
ATOM     28  O   UNL     1      -2.261  27.649  15.923  1.00  0.00    -0.387 OA
ATOM     29  H   UNL     1      -1.973  28.041  16.785  1.00  0.00     0.211 HD
ENDBRANCH  23  28
BRANCH  24  30
ATOM     30  C   UNL     1      -4.692  29.328  12.476  1.00  0.00     0.191 C 
BRANCH  30  31
ATOM     31  O   UNL     1      -3.740  28.995  11.499  1.00  0.00    -0.394 OA
ATOM     32  H   UNL     1      -3.763  29.716  10.816  1.00  0.00     0.210 HD
ENDBRANCH  30  31
ENDBRANCH  24  30
BRANCH  25  33
ATOM     33  O   UNL     1      -3.449  26.875  13.610  1.00  0.00    -0.388 OA
ATOM     34  H   UNL     1      -2.491  27.104  13.732  1.00  0.00     0.211 HD
ENDBRANCH  25  33
ENDBRANCH  11  20
BRANCH  10  35
ATOM     35  O   UNL     1      -6.915  29.913  16.948  1.00  0.00    -0.507 OA
ATOM     36  H   UNL     1      -7.747  29.952  16.371  1.00  0.00     0.293 HD
ENDBRANCH  10  35
TORSDOF 9
ENDMDL
MODEL 9
REMARK VINA RESULT:    -4.903      4.517      6.975
REMARK INTER + INTRA:          -7.807
REMARK INTER:                  -7.296
REMARK INTRA:                  -0.511
REMARK UNBOUND:                -1.185
REMARK SMILES O=c1c(-c2ccc(O)cc2)coc2c([C@@H]3O[C@H](CO)[C@@H](O)[C@@H](O)[C@H]3O)c(O)ccc12
REMARK SMILES IDX 3 1 11 2 12 3 13 4 30 5 2 6 1 7 29 8 28 9 26 10 14 11 4 12
REMARK SMILES IDX 5 13 6 14 7 15 10 16 9 17 8 18 15 20 24 21 16 22 22 23 17 24
REMARK SMILES IDX 20 25 25 26 23 28 18 30 19 31 21 33 27 35
REMARK H PARENT 8 19 25 27 23 29 19 32 21 34 27 36
REMARK Flexibility Score: inf
ROOT
ATOM      1  C   UNL     1      -1.335  40.190  13.967  1.00  0.00     0.065 A 
ATOM      2  C   UNL     1      -1.372  40.127  15.366  1.00  0.00     0.208 A 
ATOM      3  O   UNL     1      -1.604  38.979  15.991  1.00  0.00    -0.463 OA
ATOM      4  C   UNL     1      -1.817  37.831  15.351  1.00  0.00     0.147 A 
ATOM      5  C   UNL     1      -1.807  37.806  13.936  1.00  0.00     0.066 A 
ATOM      6  C   UNL     1      -1.566  39.007  13.243  1.00  0.00     0.200 A 
ATOM      7  O   UNL     1      -1.579  39.026  11.980  1.00  0.00    -0.288 OA
ATOM      8  C   UNL     1      -2.049  36.600  13.262  1.00  0.00     0.020 A 
ATOM      9  C   UNL     1      -2.306  35.434  13.980  1.00  0.00     0.047 A 
ATOM     10  C   UNL     1      -2.319  35.447  15.380  1.00  0.00     0.125 A 
ATOM     11  C   UNL     1      -2.054  36.644  16.084  1.00  0.00     0.069 A 
ENDROOT
BRANCH   1  12
ATOM     12  C   UNL     1      -1.064  41.485  13.291  1.00  0.00    -0.011 A 
ATOM     13  C   UNL     1       0.247  41.984  13.199  1.00  0.00     0.013 A 
ATOM     14  C   UNL     1       0.496  43.208  12.569  1.00  0.00     0.047 A 
ATOM     15  C   UNL     1      -0.563  43.949  12.028  1.00  0.00     0.115 A 
ATOM     16  C   UNL     1      -2.122  42.238  12.752  1.00  0.00     0.013 A 
ATOM     17  C   UNL     1      -1.870  43.461  12.123  1.00  0.00     0.047 A 
BRANCH  15  18
ATOM     18  O   UNL     1      -0.329  45.169  11.399  1.00  0.00    -0.508 OA
ATOM     19  H   UNL     1      -0.724  46.032  11.755  1.00  0.00     0.293 HD
ENDBRANCH  15  18
ENDBRANCH   1  12
BRANCH  11  20
ATOM     20  C   UNL     1      -2.090  36.673  17.607  1.00  0.00     0.188 C 
ATOM     21  C   UNL     1      -0.673  36.426  18.174  1.00  0.00     0.179 C 
ATOM     22  O   UNL     1      -2.593  37.928  18.036  1.00  0.00    -0.362 OA
ATOM     23  C   UNL     1      -0.660  36.561  19.712  1.00  0.00     0.177 C 
ATOM     24  C   UNL     1      -2.775  37.951  19.442  1.00  0.00     0.176 C 
ATOM     25  C   UNL     1      -1.410  37.830  20.166  1.00  0.00     0.177 C 
BRANCH  21  26
ATOM     26  O   UNL     1      -0.225  35.149  17.795  1.00  0.00    -0.387 OA
ATOM     27  H   UNL     1      -0.836  34.493  18.221  1.00  0.00     0.211 HD
ENDBRANCH  21  26
BRANCH  23  28
ATOM     28  O   UNL     1      -1.156  35.403  20.344  1.00  0.00    -0.387 OA
ATOM     29  H   UNL     1      -0.491  35.100  21.012  1.00  0.00     0.211 HD
ENDBRANCH  23  28
BRANCH  24  30
ATOM     30  C   UNL     1      -3.505  39.250  19.813  1.00  0.00     0.191 C 
BRANCH  30  31
ATOM     31  O   UNL     1      -2.595  40.244  20.209  1.00  0.00    -0.394 OA
ATOM     32  H   UNL     1      -2.631  40.292  21.200  1.00  0.00     0.210 HD
ENDBRANCH  30  31
ENDBRANCH  24  30
BRANCH  25  33
ATOM     33  O   UNL     1      -1.593  37.788  21.560  1.00  0.00    -0.388 OA
ATOM     34  H   UNL     1      -2.387  37.218  21.735  1.00  0.00     0.211 HD
ENDBRANCH  25  33
ENDBRANCH  11  20
BRANCH  10  35
ATOM     35  O   UNL     1      -2.602  34.268  16.072  1.00  0.00    -0.507 OA
ATOM     36  H   UNL     1      -3.406  34.187  16.683  1.00  0.00     0.293 HD
ENDBRANCH  10  35
TORSDOF 9
ENDMDL
