MODEL 1
REMARK VINA RESULT:    -3.274      0.000      0.000
REMARK INTER + INTRA:          -3.955
REMARK INTER:                  -3.849
REMARK INTRA:                  -0.107
REMARK UNBOUND:                -0.107
REMARK SMILES O=C([O-])CCC(=O)[O-]
REMARK SMILES IDX 4 1 2 2 1 3 3 4 5 5 6 6 7 7 8 8
REMARK H PARENT
REMARK Flexibility Score: inf
ROOT
ATOM      1  C   UNL     1      -8.013 -15.278  16.420  1.00  0.00     0.059 C 
ENDROOT
BRANCH   1   2
ATOM      2  C   UNL     1      -7.889 -14.354  17.591  1.00  0.00     0.042 C 
ATOM      3  O   UNL     1      -7.169 -13.325  17.511  1.00  0.00    -0.550 OA
ATOM      4  O   UNL     1      -8.609 -14.603  18.752  1.00  0.00    -0.550 OA
ENDBRANCH   1   2
BRANCH   1   5
ATOM      5  C   UNL     1      -7.525 -14.593  15.144  1.00  0.00     0.059 C 
BRANCH   5   6
ATOM      6  C   UNL     1      -8.679 -14.281  14.243  1.00  0.00     0.042 C 
ATOM      7  O   UNL     1      -9.432 -13.304  14.494  1.00  0.00    -0.550 OA
ATOM      8  O   UNL     1      -8.893 -15.040  13.099  1.00  0.00    -0.550 OA
ENDBRANCH   5   6
ENDBRANCH   1   5
TORSDOF 3
ENDMDL
MODEL 2
REMARK VINA RESULT:    -3.251      1.304      3.842
REMARK INTER + INTRA:          -3.928
REMARK INTER:                  -3.823
REMARK INTRA:                  -0.105
REMARK UNBOUND:                -0.107
REMARK SMILES O=C([O-])CCC(=O)[O-]
REMARK SMILES IDX 4 1 2 2 1 3 3 4 5 5 6 6 7 7 8 8
REMARK H PARENT
REMARK Flexibility Score: inf
ROOT
ATOM      1  C   UNL     1      -8.847 -14.958  15.538  1.00  0.00     0.059 C 
ENDROOT
BRANCH   1   2
ATOM      2  C   UNL     1      -8.110 -14.964  14.236  1.00  0.00     0.042 C 
ATOM      3  O   UNL     1      -7.041 -14.311  14.110  1.00  0.00    -0.550 OA
ATOM      4  O   UNL     1      -8.577 -15.731  13.177  1.00  0.00    -0.550 OA
ENDBRANCH   1   2
BRANCH   1   5
ATOM      5  C   UNL     1      -7.901 -15.297  16.690  1.00  0.00     0.059 C 
BRANCH   5   6
ATOM      6  C   UNL     1      -7.636 -14.084  17.525  1.00  0.00     0.042 C 
ATOM      7  O   UNL     1      -7.034 -14.191  18.625  1.00  0.00    -0.550 OA
ATOM      8  O   UNL     1      -8.009 -12.828  17.063  1.00  0.00    -0.550 OA
ENDBRANCH   5   6
ENDBRANCH   1   5
TORSDOF 3
ENDMDL
MODEL 3
REMARK VINA RESULT:    -3.134     13.007     14.788
REMARK INTER + INTRA:          -3.790
REMARK INTER:                  -3.752
REMARK INTRA:                  -0.038
REMARK UNBOUND:                -0.107
REMARK SMILES O=C([O-])CCC(=O)[O-]
REMARK SMILES IDX 4 1 2 2 1 3 3 4 5 5 6 6 7 7 8 8
REMARK H PARENT
REMARK Flexibility Score: inf
ROOT
ATOM      1  C   UNL     1     -11.262  -7.398  28.983  1.00  0.00     0.059 C 
ENDROOT
BRANCH   1   2
ATOM      2  C   UNL     1     -11.420  -7.116  30.444  1.00  0.00     0.042 C 
ATOM      3  O   UNL     1     -11.328  -8.051  31.283  1.00  0.00    -0.550 OA
ATOM      4  O   UNL     1     -11.619  -5.814  30.883  1.00  0.00    -0.550 OA
ENDBRANCH   1   2
BRANCH   1   5
ATOM      5  C   UNL     1     -11.626  -8.850  28.675  1.00  0.00     0.059 C 
BRANCH   5   6
ATOM      6  C   UNL     1     -11.290  -9.185  27.256  1.00  0.00     0.042 C 
ATOM      7  O   UNL     1     -11.403  -8.312  26.356  1.00  0.00    -0.550 OA
ATOM      8  O   UNL     1     -10.807 -10.447  26.935  1.00  0.00    -0.550 OA
ENDBRANCH   5   6
ENDBRANCH   1   5
TORSDOF 3
ENDMDL
MODEL 4
REMARK VINA RESULT:    -3.082      1.542      2.056
REMARK INTER + INTRA:          -3.730
REMARK INTER:                  -3.565
REMARK INTRA:                  -0.165
REMARK UNBOUND:                -0.107
REMARK SMILES O=C([O-])CCC(=O)[O-]
REMARK SMILES IDX 4 1 2 2 1 3 3 4 5 5 6 6 7 7 8 8
REMARK H PARENT
REMARK Flexibility Score: inf
ROOT
ATOM      1  C   UNL     1      -9.105 -14.626  16.846  1.00  0.00     0.059 C 
ENDROOT
BRANCH   1   2
ATOM      2  C   UNL     1      -7.896 -15.054  17.617  1.00  0.00     0.042 C 
ATOM      3  O   UNL     1      -7.522 -16.256  17.591  1.00  0.00    -0.550 OA
ATOM      4  O   UNL     1      -7.155 -14.117  18.324  1.00  0.00    -0.550 OA
ENDBRANCH   1   2
BRANCH   1   5
ATOM      5  C   UNL     1      -8.901 -14.872  15.351  1.00  0.00     0.059 C 
BRANCH   5   6
ATOM      6  C   UNL     1      -7.972 -13.850  14.774  1.00  0.00     0.042 C 
ATOM      7  O   UNL     1      -6.965 -14.212  14.112  1.00  0.00    -0.550 OA
ATOM      8  O   UNL     1      -8.246 -12.497  14.927  1.00  0.00    -0.550 OA
ENDBRANCH   5   6
ENDBRANCH   1   5
TORSDOF 3
ENDMDL
MODEL 5
REMARK VINA RESULT:    -3.059      1.942      3.299
REMARK INTER + INTRA:          -3.703
REMARK INTER:                  -3.556
REMARK INTRA:                  -0.147
REMARK UNBOUND:                -0.107
REMARK SMILES O=C([O-])CCC(=O)[O-]
REMARK SMILES IDX 4 1 2 2 1 3 3 4 5 5 6 6 7 7 8 8
REMARK H PARENT
REMARK Flexibility Score: inf
ROOT
ATOM      1  C   UNL     1      -8.197 -13.248  14.854  1.00  0.00     0.059 C 
ENDROOT
BRANCH   1   2
ATOM      2  C   UNL     1      -9.374 -12.440  15.300  1.00  0.00     0.042 C 
ATOM      3  O   UNL     1      -9.438 -12.013  16.483  1.00  0.00    -0.550 OA
ATOM      4  O   UNL     1     -10.377 -12.114  14.396  1.00  0.00    -0.550 OA
ENDBRANCH   1   2
BRANCH   1   5
ATOM      5  C   UNL     1      -8.594 -14.711  14.659  1.00  0.00     0.059 C 
BRANCH   5   6
ATOM      6  C   UNL     1      -8.747 -15.393  15.982  1.00  0.00     0.042 C 
ATOM      7  O   UNL     1      -9.709 -16.181  16.181  1.00  0.00    -0.550 OA
ATOM      8  O   UNL     1      -7.800 -15.196  16.979  1.00  0.00    -0.550 OA
ENDBRANCH   5   6
ENDBRANCH   1   5
TORSDOF 3
ENDMDL
MODEL 6
REMARK VINA RESULT:    -3.043      1.733      2.208
REMARK INTER + INTRA:          -3.683
REMARK INTER:                  -3.613
REMARK INTRA:                  -0.070
REMARK UNBOUND:                -0.107
REMARK SMILES O=C([O-])CCC(=O)[O-]
REMARK SMILES IDX 4 1 2 2 1 3 3 4 5 5 6 6 7 7 8 8
REMARK H PARENT
REMARK Flexibility Score: inf
ROOT
ATOM      1  C   UNL     1      -7.792 -14.951  15.109  1.00  0.00     0.059 C 
ENDROOT
BRANCH   1   2
ATOM      2  C   UNL     1      -8.426 -15.471  16.361  1.00  0.00     0.042 C 
ATOM      3  O   UNL     1      -7.884 -15.263  17.478  1.00  0.00    -0.550 OA
ATOM      4  O   UNL     1      -9.640 -16.142  16.298  1.00  0.00    -0.550 OA
ENDBRANCH   1   2
BRANCH   1   5
ATOM      5  C   UNL     1      -8.827 -14.232  14.244  1.00  0.00     0.059 C 
BRANCH   5   6
ATOM      6  C   UNL     1      -9.107 -12.866  14.789  1.00  0.00     0.042 C 
ATOM      7  O   UNL     1      -8.254 -12.284  15.508  1.00  0.00    -0.550 OA
ATOM      8  O   UNL     1     -10.291 -12.217  14.462  1.00  0.00    -0.550 OA
ENDBRANCH   5   6
ENDBRANCH   1   5
TORSDOF 3
ENDMDL
MODEL 7
REMARK VINA RESULT:    -2.961     17.822     18.591
REMARK INTER + INTRA:          -3.588
REMARK INTER:                  -3.512
REMARK INTRA:                  -0.076
REMARK UNBOUND:                -0.107
REMARK SMILES O=C([O-])CCC(=O)[O-]
REMARK SMILES IDX 4 1 2 2 1 3 3 4 5 5 6 6 7 7 8 8
REMARK H PARENT
REMARK Flexibility Score: inf
ROOT
ATOM      1  C   UNL     1       1.003 -10.546  31.674  1.00  0.00     0.059 C 
ENDROOT
BRANCH   1   2
ATOM      2  C   UNL     1       1.934  -9.674  30.892  1.00  0.00     0.042 C 
ATOM      3  O   UNL     1       1.860  -8.421  30.991  1.00  0.00    -0.550 OA
ATOM      4  O   UNL     1       2.915 -10.245  30.092  1.00  0.00    -0.550 OA
ENDBRANCH   1   2
BRANCH   1   5
ATOM      5  C   UNL     1       1.681 -11.869  32.029  1.00  0.00     0.059 C 
BRANCH   5   6
ATOM      6  C   UNL     1       0.972 -13.013  31.373  1.00  0.00     0.042 C 
ATOM      7  O   UNL     1       1.627 -13.987  30.920  1.00  0.00    -0.550 OA
ATOM      8  O   UNL     1      -0.415 -13.025  31.307  1.00  0.00    -0.550 OA
ENDBRANCH   5   6
ENDBRANCH   1   5
TORSDOF 3
ENDMDL
MODEL 8
REMARK VINA RESULT:    -2.958      9.502     11.331
REMARK INTER + INTRA:          -3.584
REMARK INTER:                  -3.505
REMARK INTRA:                  -0.079
REMARK UNBOUND:                -0.107
REMARK SMILES O=C([O-])CCC(=O)[O-]
REMARK SMILES IDX 4 1 2 2 1 3 3 4 5 5 6 6 7 7 8 8
REMARK H PARENT
REMARK Flexibility Score: inf
ROOT
ATOM      1  C   UNL     1      -2.615 -15.290  26.555  1.00  0.00     0.059 C 
ENDROOT
BRANCH   1   2
ATOM      2  C   UNL     1      -1.970 -16.629  26.723  1.00  0.00     0.042 C 
ATOM      3  O   UNL     1      -2.622 -17.588  27.216  1.00  0.00    -0.550 OA
ATOM      4  O   UNL     1      -0.667 -16.833  26.291  1.00  0.00    -0.550 OA
ENDBRANCH   1   2
BRANCH   1   5
ATOM      5  C   UNL     1      -3.915 -15.417  25.762  1.00  0.00     0.059 C 
BRANCH   5   6
ATOM      6  C   UNL     1      -3.716 -14.959  24.351  1.00  0.00     0.042 C 
ATOM      7  O   UNL     1      -3.011 -13.945  24.108  1.00  0.00    -0.550 OA
ATOM      8  O   UNL     1      -4.269 -15.681  23.301  1.00  0.00    -0.550 OA
ENDBRANCH   5   6
ENDBRANCH   1   5
TORSDOF 3
ENDMDL
MODEL 9
REMARK VINA RESULT:    -2.953      2.000      3.220
REMARK INTER + INTRA:          -3.578
REMARK INTER:                  -3.431
REMARK INTRA:                  -0.147
REMARK UNBOUND:                -0.107
REMARK SMILES O=C([O-])CCC(=O)[O-]
REMARK SMILES IDX 4 1 2 2 1 3 3 4 5 5 6 6 7 7 8 8
REMARK H PARENT
REMARK Flexibility Score: inf
ROOT
ATOM      1  C   UNL     1      -8.191 -12.732  16.118  1.00  0.00     0.059 C 
ENDROOT
BRANCH   1   2
ATOM      2  C   UNL     1      -9.606 -12.409  15.753  1.00  0.00     0.042 C 
ATOM      3  O   UNL     1      -9.956 -12.379  14.544  1.00  0.00    -0.550 OA
ATOM      4  O   UNL     1     -10.548 -12.190  16.749  1.00  0.00    -0.550 OA
ENDBRANCH   1   2
BRANCH   1   5
ATOM      5  C   UNL     1      -7.813 -14.125  15.618  1.00  0.00     0.059 C 
BRANCH   5   6
ATOM      6  C   UNL     1      -8.301 -15.173  16.568  1.00  0.00     0.042 C 
ATOM      7  O   UNL     1      -7.716 -15.353  17.668  1.00  0.00    -0.550 OA
ATOM      8  O   UNL     1      -9.433 -15.918  16.261  1.00  0.00    -0.550 OA
ENDBRANCH   5   6
ENDBRANCH   1   5
TORSDOF 3
ENDMDL
