MODEL 1
REMARK VINA RESULT:    -4.298      0.000      0.000
REMARK INTER + INTRA:          -5.433
REMARK INTER:                  -5.429
REMARK INTRA:                  -0.004
REMARK UNBOUND:                -0.004
REMARK SMILES O=C(C=Cc1ccc(O)cc1)c1ccc(O)cc1O
REMARK SMILES IDX 4 1 3 2 5 3 6 4 7 5 8 6 11 7 10 8 9 9 2 11 1 12 12 13 18 14
REMARK SMILES IDX 13 15 17 16 14 17 15 18 19 19 16 21
REMARK H PARENT 9 10 19 20 16 22
REMARK Flexibility Score: inf
ROOT
ATOM      1  C   UNL     1       4.892  -5.222  -9.808  1.00  0.00     0.012 C 
ATOM      2  C   UNL     1       5.939  -6.040  -9.993  1.00  0.00     0.053 C 
ENDROOT
BRANCH   1   3
ATOM      3  C   UNL     1       3.679  -5.183 -10.650  1.00  0.00    -0.025 A 
ATOM      4  C   UNL     1       2.444  -5.553 -10.097  1.00  0.00     0.012 A 
ATOM      5  C   UNL     1       1.292  -5.565 -10.889  1.00  0.00     0.047 A 
ATOM      6  C   UNL     1       1.365  -5.229 -12.244  1.00  0.00     0.115 A 
ATOM      7  C   UNL     1       3.755  -4.876 -12.020  1.00  0.00     0.012 A 
ATOM      8  C   UNL     1       2.601  -4.888 -12.810  1.00  0.00     0.047 A 
BRANCH   6   9
ATOM      9  O   UNL     1       0.208  -5.244 -13.021  1.00  0.00    -0.508 OA
ATOM     10  H   UNL     1      -0.148  -6.102 -13.424  1.00  0.00     0.293 HD
ENDBRANCH   6   9
ENDBRANCH   1   3
BRANCH   2  11
ATOM     11  C   UNL     1       6.148  -6.914 -11.173  1.00  0.00     0.189 C 
ATOM     12  O   UNL     1       5.901  -8.149 -11.105  1.00  0.00    -0.289 OA
BRANCH  11  13
ATOM     13  C   UNL     1       6.574  -6.337 -12.466  1.00  0.00     0.064 A 
ATOM     14  C   UNL     1       7.619  -5.385 -12.544  1.00  0.00     0.130 A 
ATOM     15  C   UNL     1       5.955  -6.772 -13.652  1.00  0.00     0.020 A 
ATOM     16  C   UNL     1       8.031  -4.909 -13.795  1.00  0.00     0.093 A 
ATOM     17  C   UNL     1       6.369  -6.280 -14.892  1.00  0.00     0.047 A 
ATOM     18  C   UNL     1       7.409  -5.351 -14.968  1.00  0.00     0.119 A 
BRANCH  14  19
ATOM     19  O   UNL     1       8.249  -4.875 -11.407  1.00  0.00    -0.507 OA
ATOM     20  H   UNL     1       9.250  -4.754 -11.335  1.00  0.00     0.293 HD
ENDBRANCH  14  19
BRANCH  18  21
ATOM     21  O   UNL     1       7.815  -4.875 -16.212  1.00  0.00    -0.508 OA
ATOM     22  H   UNL     1       8.413  -5.423 -16.819  1.00  0.00     0.293 HD
ENDBRANCH  18  21
ENDBRANCH  11  13
ENDBRANCH   2  11
TORSDOF 6
ENDMDL
MODEL 2
REMARK VINA RESULT:    -3.024      1.995      2.988
REMARK INTER + INTRA:          -3.823
REMARK INTER:                  -3.605
REMARK INTRA:                  -0.218
REMARK UNBOUND:                -0.004
REMARK SMILES O=C(C=Cc1ccc(O)cc1)c1ccc(O)cc1O
REMARK SMILES IDX 4 1 3 2 5 3 6 4 7 5 8 6 11 7 10 8 9 9 2 11 1 12 12 13 18 14
REMARK SMILES IDX 13 15 17 16 14 17 15 18 19 19 16 21
REMARK H PARENT 9 10 19 20 16 22
REMARK Flexibility Score: inf
ROOT
ATOM      1  C   UNL     1       5.837  -4.875 -11.567  1.00  0.00     0.012 C 
ATOM      2  C   UNL     1       6.834  -5.499 -12.213  1.00  0.00     0.053 C 
ENDROOT
BRANCH   1   3
ATOM      3  C   UNL     1       4.424  -5.304 -11.557  1.00  0.00    -0.025 A 
ATOM      4  C   UNL     1       3.581  -4.925 -12.613  1.00  0.00     0.012 A 
ATOM      5  C   UNL     1       2.230  -5.283 -12.600  1.00  0.00     0.047 A 
ATOM      6  C   UNL     1       1.702  -6.004 -11.524  1.00  0.00     0.115 A 
ATOM      7  C   UNL     1       3.883  -6.002 -10.463  1.00  0.00     0.012 A 
ATOM      8  C   UNL     1       2.532  -6.360 -10.452  1.00  0.00     0.047 A 
BRANCH   6   9
ATOM      9  O   UNL     1       0.354  -6.356 -11.526  1.00  0.00    -0.508 OA
ATOM     10  H   UNL     1      -0.339  -5.798 -12.010  1.00  0.00     0.293 HD
ENDBRANCH   6   9
ENDBRANCH   1   3
BRANCH   2  11
ATOM     11  C   UNL     1       6.667  -6.614 -13.176  1.00  0.00     0.189 C 
ATOM     12  O   UNL     1       7.097  -7.767 -12.899  1.00  0.00    -0.289 OA
BRANCH  11  13
ATOM     13  C   UNL     1       5.925  -6.409 -14.438  1.00  0.00     0.064 A 
ATOM     14  C   UNL     1       5.428  -7.500 -15.191  1.00  0.00     0.130 A 
ATOM     15  C   UNL     1       5.670  -5.099 -14.883  1.00  0.00     0.020 A 
ATOM     16  C   UNL     1       4.678  -7.260 -16.350  1.00  0.00     0.093 A 
ATOM     17  C   UNL     1       4.930  -4.875 -16.046  1.00  0.00     0.047 A 
ATOM     18  C   UNL     1       4.430  -5.952 -16.780  1.00  0.00     0.119 A 
BRANCH  14  19
ATOM     19  O   UNL     1       5.680  -8.827 -14.835  1.00  0.00    -0.507 OA
ATOM     20  H   UNL     1       4.959  -9.462 -14.517  1.00  0.00     0.293 HD
ENDBRANCH  14  19
BRANCH  18  21
ATOM     21  O   UNL     1       3.689  -5.712 -17.934  1.00  0.00    -0.508 OA
ATOM     22  H   UNL     1       4.095  -5.246 -18.738  1.00  0.00     0.293 HD
ENDBRANCH  18  21
ENDBRANCH  11  13
ENDBRANCH   2  11
TORSDOF 6
ENDMDL
