MODEL 1
REMARK VINA RESULT:    -4.933      0.000      0.000
REMARK INTER + INTRA:          -5.655
REMARK INTER:                  -5.221
REMARK INTRA:                  -0.434
REMARK UNBOUND:                -0.434
REMARK SMILES CC1=CC[C@H]2[C@@H]3[C@@H](C(C)C)CC[C@@]2(C)[C@H]13
REMARK SMILES IDX 1 1 2 2 3 3 4 4 5 5 6 6 15 7 13 8 12 9 11 10 7 11 14 12 8 13
REMARK SMILES IDX 9 14 10 15
REMARK H PARENT
REMARK Flexibility Score: inf
ROOT
ATOM      1  C   UNL     1       2.091  17.264  12.626  1.00  0.00     0.039 C 
ATOM      2  C   UNL     1       1.145  17.291  13.788  1.00  0.00    -0.073 C 
ATOM      3  C   UNL     1       0.073  18.126  13.806  1.00  0.00    -0.027 C 
ATOM      4  C   UNL     1      -0.848  18.125  15.031  1.00  0.00     0.031 C 
ATOM      5  C   UNL     1      -0.360  17.068  16.077  1.00  0.00     0.003 C 
ATOM      6  C   UNL     1      -0.057  15.760  15.309  1.00  0.00     0.004 C 
ATOM      7  C   UNL     1       1.330  16.371  14.998  1.00  0.00     0.024 C 
ATOM      8  C   UNL     1       1.163  17.173  16.316  1.00  0.00    -0.022 C 
ATOM      9  C   UNL     1       1.532  16.301  17.550  1.00  0.00     0.008 C 
ATOM     10  C   UNL     1       1.187  14.805  17.341  1.00  0.00     0.005 C 
ATOM     11  C   UNL     1       0.039  14.561  16.306  1.00  0.00    -0.005 C 
ATOM     12  C   UNL     1       1.805  18.577  16.421  1.00  0.00     0.012 C 
ENDROOT
BRANCH  11  13
ATOM     13  C   UNL     1       0.209  13.187  15.581  1.00  0.00    -0.014 C 
ATOM     14  C   UNL     1      -0.379  13.231  14.157  1.00  0.00     0.007 C 
ATOM     15  C   UNL     1       1.684  12.750  15.492  1.00  0.00     0.007 C 
ENDBRANCH  11  13
TORSDOF 1
ENDMDL
MODEL 2
REMARK VINA RESULT:    -4.883      1.751      4.062
REMARK INTER + INTRA:          -5.603
REMARK INTER:                  -5.167
REMARK INTRA:                  -0.436
REMARK UNBOUND:                -0.434
REMARK SMILES CC1=CC[C@H]2[C@@H]3[C@@H](C(C)C)CC[C@@]2(C)[C@H]13
REMARK SMILES IDX 1 1 2 2 3 3 4 4 5 5 6 6 15 7 13 8 12 9 11 10 7 11 14 12 8 13
REMARK SMILES IDX 9 14 10 15
REMARK H PARENT
REMARK Flexibility Score: inf
ROOT
ATOM      1  C   UNL     1       0.924  16.670  12.628  1.00  0.00     0.039 C 
ATOM      2  C   UNL     1       1.711  15.573  13.280  1.00  0.00    -0.073 C 
ATOM      3  C   UNL     1       2.980  15.286  12.886  1.00  0.00    -0.027 C 
ATOM      4  C   UNL     1       3.729  14.140  13.575  1.00  0.00     0.031 C 
ATOM      5  C   UNL     1       2.839  13.504  14.695  1.00  0.00     0.003 C 
ATOM      6  C   UNL     1       2.229  14.664  15.518  1.00  0.00     0.004 C 
ATOM      7  C   UNL     1       1.133  14.740  14.427  1.00  0.00     0.024 C 
ATOM      8  C   UNL     1       1.405  13.231  14.188  1.00  0.00    -0.022 C 
ATOM      9  C   UNL     1       0.665  12.358  15.240  1.00  0.00     0.008 C 
ATOM     10  C   UNL     1       0.555  13.059  16.618  1.00  0.00     0.005 C 
ATOM     11  C   UNL     1       1.671  14.125  16.874  1.00  0.00    -0.005 C 
ATOM     12  C   UNL     1       1.216  12.656  12.763  1.00  0.00     0.012 C 
ENDROOT
BRANCH  11  13
ATOM     13  C   UNL     1       1.163  15.266  17.812  1.00  0.00    -0.014 C 
ATOM     14  C   UNL     1       1.814  16.616  17.450  1.00  0.00     0.007 C 
ATOM     15  C   UNL     1      -0.369  15.429  17.761  1.00  0.00     0.007 C 
ENDBRANCH  11  13
TORSDOF 1
ENDMDL
MODEL 3
REMARK VINA RESULT:    -4.826      2.295      4.558
REMARK INTER + INTRA:          -5.542
REMARK INTER:                  -5.267
REMARK INTRA:                  -0.275
REMARK UNBOUND:                -0.434
REMARK SMILES CC1=CC[C@H]2[C@@H]3[C@@H](C(C)C)CC[C@@]2(C)[C@H]13
REMARK SMILES IDX 1 1 2 2 3 3 4 4 5 5 6 6 15 7 13 8 12 9 11 10 7 11 14 12 8 13
REMARK SMILES IDX 9 14 10 15
REMARK H PARENT
REMARK Flexibility Score: inf
ROOT
ATOM      1  C   UNL     1      -0.929  12.042  18.610  1.00  0.00     0.039 C 
ATOM      2  C   UNL     1       0.077  12.859  17.856  1.00  0.00    -0.073 C 
ATOM      3  C   UNL     1       1.134  13.434  18.487  1.00  0.00    -0.027 C 
ATOM      4  C   UNL     1       2.119  14.276  17.668  1.00  0.00     0.031 C 
ATOM      5  C   UNL     1       1.706  14.280  16.158  1.00  0.00     0.003 C 
ATOM      6  C   UNL     1       1.386  12.820  15.761  1.00  0.00     0.004 C 
ATOM      7  C   UNL     1      -0.027  13.067  16.342  1.00  0.00     0.024 C 
ATOM      8  C   UNL     1       0.196  14.561  15.988  1.00  0.00    -0.022 C 
ATOM      9  C   UNL     1      -0.092  14.826  14.483  1.00  0.00     0.008 C 
ATOM     10  C   UNL     1       0.268  13.612  13.590  1.00  0.00     0.005 C 
ATOM     11  C   UNL     1       1.364  12.679  14.205  1.00  0.00    -0.005 C 
ATOM     12  C   UNL     1      -0.464  15.645  16.874  1.00  0.00     0.012 C 
ENDROOT
BRANCH  11  13
ATOM     13  C   UNL     1       1.179  11.200  13.737  1.00  0.00    -0.014 C 
ATOM     14  C   UNL     1      -0.295  10.903  13.395  1.00  0.00     0.007 C 
ATOM     15  C   UNL     1       2.047  10.860  12.509  1.00  0.00     0.007 C 
ENDBRANCH  11  13
TORSDOF 1
ENDMDL
MODEL 4
REMARK VINA RESULT:    -4.671      1.673      3.174
REMARK INTER + INTRA:          -5.378
REMARK INTER:                  -5.119
REMARK INTRA:                  -0.259
REMARK UNBOUND:                -0.434
REMARK SMILES CC1=CC[C@H]2[C@@H]3[C@@H](C(C)C)CC[C@@]2(C)[C@H]13
REMARK SMILES IDX 1 1 2 2 3 3 4 4 5 5 6 6 15 7 13 8 12 9 11 10 7 11 14 12 8 13
REMARK SMILES IDX 9 14 10 15
REMARK H PARENT
REMARK Flexibility Score: inf
ROOT
ATOM      1  C   UNL     1       1.898  18.449  16.740  1.00  0.00     0.039 C 
ATOM      2  C   UNL     1       1.092  17.370  16.083  1.00  0.00    -0.073 C 
ATOM      3  C   UNL     1      -0.162  17.611  15.617  1.00  0.00    -0.027 C 
ATOM      4  C   UNL     1      -0.948  16.463  14.974  1.00  0.00     0.031 C 
ATOM      5  C   UNL     1      -0.082  15.159  14.947  1.00  0.00     0.003 C 
ATOM      6  C   UNL     1       1.324  15.546  14.432  1.00  0.00     0.004 C 
ATOM      7  C   UNL     1       1.646  15.955  15.890  1.00  0.00     0.024 C 
ATOM      8  C   UNL     1       0.590  14.901  16.314  1.00  0.00    -0.022 C 
ATOM      9  C   UNL     1       1.197  13.469  16.305  1.00  0.00     0.008 C 
ATOM     10  C   UNL     1       2.275  13.291  15.206  1.00  0.00     0.005 C 
ATOM     11  C   UNL     1       2.108  14.267  13.995  1.00  0.00    -0.005 C 
ATOM     12  C   UNL     1      -0.230  15.143  17.604  1.00  0.00     0.012 C 
ENDROOT
BRANCH  11  13
ATOM     13  C   UNL     1       3.486  14.600  13.338  1.00  0.00    -0.014 C 
ATOM     14  C   UNL     1       4.102  13.353  12.673  1.00  0.00     0.007 C 
ATOM     15  C   UNL     1       3.379  15.719  12.284  1.00  0.00     0.007 C 
ENDBRANCH  11  13
TORSDOF 1
ENDMDL
MODEL 5
REMARK VINA RESULT:    -4.642      2.069      4.363
REMARK INTER + INTRA:          -5.347
REMARK INTER:                  -5.124
REMARK INTRA:                  -0.223
REMARK UNBOUND:                -0.434
REMARK SMILES CC1=CC[C@H]2[C@@H]3[C@@H](C(C)C)CC[C@@]2(C)[C@H]13
REMARK SMILES IDX 1 1 2 2 3 3 4 4 5 5 6 6 15 7 13 8 12 9 11 10 7 11 14 12 8 13
REMARK SMILES IDX 9 14 10 15
REMARK H PARENT
REMARK Flexibility Score: inf
ROOT
ATOM      1  C   UNL     1       2.862  14.634  18.621  1.00  0.00     0.039 C 
ATOM      2  C   UNL     1       1.863  14.721  17.507  1.00  0.00    -0.073 C 
ATOM      3  C   UNL     1       0.861  15.640  17.528  1.00  0.00    -0.027 C 
ATOM      4  C   UNL     1      -0.144  15.668  16.371  1.00  0.00     0.031 C 
ATOM      5  C   UNL     1       0.225  14.584  15.303  1.00  0.00     0.003 C 
ATOM      6  C   UNL     1       1.745  14.692  15.039  1.00  0.00     0.004 C 
ATOM      7  C   UNL     1       1.934  13.797  16.288  1.00  0.00     0.024 C 
ATOM      8  C   UNL     1       0.529  13.222  15.965  1.00  0.00    -0.022 C 
ATOM      9  C   UNL     1       0.612  12.138  14.853  1.00  0.00     0.008 C 
ATOM     10  C   UNL     1       1.737  12.429  13.828  1.00  0.00     0.005 C 
ATOM     11  C   UNL     1       2.115  13.943  13.718  1.00  0.00    -0.005 C 
ATOM     12  C   UNL     1      -0.368  12.745  17.133  1.00  0.00     0.012 C 
ENDROOT
BRANCH  11  13
ATOM     13  C   UNL     1       3.615  14.128  13.322  1.00  0.00    -0.014 C 
ATOM     14  C   UNL     1       4.122  12.934  12.488  1.00  0.00     0.007 C 
ATOM     15  C   UNL     1       3.856  15.423  12.523  1.00  0.00     0.007 C 
ENDBRANCH  11  13
TORSDOF 1
ENDMDL
MODEL 6
REMARK VINA RESULT:    -4.607      1.090      4.207
REMARK INTER + INTRA:          -5.310
REMARK INTER:                  -4.888
REMARK INTRA:                  -0.421
REMARK UNBOUND:                -0.434
REMARK SMILES CC1=CC[C@H]2[C@@H]3[C@@H](C(C)C)CC[C@@]2(C)[C@H]13
REMARK SMILES IDX 1 1 2 2 3 3 4 4 5 5 6 6 15 7 13 8 12 9 11 10 7 11 14 12 8 13
REMARK SMILES IDX 9 14 10 15
REMARK H PARENT
REMARK Flexibility Score: inf
ROOT
ATOM      1  C   UNL     1      -1.125  12.609  14.649  1.00  0.00     0.039 C 
ATOM      2  C   UNL     1       0.163  13.325  14.921  1.00  0.00    -0.073 C 
ATOM      3  C   UNL     1       1.360  12.689  14.815  1.00  0.00    -0.027 C 
ATOM      4  C   UNL     1       2.643  13.467  15.127  1.00  0.00     0.031 C 
ATOM      5  C   UNL     1       2.304  14.949  15.498  1.00  0.00     0.003 C 
ATOM      6  C   UNL     1       1.293  15.471  14.450  1.00  0.00     0.004 C 
ATOM      7  C   UNL     1       0.194  14.805  15.313  1.00  0.00     0.024 C 
ATOM      8  C   UNL     1       1.147  15.023  16.519  1.00  0.00    -0.022 C 
ATOM      9  C   UNL     1       1.047  16.481  17.050  1.00  0.00     0.008 C 
ATOM     10  C   UNL     1       0.752  17.503  15.923  1.00  0.00     0.005 C 
ATOM     11  C   UNL     1       1.219  17.031  14.506  1.00  0.00    -0.005 C 
ATOM     12  C   UNL     1       1.117  14.008  17.686  1.00  0.00     0.012 C 
ENDROOT
BRANCH  11  13
ATOM     13  C   UNL     1       0.316  17.630  13.380  1.00  0.00    -0.014 C 
ATOM     14  C   UNL     1       0.077  16.607  12.252  1.00  0.00     0.007 C 
ATOM     15  C   UNL     1      -1.051  18.103  13.914  1.00  0.00     0.007 C 
ENDBRANCH  11  13
TORSDOF 1
ENDMDL
MODEL 7
REMARK VINA RESULT:    -4.418      1.548      3.556
REMARK INTER + INTRA:          -5.110
REMARK INTER:                  -4.675
REMARK INTRA:                  -0.435
REMARK UNBOUND:                -0.434
REMARK SMILES CC1=CC[C@H]2[C@@H]3[C@@H](C(C)C)CC[C@@]2(C)[C@H]13
REMARK SMILES IDX 1 1 2 2 3 3 4 4 5 5 6 6 15 7 13 8 12 9 11 10 7 11 14 12 8 13
REMARK SMILES IDX 9 14 10 15
REMARK H PARENT
REMARK Flexibility Score: inf
ROOT
ATOM      1  C   UNL     1       3.795  13.867  13.673  1.00  0.00     0.039 C 
ATOM      2  C   UNL     1       2.401  14.407  13.558  1.00  0.00    -0.073 C 
ATOM      3  C   UNL     1       1.467  13.791  12.787  1.00  0.00    -0.027 C 
ATOM      4  C   UNL     1       0.064  14.402  12.691  1.00  0.00     0.031 C 
ATOM      5  C   UNL     1      -0.034  15.681  13.588  1.00  0.00     0.003 C 
ATOM      6  C   UNL     1       0.591  15.336  14.960  1.00  0.00     0.004 C 
ATOM      7  C   UNL     1       1.960  15.663  14.316  1.00  0.00     0.024 C 
ATOM      8  C   UNL     1       1.178  16.614  13.373  1.00  0.00    -0.022 C 
ATOM      9  C   UNL     1       0.886  17.974  14.069  1.00  0.00     0.008 C 
ATOM     10  C   UNL     1       0.671  17.821  15.596  1.00  0.00     0.005 C 
ATOM     11  C   UNL     1       0.173  16.401  16.024  1.00  0.00    -0.005 C 
ATOM     12  C   UNL     1       1.703  16.834  11.933  1.00  0.00     0.012 C 
ENDROOT
BRANCH  11  13
ATOM     13  C   UNL     1       0.660  16.037  17.463  1.00  0.00    -0.014 C 
ATOM     14  C   UNL     1       0.862  14.516  17.616  1.00  0.00     0.007 C 
ATOM     15  C   UNL     1       1.977  16.748  17.834  1.00  0.00     0.007 C 
ENDBRANCH  11  13
TORSDOF 1
ENDMDL
MODEL 8
REMARK VINA RESULT:    -4.358      1.629      3.904
REMARK INTER + INTRA:          -5.047
REMARK INTER:                  -4.617
REMARK INTRA:                  -0.430
REMARK UNBOUND:                -0.434
REMARK SMILES CC1=CC[C@H]2[C@@H]3[C@@H](C(C)C)CC[C@@]2(C)[C@H]13
REMARK SMILES IDX 1 1 2 2 3 3 4 4 5 5 6 6 15 7 13 8 12 9 11 10 7 11 14 12 8 13
REMARK SMILES IDX 9 14 10 15
REMARK H PARENT
REMARK Flexibility Score: inf
ROOT
ATOM      1  C   UNL     1       2.168  16.656  17.862  1.00  0.00     0.039 C 
ATOM      2  C   UNL     1       1.177  15.825  17.105  1.00  0.00    -0.073 C 
ATOM      3  C   UNL     1      -0.158  15.937  17.335  1.00  0.00    -0.027 C 
ATOM      4  C   UNL     1      -1.124  15.046  16.546  1.00  0.00     0.031 C 
ATOM      5  C   UNL     1      -0.334  14.146  15.538  1.00  0.00     0.003 C 
ATOM      6  C   UNL     1       0.688  15.051  14.810  1.00  0.00     0.004 C 
ATOM      7  C   UNL     1       1.616  14.828  16.029  1.00  0.00     0.024 C 
ATOM      8  C   UNL     1       0.882  13.475  16.216  1.00  0.00    -0.022 C 
ATOM      9  C   UNL     1       1.451  12.394  15.254  1.00  0.00     0.008 C 
ATOM     10  C   UNL     1       1.931  12.994  13.908  1.00  0.00     0.005 C 
ATOM     11  C   UNL     1       1.221  14.336  13.527  1.00  0.00    -0.005 C 
ATOM     12  C   UNL     1       0.717  12.907  17.646  1.00  0.00     0.012 C 
ENDROOT
BRANCH  11  13
ATOM     13  C   UNL     1       2.156  15.251  12.673  1.00  0.00    -0.014 C 
ATOM     14  C   UNL     1       1.941  16.740  13.012  1.00  0.00     0.007 C 
ATOM     15  C   UNL     1       3.647  14.912  12.866  1.00  0.00     0.007 C 
ENDBRANCH  11  13
TORSDOF 1
ENDMDL
MODEL 9
REMARK VINA RESULT:    -4.138      1.624      4.631
REMARK INTER + INTRA:          -4.814
REMARK INTER:                  -4.604
REMARK INTRA:                  -0.210
REMARK UNBOUND:                -0.434
REMARK SMILES CC1=CC[C@H]2[C@@H]3[C@@H](C(C)C)CC[C@@]2(C)[C@H]13
REMARK SMILES IDX 1 1 2 2 3 3 4 4 5 5 6 6 15 7 13 8 12 9 11 10 7 11 14 12 8 13
REMARK SMILES IDX 9 14 10 15
REMARK H PARENT
REMARK Flexibility Score: inf
ROOT
ATOM      1  C   UNL     1       2.037  14.560  17.707  1.00  0.00     0.039 C 
ATOM      2  C   UNL     1       1.698  14.130  16.312  1.00  0.00    -0.073 C 
ATOM      3  C   UNL     1       1.430  12.829  16.020  1.00  0.00    -0.027 C 
ATOM      4  C   UNL     1       1.110  12.445  14.571  1.00  0.00     0.031 C 
ATOM      5  C   UNL     1       1.123  13.715  13.656  1.00  0.00     0.003 C 
ATOM      6  C   UNL     1       0.318  14.819  14.382  1.00  0.00     0.004 C 
ATOM      7  C   UNL     1       1.621  15.132  15.157  1.00  0.00     0.024 C 
ATOM      8  C   UNL     1       2.374  14.584  13.916  1.00  0.00    -0.022 C 
ATOM      9  C   UNL     1       2.469  15.663  12.800  1.00  0.00     0.008 C 
ATOM     10  C   UNL     1       1.236  16.601  12.779  1.00  0.00     0.005 C 
ATOM     11  C   UNL     1      -0.058  15.957  13.380  1.00  0.00    -0.005 C 
ATOM     12  C   UNL     1       3.738  13.883  14.121  1.00  0.00     0.012 C 
ENDROOT
BRANCH  11  13
ATOM     13  C   UNL     1      -0.988  17.038  14.018  1.00  0.00    -0.014 C 
ATOM     14  C   UNL     1      -1.125  16.828  15.540  1.00  0.00     0.007 C 
ATOM     15  C   UNL     1      -0.483  18.472  13.763  1.00  0.00     0.007 C 
ENDBRANCH  11  13
TORSDOF 1
ENDMDL
