MODEL 1
REMARK VINA RESULT:     0.000      0.000      0.000
REMARK INTER + INTRA:          -0.016
REMARK INTER:                   0.000
REMARK INTRA:                  -0.016
REMARK UNBOUND:                -0.016
REMARK SMILES O=Cc1ccco1
REMARK SMILES IDX 5 1 6 2 7 3 3 4 4 5 2 6 1 7
REMARK H PARENT
REMARK Flexibility Score: inf
ROOT
ATOM      1  C   UNL     1       3.651  21.035 -40.104  1.00  0.00     0.043 A 
ATOM      2  C   UNL     1       4.163  21.123 -41.384  1.00  0.00     0.196 A 
ATOM      3  O   UNL     1       5.232  20.366 -41.486  1.00  0.00    -0.462 OA
ATOM      4  C   UNL     1       5.442  19.785 -40.327  1.00  0.00     0.166 A 
ATOM      5  C   UNL     1       4.477  20.170 -39.420  1.00  0.00     0.054 A 
ENDROOT
BRANCH   4   6
ATOM      6  C   UNL     1       6.547  18.864 -40.056  1.00  0.00     0.298 C 
ATOM      7  O   UNL     1       7.375  18.582 -40.962  1.00  0.00    -0.294 OA
ENDBRANCH   4   6
TORSDOF 1
ENDMDL
MODEL 2
REMARK VINA RESULT:     0.000      2.288      2.982
REMARK INTER + INTRA:          -0.016
REMARK INTER:                   0.000
REMARK INTRA:                  -0.016
REMARK UNBOUND:                -0.016
REMARK SMILES O=Cc1ccco1
REMARK SMILES IDX 5 1 6 2 7 3 3 4 4 5 2 6 1 7
REMARK H PARENT
REMARK Flexibility Score: inf
ROOT
ATOM      1  C   UNL     1       5.372  19.077 -39.402  1.00  0.00     0.043 A 
ATOM      2  C   UNL     1       6.350  20.047 -39.495  1.00  0.00     0.196 A 
ATOM      3  O   UNL     1       7.527  19.513 -39.257  1.00  0.00    -0.462 OA
ATOM      4  C   UNL     1       7.361  18.234 -39.013  1.00  0.00     0.166 A 
ATOM      5  C   UNL     1       6.024  17.904 -39.090  1.00  0.00     0.054 A 
ENDROOT
BRANCH   4   6
ATOM      6  C   UNL     1       8.450  17.306 -38.704  1.00  0.00     0.298 C 
ATOM      7  O   UNL     1       9.640  17.717 -38.659  1.00  0.00    -0.294 OA
ENDBRANCH   4   6
TORSDOF 1
ENDMDL
MODEL 3
REMARK VINA RESULT:     0.000     14.067     14.788
REMARK INTER + INTRA:          -0.016
REMARK INTER:                   0.000
REMARK INTRA:                  -0.016
REMARK UNBOUND:                -0.016
REMARK SMILES O=Cc1ccco1
REMARK SMILES IDX 5 1 6 2 7 3 3 4 4 5 2 6 1 7
REMARK H PARENT
REMARK Flexibility Score: inf
ROOT
ATOM      1  C   UNL     1      -3.784  21.672 -50.572  1.00  0.00     0.043 A 
ATOM      2  C   UNL     1      -4.332  20.520 -51.103  1.00  0.00     0.196 A 
ATOM      3  O   UNL     1      -3.865  20.327 -52.315  1.00  0.00    -0.462 OA
ATOM      4  C   UNL     1      -3.035  21.302 -52.602  1.00  0.00     0.166 A 
ATOM      5  C   UNL     1      -2.945  22.178 -51.541  1.00  0.00     0.054 A 
ENDROOT
BRANCH   4   6
ATOM      6  C   UNL     1      -2.316  21.426 -53.871  1.00  0.00     0.298 C 
ATOM      7  O   UNL     1      -2.474  20.564 -54.776  1.00  0.00    -0.294 OA
ENDBRANCH   4   6
TORSDOF 1
ENDMDL
MODEL 4
REMARK VINA RESULT:     0.000     10.728     11.441
REMARK INTER + INTRA:          -0.016
REMARK INTER:                   0.000
REMARK INTRA:                  -0.016
REMARK UNBOUND:                -0.016
REMARK SMILES O=Cc1ccco1
REMARK SMILES IDX 5 1 6 2 7 3 3 4 4 5 2 6 1 7
REMARK H PARENT
REMARK Flexibility Score: inf
ROOT
ATOM      1  C   UNL     1       7.993  15.037 -48.581  1.00  0.00     0.043 A 
ATOM      2  C   UNL     1       7.669  13.755 -48.182  1.00  0.00     0.196 A 
ATOM      3  O   UNL     1       6.873  13.204 -49.070  1.00  0.00    -0.462 OA
ATOM      4  C   UNL     1       6.662  14.069 -50.034  1.00  0.00     0.166 A 
ATOM      5  C   UNL     1       7.342  15.241 -49.778  1.00  0.00     0.054 A 
ENDROOT
BRANCH   4   6
ATOM      6  C   UNL     1       5.821  13.811 -51.204  1.00  0.00     0.298 C 
ATOM      7  O   UNL     1       5.244  12.700 -51.337  1.00  0.00    -0.294 OA
ENDBRANCH   4   6
TORSDOF 1
ENDMDL
MODEL 5
REMARK VINA RESULT:     0.000      8.940     10.473
REMARK INTER + INTRA:          -0.016
REMARK INTER:                   0.000
REMARK INTRA:                  -0.016
REMARK UNBOUND:                -0.016
REMARK SMILES O=Cc1ccco1
REMARK SMILES IDX 5 1 6 2 7 3 3 4 4 5 2 6 1 7
REMARK H PARENT
REMARK Flexibility Score: inf
ROOT
ATOM      1  C   UNL     1      11.978  12.787 -46.373  1.00  0.00     0.043 A 
ATOM      2  C   UNL     1      11.587  11.778 -45.515  1.00  0.00     0.196 A 
ATOM      3  O   UNL     1      11.409  12.266 -44.309  1.00  0.00    -0.462 OA
ATOM      4  C   UNL     1      11.667  13.553 -44.338  1.00  0.00     0.166 A 
ATOM      5  C   UNL     1      12.030  13.936 -45.612  1.00  0.00     0.054 A 
ENDROOT
BRANCH   4   6
ATOM      6  C   UNL     1      11.577  14.438 -43.176  1.00  0.00     0.298 C 
ATOM      7  O   UNL     1      11.235  13.979 -42.054  1.00  0.00    -0.294 OA
ENDBRANCH   4   6
TORSDOF 1
ENDMDL
MODEL 6
REMARK VINA RESULT:     0.000     12.539     12.882
REMARK INTER + INTRA:          -0.016
REMARK INTER:                   0.000
REMARK INTRA:                  -0.016
REMARK UNBOUND:                -0.016
REMARK SMILES O=Cc1ccco1
REMARK SMILES IDX 5 1 6 2 7 3 3 4 4 5 2 6 1 7
REMARK H PARENT
REMARK Flexibility Score: inf
ROOT
ATOM      1  C   UNL     1       2.663  12.176 -51.730  1.00  0.00     0.043 A 
ATOM      2  C   UNL     1       2.358  10.904 -51.289  1.00  0.00     0.196 A 
ATOM      3  O   UNL     1       2.798  10.743 -50.061  1.00  0.00    -0.462 OA
ATOM      4  C   UNL     1       3.379  11.856 -49.678  1.00  0.00     0.166 A 
ATOM      5  C   UNL     1       3.323  12.793 -50.689  1.00  0.00     0.054 A 
ENDROOT
BRANCH   4   6
ATOM      6  C   UNL     1       3.992  12.056 -48.364  1.00  0.00     0.298 C 
ATOM      7  O   UNL     1       3.985  11.127 -47.514  1.00  0.00    -0.294 OA
ENDBRANCH   4   6
TORSDOF 1
ENDMDL
MODEL 7
REMARK VINA RESULT:     0.000     11.525     12.418
REMARK INTER + INTRA:          -0.016
REMARK INTER:                   0.000
REMARK INTRA:                  -0.016
REMARK UNBOUND:                -0.016
REMARK SMILES O=Cc1ccco1
REMARK SMILES IDX 5 1 6 2 7 3 3 4 4 5 2 6 1 7
REMARK H PARENT
REMARK Flexibility Score: inf
ROOT
ATOM      1  C   UNL     1       6.435  18.565 -53.601  1.00  0.00     0.043 A 
ATOM      2  C   UNL     1       5.252  18.187 -54.205  1.00  0.00     0.196 A 
ATOM      3  O   UNL     1       4.262  18.298 -53.349  1.00  0.00    -0.462 OA
ATOM      4  C   UNL     1       4.745  18.733 -52.209  1.00  0.00     0.166 A 
ATOM      5  C   UNL     1       6.108  18.918 -52.309  1.00  0.00     0.054 A 
ENDROOT
BRANCH   4   6
ATOM      6  C   UNL     1       3.939  18.980 -51.013  1.00  0.00     0.298 C 
ATOM      7  O   UNL     1       2.696  18.776 -51.033  1.00  0.00    -0.294 OA
ENDBRANCH   4   6
TORSDOF 1
ENDMDL
MODEL 8
REMARK VINA RESULT:     0.000      8.339      9.352
REMARK INTER + INTRA:          -0.016
REMARK INTER:                   0.000
REMARK INTRA:                  -0.016
REMARK UNBOUND:                -0.016
REMARK SMILES O=Cc1ccco1
REMARK SMILES IDX 5 1 6 2 7 3 3 4 4 5 2 6 1 7
REMARK H PARENT
REMARK Flexibility Score: inf
ROOT
ATOM      1  C   UNL     1       0.422  19.358 -47.716  1.00  0.00     0.043 A 
ATOM      2  C   UNL     1      -0.035  19.536 -46.425  1.00  0.00     0.196 A 
ATOM      3  O   UNL     1      -0.776  18.510 -46.073  1.00  0.00    -0.462 OA
ATOM      4  C   UNL     1      -0.825  17.667 -47.077  1.00  0.00     0.166 A 
ATOM      5  C   UNL     1      -0.088  18.150 -48.139  1.00  0.00     0.054 A 
ENDROOT
BRANCH   4   6
ATOM      6  C   UNL     1      -1.560  16.402 -47.057  1.00  0.00     0.298 C 
ATOM      7  O   UNL     1      -2.203  16.059 -46.029  1.00  0.00    -0.294 OA
ENDBRANCH   4   6
TORSDOF 1
ENDMDL
MODEL 9
REMARK VINA RESULT:     0.000      9.368     10.094
REMARK INTER + INTRA:          -0.016
REMARK INTER:                   0.000
REMARK INTRA:                  -0.016
REMARK UNBOUND:                -0.016
REMARK SMILES O=Cc1ccco1
REMARK SMILES IDX 5 1 6 2 7 3 3 4 4 5 2 6 1 7
REMARK H PARENT
REMARK Flexibility Score: inf
ROOT
ATOM      1  C   UNL     1       8.414  20.118 -49.444  1.00  0.00     0.043 A 
ATOM      2  C   UNL     1       7.357  19.930 -48.575  1.00  0.00     0.196 A 
ATOM      3  O   UNL     1       6.429  19.204 -49.156  1.00  0.00    -0.462 OA
ATOM      4  C   UNL     1       6.833  18.908 -50.370  1.00  0.00     0.166 A 
ATOM      5  C   UNL     1       8.076  19.458 -50.605  1.00  0.00     0.054 A 
ENDROOT
BRANCH   4   6
ATOM      6  C   UNL     1       6.061  18.109 -51.323  1.00  0.00     0.298 C 
ATOM      7  O   UNL     1       4.931  17.655 -51.001  1.00  0.00    -0.294 OA
ENDBRANCH   4   6
TORSDOF 1
ENDMDL
