MODEL 1
REMARK VINA RESULT:     3.153      0.000      0.000
REMARK INTER + INTRA:           3.153
REMARK INTER:                   3.153
REMARK INTRA:                   0.000
REMARK UNBOUND:                 0.000
REMARK SMILES C=C1CCC[C@]2(C)CC(=O)C(=C(C)C)C[C@H]12
REMARK SMILES IDX 13 1 12 2 11 3 15 4 16 5 2 6 1 7 3 8 4 9 5 10 6 11 8 12 9 13
REMARK SMILES IDX 10 14 7 15 14 16
REMARK H PARENT
REMARK Flexibility Score: inf
ROOT
ATOM      1  C   UNL     1     -30.143  36.177 -25.998  1.00  0.00     0.039 C 
ATOM      2  C   UNL     1     -30.761  37.496 -26.400  1.00  0.00    -0.070 C 
ATOM      3  C   UNL     1     -30.153  38.684 -26.113  1.00  0.00    -0.006 C 
ATOM      4  C   UNL     1     -30.776  40.017 -26.478  1.00  0.00     0.047 C 
ATOM      5  C   UNL     1     -30.477  41.138 -25.449  1.00  0.00     0.025 C 
ATOM      6  C   UNL     1     -30.934  42.466 -26.029  1.00  0.00    -0.073 C 
ATOM      7  C   UNL     1     -32.124  42.986 -25.687  1.00  0.00     0.008 C 
ATOM      8  C   UNL     1     -30.102  43.112 -27.117  1.00  0.00     0.031 C 
ATOM      9  C   UNL     1     -28.610  43.119 -26.758  1.00  0.00     0.005 C 
ATOM     10  C   UNL     1     -28.119  41.759 -26.225  1.00  0.00     0.008 C 
ATOM     11  C   UNL     1     -28.973  41.231 -25.033  1.00  0.00    -0.018 C 
ATOM     12  C   UNL     1     -28.452  39.842 -24.579  1.00  0.00     0.088 C 
ATOM     13  C   UNL     1     -28.786  38.756 -25.551  1.00  0.00     0.159 C 
ATOM     14  O   UNL     1     -27.897  37.923 -25.877  1.00  0.00    -0.295 OA
ATOM     15  C   UNL     1     -28.826  42.185 -23.818  1.00  0.00     0.012 C 
ATOM     16  C   UNL     1     -32.101  37.448 -27.098  1.00  0.00     0.039 C 
ENDROOT
TORSDOF 0
ENDMDL
MODEL 2
REMARK VINA RESULT:     4.550      1.754      3.442
REMARK INTER + INTRA:           4.550
REMARK INTER:                   4.550
REMARK INTRA:                   0.000
REMARK UNBOUND:                 0.000
REMARK SMILES C=C1CCC[C@]2(C)CC(=O)C(=C(C)C)C[C@H]12
REMARK SMILES IDX 13 1 12 2 11 3 15 4 16 5 2 6 1 7 3 8 4 9 5 10 6 11 8 12 9 13
REMARK SMILES IDX 10 14 7 15 14 16
REMARK H PARENT
REMARK Flexibility Score: inf
ROOT
ATOM      1  C   UNL     1     -29.778  35.096 -27.125  1.00  0.00     0.039 C 
ATOM      2  C   UNL     1     -29.191  36.320 -26.461  1.00  0.00    -0.070 C 
ATOM      3  C   UNL     1     -29.934  37.445 -26.258  1.00  0.00    -0.006 C 
ATOM      4  C   UNL     1     -29.351  38.694 -25.626  1.00  0.00     0.047 C 
ATOM      5  C   UNL     1     -29.948  40.007 -26.193  1.00  0.00     0.025 C 
ATOM      6  C   UNL     1     -29.480  41.168 -25.331  1.00  0.00    -0.073 C 
ATOM      7  C   UNL     1     -28.434  41.920 -25.710  1.00  0.00     0.008 C 
ATOM      8  C   UNL     1     -30.106  41.361 -23.966  1.00  0.00     0.031 C 
ATOM      9  C   UNL     1     -31.636  41.265 -24.028  1.00  0.00     0.005 C 
ATOM     10  C   UNL     1     -32.125  40.057 -24.849  1.00  0.00     0.008 C 
ATOM     11  C   UNL     1     -31.509  40.008 -26.279  1.00  0.00    -0.018 C 
ATOM     12  C   UNL     1     -32.008  38.745 -27.031  1.00  0.00     0.088 C 
ATOM     13  C   UNL     1     -31.392  37.486 -26.512  1.00  0.00     0.159 C 
ATOM     14  O   UNL     1     -32.123  36.482 -26.298  1.00  0.00    -0.295 OA
ATOM     15  C   UNL     1     -31.986  41.236 -27.100  1.00  0.00     0.012 C 
ATOM     16  C   UNL     1     -27.732  36.260 -26.068  1.00  0.00     0.039 C 
ENDROOT
TORSDOF 0
ENDMDL
