MODEL 1
REMARK VINA RESULT:    36.295      0.000      0.000
REMARK INTER + INTRA:          44.532
REMARK INTER:                  44.782
REMARK INTRA:                  -0.251
REMARK UNBOUND:                -0.251
REMARK SMILES O=c1c(O)c(-c2cc(O)c(O)c(O)c2)oc2cc(O)cc(O)c12
REMARK SMILES IDX 5 1 3 2 2 3 1 4 23 5 21 6 20 7 18 8 17 9 16 10 15 11 6 12
REMARK SMILES IDX 7 13 8 14 14 15 10 16 12 17 9 18 11 20 13 22 4 24 22 26
REMARK SMILES IDX 19 28
REMARK H PARENT 9 19 11 21 13 23 4 25 22 27 19 29
REMARK Flexibility Score: inf
ROOT
ATOM      1  C   UNL     1      15.976  49.794  58.911  1.00  0.00     0.180 A 
ATOM      2  C   UNL     1      15.055  50.717  58.388  1.00  0.00     0.208 A 
ATOM      3  C   UNL     1      14.972  51.996  58.960  1.00  0.00     0.238 A 
ATOM      4  O   UNL     1      14.183  52.836  58.452  1.00  0.00    -0.285 OA
ATOM      5  C   UNL     1      15.798  52.331  60.059  1.00  0.00     0.111 A 
ATOM      6  C   UNL     1      15.769  53.584  60.743  1.00  0.00     0.134 A 
ATOM      7  C   UNL     1      16.723  53.853  61.733  1.00  0.00     0.093 A 
ATOM      8  C   UNL     1      17.662  52.889  62.108  1.00  0.00     0.123 A 
ATOM      9  C   UNL     1      17.660  51.642  61.488  1.00  0.00     0.094 A 
ATOM     10  C   UNL     1      16.745  51.357  60.472  1.00  0.00     0.146 A 
ATOM     11  O   UNL     1      16.783  50.161  59.900  1.00  0.00    -0.452 OA
ENDROOT
BRANCH   1  12
ATOM     12  C   UNL     1      16.105  48.419  58.376  1.00  0.00     0.029 A 
ATOM     13  C   UNL     1      15.067  47.499  58.582  1.00  0.00     0.062 A 
ATOM     14  C   UNL     1      15.153  46.199  58.071  1.00  0.00     0.162 A 
ATOM     15  C   UNL     1      17.221  48.033  57.616  1.00  0.00     0.062 A 
ATOM     16  C   UNL     1      16.280  45.810  57.329  1.00  0.00     0.200 A 
ATOM     17  C   UNL     1      17.315  46.733  57.098  1.00  0.00     0.162 A 
BRANCH  14  18
ATOM     18  O   UNL     1      14.106  45.309  58.311  1.00  0.00    -0.504 OA
ATOM     19  H   UNL     1      13.418  45.082  57.603  1.00  0.00     0.293 HD
ENDBRANCH  14  18
BRANCH  16  20
ATOM     20  O   UNL     1      16.360  44.511  56.825  1.00  0.00    -0.502 OA
ATOM     21  H   UNL     1      16.655  43.727  57.394  1.00  0.00     0.293 HD
ENDBRANCH  16  20
BRANCH  17  22
ATOM     22  O   UNL     1      18.430  46.358  56.350  1.00  0.00    -0.504 OA
ATOM     23  H   UNL     1      19.262  46.936  56.310  1.00  0.00     0.293 HD
ENDBRANCH  17  22
ENDBRANCH   1  12
BRANCH   2  24
ATOM     24  O   UNL     1      14.263  50.373  57.288  1.00  0.00    -0.502 OA
ATOM     25  H   UNL     1      13.294  50.093  57.382  1.00  0.00     0.293 HD
ENDBRANCH   2  24
BRANCH   6  26
ATOM     26  O   UNL     1      14.816  54.579  60.509  1.00  0.00    -0.507 OA
ATOM     27  H   UNL     1      13.823  54.467  60.643  1.00  0.00     0.293 HD
ENDBRANCH   6  26
BRANCH   8  28
ATOM     28  O   UNL     1      18.598  53.158  63.105  1.00  0.00    -0.508 OA
ATOM     29  H   UNL     1      19.150  54.009  63.097  1.00  0.00     0.293 HD
ENDBRANCH   8  28
TORSDOF 7
ENDMDL
MODEL 2
REMARK VINA RESULT:    37.106      1.866      3.095
REMARK INTER + INTRA:          45.533
REMARK INTER:                  45.872
REMARK INTRA:                  -0.339
REMARK UNBOUND:                -0.251
REMARK SMILES O=c1c(O)c(-c2cc(O)c(O)c(O)c2)oc2cc(O)cc(O)c12
REMARK SMILES IDX 5 1 3 2 2 3 1 4 23 5 21 6 20 7 18 8 17 9 16 10 15 11 6 12
REMARK SMILES IDX 7 13 8 14 14 15 10 16 12 17 9 18 11 20 13 22 4 24 22 26
REMARK SMILES IDX 19 28
REMARK H PARENT 9 19 11 21 13 23 4 25 22 27 19 29
REMARK Flexibility Score: inf
ROOT
ATOM      1  C   UNL     1      15.948  49.239  59.620  1.00  0.00     0.180 A 
ATOM      2  C   UNL     1      15.460  49.082  60.929  1.00  0.00     0.208 A 
ATOM      3  C   UNL     1      15.032  50.216  61.637  1.00  0.00     0.238 A 
ATOM      4  O   UNL     1      14.545  50.063  62.788  1.00  0.00    -0.285 OA
ATOM      5  C   UNL     1      15.115  51.495  61.035  1.00  0.00     0.111 A 
ATOM      6  C   UNL     1      14.748  52.718  61.675  1.00  0.00     0.134 A 
ATOM      7  C   UNL     1      14.746  53.909  60.939  1.00  0.00     0.093 A 
ATOM      8  C   UNL     1      15.162  53.932  59.606  1.00  0.00     0.123 A 
ATOM      9  C   UNL     1      15.578  52.754  58.990  1.00  0.00     0.094 A 
ATOM     10  C   UNL     1      15.556  51.544  59.687  1.00  0.00     0.146 A 
ATOM     11  O   UNL     1      15.951  50.443  59.060  1.00  0.00    -0.452 OA
ENDROOT
BRANCH   1  12
ATOM     12  C   UNL     1      16.439  48.094  58.820  1.00  0.00     0.029 A 
ATOM     13  C   UNL     1      17.742  47.616  59.026  1.00  0.00     0.062 A 
ATOM     14  C   UNL     1      18.225  46.523  58.298  1.00  0.00     0.162 A 
ATOM     15  C   UNL     1      15.608  47.438  57.897  1.00  0.00     0.062 A 
ATOM     16  C   UNL     1      17.397  45.882  57.361  1.00  0.00     0.200 A 
ATOM     17  C   UNL     1      16.083  46.340  57.165  1.00  0.00     0.162 A 
BRANCH  14  18
ATOM     18  O   UNL     1      19.531  46.088  58.522  1.00  0.00    -0.504 OA
ATOM     19  H   UNL     1      19.863  45.829  59.443  1.00  0.00     0.293 HD
ENDBRANCH  14  18
BRANCH  16  20
ATOM     20  O   UNL     1      17.886  44.795  56.637  1.00  0.00    -0.502 OA
ATOM     21  H   UNL     1      17.641  43.839  56.864  1.00  0.00     0.293 HD
ENDBRANCH  16  20
BRANCH  17  22
ATOM     22  O   UNL     1      15.251  45.701  56.247  1.00  0.00    -0.504 OA
ATOM     23  H   UNL     1      14.698  44.892  56.504  1.00  0.00     0.293 HD
ENDBRANCH  17  22
ENDBRANCH   1  12
BRANCH   2  24
ATOM     24  O   UNL     1      15.367  47.808  61.496  1.00  0.00    -0.502 OA
ATOM     25  H   UNL     1      14.483  47.396  61.767  1.00  0.00     0.293 HD
ENDBRANCH   2  24
BRANCH   6  26
ATOM     26  O   UNL     1      14.406  52.818  63.026  1.00  0.00    -0.507 OA
ATOM     27  H   UNL     1      13.901  53.590  63.436  1.00  0.00     0.293 HD
ENDBRANCH   6  26
BRANCH   8  28
ATOM     28  O   UNL     1      15.173  55.125  58.885  1.00  0.00    -0.508 OA
ATOM     29  H   UNL     1      15.198  55.130  57.872  1.00  0.00     0.293 HD
ENDBRANCH   8  28
TORSDOF 7
ENDMDL
MODEL 3
REMARK VINA RESULT:    37.905      1.955      3.021
REMARK INTER + INTRA:          46.518
REMARK INTER:                  46.873
REMARK INTRA:                  -0.355
REMARK UNBOUND:                -0.251
REMARK SMILES O=c1c(O)c(-c2cc(O)c(O)c(O)c2)oc2cc(O)cc(O)c12
REMARK SMILES IDX 5 1 3 2 2 3 1 4 23 5 21 6 20 7 18 8 17 9 16 10 15 11 6 12
REMARK SMILES IDX 7 13 8 14 14 15 10 16 12 17 9 18 11 20 13 22 4 24 22 26
REMARK SMILES IDX 19 28
REMARK H PARENT 9 19 11 21 13 23 4 25 22 27 19 29
REMARK Flexibility Score: inf
ROOT
ATOM      1  C   UNL     1      16.783  49.705  59.429  1.00  0.00     0.180 A 
ATOM      2  C   UNL     1      17.875  50.559  59.660  1.00  0.00     0.208 A 
ATOM      3  C   UNL     1      17.719  51.646  60.534  1.00  0.00     0.238 A 
ATOM      4  O   UNL     1      18.716  52.375  60.778  1.00  0.00    -0.285 OA
ATOM      5  C   UNL     1      16.467  51.876  61.154  1.00  0.00     0.111 A 
ATOM      6  C   UNL     1      16.183  52.970  62.026  1.00  0.00     0.134 A 
ATOM      7  C   UNL     1      14.949  53.026  62.686  1.00  0.00     0.093 A 
ATOM      8  C   UNL     1      13.965  52.062  62.454  1.00  0.00     0.123 A 
ATOM      9  C   UNL     1      14.211  51.023  61.559  1.00  0.00     0.094 A 
ATOM     10  C   UNL     1      15.445  50.921  60.914  1.00  0.00     0.146 A 
ATOM     11  O   UNL     1      15.642  49.910  60.077  1.00  0.00    -0.452 OA
ENDROOT
BRANCH   1  12
ATOM     12  C   UNL     1      16.865  48.553  58.503  1.00  0.00     0.029 A 
ATOM     13  C   UNL     1      16.634  48.751  57.134  1.00  0.00     0.062 A 
ATOM     14  C   UNL     1      16.724  47.685  56.232  1.00  0.00     0.162 A 
ATOM     15  C   UNL     1      17.226  47.274  58.958  1.00  0.00     0.062 A 
ATOM     16  C   UNL     1      17.066  46.402  56.695  1.00  0.00     0.200 A 
ATOM     17  C   UNL     1      17.321  46.200  58.062  1.00  0.00     0.162 A 
BRANCH  14  18
ATOM     18  O   UNL     1      16.472  47.920  54.881  1.00  0.00    -0.504 OA
ATOM     19  H   UNL     1      16.132  47.194  54.261  1.00  0.00     0.293 HD
ENDBRANCH  14  18
BRANCH  16  20
ATOM     20  O   UNL     1      17.151  45.343  55.791  1.00  0.00    -0.502 OA
ATOM     21  H   UNL     1      17.608  45.435  54.891  1.00  0.00     0.293 HD
ENDBRANCH  16  20
BRANCH  17  22
ATOM     22  O   UNL     1      17.674  44.934  58.525  1.00  0.00    -0.504 OA
ATOM     23  H   UNL     1      18.227  44.810  59.366  1.00  0.00     0.293 HD
ENDBRANCH  17  22
ENDBRANCH   1  12
BRANCH   2  24
ATOM     24  O   UNL     1      19.108  50.301  59.054  1.00  0.00    -0.502 OA
ATOM     25  H   UNL     1      19.207  50.175  58.054  1.00  0.00     0.293 HD
ENDBRANCH   2  24
BRANCH   6  26
ATOM     26  O   UNL     1      17.061  54.033  62.255  1.00  0.00    -0.507 OA
ATOM     27  H   UNL     1      18.052  54.011  62.069  1.00  0.00     0.293 HD
ENDBRANCH   6  26
BRANCH   8  28
ATOM     28  O   UNL     1      12.733  52.133  63.102  1.00  0.00    -0.508 OA
ATOM     29  H   UNL     1      12.512  51.528  63.885  1.00  0.00     0.293 HD
ENDBRANCH   8  28
TORSDOF 7
ENDMDL
