MODEL 1
REMARK VINA RESULT:    -3.234      0.000      0.000
REMARK INTER + INTRA:          -3.802
REMARK INTER:                  -3.895
REMARK INTRA:                   0.093
REMARK UNBOUND:                 0.093
REMARK SMILES O=c1c(O)c(-c2ccc(O)c(O)c2)oc2cc(O)cc(O)c12
REMARK SMILES IDX 5 1 3 2 2 3 1 4 22 5 20 6 19 7 17 8 16 9 15 10 14 11 6 12
REMARK SMILES IDX 7 13 8 14 9 15 13 16 11 17 10 18 12 20 4 22 21 24 18 26
REMARK H PARENT 10 19 12 21 4 23 21 25 18 27
REMARK Flexibility Score: inf
ROOT
ATOM      1  C   UNL     1       3.949  26.174 -11.473  1.00  0.00     0.180 A 
ATOM      2  C   UNL     1       5.052  26.858 -10.934  1.00  0.00     0.208 A 
ATOM      3  C   UNL     1       4.962  28.246 -10.739  1.00  0.00     0.238 A 
ATOM      4  O   UNL     1       5.970  28.862 -10.306  1.00  0.00    -0.285 OA
ATOM      5  C   UNL     1       3.766  28.928 -11.069  1.00  0.00     0.111 A 
ATOM      6  C   UNL     1       3.550  30.325 -10.876  1.00  0.00     0.134 A 
ATOM      7  C   UNL     1       2.376  30.917 -11.360  1.00  0.00     0.093 A 
ATOM      8  C   UNL     1       1.383  30.149 -11.972  1.00  0.00     0.123 A 
ATOM      9  C   UNL     1       1.559  28.775 -12.112  1.00  0.00     0.094 A 
ATOM     10  C   UNL     1       2.735  28.162 -11.672  1.00  0.00     0.146 A 
ATOM     11  O   UNL     1       2.866  26.852 -11.834  1.00  0.00    -0.452 OA
ENDROOT
BRANCH   1  12
ATOM     12  C   UNL     1       3.960  24.707 -11.685  1.00  0.00     0.025 A 
ATOM     13  C   UNL     1       3.357  24.171 -12.831  1.00  0.00     0.016 A 
ATOM     14  C   UNL     1       3.338  22.792 -13.041  1.00  0.00     0.051 A 
ATOM     15  C   UNL     1       3.905  21.920 -12.105  1.00  0.00     0.157 A 
ATOM     16  C   UNL     1       4.510  23.834 -10.732  1.00  0.00     0.062 A 
ATOM     17  C   UNL     1       4.492  22.448 -10.931  1.00  0.00     0.158 A 
BRANCH  15  18
ATOM     18  O   UNL     1       3.860  20.551 -12.377  1.00  0.00    -0.504 OA
ATOM     19  H   UNL     1       3.828  20.161 -13.308  1.00  0.00     0.293 HD
ENDBRANCH  15  18
BRANCH  17  20
ATOM     20  O   UNL     1       5.060  21.640  -9.943  1.00  0.00    -0.504 OA
ATOM     21  H   UNL     1       5.974  21.218 -10.016  1.00  0.00     0.293 HD
ENDBRANCH  17  20
ENDBRANCH   1  12
BRANCH   2  22
ATOM     22  O   UNL     1       6.229  26.169 -10.635  1.00  0.00    -0.502 OA
ATOM     23  H   UNL     1       6.734  26.306  -9.767  1.00  0.00     0.293 HD
ENDBRANCH   2  22
BRANCH   6  24
ATOM     24  O   UNL     1       4.437  31.165 -10.195  1.00  0.00    -0.507 OA
ATOM     25  H   UNL     1       4.993  31.885 -10.628  1.00  0.00     0.293 HD
ENDBRANCH   6  24
BRANCH   8  26
ATOM     26  O   UNL     1       0.212  30.743 -12.436  1.00  0.00    -0.508 OA
ATOM     27  H   UNL     1       0.059  31.742 -12.366  1.00  0.00     0.293 HD
ENDBRANCH   8  26
TORSDOF 6
ENDMDL
MODEL 2
REMARK VINA RESULT:    -1.967     12.897     14.796
REMARK INTER + INTRA:          -2.276
REMARK INTER:                  -2.363
REMARK INTRA:                   0.087
REMARK UNBOUND:                 0.093
REMARK SMILES O=c1c(O)c(-c2ccc(O)c(O)c2)oc2cc(O)cc(O)c12
REMARK SMILES IDX 5 1 3 2 2 3 1 4 22 5 20 6 19 7 17 8 16 9 15 10 14 11 6 12
REMARK SMILES IDX 7 13 8 14 9 15 13 16 11 17 10 18 12 20 4 22 21 24 18 26
REMARK H PARENT 10 19 12 21 4 23 21 25 18 27
REMARK Flexibility Score: inf
ROOT
ATOM      1  C   UNL     1      -3.212  23.729 -23.563  1.00  0.00     0.180 A 
ATOM      2  C   UNL     1      -4.353  23.131 -24.126  1.00  0.00     0.208 A 
ATOM      3  C   UNL     1      -5.598  23.762 -23.975  1.00  0.00     0.238 A 
ATOM      4  O   UNL     1      -6.623  23.196 -24.435  1.00  0.00    -0.285 OA
ATOM      5  C   UNL     1      -5.684  24.991 -23.277  1.00  0.00     0.111 A 
ATOM      6  C   UNL     1      -6.887  25.738 -23.098  1.00  0.00     0.134 A 
ATOM      7  C   UNL     1      -6.879  26.874 -22.278  1.00  0.00     0.093 A 
ATOM      8  C   UNL     1      -5.697  27.325 -21.684  1.00  0.00     0.123 A 
ATOM      9  C   UNL     1      -4.508  26.636 -21.901  1.00  0.00     0.094 A 
ATOM     10  C   UNL     1      -4.491  25.479 -22.684  1.00  0.00     0.146 A 
ATOM     11  O   UNL     1      -3.337  24.847 -22.858  1.00  0.00    -0.452 OA
ENDROOT
BRANCH   1  12
ATOM     12  C   UNL     1      -1.862  23.136 -23.701  1.00  0.00     0.025 A 
ATOM     13  C   UNL     1      -0.978  23.170 -22.615  1.00  0.00     0.016 A 
ATOM     14  C   UNL     1       0.305  22.635 -22.730  1.00  0.00     0.051 A 
ATOM     15  C   UNL     1       0.738  22.070 -23.935  1.00  0.00     0.157 A 
ATOM     16  C   UNL     1      -1.424  22.590 -24.920  1.00  0.00     0.062 A 
ATOM     17  C   UNL     1      -0.136  22.054 -25.047  1.00  0.00     0.158 A 
BRANCH  15  18
ATOM     18  O   UNL     1       2.031  21.546 -23.983  1.00  0.00    -0.504 OA
ATOM     19  H   UNL     1       2.350  20.894 -24.686  1.00  0.00     0.293 HD
ENDBRANCH  15  18
BRANCH  17  20
ATOM     20  O   UNL     1       0.231  21.525 -26.286  1.00  0.00    -0.504 OA
ATOM     21  H   UNL     1      -0.183  20.699 -26.692  1.00  0.00     0.293 HD
ENDBRANCH  17  20
ENDBRANCH   1  12
BRANCH   2  22
ATOM     22  O   UNL     1      -4.248  21.907 -24.793  1.00  0.00    -0.502 OA
ATOM     23  H   UNL     1      -3.540  21.221 -24.561  1.00  0.00     0.293 HD
ENDBRANCH   2  22
BRANCH   6  24
ATOM     24  O   UNL     1      -8.100  25.426 -23.720  1.00  0.00    -0.507 OA
ATOM     25  H   UNL     1      -8.195  24.822 -24.521  1.00  0.00     0.293 HD
ENDBRANCH   6  24
BRANCH   8  26
ATOM     26  O   UNL     1      -5.696  28.464 -20.883  1.00  0.00    -0.508 OA
ATOM     27  H   UNL     1      -5.583  28.407 -19.878  1.00  0.00     0.293 HD
ENDBRANCH   8  26
TORSDOF 6
ENDMDL
