MODEL 1
REMARK VINA RESULT:    -2.353      0.000      0.000
REMARK INTER + INTRA:          -3.054
REMARK INTER:                  -2.834
REMARK INTRA:                  -0.220
REMARK UNBOUND:                -0.220
REMARK SMILES O=c1c(O)c(-c2ccc(O)c(O)c2)oc2cc(O)cc(O)c12
REMARK SMILES IDX 5 1 3 2 2 3 1 4 22 5 20 6 19 7 17 8 16 9 15 10 14 11 6 12
REMARK SMILES IDX 7 13 8 14 9 15 13 16 11 17 10 18 12 20 4 22 21 24 18 26
REMARK H PARENT 10 19 12 21 4 23 21 25 18 27
REMARK Flexibility Score: inf
ROOT
ATOM      1  C   UNL     1       9.550 -16.992   7.922  1.00  0.00     0.180 A 
ATOM      2  C   UNL     1      10.009 -17.554   6.717  1.00  0.00     0.208 A 
ATOM      3  C   UNL     1      11.386 -17.555   6.446  1.00  0.00     0.238 A 
ATOM      4  O   UNL     1      11.781 -17.992   5.334  1.00  0.00    -0.285 OA
ATOM      5  C   UNL     1      12.293 -17.044   7.406  1.00  0.00     0.111 A 
ATOM      6  C   UNL     1      13.714 -17.035   7.257  1.00  0.00     0.134 A 
ATOM      7  C   UNL     1      14.506 -16.408   8.225  1.00  0.00     0.093 A 
ATOM      8  C   UNL     1      13.937 -15.845   9.368  1.00  0.00     0.123 A 
ATOM      9  C   UNL     1      12.555 -15.898   9.551  1.00  0.00     0.094 A 
ATOM     10  C   UNL     1      11.735 -16.483   8.583  1.00  0.00     0.146 A 
ATOM     11  O   UNL     1      10.423 -16.492   8.788  1.00  0.00    -0.452 OA
ENDROOT
BRANCH   1  12
ATOM     12  C   UNL     1       8.113 -16.942   8.271  1.00  0.00     0.025 A 
ATOM     13  C   UNL     1       7.448 -18.125   8.630  1.00  0.00     0.016 A 
ATOM     14  C   UNL     1       6.098 -18.099   8.984  1.00  0.00     0.051 A 
ATOM     15  C   UNL     1       5.394 -16.891   9.000  1.00  0.00     0.157 A 
ATOM     16  C   UNL     1       7.410 -15.724   8.309  1.00  0.00     0.062 A 
ATOM     17  C   UNL     1       6.053 -15.696   8.666  1.00  0.00     0.158 A 
BRANCH  15  18
ATOM     18  O   UNL     1       4.045 -16.895   9.356  1.00  0.00    -0.504 OA
ATOM     19  H   UNL     1       3.316 -16.640   8.702  1.00  0.00     0.293 HD
ENDBRANCH  15  18
BRANCH  17  20
ATOM     20  O   UNL     1       5.362 -14.485   8.695  1.00  0.00    -0.504 OA
ATOM     21  H   UNL     1       5.847 -13.598   8.754  1.00  0.00     0.293 HD
ENDBRANCH  17  20
ENDBRANCH   1  12
BRANCH   2  22
ATOM     22  O   UNL     1       9.103 -18.123   5.817  1.00  0.00    -0.502 OA
ATOM     23  H   UNL     1       9.044 -19.122   5.663  1.00  0.00     0.293 HD
ENDBRANCH   2  22
BRANCH   6  24
ATOM     24  O   UNL     1      14.394 -17.645   6.198  1.00  0.00    -0.507 OA
ATOM     25  H   UNL     1      15.131 -17.213   5.660  1.00  0.00     0.293 HD
ENDBRANCH   6  24
BRANCH   8  26
ATOM     26  O   UNL     1      14.758 -15.245  10.319  1.00  0.00    -0.508 OA
ATOM     27  H   UNL     1      15.099 -14.297  10.203  1.00  0.00     0.293 HD
ENDBRANCH   8  26
TORSDOF 6
ENDMDL
MODEL 2
REMARK VINA RESULT:    -2.066      2.046      2.277
REMARK INTER + INTRA:          -2.708
REMARK INTER:                  -2.378
REMARK INTRA:                  -0.330
REMARK UNBOUND:                -0.220
REMARK SMILES O=c1c(O)c(-c2ccc(O)c(O)c2)oc2cc(O)cc(O)c12
REMARK SMILES IDX 5 1 3 2 2 3 1 4 22 5 20 6 19 7 17 8 16 9 15 10 14 11 6 12
REMARK SMILES IDX 7 13 8 14 9 15 13 16 11 17 10 18 12 20 4 22 21 24 18 26
REMARK H PARENT 10 19 12 21 4 23 21 25 18 27
REMARK Flexibility Score: inf
ROOT
ATOM      1  C   UNL     1       9.856 -15.708   7.749  1.00  0.00     0.180 A 
ATOM      2  C   UNL     1      10.247 -14.757   6.790  1.00  0.00     0.208 A 
ATOM      3  C   UNL     1      11.545 -14.225   6.847  1.00  0.00     0.238 A 
ATOM      4  O   UNL     1      11.863 -13.322   6.031  1.00  0.00    -0.285 OA
ATOM      5  C   UNL     1      12.454 -14.690   7.828  1.00  0.00     0.111 A 
ATOM      6  C   UNL     1      13.809 -14.254   7.952  1.00  0.00     0.134 A 
ATOM      7  C   UNL     1      14.584 -14.705   9.027  1.00  0.00     0.093 A 
ATOM      8  C   UNL     1      14.077 -15.623   9.946  1.00  0.00     0.123 A 
ATOM      9  C   UNL     1      12.773 -16.098   9.803  1.00  0.00     0.094 A 
ATOM     10  C   UNL     1      11.963 -15.638   8.763  1.00  0.00     0.146 A 
ATOM     11  O   UNL     1      10.720 -16.100   8.677  1.00  0.00    -0.452 OA
ENDROOT
BRANCH   1  12
ATOM     12  C   UNL     1       8.500 -16.302   7.763  1.00  0.00     0.025 A 
ATOM     13  C   UNL     1       8.263 -17.493   7.058  1.00  0.00     0.016 A 
ATOM     14  C   UNL     1       6.998 -18.084   7.072  1.00  0.00     0.051 A 
ATOM     15  C   UNL     1       5.956 -17.505   7.803  1.00  0.00     0.157 A 
ATOM     16  C   UNL     1       7.457 -15.733   8.515  1.00  0.00     0.062 A 
ATOM     17  C   UNL     1       6.186 -16.326   8.531  1.00  0.00     0.158 A 
BRANCH  15  18
ATOM     18  O   UNL     1       4.701 -18.116   7.798  1.00  0.00    -0.504 OA
ATOM     19  H   UNL     1       4.560 -19.050   7.434  1.00  0.00     0.293 HD
ENDBRANCH  15  18
BRANCH  17  20
ATOM     20  O   UNL     1       5.155 -15.751   9.275  1.00  0.00    -0.504 OA
ATOM     21  H   UNL     1       4.837 -14.806   9.098  1.00  0.00     0.293 HD
ENDBRANCH  17  20
ENDBRANCH   1  12
BRANCH   2  22
ATOM     22  O   UNL     1       9.359 -14.368   5.783  1.00  0.00    -0.502 OA
ATOM     23  H   UNL     1       9.149 -13.397   5.588  1.00  0.00     0.293 HD
ENDBRANCH   2  22
BRANCH   6  24
ATOM     24  O   UNL     1      14.445 -13.406   7.040  1.00  0.00    -0.507 OA
ATOM     25  H   UNL     1      13.995 -12.959   6.256  1.00  0.00     0.293 HD
ENDBRANCH   6  24
BRANCH   8  26
ATOM     26  O   UNL     1      14.883 -16.063  10.993  1.00  0.00    -0.508 OA
ATOM     27  H   UNL     1      14.944 -17.044  11.239  1.00  0.00     0.293 HD
ENDBRANCH   8  26
TORSDOF 6
ENDMDL
MODEL 3
REMARK VINA RESULT:    -1.492      2.466      3.014
REMARK INTER + INTRA:          -2.017
REMARK INTER:                  -2.096
REMARK INTRA:                   0.078
REMARK UNBOUND:                -0.220
REMARK SMILES O=c1c(O)c(-c2ccc(O)c(O)c2)oc2cc(O)cc(O)c12
REMARK SMILES IDX 5 1 3 2 2 3 1 4 22 5 20 6 19 7 17 8 16 9 15 10 14 11 6 12
REMARK SMILES IDX 7 13 8 14 9 15 13 16 11 17 10 18 12 20 4 22 21 24 18 26
REMARK H PARENT 10 19 12 21 4 23 21 25 18 27
REMARK Flexibility Score: inf
ROOT
ATOM      1  C   UNL     1       9.679 -16.257   8.269  1.00  0.00     0.180 A 
ATOM      2  C   UNL     1      10.786 -16.959   8.775  1.00  0.00     0.208 A 
ATOM      3  C   UNL     1      12.077 -16.460   8.537  1.00  0.00     0.238 A 
ATOM      4  O   UNL     1      13.065 -17.132   8.930  1.00  0.00    -0.285 OA
ATOM      5  C   UNL     1      12.242 -15.236   7.845  1.00  0.00     0.111 A 
ATOM      6  C   UNL     1      13.501 -14.612   7.587  1.00  0.00     0.134 A 
ATOM      7  C   UNL     1      13.550 -13.456   6.799  1.00  0.00     0.093 A 
ATOM      8  C   UNL     1      12.384 -12.864   6.314  1.00  0.00     0.123 A 
ATOM      9  C   UNL     1      11.145 -13.434   6.607  1.00  0.00     0.094 A 
ATOM     10  C   UNL     1      11.066 -14.609   7.358  1.00  0.00     0.146 A 
ATOM     11  O   UNL     1       9.867 -15.129   7.595  1.00  0.00    -0.452 OA
ENDROOT
BRANCH   1  12
ATOM     12  C   UNL     1       8.289 -16.728   8.466  1.00  0.00     0.025 A 
ATOM     13  C   UNL     1       7.417 -16.779   7.368  1.00  0.00     0.016 A 
ATOM     14  C   UNL     1       6.107 -17.240   7.525  1.00  0.00     0.051 A 
ATOM     15  C   UNL     1       5.655 -17.672   8.775  1.00  0.00     0.157 A 
ATOM     16  C   UNL     1       7.840 -17.183   9.718  1.00  0.00     0.062 A 
ATOM     17  C   UNL     1       6.526 -17.647   9.877  1.00  0.00     0.158 A 
BRANCH  15  18
ATOM     18  O   UNL     1       4.342 -18.125   8.903  1.00  0.00    -0.504 OA
ATOM     19  H   UNL     1       3.675 -18.063   8.144  1.00  0.00     0.293 HD
ENDBRANCH  15  18
BRANCH  17  20
ATOM     20  O   UNL     1       6.086 -18.091  11.125  1.00  0.00    -0.504 OA
ATOM     21  H   UNL     1       6.702 -18.583  11.760  1.00  0.00     0.293 HD
ENDBRANCH  17  20
ENDBRANCH   1  12
BRANCH   2  22
ATOM     22  O   UNL     1      10.598 -18.125   9.523  1.00  0.00    -0.502 OA
ATOM     23  H   UNL     1      10.660 -18.139  10.534  1.00  0.00     0.293 HD
ENDBRANCH   2  22
BRANCH   6  24
ATOM     24  O   UNL     1      14.721 -15.069   8.096  1.00  0.00    -0.507 OA
ATOM     25  H   UNL     1      15.343 -14.528   8.677  1.00  0.00     0.293 HD
ENDBRANCH   6  24
BRANCH   8  26
ATOM     26  O   UNL     1      12.470 -11.704   5.548  1.00  0.00    -0.508 OA
ATOM     27  H   UNL     1      13.340 -11.419   5.113  1.00  0.00     0.293 HD
ENDBRANCH   8  26
TORSDOF 6
ENDMDL
MODEL 4
REMARK VINA RESULT:    -1.295      1.602      6.805
REMARK INTER + INTRA:          -1.780
REMARK INTER:                  -1.827
REMARK INTRA:                   0.047
REMARK UNBOUND:                -0.220
REMARK SMILES O=c1c(O)c(-c2ccc(O)c(O)c2)oc2cc(O)cc(O)c12
REMARK SMILES IDX 5 1 3 2 2 3 1 4 22 5 20 6 19 7 17 8 16 9 15 10 14 11 6 12
REMARK SMILES IDX 7 13 8 14 9 15 13 16 11 17 10 18 12 20 4 22 21 24 18 26
REMARK H PARENT 10 19 12 21 4 23 21 25 18 27
REMARK Flexibility Score: inf
ROOT
ATOM      1  C   UNL     1       9.912 -17.248   7.913  1.00  0.00     0.180 A 
ATOM      2  C   UNL     1       9.231 -17.449   6.700  1.00  0.00     0.208 A 
ATOM      3  C   UNL     1       7.857 -17.739   6.728  1.00  0.00     0.238 A 
ATOM      4  O   UNL     1       7.271 -17.989   5.644  1.00  0.00    -0.285 OA
ATOM      5  C   UNL     1       7.170 -17.771   7.966  1.00  0.00     0.111 A 
ATOM      6  C   UNL     1       5.770 -18.010   8.111  1.00  0.00     0.134 A 
ATOM      7  C   UNL     1       5.218 -18.124   9.393  1.00  0.00     0.093 A 
ATOM      8  C   UNL     1       6.000 -17.944  10.533  1.00  0.00     0.123 A 
ATOM      9  C   UNL     1       7.359 -17.654  10.402  1.00  0.00     0.094 A 
ATOM     10  C   UNL     1       7.946 -17.573   9.138  1.00  0.00     0.146 A 
ATOM     11  O   UNL     1       9.247 -17.316   9.060  1.00  0.00    -0.452 OA
ENDROOT
BRANCH   1  12
ATOM     12  C   UNL     1      11.361 -16.952   7.964  1.00  0.00     0.025 A 
ATOM     13  C   UNL     1      11.834 -15.968   8.846  1.00  0.00     0.016 A 
ATOM     14  C   UNL     1      13.199 -15.686   8.926  1.00  0.00     0.051 A 
ATOM     15  C   UNL     1      14.115 -16.393   8.140  1.00  0.00     0.157 A 
ATOM     16  C   UNL     1      12.285 -17.678   7.190  1.00  0.00     0.062 A 
ATOM     17  C   UNL     1      13.657 -17.397   7.271  1.00  0.00     0.158 A 
BRANCH  15  18
ATOM     18  O   UNL     1      15.473 -16.089   8.240  1.00  0.00    -0.504 OA
ATOM     19  H   UNL     1      16.190 -16.702   7.871  1.00  0.00     0.293 HD
ENDBRANCH  15  18
BRANCH  17  20
ATOM     20  O   UNL     1      14.566 -18.117   6.495  1.00  0.00    -0.504 OA
ATOM     21  H   UNL     1      15.176 -18.815   6.903  1.00  0.00     0.293 HD
ENDBRANCH  17  20
ENDBRANCH   1  12
BRANCH   2  22
ATOM     22  O   UNL     1       9.912 -17.337   5.484  1.00  0.00    -0.502 OA
ATOM     23  H   UNL     1      10.800 -17.793   5.314  1.00  0.00     0.293 HD
ENDBRANCH   2  22
BRANCH   6  24
ATOM     24  O   UNL     1       4.878 -18.119   7.040  1.00  0.00    -0.507 OA
ATOM     25  H   UNL     1       3.878 -18.218   7.128  1.00  0.00     0.293 HD
ENDBRANCH   6  24
BRANCH   8  26
ATOM     26  O   UNL     1       5.414 -18.047  11.792  1.00  0.00    -0.508 OA
ATOM     27  H   UNL     1       5.486 -18.896  12.343  1.00  0.00     0.293 HD
ENDBRANCH   8  26
TORSDOF 6
ENDMDL
