MODEL 1
REMARK VINA RESULT:    -6.960      0.000      0.000
REMARK INTER + INTRA:          -8.349
REMARK INTER:                  -8.384
REMARK INTRA:                   0.035
REMARK UNBOUND:                 0.035
REMARK SMILES Oc1cc(O)c2c(c1)O[C@H](c1ccc(O)c(O)c1)[C@H](O)C2
REMARK SMILES IDX 21 1 19 2 10 3 9 4 7 5 8 6 2 7 3 8 4 9 6 10 20 11 11 13
REMARK SMILES IDX 18 14 12 15 16 16 13 17 14 18 17 19 15 21 5 23 1 25
REMARK H PARENT 20 12 17 20 15 22 5 24 1 26
REMARK Flexibility Score: inf
ROOT
ATOM      1  C   UNL     1       5.931   7.722  32.639  1.00  0.00     0.079 C 
ATOM      2  C   UNL     1       5.580   7.915  34.127  1.00  0.00     0.164 C 
ATOM      3  C   UNL     1       5.177   9.378  34.373  1.00  0.00     0.232 C 
ATOM      4  O   UNL     1       6.235  10.249  33.970  1.00  0.00    -0.482 OA
ATOM      5  C   UNL     1       6.993  10.010  32.818  1.00  0.00     0.131 A 
ATOM      6  C   UNL     1       7.879  10.994  32.373  1.00  0.00     0.093 A 
ATOM      7  C   UNL     1       8.636  10.792  31.218  1.00  0.00     0.122 A 
ATOM      8  C   UNL     1       8.498   9.600  30.496  1.00  0.00     0.092 A 
ATOM      9  C   UNL     1       7.614   8.604  30.927  1.00  0.00     0.126 A 
ATOM     10  C   UNL     1       6.879   8.786  32.121  1.00  0.00     0.039 A 
ENDROOT
BRANCH   2  11
ATOM     11  O   UNL     1       6.690   7.584  34.926  1.00  0.00    -0.389 OA
ATOM     12  H   UNL     1       6.596   6.625  35.163  1.00  0.00     0.211 HD
ENDBRANCH   2  11
BRANCH   3  13
ATOM     13  C   UNL     1       4.815   9.618  35.821  1.00  0.00    -0.001 A 
ATOM     14  C   UNL     1       5.807   9.650  36.819  1.00  0.00     0.057 A 
ATOM     15  C   UNL     1       3.467   9.748  36.193  1.00  0.00     0.012 A 
ATOM     16  C   UNL     1       5.460   9.836  38.161  1.00  0.00     0.157 A 
ATOM     17  C   UNL     1       3.119   9.935  37.532  1.00  0.00     0.050 A 
ATOM     18  C   UNL     1       4.110   9.983  38.522  1.00  0.00     0.157 A 
BRANCH  16  19
ATOM     19  O   UNL     1       6.469   9.871  39.123  1.00  0.00    -0.504 OA
ATOM     20  H   UNL     1       6.646  10.691  39.691  1.00  0.00     0.293 HD
ENDBRANCH  16  19
BRANCH  18  21
ATOM     21  O   UNL     1       3.758  10.170  39.857  1.00  0.00    -0.504 OA
ATOM     22  H   UNL     1       4.433  10.060  40.605  1.00  0.00     0.293 HD
ENDBRANCH  18  21
ENDBRANCH   3  13
BRANCH   9  23
ATOM     23  O   UNL     1       7.487   7.457  30.140  1.00  0.00    -0.507 OA
ATOM     24  H   UNL     1       7.797   7.406  29.178  1.00  0.00     0.293 HD
ENDBRANCH   9  23
BRANCH   7  25
ATOM     25  O   UNL     1       9.516  11.784  30.790  1.00  0.00    -0.508 OA
ATOM     26  H   UNL     1       9.391  12.255  29.903  1.00  0.00     0.293 HD
ENDBRANCH   7  25
TORSDOF 6
ENDMDL
MODEL 2
REMARK VINA RESULT:    -6.543      1.560      6.843
REMARK INTER + INTRA:          -7.847
REMARK INTER:                  -7.550
REMARK INTRA:                  -0.297
REMARK UNBOUND:                 0.035
REMARK SMILES Oc1cc(O)c2c(c1)O[C@H](c1ccc(O)c(O)c1)[C@H](O)C2
REMARK SMILES IDX 21 1 19 2 10 3 9 4 7 5 8 6 2 7 3 8 4 9 6 10 20 11 11 13
REMARK SMILES IDX 18 14 12 15 16 16 13 17 14 18 17 19 15 21 5 23 1 25
REMARK H PARENT 20 12 17 20 15 22 5 24 1 26
REMARK Flexibility Score: inf
ROOT
ATOM      1  C   UNL     1       4.104   7.762  35.339  1.00  0.00     0.079 C 
ATOM      2  C   UNL     1       4.787   8.553  34.207  1.00  0.00     0.164 C 
ATOM      3  C   UNL     1       6.271   8.763  34.551  1.00  0.00     0.232 C 
ATOM      4  O   UNL     1       6.388   9.440  35.804  1.00  0.00    -0.482 OA
ATOM      5  C   UNL     1       5.546   9.152  36.883  1.00  0.00     0.131 A 
ATOM      6  C   UNL     1       5.832   9.705  38.133  1.00  0.00     0.093 A 
ATOM      7  C   UNL     1       5.020   9.423  39.233  1.00  0.00     0.122 A 
ATOM      8  C   UNL     1       3.918   8.572  39.084  1.00  0.00     0.092 A 
ATOM      9  C   UNL     1       3.616   8.009  37.838  1.00  0.00     0.126 A 
ATOM     10  C   UNL     1       4.410   8.328  36.712  1.00  0.00     0.039 A 
ENDROOT
BRANCH   2  11
ATOM     11  O   UNL     1       4.153   9.797  34.044  1.00  0.00    -0.389 OA
ATOM     12  H   UNL     1       4.778  10.372  33.529  1.00  0.00     0.211 HD
ENDBRANCH   2  11
BRANCH   3  13
ATOM     13  C   UNL     1       6.989   9.530  33.465  1.00  0.00    -0.001 A 
ATOM     14  C   UNL     1       7.467   8.878  32.314  1.00  0.00     0.057 A 
ATOM     15  C   UNL     1       7.243  10.902  33.628  1.00  0.00     0.012 A 
ATOM     16  C   UNL     1       8.163   9.588  31.329  1.00  0.00     0.157 A 
ATOM     17  C   UNL     1       7.936  11.613  32.646  1.00  0.00     0.050 A 
ATOM     18  C   UNL     1       8.397  10.964  31.493  1.00  0.00     0.157 A 
BRANCH  16  19
ATOM     19  O   UNL     1       8.616   8.911  30.198  1.00  0.00    -0.504 OA
ATOM     20  H   UNL     1       8.865   7.929  30.221  1.00  0.00     0.293 HD
ENDBRANCH  16  19
BRANCH  18  21
ATOM     21  O   UNL     1       9.088  11.678  30.516  1.00  0.00    -0.504 OA
ATOM     22  H   UNL     1       8.814  12.616  30.251  1.00  0.00     0.293 HD
ENDBRANCH  18  21
ENDBRANCH   3  13
BRANCH   9  23
ATOM     23  O   UNL     1       2.531   7.132  37.762  1.00  0.00    -0.507 OA
ATOM     24  H   UNL     1       1.802   7.089  38.462  1.00  0.00     0.293 HD
ENDBRANCH   9  23
BRANCH   7  25
ATOM     25  O   UNL     1       5.321   9.984  40.472  1.00  0.00    -0.508 OA
ATOM     26  H   UNL     1       5.602   9.411  41.259  1.00  0.00     0.293 HD
ENDBRANCH   7  25
TORSDOF 6
ENDMDL
MODEL 3
REMARK VINA RESULT:    -6.064      1.954      3.258
REMARK INTER + INTRA:          -7.270
REMARK INTER:                  -6.897
REMARK INTRA:                  -0.372
REMARK UNBOUND:                 0.035
REMARK SMILES Oc1cc(O)c2c(c1)O[C@H](c1ccc(O)c(O)c1)[C@H](O)C2
REMARK SMILES IDX 21 1 19 2 10 3 9 4 7 5 8 6 2 7 3 8 4 9 6 10 20 11 11 13
REMARK SMILES IDX 18 14 12 15 16 16 13 17 14 18 17 19 15 21 5 23 1 25
REMARK H PARENT 20 12 17 20 15 22 5 24 1 26
REMARK Flexibility Score: inf
ROOT
ATOM      1  C   UNL     1       7.445  10.478  33.675  1.00  0.00     0.079 C 
ATOM      2  C   UNL     1       6.277  10.092  34.603  1.00  0.00     0.164 C 
ATOM      3  C   UNL     1       6.257   8.566  34.793  1.00  0.00     0.232 C 
ATOM      4  O   UNL     1       6.151   7.919  33.524  1.00  0.00    -0.482 OA
ATOM      5  C   UNL     1       6.835   8.383  32.396  1.00  0.00     0.131 A 
ATOM      6  C   UNL     1       6.845   7.602  31.239  1.00  0.00     0.093 A 
ATOM      7  C   UNL     1       7.533   8.031  30.103  1.00  0.00     0.122 A 
ATOM      8  C   UNL     1       8.226   9.247  30.127  1.00  0.00     0.092 A 
ATOM      9  C   UNL     1       8.227  10.044  31.279  1.00  0.00     0.126 A 
ATOM     10  C   UNL     1       7.494   9.634  32.417  1.00  0.00     0.039 A 
ENDROOT
BRANCH   2  11
ATOM     11  O   UNL     1       5.061  10.519  34.042  1.00  0.00    -0.389 OA
ATOM     12  H   UNL     1       5.096  10.294  33.075  1.00  0.00     0.211 HD
ENDBRANCH   2  11
BRANCH   3  13
ATOM     13  C   UNL     1       5.129   8.135  35.704  1.00  0.00    -0.001 A 
ATOM     14  C   UNL     1       4.178   7.189  35.281  1.00  0.00     0.057 A 
ATOM     15  C   UNL     1       4.985   8.731  36.968  1.00  0.00     0.012 A 
ATOM     16  C   UNL     1       3.117   6.823  36.116  1.00  0.00     0.157 A 
ATOM     17  C   UNL     1       3.927   8.367  37.803  1.00  0.00     0.050 A 
ATOM     18  C   UNL     1       2.991   7.412  37.386  1.00  0.00     0.157 A 
BRANCH  16  19
ATOM     19  O   UNL     1       2.198   5.876  35.667  1.00  0.00    -0.504 OA
ATOM     20  H   UNL     1       2.075   4.982  36.129  1.00  0.00     0.293 HD
ENDBRANCH  16  19
BRANCH  18  21
ATOM     21  O   UNL     1       1.937   7.051  38.223  1.00  0.00    -0.504 OA
ATOM     22  H   UNL     1       1.694   7.600  39.038  1.00  0.00     0.293 HD
ENDBRANCH  18  21
ENDBRANCH   3  13
BRANCH   9  23
ATOM     23  O   UNL     1       8.973  11.224  31.258  1.00  0.00    -0.507 OA
ATOM     24  H   UNL     1       9.888  11.311  31.682  1.00  0.00     0.293 HD
ENDBRANCH   9  23
BRANCH   7  25
ATOM     25  O   UNL     1       7.531   7.238  28.957  1.00  0.00    -0.508 OA
ATOM     26  H   UNL     1       8.172   6.462  28.849  1.00  0.00     0.293 HD
ENDBRANCH   7  25
TORSDOF 6
ENDMDL
MODEL 4
REMARK VINA RESULT:    -5.528     10.628     13.261
REMARK INTER + INTRA:          -6.624
REMARK INTER:                  -6.301
REMARK INTRA:                  -0.323
REMARK UNBOUND:                 0.035
REMARK SMILES Oc1cc(O)c2c(c1)O[C@H](c1ccc(O)c(O)c1)[C@H](O)C2
REMARK SMILES IDX 21 1 19 2 10 3 9 4 7 5 8 6 2 7 3 8 4 9 6 10 20 11 11 13
REMARK SMILES IDX 18 14 12 15 16 16 13 17 14 18 17 19 15 21 5 23 1 25
REMARK H PARENT 20 12 17 20 15 22 5 24 1 26
REMARK Flexibility Score: inf
ROOT
ATOM      1  C   UNL     1      13.802  12.102  44.025  1.00  0.00     0.079 C 
ATOM      2  C   UNL     1      14.326  13.551  44.028  1.00  0.00     0.164 C 
ATOM      3  C   UNL     1      13.165  14.514  44.330  1.00  0.00     0.232 C 
ATOM      4  O   UNL     1      12.124  14.338  43.368  1.00  0.00    -0.482 OA
ATOM      5  C   UNL     1      11.760  13.073  42.894  1.00  0.00     0.131 A 
ATOM      6  C   UNL     1      10.613  12.949  42.106  1.00  0.00     0.093 A 
ATOM      7  C   UNL     1      10.215  11.698  41.633  1.00  0.00     0.122 A 
ATOM      8  C   UNL     1      10.963  10.560  41.958  1.00  0.00     0.092 A 
ATOM      9  C   UNL     1      12.114  10.666  42.748  1.00  0.00     0.126 A 
ATOM     10  C   UNL     1      12.547  11.938  43.192  1.00  0.00     0.039 A 
ENDROOT
BRANCH   2  11
ATOM     11  O   UNL     1      14.888  13.858  42.777  1.00  0.00    -0.389 OA
ATOM     12  H   UNL     1      15.869  13.726  42.863  1.00  0.00     0.211 HD
ENDBRANCH   2  11
BRANCH   3  13
ATOM     13  C   UNL     1      13.630  15.953  44.351  1.00  0.00    -0.001 A 
ATOM     14  C   UNL     1      14.293  16.482  45.473  1.00  0.00     0.057 A 
ATOM     15  C   UNL     1      13.344  16.796  43.265  1.00  0.00     0.012 A 
ATOM     16  C   UNL     1      14.687  17.825  45.499  1.00  0.00     0.157 A 
ATOM     17  C   UNL     1      13.737  18.136  43.289  1.00  0.00     0.050 A 
ATOM     18  C   UNL     1      14.411  18.657  44.401  1.00  0.00     0.157 A 
BRANCH  16  19
ATOM     19  O   UNL     1      15.349  18.314  46.625  1.00  0.00    -0.504 OA
ATOM     20  H   UNL     1      14.992  19.095  47.163  1.00  0.00     0.293 HD
ENDBRANCH  16  19
BRANCH  18  21
ATOM     21  O   UNL     1      14.803  19.994  44.420  1.00  0.00    -0.504 OA
ATOM     22  H   UNL     1      14.128  20.744  44.501  1.00  0.00     0.293 HD
ENDBRANCH  18  21
ENDBRANCH   3  13
BRANCH   9  23
ATOM     23  O   UNL     1      12.793   9.490  43.077  1.00  0.00    -0.507 OA
ATOM     24  H   UNL     1      12.345   8.693  43.509  1.00  0.00     0.293 HD
ENDBRANCH   9  23
BRANCH   7  25
ATOM     25  O   UNL     1       9.069  11.592  40.847  1.00  0.00    -0.508 OA
ATOM     26  H   UNL     1       9.085  11.130  39.946  1.00  0.00     0.293 HD
ENDBRANCH   7  25
TORSDOF 6
ENDMDL
MODEL 5
REMARK VINA RESULT:    -5.484     10.219     12.940
REMARK INTER + INTRA:          -6.571
REMARK INTER:                  -6.180
REMARK INTRA:                  -0.391
REMARK UNBOUND:                 0.035
REMARK SMILES Oc1cc(O)c2c(c1)O[C@H](c1ccc(O)c(O)c1)[C@H](O)C2
REMARK SMILES IDX 21 1 19 2 10 3 9 4 7 5 8 6 2 7 3 8 4 9 6 10 20 11 11 13
REMARK SMILES IDX 18 14 12 15 16 16 13 17 14 18 17 19 15 21 5 23 1 25
REMARK H PARENT 20 12 17 20 15 22 5 24 1 26
REMARK Flexibility Score: inf
ROOT
ATOM      1  C   UNL     1      13.533  11.433  44.015  1.00  0.00     0.079 C 
ATOM      2  C   UNL     1      14.187  12.827  44.057  1.00  0.00     0.164 C 
ATOM      3  C   UNL     1      13.105  13.892  44.307  1.00  0.00     0.232 C 
ATOM      4  O   UNL     1      12.103  13.816  43.292  1.00  0.00    -0.482 OA
ATOM      5  C   UNL     1      11.649  12.592  42.789  1.00  0.00     0.131 A 
ATOM      6  C   UNL     1      10.538  12.576  41.943  1.00  0.00     0.093 A 
ATOM      7  C   UNL     1      10.051  11.369  41.439  1.00  0.00     0.122 A 
ATOM      8  C   UNL     1      10.674  10.166  41.793  1.00  0.00     0.092 A 
ATOM      9  C   UNL     1      11.788  10.163  42.641  1.00  0.00     0.126 A 
ATOM     10  C   UNL     1      12.312  11.388  43.117  1.00  0.00     0.039 A 
ENDROOT
BRANCH   2  11
ATOM     11  O   UNL     1      14.839  13.086  42.838  1.00  0.00    -0.389 OA
ATOM     12  H   UNL     1      14.129  13.214  42.155  1.00  0.00     0.211 HD
ENDBRANCH   2  11
BRANCH   3  13
ATOM     13  C   UNL     1      13.698  15.282  44.364  1.00  0.00    -0.001 A 
ATOM     14  C   UNL     1      13.361  16.252  43.403  1.00  0.00     0.057 A 
ATOM     15  C   UNL     1      14.648  15.597  45.350  1.00  0.00     0.012 A 
ATOM     16  C   UNL     1      13.942  17.525  43.442  1.00  0.00     0.157 A 
ATOM     17  C   UNL     1      15.228  16.866  45.391  1.00  0.00     0.050 A 
ATOM     18  C   UNL     1      14.879  17.836  44.442  1.00  0.00     0.157 A 
BRANCH  16  19
ATOM     19  O   UNL     1      13.578  18.464  42.479  1.00  0.00    -0.504 OA
ATOM     20  H   UNL     1      14.215  19.188  42.163  1.00  0.00     0.293 HD
ENDBRANCH  16  19
BRANCH  18  21
ATOM     21  O   UNL     1      15.459  19.102  44.487  1.00  0.00    -0.504 OA
ATOM     22  H   UNL     1      14.957  19.928  44.187  1.00  0.00     0.293 HD
ENDBRANCH  18  21
ENDBRANCH   3  13
BRANCH   9  23
ATOM     23  O   UNL     1      12.339   8.928  42.994  1.00  0.00    -0.507 OA
ATOM     24  H   UNL     1      11.984   8.044  42.653  1.00  0.00     0.293 HD
ENDBRANCH   9  23
BRANCH   7  25
ATOM     25  O   UNL     1       8.942  11.373  40.596  1.00  0.00    -0.508 OA
ATOM     26  H   UNL     1       8.770  10.616  39.945  1.00  0.00     0.293 HD
ENDBRANCH   7  25
TORSDOF 6
ENDMDL
MODEL 6
REMARK VINA RESULT:    -5.414     11.056     13.107
REMARK INTER + INTRA:          -6.486
REMARK INTER:                  -6.104
REMARK INTRA:                  -0.383
REMARK UNBOUND:                 0.035
REMARK SMILES Oc1cc(O)c2c(c1)O[C@H](c1ccc(O)c(O)c1)[C@H](O)C2
REMARK SMILES IDX 21 1 19 2 10 3 9 4 7 5 8 6 2 7 3 8 4 9 6 10 20 11 11 13
REMARK SMILES IDX 18 14 12 15 16 16 13 17 14 18 17 19 15 21 5 23 1 25
REMARK H PARENT 20 12 17 20 15 22 5 24 1 26
REMARK Flexibility Score: inf
ROOT
ATOM      1  C   UNL     1      11.623  14.791  42.151  1.00  0.00     0.079 C 
ATOM      2  C   UNL     1      11.975  13.306  42.364  1.00  0.00     0.164 C 
ATOM      3  C   UNL     1      11.623  12.898  43.805  1.00  0.00     0.232 C 
ATOM      4  O   UNL     1      12.316  13.736  44.731  1.00  0.00    -0.482 OA
ATOM      5  C   UNL     1      12.482  15.107  44.509  1.00  0.00     0.131 A 
ATOM      6  C   UNL     1      12.995  15.903  45.535  1.00  0.00     0.093 A 
ATOM      7  C   UNL     1      13.156  17.277  45.349  1.00  0.00     0.122 A 
ATOM      8  C   UNL     1      12.791  17.862  44.131  1.00  0.00     0.092 A 
ATOM      9  C   UNL     1      12.274  17.079  43.091  1.00  0.00     0.126 A 
ATOM     10  C   UNL     1      12.152  15.680  43.260  1.00  0.00     0.039 A 
ENDROOT
BRANCH   2  11
ATOM     11  O   UNL     1      13.347  13.102  42.131  1.00  0.00    -0.389 OA
ATOM     12  H   UNL     1      13.557  13.534  41.262  1.00  0.00     0.211 HD
ENDBRANCH   2  11
BRANCH   3  13
ATOM     13  C   UNL     1      11.944  11.443  44.063  1.00  0.00    -0.001 A 
ATOM     14  C   UNL     1      12.836  11.069  45.084  1.00  0.00     0.057 A 
ATOM     15  C   UNL     1      11.397  10.449  43.235  1.00  0.00     0.012 A 
ATOM     16  C   UNL     1      13.155   9.723  45.293  1.00  0.00     0.157 A 
ATOM     17  C   UNL     1      11.714   9.105  43.442  1.00  0.00     0.050 A 
ATOM     18  C   UNL     1      12.590   8.734  44.470  1.00  0.00     0.157 A 
BRANCH  16  19
ATOM     19  O   UNL     1      14.038   9.388  46.319  1.00  0.00    -0.504 OA
ATOM     20  H   UNL     1      14.039   9.873  47.209  1.00  0.00     0.293 HD
ENDBRANCH  16  19
BRANCH  18  21
ATOM     21  O   UNL     1      12.903   7.391  44.674  1.00  0.00    -0.504 OA
ATOM     22  H   UNL     1      12.307   6.649  44.329  1.00  0.00     0.293 HD
ENDBRANCH  18  21
ENDBRANCH   3  13
BRANCH   9  23
ATOM     23  O   UNL     1      11.886  17.726  41.915  1.00  0.00    -0.507 OA
ATOM     24  H   UNL     1      12.543  18.068  41.226  1.00  0.00     0.293 HD
ENDBRANCH   9  23
BRANCH   7  25
ATOM     25  O   UNL     1      13.671  18.056  46.384  1.00  0.00    -0.508 OA
ATOM     26  H   UNL     1      13.358  19.007  46.537  1.00  0.00     0.293 HD
ENDBRANCH   7  25
TORSDOF 6
ENDMDL
MODEL 7
REMARK VINA RESULT:    -5.402     12.443     13.709
REMARK INTER + INTRA:          -6.472
REMARK INTER:                  -6.099
REMARK INTRA:                  -0.374
REMARK UNBOUND:                 0.035
REMARK SMILES Oc1cc(O)c2c(c1)O[C@H](c1ccc(O)c(O)c1)[C@H](O)C2
REMARK SMILES IDX 21 1 19 2 10 3 9 4 7 5 8 6 2 7 3 8 4 9 6 10 20 11 11 13
REMARK SMILES IDX 18 14 12 15 16 16 13 17 14 18 17 19 15 21 5 23 1 25
REMARK H PARENT 20 12 17 20 15 22 5 24 1 26
REMARK Flexibility Score: inf
ROOT
ATOM      1  C   UNL     1       9.105  16.602  44.817  1.00  0.00     0.079 C 
ATOM      2  C   UNL     1      10.070  15.422  44.593  1.00  0.00     0.164 C 
ATOM      3  C   UNL     1      11.521  15.924  44.681  1.00  0.00     0.232 C 
ATOM      4  O   UNL     1      11.736  16.962  43.724  1.00  0.00    -0.482 OA
ATOM      5  C   UNL     1      10.768  17.937  43.459  1.00  0.00     0.131 A 
ATOM      6  C   UNL     1      11.109  19.031  42.660  1.00  0.00     0.093 A 
ATOM      7  C   UNL     1      10.170  20.029  42.392  1.00  0.00     0.122 A 
ATOM      8  C   UNL     1       8.883  19.937  42.935  1.00  0.00     0.092 A 
ATOM      9  C   UNL     1       8.525  18.848  43.739  1.00  0.00     0.126 A 
ATOM     10  C   UNL     1       9.459  17.813  43.976  1.00  0.00     0.039 A 
ENDROOT
BRANCH   2  11
ATOM     11  O   UNL     1       9.838  14.849  43.331  1.00  0.00    -0.389 OA
ATOM     12  H   UNL     1       9.699  15.600  42.696  1.00  0.00     0.211 HD
ENDBRANCH   2  11
BRANCH   3  13
ATOM     13  C   UNL     1      12.510  14.799  44.475  1.00  0.00    -0.001 A 
ATOM     14  C   UNL     1      13.492  14.875  43.471  1.00  0.00     0.057 A 
ATOM     15  C   UNL     1      12.414  13.632  45.250  1.00  0.00     0.012 A 
ATOM     16  C   UNL     1      14.381  13.814  43.263  1.00  0.00     0.157 A 
ATOM     17  C   UNL     1      13.300  12.573  45.045  1.00  0.00     0.050 A 
ATOM     18  C   UNL     1      14.287  12.657  44.054  1.00  0.00     0.157 A 
BRANCH  16  19
ATOM     19  O   UNL     1      15.347  13.926  42.264  1.00  0.00    -0.504 OA
ATOM     20  H   UNL     1      15.146  14.345  41.363  1.00  0.00     0.293 HD
ENDBRANCH  16  19
BRANCH  18  21
ATOM     21  O   UNL     1      15.170  11.598  43.853  1.00  0.00    -0.504 OA
ATOM     22  H   UNL     1      15.673  11.172  44.622  1.00  0.00     0.293 HD
ENDBRANCH  18  21
ENDBRANCH   3  13
BRANCH   9  23
ATOM     23  O   UNL     1       7.241  18.835  44.290  1.00  0.00    -0.507 OA
ATOM     24  H   UNL     1       6.963  19.427  45.063  1.00  0.00     0.293 HD
ENDBRANCH   9  23
BRANCH   7  25
ATOM     25  O   UNL     1      10.527  21.112  41.592  1.00  0.00    -0.508 OA
ATOM     26  H   UNL     1      11.486  21.264  41.302  1.00  0.00     0.293 HD
ENDBRANCH   7  25
TORSDOF 6
ENDMDL
MODEL 8
REMARK VINA RESULT:    -5.362      9.841     12.960
REMARK INTER + INTRA:          -6.424
REMARK INTER:                  -6.040
REMARK INTRA:                  -0.385
REMARK UNBOUND:                 0.035
REMARK SMILES Oc1cc(O)c2c(c1)O[C@H](c1ccc(O)c(O)c1)[C@H](O)C2
REMARK SMILES IDX 21 1 19 2 10 3 9 4 7 5 8 6 2 7 3 8 4 9 6 10 20 11 11 13
REMARK SMILES IDX 18 14 12 15 16 16 13 17 14 18 17 19 15 21 5 23 1 25
REMARK H PARENT 20 12 17 20 15 22 5 24 1 26
REMARK Flexibility Score: inf
ROOT
ATOM      1  C   UNL     1      11.561  16.484  45.280  1.00  0.00     0.079 C 
ATOM      2  C   UNL     1      10.567  15.749  44.361  1.00  0.00     0.164 C 
ATOM      3  C   UNL     1      10.833  14.236  44.424  1.00  0.00     0.232 C 
ATOM      4  O   UNL     1      12.186  13.964  44.053  1.00  0.00    -0.482 OA
ATOM      5  C   UNL     1      13.244  14.787  44.454  1.00  0.00     0.131 A 
ATOM      6  C   UNL     1      14.555  14.365  44.225  1.00  0.00     0.093 A 
ATOM      7  C   UNL     1      15.632  15.157  44.629  1.00  0.00     0.122 A 
ATOM      8  C   UNL     1      15.395  16.375  45.277  1.00  0.00     0.092 A 
ATOM      9  C   UNL     1      14.087  16.813  45.516  1.00  0.00     0.126 A 
ATOM     10  C   UNL     1      12.993  16.035  45.068  1.00  0.00     0.039 A 
ENDROOT
BRANCH   2  11
ATOM     11  O   UNL     1      10.713  16.205  43.038  1.00  0.00    -0.389 OA
ATOM     12  H   UNL     1      11.212  17.062  43.084  1.00  0.00     0.211 HD
ENDBRANCH   2  11
BRANCH   3  13
ATOM     13  C   UNL     1       9.876  13.467  43.541  1.00  0.00    -0.001 A 
ATOM     14  C   UNL     1      10.351  12.648  42.500  1.00  0.00     0.057 A 
ATOM     15  C   UNL     1       8.491  13.616  43.716  1.00  0.00     0.012 A 
ATOM     16  C   UNL     1       9.458  11.968  41.665  1.00  0.00     0.157 A 
ATOM     17  C   UNL     1       7.597  12.938  42.884  1.00  0.00     0.050 A 
ATOM     18  C   UNL     1       8.073  12.111  41.858  1.00  0.00     0.157 A 
BRANCH  16  19
ATOM     19  O   UNL     1       9.963  11.159  40.648  1.00  0.00    -0.504 OA
ATOM     20  H   UNL     1       9.389  10.841  39.876  1.00  0.00     0.293 HD
ENDBRANCH  16  19
BRANCH  18  21
ATOM     21  O   UNL     1       7.178  11.435  41.031  1.00  0.00    -0.504 OA
ATOM     22  H   UNL     1       6.295  11.082  41.379  1.00  0.00     0.293 HD
ENDBRANCH  18  21
ENDBRANCH   3  13
BRANCH   9  23
ATOM     23  O   UNL     1      13.914  18.014  46.207  1.00  0.00    -0.507 OA
ATOM     24  H   UNL     1      14.011  18.096  47.211  1.00  0.00     0.293 HD
ENDBRANCH   9  23
BRANCH   7  25
ATOM     25  O   UNL     1      16.934  14.721  44.391  1.00  0.00    -0.508 OA
ATOM     26  H   UNL     1      17.678  14.887  45.058  1.00  0.00     0.293 HD
ENDBRANCH   7  25
TORSDOF 6
ENDMDL
MODEL 9
REMARK VINA RESULT:    -5.336     11.007     13.859
REMARK INTER + INTRA:          -6.393
REMARK INTER:                  -6.033
REMARK INTRA:                  -0.360
REMARK UNBOUND:                 0.035
REMARK SMILES Oc1cc(O)c2c(c1)O[C@H](c1ccc(O)c(O)c1)[C@H](O)C2
REMARK SMILES IDX 21 1 19 2 10 3 9 4 7 5 8 6 2 7 3 8 4 9 6 10 20 11 11 13
REMARK SMILES IDX 18 14 12 15 16 16 13 17 14 18 17 19 15 21 5 23 1 25
REMARK H PARENT 20 12 17 20 15 22 5 24 1 26
REMARK Flexibility Score: inf
ROOT
ATOM      1  C   UNL     1      13.238  11.965  45.349  1.00  0.00     0.079 C 
ATOM      2  C   UNL     1      14.561  12.681  45.014  1.00  0.00     0.164 C 
ATOM      3  C   UNL     1      14.269  13.919  44.150  1.00  0.00     0.232 C 
ATOM      4  O   UNL     1      13.570  13.533  42.966  1.00  0.00    -0.482 OA
ATOM      5  C   UNL     1      12.574  12.550  42.981  1.00  0.00     0.131 A 
ATOM      6  C   UNL     1      11.797  12.355  41.836  1.00  0.00     0.093 A 
ATOM      7  C   UNL     1      10.785  11.394  41.826  1.00  0.00     0.122 A 
ATOM      8  C   UNL     1      10.540  10.629  42.973  1.00  0.00     0.092 A 
ATOM      9  C   UNL     1      11.308  10.813  44.129  1.00  0.00     0.126 A 
ATOM     10  C   UNL     1      12.364  11.754  44.129  1.00  0.00     0.039 A 
ENDROOT
BRANCH   2  11
ATOM     11  O   UNL     1      15.415  11.805  44.320  1.00  0.00    -0.389 OA
ATOM     12  H   UNL     1      16.301  12.250  44.269  1.00  0.00     0.211 HD
ENDBRANCH   2  11
BRANCH   3  13
ATOM     13  C   UNL     1      15.538  14.663  43.799  1.00  0.00    -0.001 A 
ATOM     14  C   UNL     1      15.853  14.963  42.462  1.00  0.00     0.057 A 
ATOM     15  C   UNL     1      16.450  15.005  44.811  1.00  0.00     0.012 A 
ATOM     16  C   UNL     1      17.047  15.619  42.142  1.00  0.00     0.157 A 
ATOM     17  C   UNL     1      17.642  15.661  44.494  1.00  0.00     0.050 A 
ATOM     18  C   UNL     1      17.946  15.973  43.162  1.00  0.00     0.157 A 
BRANCH  16  19
ATOM     19  O   UNL     1      17.324  15.908  40.806  1.00  0.00    -0.504 OA
ATOM     20  H   UNL     1      16.962  15.345  40.046  1.00  0.00     0.293 HD
ENDBRANCH  16  19
BRANCH  18  21
ATOM     21  O   UNL     1      19.136  16.628  42.851  1.00  0.00    -0.504 OA
ATOM     22  H   UNL     1      19.488  17.390  43.418  1.00  0.00     0.293 HD
ENDBRANCH  18  21
ENDBRANCH   3  13
BRANCH   9  23
ATOM     23  O   UNL     1      10.987  10.053  45.257  1.00  0.00    -0.507 OA
ATOM     24  H   UNL     1      10.037   9.812  45.512  1.00  0.00     0.293 HD
ENDBRANCH   9  23
BRANCH   7  25
ATOM     25  O   UNL     1      10.021  11.212  40.675  1.00  0.00    -0.508 OA
ATOM     26  H   UNL     1       9.032  11.001  40.724  1.00  0.00     0.293 HD
ENDBRANCH   7  25
TORSDOF 6
ENDMDL
