MODEL 1
REMARK VINA RESULT:    -5.397      0.000      0.000
REMARK INTER + INTRA:         -18.508
REMARK INTER:                 -13.600
REMARK INTRA:                  -4.908
REMARK UNBOUND:                -4.908
REMARK SMILES CCCCCCCCCCCCCCCCCCCCCCCCCCCC(=O)[O-]
REMARK SMILES IDX 15 1 16 2 17 3 18 4 19 5 20 6 21 7 22 8 23 9 24 10 25 11
REMARK SMILES IDX 26 12 27 13 28 14 29 15 30 16 14 17 13 18 12 19 11 20 10 21
REMARK SMILES IDX 9 22 8 23 7 24 6 25 5 26 4 27 3 28 2 29 1 30
REMARK H PARENT
REMARK Flexibility Score: inf
ROOT
ATOM      1  C   UNL     1       1.689  55.027  20.653  1.00  0.00     0.000 C 
ENDROOT
BRANCH   1   2
ATOM      2  C   UNL     1       0.154  54.948  20.592  1.00  0.00     0.000 C 
BRANCH   2   3
ATOM      3  C   UNL     1      -0.382  53.556  20.965  1.00  0.00     0.000 C 
BRANCH   3   4
ATOM      4  C   UNL     1      -1.872  53.577  21.346  1.00  0.00     0.000 C 
BRANCH   4   5
ATOM      5  C   UNL     1      -2.319  52.300  22.074  1.00  0.00     0.000 C 
BRANCH   5   6
ATOM      6  C   UNL     1      -1.831  51.017  21.378  1.00  0.00     0.000 C 
BRANCH   6   7
ATOM      7  C   UNL     1      -2.653  50.693  20.111  1.00  0.00     0.000 C 
BRANCH   7   8
ATOM      8  C   UNL     1      -1.851  50.839  18.801  1.00  0.00     0.000 C 
BRANCH   8   9
ATOM      9  C   UNL     1      -2.668  51.356  17.601  1.00  0.00     0.000 C 
BRANCH   9  10
ATOM     10  C   UNL     1      -2.303  52.786  17.155  1.00  0.00     0.000 C 
BRANCH  10  11
ATOM     11  C   UNL     1      -2.667  53.847  18.215  1.00  0.00     0.000 C 
BRANCH  11  12
ATOM     12  C   UNL     1      -2.854  55.260  17.620  1.00  0.00     0.006 C 
BRANCH  12  13
ATOM     13  C   UNL     1      -2.987  56.359  18.693  1.00  0.00     0.053 C 
BRANCH  13  14
ATOM     14  C   UNL     1      -4.355  56.965  18.714  1.00  0.00     0.041 C 
ATOM     15  O   UNL     1      -5.264  56.444  19.413  1.00  0.00    -0.550 OA
ATOM     16  O   UNL     1      -4.602  58.150  18.034  1.00  0.00    -0.550 OA
ENDBRANCH  13  14
ENDBRANCH  12  13
ENDBRANCH  11  12
ENDBRANCH  10  11
ENDBRANCH   9  10
ENDBRANCH   8   9
ENDBRANCH   7   8
ENDBRANCH   6   7
ENDBRANCH   5   6
ENDBRANCH   4   5
ENDBRANCH   3   4
ENDBRANCH   2   3
ENDBRANCH   1   2
BRANCH   1  17
ATOM     17  C   UNL     1       2.365  53.644  20.620  1.00  0.00     0.000 C 
BRANCH  17  18
ATOM     18  C   UNL     1       3.382  53.429  19.480  1.00  0.00     0.000 C 
BRANCH  18  19
ATOM     19  C   UNL     1       3.036  52.296  18.493  1.00  0.00     0.000 C 
BRANCH  19  20
ATOM     20  C   UNL     1       1.580  52.359  17.999  1.00  0.00     0.000 C 
BRANCH  20  21
ATOM     21  C   UNL     1       1.391  53.367  16.844  1.00  0.00     0.000 C 
BRANCH  21  22
ATOM     22  C   UNL     1       0.710  54.683  17.267  1.00  0.00    -0.000 C 
BRANCH  22  23
ATOM     23  C   UNL     1       1.318  55.958  16.654  1.00  0.00    -0.000 C 
BRANCH  23  24
ATOM     24  C   UNL     1       0.955  57.268  17.382  1.00  0.00    -0.000 C 
BRANCH  24  25
ATOM     25  C   UNL     1       2.134  57.984  18.064  1.00  0.00    -0.000 C 
BRANCH  25  26
ATOM     26  C   UNL     1       3.220  57.014  18.552  1.00  0.00    -0.000 C 
BRANCH  26  27
ATOM     27  C   UNL     1       4.624  57.554  18.243  1.00  0.00    -0.000 C 
BRANCH  27  28
ATOM     28  C   UNL     1       5.414  56.650  17.278  1.00  0.00    -0.000 C 
BRANCH  28  29
ATOM     29  C   UNL     1       4.808  55.252  17.061  1.00  0.00    -0.003 C 
ATOM     30  C   UNL     1       4.521  54.948  15.589  1.00  0.00     0.004 C 
ENDBRANCH  28  29
ENDBRANCH  27  28
ENDBRANCH  26  27
ENDBRANCH  25  26
ENDBRANCH  24  25
ENDBRANCH  23  24
ENDBRANCH  22  23
ENDBRANCH  21  22
ENDBRANCH  20  21
ENDBRANCH  19  20
ENDBRANCH  18  19
ENDBRANCH  17  18
ENDBRANCH   1  17
TORSDOF 26
ENDMDL
MODEL 2
REMARK VINA RESULT:    -5.126      2.673      4.523
REMARK INTER + INTRA:         -17.826
REMARK INTER:                 -14.253
REMARK INTRA:                  -3.573
REMARK UNBOUND:                -4.908
REMARK SMILES CCCCCCCCCCCCCCCCCCCCCCCCCCCC(=O)[O-]
REMARK SMILES IDX 15 1 16 2 17 3 18 4 19 5 20 6 21 7 22 8 23 9 24 10 25 11
REMARK SMILES IDX 26 12 27 13 28 14 29 15 30 16 14 17 13 18 12 19 11 20 10 21
REMARK SMILES IDX 9 22 8 23 7 24 6 25 5 26 4 27 3 28 2 29 1 30
REMARK H PARENT
REMARK Flexibility Score: inf
ROOT
ATOM      1  C   UNL     1       2.431  57.311  18.551  1.00  0.00     0.000 C 
ENDROOT
BRANCH   1   2
ATOM      2  C   UNL     1       2.737  56.339  19.704  1.00  0.00     0.000 C 
BRANCH   2   3
ATOM      3  C   UNL     1       1.482  55.612  20.214  1.00  0.00     0.000 C 
BRANCH   3   4
ATOM      4  C   UNL     1       1.740  54.128  20.520  1.00  0.00     0.000 C 
BRANCH   4   5
ATOM      5  C   UNL     1       2.814  53.510  19.611  1.00  0.00     0.000 C 
BRANCH   5   6
ATOM      6  C   UNL     1       2.322  52.246  18.884  1.00  0.00     0.000 C 
BRANCH   6   7
ATOM      7  C   UNL     1       1.014  52.496  18.102  1.00  0.00     0.000 C 
BRANCH   7   8
ATOM      8  C   UNL     1      -0.156  51.597  18.553  1.00  0.00     0.000 C 
BRANCH   8   9
ATOM      9  C   UNL     1      -1.378  52.358  19.104  1.00  0.00     0.000 C 
BRANCH   9  10
ATOM     10  C   UNL     1      -1.430  53.847  18.704  1.00  0.00     0.000 C 
BRANCH  10  11
ATOM     11  C   UNL     1      -2.048  54.733  19.806  1.00  0.00     0.000 C 
BRANCH  11  12
ATOM     12  C   UNL     1      -2.665  56.040  19.258  1.00  0.00     0.006 C 
BRANCH  12  13
ATOM     13  C   UNL     1      -2.877  56.019  17.731  1.00  0.00     0.053 C 
BRANCH  13  14
ATOM     14  C   UNL     1      -2.965  57.396  17.154  1.00  0.00     0.041 C 
ATOM     15  O   UNL     1      -2.108  57.785  16.318  1.00  0.00    -0.550 OA
ATOM     16  O   UNL     1      -4.038  58.217  17.474  1.00  0.00    -0.550 OA
ENDBRANCH  13  14
ENDBRANCH  12  13
ENDBRANCH  11  12
ENDBRANCH  10  11
ENDBRANCH   9  10
ENDBRANCH   8   9
ENDBRANCH   7   8
ENDBRANCH   6   7
ENDBRANCH   5   6
ENDBRANCH   4   5
ENDBRANCH   3   4
ENDBRANCH   2   3
ENDBRANCH   1   2
BRANCH   1  17
ATOM     17  C   UNL     1       1.043  57.084  17.925  1.00  0.00     0.000 C 
BRANCH  17  18
ATOM     18  C   UNL     1       1.036  56.315  16.586  1.00  0.00     0.000 C 
BRANCH  18  19
ATOM     19  C   UNL     1       1.996  55.112  16.512  1.00  0.00     0.000 C 
BRANCH  19  20
ATOM     20  C   UNL     1       2.914  55.156  15.279  1.00  0.00     0.000 C 
BRANCH  20  21
ATOM     21  C   UNL     1       4.407  55.010  15.646  1.00  0.00     0.000 C 
BRANCH  21  22
ATOM     22  C   UNL     1       4.822  55.800  16.903  1.00  0.00    -0.000 C 
BRANCH  22  23
ATOM     23  C   UNL     1       6.077  56.677  16.737  1.00  0.00    -0.000 C 
BRANCH  23  24
ATOM     24  C   UNL     1       6.670  57.221  18.052  1.00  0.00    -0.000 C 
BRANCH  24  25
ATOM     25  C   UNL     1       8.172  56.949  18.253  1.00  0.00    -0.000 C 
BRANCH  25  26
ATOM     26  C   UNL     1       8.991  57.147  16.969  1.00  0.00    -0.000 C 
BRANCH  26  27
ATOM     27  C   UNL     1      10.128  58.155  17.188  1.00  0.00    -0.000 C 
BRANCH  27  28
ATOM     28  C   UNL     1       9.635  59.614  17.222  1.00  0.00    -0.000 C 
BRANCH  28  29
ATOM     29  C   UNL     1      10.687  60.660  16.812  1.00  0.00    -0.003 C 
ATOM     30  C   UNL     1      12.109  60.268  17.219  1.00  0.00     0.004 C 
ENDBRANCH  28  29
ENDBRANCH  27  28
ENDBRANCH  26  27
ENDBRANCH  25  26
ENDBRANCH  24  25
ENDBRANCH  23  24
ENDBRANCH  22  23
ENDBRANCH  21  22
ENDBRANCH  20  21
ENDBRANCH  19  20
ENDBRANCH  18  19
ENDBRANCH  17  18
ENDBRANCH   1  17
TORSDOF 26
ENDMDL
MODEL 3
REMARK VINA RESULT:    -5.063      3.472      5.548
REMARK INTER + INTRA:         -17.666
REMARK INTER:                 -13.299
REMARK INTRA:                  -4.367
REMARK UNBOUND:                -4.908
REMARK SMILES CCCCCCCCCCCCCCCCCCCCCCCCCCCC(=O)[O-]
REMARK SMILES IDX 15 1 16 2 17 3 18 4 19 5 20 6 21 7 22 8 23 9 24 10 25 11
REMARK SMILES IDX 26 12 27 13 28 14 29 15 30 16 14 17 13 18 12 19 11 20 10 21
REMARK SMILES IDX 9 22 8 23 7 24 6 25 5 26 4 27 3 28 2 29 1 30
REMARK H PARENT
REMARK Flexibility Score: inf
ROOT
ATOM      1  C   UNL     1       2.198  54.504  20.656  1.00  0.00     0.000 C 
ENDROOT
BRANCH   1   2
ATOM      2  C   UNL     1       0.685  54.732  20.821  1.00  0.00     0.000 C 
BRANCH   2   3
ATOM      3  C   UNL     1      -0.154  53.587  20.230  1.00  0.00     0.000 C 
BRANCH   3   4
ATOM      4  C   UNL     1      -1.642  53.690  20.603  1.00  0.00     0.000 C 
BRANCH   4   5
ATOM      5  C   UNL     1      -2.573  53.244  19.465  1.00  0.00     0.000 C 
BRANCH   5   6
ATOM      6  C   UNL     1      -1.897  53.305  18.084  1.00  0.00     0.000 C 
BRANCH   6   7
ATOM      7  C   UNL     1      -2.164  52.034  17.249  1.00  0.00     0.000 C 
BRANCH   7   8
ATOM      8  C   UNL     1      -2.955  50.949  18.011  1.00  0.00     0.000 C 
BRANCH   8   9
ATOM      9  C   UNL     1      -2.219  49.603  18.162  1.00  0.00     0.000 C 
BRANCH   9  10
ATOM     10  C   UNL     1      -1.850  49.242  19.615  1.00  0.00     0.000 C 
BRANCH  10  11
ATOM     11  C   UNL     1      -0.665  50.074  20.148  1.00  0.00     0.000 C 
BRANCH  11  12
ATOM     12  C   UNL     1       0.683  49.700  19.491  1.00  0.00     0.006 C 
BRANCH  12  13
ATOM     13  C   UNL     1       0.807  48.198  19.169  1.00  0.00     0.053 C 
BRANCH  13  14
ATOM     14  C   UNL     1       1.336  47.414  20.328  1.00  0.00     0.041 C 
ATOM     15  O   UNL     1       0.550  46.737  21.043  1.00  0.00    -0.550 OA
ATOM     16  O   UNL     1       2.703  47.362  20.568  1.00  0.00    -0.550 OA
ENDBRANCH  13  14
ENDBRANCH  12  13
ENDBRANCH  11  12
ENDBRANCH  10  11
ENDBRANCH   9  10
ENDBRANCH   8   9
ENDBRANCH   7   8
ENDBRANCH   6   7
ENDBRANCH   5   6
ENDBRANCH   4   5
ENDBRANCH   3   4
ENDBRANCH   2   3
ENDBRANCH   1   2
BRANCH   1  17
ATOM     17  C   UNL     1       2.531  53.319  19.732  1.00  0.00     0.000 C 
BRANCH  17  18
ATOM     18  C   UNL     1       4.034  53.065  19.492  1.00  0.00     0.000 C 
BRANCH  18  19
ATOM     19  C   UNL     1       4.465  53.010  18.013  1.00  0.00     0.000 C 
BRANCH  19  20
ATOM     20  C   UNL     1       3.522  53.798  17.087  1.00  0.00     0.000 C 
BRANCH  20  21
ATOM     21  C   UNL     1       4.257  54.905  16.298  1.00  0.00     0.000 C 
BRANCH  21  22
ATOM     22  C   UNL     1       5.101  55.846  17.180  1.00  0.00    -0.000 C 
BRANCH  22  23
ATOM     23  C   UNL     1       4.451  57.207  17.488  1.00  0.00    -0.000 C 
BRANCH  23  24
ATOM     24  C   UNL     1       3.307  57.165  18.520  1.00  0.00    -0.000 C 
BRANCH  24  25
ATOM     25  C   UNL     1       1.963  57.734  18.029  1.00  0.00    -0.000 C 
BRANCH  25  26
ATOM     26  C   UNL     1       1.137  56.713  17.233  1.00  0.00    -0.000 C 
BRANCH  26  27
ATOM     27  C   UNL     1      -0.237  56.489  17.879  1.00  0.00    -0.000 C 
BRANCH  27  28
ATOM     28  C   UNL     1      -1.402  56.955  16.985  1.00  0.00    -0.000 C 
BRANCH  28  29
ATOM     29  C   UNL     1      -2.803  56.727  17.579  1.00  0.00    -0.003 C 
ATOM     30  C   UNL     1      -3.757  57.896  17.323  1.00  0.00     0.004 C 
ENDBRANCH  28  29
ENDBRANCH  27  28
ENDBRANCH  26  27
ENDBRANCH  25  26
ENDBRANCH  24  25
ENDBRANCH  23  24
ENDBRANCH  22  23
ENDBRANCH  21  22
ENDBRANCH  20  21
ENDBRANCH  19  20
ENDBRANCH  18  19
ENDBRANCH  17  18
ENDBRANCH   1  17
TORSDOF 26
ENDMDL
MODEL 4
REMARK VINA RESULT:    -5.056      2.558      4.468
REMARK INTER + INTRA:         -17.648
REMARK INTER:                 -13.511
REMARK INTRA:                  -4.137
REMARK UNBOUND:                -4.908
REMARK SMILES CCCCCCCCCCCCCCCCCCCCCCCCCCCC(=O)[O-]
REMARK SMILES IDX 15 1 16 2 17 3 18 4 19 5 20 6 21 7 22 8 23 9 24 10 25 11
REMARK SMILES IDX 26 12 27 13 28 14 29 15 30 16 14 17 13 18 12 19 11 20 10 21
REMARK SMILES IDX 9 22 8 23 7 24 6 25 5 26 4 27 3 28 2 29 1 30
REMARK H PARENT
REMARK Flexibility Score: inf
ROOT
ATOM      1  C   UNL     1       1.539  56.934  18.631  1.00  0.00     0.000 C 
ENDROOT
BRANCH   1   2
ATOM      2  C   UNL     1       0.478  57.126  17.533  1.00  0.00     0.000 C 
BRANCH   2   3
ATOM      3  C   UNL     1      -0.629  56.061  17.586  1.00  0.00     0.000 C 
BRANCH   3   4
ATOM      4  C   UNL     1      -2.023  56.639  17.289  1.00  0.00     0.000 C 
BRANCH   4   5
ATOM      5  C   UNL     1      -3.110  56.082  18.221  1.00  0.00     0.000 C 
BRANCH   5   6
ATOM      6  C   UNL     1      -2.547  55.594  19.567  1.00  0.00     0.000 C 
BRANCH   6   7
ATOM      7  C   UNL     1      -3.372  54.428  20.154  1.00  0.00     0.000 C 
BRANCH   7   8
ATOM      8  C   UNL     1      -2.536  53.163  20.440  1.00  0.00     0.000 C 
BRANCH   8   9
ATOM      9  C   UNL     1      -1.060  53.254  20.003  1.00  0.00     0.000 C 
BRANCH   9  10
ATOM     10  C   UNL     1      -0.690  52.332  18.824  1.00  0.00     0.000 C 
BRANCH  10  11
ATOM     11  C   UNL     1      -1.667  52.469  17.637  1.00  0.00     0.000 C 
BRANCH  11  12
ATOM     12  C   UNL     1      -2.652  51.284  17.523  1.00  0.00     0.006 C 
BRANCH  12  13
ATOM     13  C   UNL     1      -2.091  49.968  18.097  1.00  0.00     0.053 C 
BRANCH  13  14
ATOM     14  C   UNL     1      -3.112  49.217  18.891  1.00  0.00     0.041 C 
ATOM     15  O   UNL     1      -4.315  49.202  18.517  1.00  0.00    -0.550 OA
ATOM     16  O   UNL     1      -2.723  48.465  19.991  1.00  0.00    -0.550 OA
ENDBRANCH  13  14
ENDBRANCH  12  13
ENDBRANCH  11  12
ENDBRANCH  10  11
ENDBRANCH   9  10
ENDBRANCH   8   9
ENDBRANCH   7   8
ENDBRANCH   6   7
ENDBRANCH   5   6
ENDBRANCH   4   5
ENDBRANCH   3   4
ENDBRANCH   2   3
ENDBRANCH   1   2
BRANCH   1  17
ATOM     17  C   UNL     1       1.107  55.929  19.715  1.00  0.00     0.000 C 
BRANCH  17  18
ATOM     18  C   UNL     1       2.258  55.243  20.480  1.00  0.00     0.000 C 
BRANCH  18  19
ATOM     19  C   UNL     1       2.389  53.725  20.252  1.00  0.00     0.000 C 
BRANCH  19  20
ATOM     20  C   UNL     1       3.824  53.295  19.902  1.00  0.00     0.000 C 
BRANCH  20  21
ATOM     21  C   UNL     1       4.002  52.993  18.398  1.00  0.00     0.000 C 
BRANCH  21  22
ATOM     22  C   UNL     1       2.709  53.144  17.573  1.00  0.00    -0.000 C 
BRANCH  22  23
ATOM     23  C   UNL     1       2.719  54.295  16.550  1.00  0.00    -0.000 C 
BRANCH  23  24
ATOM     24  C   UNL     1       4.111  54.890  16.252  1.00  0.00    -0.000 C 
BRANCH  24  25
ATOM     25  C   UNL     1       4.367  56.283  16.854  1.00  0.00    -0.000 C 
BRANCH  25  26
ATOM     26  C   UNL     1       5.802  56.780  16.620  1.00  0.00    -0.000 C 
BRANCH  26  27
ATOM     27  C   UNL     1       6.669  56.572  17.870  1.00  0.00    -0.000 C 
BRANCH  27  28
ATOM     28  C   UNL     1       8.123  57.042  17.674  1.00  0.00    -0.000 C 
BRANCH  28  29
ATOM     29  C   UNL     1       8.454  58.402  18.313  1.00  0.00    -0.003 C 
ATOM     30  C   UNL     1       7.348  58.911  19.239  1.00  0.00     0.004 C 
ENDBRANCH  28  29
ENDBRANCH  27  28
ENDBRANCH  26  27
ENDBRANCH  25  26
ENDBRANCH  24  25
ENDBRANCH  23  24
ENDBRANCH  22  23
ENDBRANCH  21  22
ENDBRANCH  20  21
ENDBRANCH  19  20
ENDBRANCH  18  19
ENDBRANCH  17  18
ENDBRANCH   1  17
TORSDOF 26
ENDMDL
MODEL 5
REMARK VINA RESULT:    -5.022      3.651      7.921
REMARK INTER + INTRA:         -17.563
REMARK INTER:                 -13.127
REMARK INTRA:                  -4.436
REMARK UNBOUND:                -4.908
REMARK SMILES CCCCCCCCCCCCCCCCCCCCCCCCCCCC(=O)[O-]
REMARK SMILES IDX 15 1 16 2 17 3 18 4 19 5 20 6 21 7 22 8 23 9 24 10 25 11
REMARK SMILES IDX 26 12 27 13 28 14 29 15 30 16 14 17 13 18 12 19 11 20 10 21
REMARK SMILES IDX 9 22 8 23 7 24 6 25 5 26 4 27 3 28 2 29 1 30
REMARK H PARENT
REMARK Flexibility Score: inf
ROOT
ATOM      1  C   UNL     1       0.708  56.225  19.186  1.00  0.00     0.000 C 
ENDROOT
BRANCH   1   2
ATOM      2  C   UNL     1       2.130  55.999  19.726  1.00  0.00     0.000 C 
BRANCH   2   3
ATOM      3  C   UNL     1       2.219  54.791  20.672  1.00  0.00     0.000 C 
BRANCH   3   4
ATOM      4  C   UNL     1       3.021  53.624  20.071  1.00  0.00     0.000 C 
BRANCH   4   5
ATOM      5  C   UNL     1       2.149  52.665  19.247  1.00  0.00     0.000 C 
BRANCH   5   6
ATOM      6  C   UNL     1       2.558  52.613  17.764  1.00  0.00     0.000 C 
BRANCH   6   7
ATOM      7  C   UNL     1       1.730  53.586  16.897  1.00  0.00     0.000 C 
BRANCH   7   8
ATOM      8  C   UNL     1       2.534  54.225  15.746  1.00  0.00     0.000 C 
BRANCH   8   9
ATOM      9  C   UNL     1       3.234  55.550  16.107  1.00  0.00     0.000 C 
BRANCH   9  10
ATOM     10  C   UNL     1       4.541  55.378  16.908  1.00  0.00     0.000 C 
BRANCH  10  11
ATOM     11  C   UNL     1       5.423  56.644  16.877  1.00  0.00     0.000 C 
BRANCH  11  12
ATOM     12  C   UNL     1       6.455  56.692  18.025  1.00  0.00     0.006 C 
BRANCH  12  13
ATOM     13  C   UNL     1       7.870  57.087  17.556  1.00  0.00     0.053 C 
BRANCH  13  14
ATOM     14  C   UNL     1       8.258  58.454  18.022  1.00  0.00     0.041 C 
ATOM     15  O   UNL     1       9.077  59.139  17.353  1.00  0.00    -0.550 OA
ATOM     16  O   UNL     1       7.655  59.005  19.145  1.00  0.00    -0.550 OA
ENDBRANCH  13  14
ENDBRANCH  12  13
ENDBRANCH  11  12
ENDBRANCH  10  11
ENDBRANCH   9  10
ENDBRANCH   8   9
ENDBRANCH   7   8
ENDBRANCH   6   7
ENDBRANCH   5   6
ENDBRANCH   4   5
ENDBRANCH   3   4
ENDBRANCH   2   3
ENDBRANCH   1   2
BRANCH   1  17
ATOM     17  C   UNL     1       0.675  57.106  17.924  1.00  0.00     0.000 C 
BRANCH  17  18
ATOM     18  C   UNL     1      -0.374  56.709  16.864  1.00  0.00     0.000 C 
BRANCH  18  19
ATOM     19  C   UNL     1      -1.804  57.220  17.129  1.00  0.00     0.000 C 
BRANCH  19  20
ATOM     20  C   UNL     1      -2.746  56.118  17.645  1.00  0.00     0.000 C 
BRANCH  20  21
ATOM     21  C   UNL     1      -2.933  56.168  19.177  1.00  0.00     0.000 C 
BRANCH  21  22
ATOM     22  C   UNL     1      -3.464  54.856  19.785  1.00  0.00    -0.000 C 
BRANCH  22  23
ATOM     23  C   UNL     1      -2.389  53.941  20.402  1.00  0.00    -0.000 C 
BRANCH  23  24
ATOM     24  C   UNL     1      -1.327  53.425  19.410  1.00  0.00    -0.000 C 
BRANCH  24  25
ATOM     25  C   UNL     1      -1.859  52.480  18.317  1.00  0.00    -0.000 C 
BRANCH  25  26
ATOM     26  C   UNL     1      -0.979  51.237  18.122  1.00  0.00    -0.000 C 
BRANCH  26  27
ATOM     27  C   UNL     1      -1.588  50.014  18.823  1.00  0.00    -0.000 C 
BRANCH  27  28
ATOM     28  C   UNL     1      -3.082  50.194  19.151  1.00  0.00    -0.000 C 
BRANCH  28  29
ATOM     29  C   UNL     1      -3.465  49.876  20.608  1.00  0.00    -0.003 C 
ATOM     30  C   UNL     1      -2.433  50.375  21.620  1.00  0.00     0.004 C 
ENDBRANCH  28  29
ENDBRANCH  27  28
ENDBRANCH  26  27
ENDBRANCH  25  26
ENDBRANCH  24  25
ENDBRANCH  23  24
ENDBRANCH  22  23
ENDBRANCH  21  22
ENDBRANCH  20  21
ENDBRANCH  19  20
ENDBRANCH  18  19
ENDBRANCH  17  18
ENDBRANCH   1  17
TORSDOF 26
ENDMDL
MODEL 6
REMARK VINA RESULT:    -5.020      5.324      9.770
REMARK INTER + INTRA:         -17.559
REMARK INTER:                 -13.981
REMARK INTRA:                  -3.578
REMARK UNBOUND:                -4.908
REMARK SMILES CCCCCCCCCCCCCCCCCCCCCCCCCCCC(=O)[O-]
REMARK SMILES IDX 15 1 16 2 17 3 18 4 19 5 20 6 21 7 22 8 23 9 24 10 25 11
REMARK SMILES IDX 26 12 27 13 28 14 29 15 30 16 14 17 13 18 12 19 11 20 10 21
REMARK SMILES IDX 9 22 8 23 7 24 6 25 5 26 4 27 3 28 2 29 1 30
REMARK H PARENT
REMARK Flexibility Score: inf
ROOT
ATOM      1  C   UNL     1       2.058  53.525  16.894  1.00  0.00     0.000 C 
ENDROOT
BRANCH   1   2
ATOM      2  C   UNL     1       2.396  54.496  15.750  1.00  0.00     0.000 C 
BRANCH   2   3
ATOM      3  C   UNL     1       3.885  54.875  15.715  1.00  0.00     0.000 C 
BRANCH   3   4
ATOM      4  C   UNL     1       4.366  55.505  17.033  1.00  0.00     0.000 C 
BRANCH   4   5
ATOM      5  C   UNL     1       5.619  56.377  16.854  1.00  0.00     0.000 C 
BRANCH   5   6
ATOM      6  C   UNL     1       6.011  57.126  18.140  1.00  0.00     0.000 C 
BRANCH   6   7
ATOM      7  C   UNL     1       7.541  57.283  18.278  1.00  0.00     0.000 C 
BRANCH   7   8
ATOM      8  C   UNL     1       7.980  58.696  18.715  1.00  0.00     0.000 C 
BRANCH   8   9
ATOM      9  C   UNL     1       9.098  59.318  17.856  1.00  0.00     0.000 C 
BRANCH   9  10
ATOM     10  C   UNL     1       9.445  58.512  16.587  1.00  0.00     0.000 C 
BRANCH  10  11
ATOM     11  C   UNL     1      10.437  59.255  15.668  1.00  0.00     0.000 C 
BRANCH  11  12
ATOM     12  C   UNL     1      11.906  59.122  16.129  1.00  0.00     0.006 C 
BRANCH  12  13
ATOM     13  C   UNL     1      12.531  57.756  15.781  1.00  0.00     0.053 C 
BRANCH  13  14
ATOM     14  C   UNL     1      12.332  56.750  16.869  1.00  0.00     0.041 C 
ATOM     15  O   UNL     1      12.501  57.081  18.072  1.00  0.00    -0.550 OA
ATOM     16  O   UNL     1      11.878  55.474  16.563  1.00  0.00    -0.550 OA
ENDBRANCH  13  14
ENDBRANCH  12  13
ENDBRANCH  11  12
ENDBRANCH  10  11
ENDBRANCH   9  10
ENDBRANCH   8   9
ENDBRANCH   7   8
ENDBRANCH   6   7
ENDBRANCH   5   6
ENDBRANCH   4   5
ENDBRANCH   3   4
ENDBRANCH   2   3
ENDBRANCH   1   2
BRANCH   1  17
ATOM     17  C   UNL     1       0.609  53.007  16.837  1.00  0.00     0.000 C 
BRANCH  17  18
ATOM     18  C   UNL     1       0.100  52.316  18.119  1.00  0.00     0.000 C 
BRANCH  18  19
ATOM     19  C   UNL     1      -1.412  52.456  18.386  1.00  0.00     0.000 C 
BRANCH  19  20
ATOM     20  C   UNL     1      -1.721  53.287  19.643  1.00  0.00     0.000 C 
BRANCH  20  21
ATOM     21  C   UNL     1      -2.791  54.371  19.388  1.00  0.00     0.000 C 
BRANCH  21  22
ATOM     22  C   UNL     1      -2.831  54.879  17.933  1.00  0.00    -0.000 C 
BRANCH  22  23
ATOM     23  C   UNL     1      -2.951  56.407  17.780  1.00  0.00    -0.000 C 
BRANCH  23  24
ATOM     24  C   UNL     1      -1.713  57.099  17.174  1.00  0.00    -0.000 C 
BRANCH  24  25
ATOM     25  C   UNL     1      -0.405  56.292  17.261  1.00  0.00    -0.000 C 
BRANCH  25  26
ATOM     26  C   UNL     1       0.826  57.174  17.516  1.00  0.00    -0.000 C 
BRANCH  26  27
ATOM     27  C   UNL     1       1.574  56.728  18.781  1.00  0.00    -0.000 C 
BRANCH  27  28
ATOM     28  C   UNL     1       0.743  55.777  19.663  1.00  0.00    -0.000 C 
BRANCH  28  29
ATOM     29  C   UNL     1       1.531  55.096  20.797  1.00  0.00    -0.003 C 
ATOM     30  C   UNL     1       2.634  54.169  20.285  1.00  0.00     0.004 C 
ENDBRANCH  28  29
ENDBRANCH  27  28
ENDBRANCH  26  27
ENDBRANCH  25  26
ENDBRANCH  24  25
ENDBRANCH  23  24
ENDBRANCH  22  23
ENDBRANCH  21  22
ENDBRANCH  20  21
ENDBRANCH  19  20
ENDBRANCH  18  19
ENDBRANCH  17  18
ENDBRANCH   1  17
TORSDOF 26
ENDMDL
MODEL 7
REMARK VINA RESULT:    -5.007      1.275      3.381
REMARK INTER + INTRA:         -17.526
REMARK INTER:                 -12.456
REMARK INTRA:                  -5.070
REMARK UNBOUND:                -4.908
REMARK SMILES CCCCCCCCCCCCCCCCCCCCCCCCCCCC(=O)[O-]
REMARK SMILES IDX 15 1 16 2 17 3 18 4 19 5 20 6 21 7 22 8 23 9 24 10 25 11
REMARK SMILES IDX 26 12 27 13 28 14 29 15 30 16 14 17 13 18 12 19 11 20 10 21
REMARK SMILES IDX 9 22 8 23 7 24 6 25 5 26 4 27 3 28 2 29 1 30
REMARK H PARENT
REMARK Flexibility Score: inf
ROOT
ATOM      1  C   UNL     1      -2.856  53.231  21.863  1.00  0.00     0.000 C 
ENDROOT
BRANCH   1   2
ATOM      2  C   UNL     1      -3.364  52.394  23.049  1.00  0.00     0.000 C 
BRANCH   2   3
ATOM      3  C   UNL     1      -3.382  50.887  22.746  1.00  0.00     0.000 C 
BRANCH   3   4
ATOM      4  C   UNL     1      -4.039  50.562  21.394  1.00  0.00     0.000 C 
BRANCH   4   5
ATOM      5  C   UNL     1      -3.269  49.498  20.598  1.00  0.00     0.000 C 
BRANCH   5   6
ATOM      6  C   UNL     1      -1.863  49.233  21.163  1.00  0.00     0.000 C 
BRANCH   6   7
ATOM      7  C   UNL     1      -0.751  49.650  20.176  1.00  0.00     0.000 C 
BRANCH   7   8
ATOM      8  C   UNL     1      -1.260  49.896  18.740  1.00  0.00     0.000 C 
BRANCH   8   9
ATOM      9  C   UNL     1      -1.012  51.320  18.205  1.00  0.00     0.000 C 
BRANCH   9  10
ATOM     10  C   UNL     1      -2.291  52.168  18.042  1.00  0.00     0.000 C 
BRANCH  10  11
ATOM     11  C   UNL     1      -1.991  53.604  17.565  1.00  0.00     0.000 C 
BRANCH  11  12
ATOM     12  C   UNL     1      -3.028  54.637  18.060  1.00  0.00     0.006 C 
BRANCH  12  13
ATOM     13  C   UNL     1      -2.553  56.095  17.912  1.00  0.00     0.053 C 
BRANCH  13  14
ATOM     14  C   UNL     1      -3.668  57.075  18.096  1.00  0.00     0.041 C 
ATOM     15  O   UNL     1      -3.791  58.046  17.304  1.00  0.00    -0.550 OA
ATOM     16  O   UNL     1      -4.619  56.869  19.087  1.00  0.00    -0.550 OA
ENDBRANCH  13  14
ENDBRANCH  12  13
ENDBRANCH  11  12
ENDBRANCH  10  11
ENDBRANCH   9  10
ENDBRANCH   8   9
ENDBRANCH   7   8
ENDBRANCH   6   7
ENDBRANCH   5   6
ENDBRANCH   4   5
ENDBRANCH   3   4
ENDBRANCH   2   3
ENDBRANCH   1   2
BRANCH   1  17
ATOM     17  C   UNL     1      -1.361  53.012  21.568  1.00  0.00     0.000 C 
BRANCH  17  18
ATOM     18  C   UNL     1      -0.619  54.223  20.965  1.00  0.00     0.000 C 
BRANCH  18  19
ATOM     19  C   UNL     1       0.595  53.878  20.079  1.00  0.00     0.000 C 
BRANCH  19  20
ATOM     20  C   UNL     1       1.829  54.741  20.395  1.00  0.00     0.000 C 
BRANCH  20  21
ATOM     21  C   UNL     1       3.052  53.894  20.812  1.00  0.00     0.000 C 
BRANCH  21  22
ATOM     22  C   UNL     1       3.781  53.225  19.631  1.00  0.00    -0.000 C 
BRANCH  22  23
ATOM     23  C   UNL     1       3.510  53.859  18.254  1.00  0.00    -0.000 C 
BRANCH  23  24
ATOM     24  C   UNL     1       2.612  53.024  17.318  1.00  0.00    -0.000 C 
BRANCH  24  25
ATOM     25  C   UNL     1       1.576  53.832  16.515  1.00  0.00    -0.000 C 
BRANCH  25  26
ATOM     26  C   UNL     1       1.996  55.293  16.299  1.00  0.00    -0.000 C 
BRANCH  26  27
ATOM     27  C   UNL     1       0.911  56.259  16.796  1.00  0.00    -0.000 C 
BRANCH  27  28
ATOM     28  C   UNL     1       1.396  57.165  17.943  1.00  0.00    -0.000 C 
BRANCH  28  29
ATOM     29  C   UNL     1       2.879  57.568  17.866  1.00  0.00    -0.003 C 
ATOM     30  C   UNL     1       3.556  57.618  19.236  1.00  0.00     0.004 C 
ENDBRANCH  28  29
ENDBRANCH  27  28
ENDBRANCH  26  27
ENDBRANCH  25  26
ENDBRANCH  24  25
ENDBRANCH  23  24
ENDBRANCH  22  23
ENDBRANCH  21  22
ENDBRANCH  20  21
ENDBRANCH  19  20
ENDBRANCH  18  19
ENDBRANCH  17  18
ENDBRANCH   1  17
TORSDOF 26
ENDMDL
MODEL 8
REMARK VINA RESULT:    -4.970      3.601      7.963
REMARK INTER + INTRA:         -17.431
REMARK INTER:                 -13.210
REMARK INTRA:                  -4.221
REMARK UNBOUND:                -4.908
REMARK SMILES CCCCCCCCCCCCCCCCCCCCCCCCCCCC(=O)[O-]
REMARK SMILES IDX 15 1 16 2 17 3 18 4 19 5 20 6 21 7 22 8 23 9 24 10 25 11
REMARK SMILES IDX 26 12 27 13 28 14 29 15 30 16 14 17 13 18 12 19 11 20 10 21
REMARK SMILES IDX 9 22 8 23 7 24 6 25 5 26 4 27 3 28 2 29 1 30
REMARK H PARENT
REMARK Flexibility Score: inf
ROOT
ATOM      1  C   UNL     1       0.460  56.491  17.296  1.00  0.00     0.000 C 
ENDROOT
BRANCH   1   2
ATOM      2  C   UNL     1       1.472  57.456  17.939  1.00  0.00     0.000 C 
BRANCH   2   3
ATOM      3  C   UNL     1       2.296  56.793  19.054  1.00  0.00     0.000 C 
BRANCH   3   4
ATOM      4  C   UNL     1       1.504  55.719  19.819  1.00  0.00     0.000 C 
BRANCH   4   5
ATOM      5  C   UNL     1       2.395  54.586  20.349  1.00  0.00     0.000 C 
BRANCH   5   6
ATOM      6  C   UNL     1       2.074  53.226  19.705  1.00  0.00     0.000 C 
BRANCH   6   7
ATOM      7  C   UNL     1       2.944  52.952  18.459  1.00  0.00     0.000 C 
BRANCH   7   8
ATOM      8  C   UNL     1       2.268  53.357  17.133  1.00  0.00     0.000 C 
BRANCH   8   9
ATOM      9  C   UNL     1       3.072  54.359  16.281  1.00  0.00     0.000 C 
BRANCH   9  10
ATOM     10  C   UNL     1       4.417  54.786  16.905  1.00  0.00     0.000 C 
BRANCH  10  11
ATOM     11  C   UNL     1       4.794  56.242  16.559  1.00  0.00     0.000 C 
BRANCH  11  12
ATOM     12  C   UNL     1       6.267  56.579  16.877  1.00  0.00     0.006 C 
BRANCH  12  13
ATOM     13  C   UNL     1       6.445  57.321  18.217  1.00  0.00     0.053 C 
BRANCH  13  14
ATOM     14  C   UNL     1       7.768  58.014  18.308  1.00  0.00     0.041 C 
ATOM     15  O   UNL     1       7.856  59.131  18.882  1.00  0.00    -0.550 OA
ATOM     16  O   UNL     1       8.915  57.389  17.836  1.00  0.00    -0.550 OA
ENDBRANCH  13  14
ENDBRANCH  12  13
ENDBRANCH  11  12
ENDBRANCH  10  11
ENDBRANCH   9  10
ENDBRANCH   8   9
ENDBRANCH   7   8
ENDBRANCH   6   7
ENDBRANCH   5   6
ENDBRANCH   4   5
ENDBRANCH   3   4
ENDBRANCH   2   3
ENDBRANCH   1   2
BRANCH   1  17
ATOM     17  C   UNL     1      -0.922  57.131  17.069  1.00  0.00     0.000 C 
BRANCH  17  18
ATOM     18  C   UNL     1      -2.124  56.318  17.594  1.00  0.00     0.000 C 
BRANCH  18  19
ATOM     19  C   UNL     1      -1.978  55.780  19.031  1.00  0.00     0.000 C 
BRANCH  19  20
ATOM     20  C   UNL     1      -2.357  54.293  19.153  1.00  0.00     0.000 C 
BRANCH  20  21
ATOM     21  C   UNL     1      -2.551  53.617  17.778  1.00  0.00     0.000 C 
BRANCH  21  22
ATOM     22  C   UNL     1      -1.383  52.703  17.360  1.00  0.00    -0.000 C 
BRANCH  22  23
ATOM     23  C   UNL     1      -0.842  51.787  18.473  1.00  0.00    -0.000 C 
BRANCH  23  24
ATOM     24  C   UNL     1      -1.356  50.333  18.428  1.00  0.00    -0.000 C 
BRANCH  24  25
ATOM     25  C   UNL     1      -2.667  50.080  19.196  1.00  0.00    -0.000 C 
BRANCH  25  26
ATOM     26  C   UNL     1      -2.438  49.779  20.684  1.00  0.00    -0.000 C 
BRANCH  26  27
ATOM     27  C   UNL     1      -3.432  50.549  21.564  1.00  0.00    -0.000 C 
BRANCH  27  28
ATOM     28  C   UNL     1      -3.175  52.068  21.570  1.00  0.00    -0.000 C 
BRANCH  28  29
ATOM     29  C   UNL     1      -2.188  52.551  22.647  1.00  0.00    -0.003 C 
ATOM     30  C   UNL     1      -2.402  51.873  24.001  1.00  0.00     0.004 C 
ENDBRANCH  28  29
ENDBRANCH  27  28
ENDBRANCH  26  27
ENDBRANCH  25  26
ENDBRANCH  24  25
ENDBRANCH  23  24
ENDBRANCH  22  23
ENDBRANCH  21  22
ENDBRANCH  20  21
ENDBRANCH  19  20
ENDBRANCH  18  19
ENDBRANCH  17  18
ENDBRANCH   1  17
TORSDOF 26
ENDMDL
MODEL 9
REMARK VINA RESULT:    -4.955      2.426      4.682
REMARK INTER + INTRA:         -17.394
REMARK INTER:                 -13.177
REMARK INTRA:                  -4.217
REMARK UNBOUND:                -4.908
REMARK SMILES CCCCCCCCCCCCCCCCCCCCCCCCCCCC(=O)[O-]
REMARK SMILES IDX 15 1 16 2 17 3 18 4 19 5 20 6 21 7 22 8 23 9 24 10 25 11
REMARK SMILES IDX 26 12 27 13 28 14 29 15 30 16 14 17 13 18 12 19 11 20 10 21
REMARK SMILES IDX 9 22 8 23 7 24 6 25 5 26 4 27 3 28 2 29 1 30
REMARK H PARENT
REMARK Flexibility Score: inf
ROOT
ATOM      1  C   UNL     1       2.164  54.552  20.638  1.00  0.00     0.000 C 
ENDROOT
BRANCH   1   2
ATOM      2  C   UNL     1       0.668  54.888  20.764  1.00  0.00     0.000 C 
BRANCH   2   3
ATOM      3  C   UNL     1      -0.236  53.796  20.168  1.00  0.00     0.000 C 
BRANCH   3   4
ATOM      4  C   UNL     1      -1.728  54.044  20.446  1.00  0.00     0.000 C 
BRANCH   4   5
ATOM      5  C   UNL     1      -2.635  53.571  19.300  1.00  0.00     0.000 C 
BRANCH   5   6
ATOM      6  C   UNL     1      -1.891  53.467  17.957  1.00  0.00     0.000 C 
BRANCH   6   7
ATOM      7  C   UNL     1      -1.979  52.050  17.350  1.00  0.00     0.000 C 
BRANCH   7   8
ATOM      8  C   UNL     1      -2.662  51.023  18.278  1.00  0.00     0.000 C 
BRANCH   8   9
ATOM      9  C   UNL     1      -1.736  49.899  18.784  1.00  0.00     0.000 C 
BRANCH   9  10
ATOM     10  C   UNL     1      -1.057  50.199  20.136  1.00  0.00     0.000 C 
BRANCH  10  11
ATOM     11  C   UNL     1      -1.820  49.586  21.330  1.00  0.00     0.000 C 
BRANCH  11  12
ATOM     12  C   UNL     1      -3.314  49.980  21.361  1.00  0.00     0.006 C 
BRANCH  12  13
ATOM     13  C   UNL     1      -3.578  51.306  22.100  1.00  0.00     0.053 C 
BRANCH  13  14
ATOM     14  C   UNL     1      -3.197  51.234  23.545  1.00  0.00     0.041 C 
ATOM     15  O   UNL     1      -2.126  51.765  23.941  1.00  0.00    -0.550 OA
ATOM     16  O   UNL     1      -4.061  50.657  24.465  1.00  0.00    -0.550 OA
ENDBRANCH  13  14
ENDBRANCH  12  13
ENDBRANCH  11  12
ENDBRANCH  10  11
ENDBRANCH   9  10
ENDBRANCH   8   9
ENDBRANCH   7   8
ENDBRANCH   6   7
ENDBRANCH   5   6
ENDBRANCH   4   5
ENDBRANCH   3   4
ENDBRANCH   2   3
ENDBRANCH   1   2
BRANCH   1  17
ATOM     17  C   UNL     1       2.436  53.358  19.705  1.00  0.00     0.000 C 
BRANCH  17  18
ATOM     18  C   UNL     1       3.925  53.026  19.470  1.00  0.00     0.000 C 
BRANCH  18  19
ATOM     19  C   UNL     1       4.362  52.971  17.993  1.00  0.00     0.000 C 
BRANCH  19  20
ATOM     20  C   UNL     1       3.455  53.804  17.070  1.00  0.00     0.000 C 
BRANCH  20  21
ATOM     21  C   UNL     1       4.235  54.886  16.292  1.00  0.00     0.000 C 
BRANCH  21  22
ATOM     22  C   UNL     1       5.066  55.824  17.189  1.00  0.00    -0.000 C 
BRANCH  22  23
ATOM     23  C   UNL     1       4.417  57.189  17.483  1.00  0.00    -0.000 C 
BRANCH  23  24
ATOM     24  C   UNL     1       3.280  57.159  18.524  1.00  0.00    -0.000 C 
BRANCH  24  25
ATOM     25  C   UNL     1       1.942  57.751  18.046  1.00  0.00    -0.000 C 
BRANCH  25  26
ATOM     26  C   UNL     1       1.117  56.764  17.207  1.00  0.00    -0.000 C 
BRANCH  26  27
ATOM     27  C   UNL     1      -0.288  56.576  17.797  1.00  0.00    -0.000 C 
BRANCH  27  28
ATOM     28  C   UNL     1      -1.402  57.086  16.863  1.00  0.00    -0.000 C 
BRANCH  28  29
ATOM     29  C   UNL     1      -2.832  56.882  17.394  1.00  0.00    -0.003 C 
ATOM     30  C   UNL     1      -3.726  58.105  17.185  1.00  0.00     0.004 C 
ENDBRANCH  28  29
ENDBRANCH  27  28
ENDBRANCH  26  27
ENDBRANCH  25  26
ENDBRANCH  24  25
ENDBRANCH  23  24
ENDBRANCH  22  23
ENDBRANCH  21  22
ENDBRANCH  20  21
ENDBRANCH  19  20
ENDBRANCH  18  19
ENDBRANCH  17  18
ENDBRANCH   1  17
TORSDOF 26
ENDMDL
