MODEL 1
REMARK VINA RESULT:    -3.715      0.000      0.000
REMARK INTER + INTRA:          -5.829
REMARK INTER:                  -5.019
REMARK INTRA:                  -0.810
REMARK UNBOUND:                -0.810
REMARK SMILES C[C@H](O)[C@H](O)[C@H](O)[C@H](O)C=O
REMARK SMILES IDX 4 1 2 2 1 3 3 4 6 6 8 7 10 8 11 9 9 10 7 12 5 14
REMARK H PARENT 3 5 9 11 7 13 5 15
REMARK Flexibility Score: inf
ROOT
ATOM      1  C   UNL     1      40.928  21.798  22.474  1.00  0.00     0.174 C 
ENDROOT
BRANCH   1   2
ATOM      2  C   UNL     1      40.069  22.351  21.308  1.00  0.00     0.142 C 
ATOM      3  C   UNL     1      40.805  22.359  19.965  1.00  0.00     0.041 C 
BRANCH   2   4
ATOM      4  O   UNL     1      39.667  23.665  21.602  1.00  0.00    -0.391 OA
ATOM      5  H   UNL     1      40.307  24.272  21.147  1.00  0.00     0.211 HD
ENDBRANCH   2   4
ENDBRANCH   1   2
BRANCH   1   6
ATOM      6  C   UNL     1      40.080  21.299  23.694  1.00  0.00     0.181 C 
BRANCH   6   7
ATOM      7  C   UNL     1      40.492  21.905  25.061  1.00  0.00     0.209 C 
BRANCH   7   8
ATOM      8  C   UNL     1      40.552  23.405  24.966  1.00  0.00     0.258 C 
ATOM      9  O   UNL     1      39.576  24.043  24.603  1.00  0.00    -0.300 OA
ENDBRANCH   7   8
BRANCH   7  10
ATOM     10  O   UNL     1      39.563  21.550  26.051  1.00  0.00    -0.383 OA
ATOM     11  H   UNL     1      40.024  20.925  26.669  1.00  0.00     0.211 HD
ENDBRANCH   7  10
ENDBRANCH   6   7
BRANCH   6  12
ATOM     12  O   UNL     1      38.715  21.548  23.457  1.00  0.00    -0.387 OA
ATOM     13  H   UNL     1      38.197  20.853  23.944  1.00  0.00     0.211 HD
ENDBRANCH   6  12
ENDBRANCH   1   6
BRANCH   1  14
ATOM     14  O   UNL     1      41.800  20.804  21.993  1.00  0.00    -0.388 OA
ATOM     15  H   UNL     1      42.037  20.230  22.767  1.00  0.00     0.211 HD
ENDBRANCH   1  14
TORSDOF 8
ENDMDL
MODEL 2
REMARK VINA RESULT:    -3.582      1.281      3.992
REMARK INTER + INTRA:          -5.649
REMARK INTER:                  -5.327
REMARK INTRA:                  -0.322
REMARK UNBOUND:                -0.810
REMARK SMILES C[C@H](O)[C@H](O)[C@H](O)[C@H](O)C=O
REMARK SMILES IDX 4 1 2 2 1 3 3 4 6 6 8 7 10 8 11 9 9 10 7 12 5 14
REMARK H PARENT 3 5 9 11 7 13 5 15
REMARK Flexibility Score: inf
ROOT
ATOM      1  C   UNL     1      39.218  21.432  23.543  1.00  0.00     0.174 C 
ENDROOT
BRANCH   1   2
ATOM      2  C   UNL     1      39.858  22.547  24.410  1.00  0.00     0.142 C 
ATOM      3  C   UNL     1      40.840  22.011  25.455  1.00  0.00     0.041 C 
BRANCH   2   4
ATOM      4  O   UNL     1      38.849  23.263  25.075  1.00  0.00    -0.391 OA
ATOM      5  H   UNL     1      37.992  23.045  24.624  1.00  0.00     0.211 HD
ENDBRANCH   2   4
ENDBRANCH   1   2
BRANCH   1   6
ATOM      6  C   UNL     1      39.836  21.325  22.106  1.00  0.00     0.181 C 
BRANCH   6   7
ATOM      7  C   UNL     1      40.513  22.624  21.594  1.00  0.00     0.209 C 
BRANCH   7   8
ATOM      8  C   UNL     1      41.295  22.340  20.341  1.00  0.00     0.258 C 
ATOM      9  O   UNL     1      40.837  21.610  19.476  1.00  0.00    -0.300 OA
ENDBRANCH   7   8
BRANCH   7  10
ATOM     10  O   UNL     1      39.544  23.599  21.313  1.00  0.00    -0.383 OA
ATOM     11  H   UNL     1      39.348  24.065  22.168  1.00  0.00     0.211 HD
ENDBRANCH   7  10
ENDBRANCH   6   7
BRANCH   6  12
ATOM     12  O   UNL     1      40.756  20.261  22.062  1.00  0.00    -0.387 OA
ATOM     13  H   UNL     1      40.618  19.783  21.202  1.00  0.00     0.211 HD
ENDBRANCH   6  12
ENDBRANCH   1   6
BRANCH   1  14
ATOM     14  O   UNL     1      39.266  20.207  24.233  1.00  0.00    -0.388 OA
ATOM     15  H   UNL     1      40.223  19.957  24.312  1.00  0.00     0.211 HD
ENDBRANCH   1  14
TORSDOF 8
ENDMDL
MODEL 3
REMARK VINA RESULT:    -3.534      1.507      2.235
REMARK INTER + INTRA:          -5.583
REMARK INTER:                  -4.946
REMARK INTRA:                  -0.637
REMARK UNBOUND:                -0.810
REMARK SMILES C[C@H](O)[C@H](O)[C@H](O)[C@H](O)C=O
REMARK SMILES IDX 4 1 2 2 1 3 3 4 6 6 8 7 10 8 11 9 9 10 7 12 5 14
REMARK H PARENT 3 5 9 11 7 13 5 15
REMARK Flexibility Score: inf
ROOT
ATOM      1  C   UNL     1      40.016  21.670  22.714  1.00  0.00     0.174 C 
ENDROOT
BRANCH   1   2
ATOM      2  C   UNL     1      39.229  20.341  22.586  1.00  0.00     0.142 C 
ATOM      3  C   UNL     1      38.225  20.342  21.430  1.00  0.00     0.041 C 
BRANCH   2   4
ATOM      4  O   UNL     1      38.530  20.091  23.779  1.00  0.00    -0.391 OA
ATOM      5  H   UNL     1      38.205  19.155  23.735  1.00  0.00     0.211 HD
ENDBRANCH   2   4
ENDBRANCH   1   2
BRANCH   1   6
ATOM      6  C   UNL     1      41.080  21.658  23.866  1.00  0.00     0.181 C 
BRANCH   6   7
ATOM      7  C   UNL     1      40.629  22.364  25.172  1.00  0.00     0.209 C 
BRANCH   7   8
ATOM      8  C   UNL     1      39.850  23.608  24.845  1.00  0.00     0.258 C 
ATOM      9  O   UNL     1      38.729  23.775  25.301  1.00  0.00    -0.300 OA
ENDBRANCH   7   8
BRANCH   7  10
ATOM     10  O   UNL     1      39.819  21.507  25.932  1.00  0.00    -0.383 OA
ATOM     11  H   UNL     1      39.018  22.031  26.200  1.00  0.00     0.211 HD
ENDBRANCH   7  10
ENDBRANCH   6   7
BRANCH   6  12
ATOM     12  O   UNL     1      41.459  20.332  24.150  1.00  0.00    -0.387 OA
ATOM     13  H   UNL     1      41.857  20.325  25.060  1.00  0.00     0.211 HD
ENDBRANCH   6  12
ENDBRANCH   1   6
BRANCH   1  14
ATOM     14  O   UNL     1      40.584  22.009  21.473  1.00  0.00    -0.388 OA
ATOM     15  H   UNL     1      40.436  22.982  21.344  1.00  0.00     0.211 HD
ENDBRANCH   1  14
TORSDOF 8
ENDMDL
MODEL 4
REMARK VINA RESULT:    -3.467      1.266      1.430
REMARK INTER + INTRA:          -5.494
REMARK INTER:                  -4.851
REMARK INTRA:                  -0.642
REMARK UNBOUND:                -0.810
REMARK SMILES C[C@H](O)[C@H](O)[C@H](O)[C@H](O)C=O
REMARK SMILES IDX 4 1 2 2 1 3 3 4 6 6 8 7 10 8 11 9 9 10 7 12 5 14
REMARK H PARENT 3 5 9 11 7 13 5 15
REMARK Flexibility Score: inf
ROOT
ATOM      1  C   UNL     1      40.407  20.973  22.212  1.00  0.00     0.174 C 
ENDROOT
BRANCH   1   2
ATOM      2  C   UNL     1      39.943  22.210  21.401  1.00  0.00     0.142 C 
ATOM      3  C   UNL     1      40.813  22.489  20.172  1.00  0.00     0.041 C 
BRANCH   2   4
ATOM      4  O   UNL     1      39.963  23.347  22.225  1.00  0.00    -0.391 OA
ATOM      5  H   UNL     1      40.010  23.025  23.163  1.00  0.00     0.211 HD
ENDBRANCH   2   4
ENDBRANCH   1   2
BRANCH   1   6
ATOM      6  C   UNL     1      39.470  20.630  23.421  1.00  0.00     0.181 C 
BRANCH   6   7
ATOM      7  C   UNL     1      39.986  21.119  24.800  1.00  0.00     0.209 C 
BRANCH   7   8
ATOM      8  C   UNL     1      41.481  21.280  24.765  1.00  0.00     0.258 C 
ATOM      9  O   UNL     1      41.991  22.377  24.934  1.00  0.00    -0.300 OA
ENDBRANCH   7   8
BRANCH   7  10
ATOM     10  O   UNL     1      39.404  22.353  25.127  1.00  0.00    -0.383 OA
ATOM     11  H   UNL     1      38.426  22.257  24.988  1.00  0.00     0.211 HD
ENDBRANCH   7  10
ENDBRANCH   6   7
BRANCH   6  12
ATOM     12  O   UNL     1      38.182  21.148  23.186  1.00  0.00    -0.387 OA
ATOM     13  H   UNL     1      38.049  21.178  22.202  1.00  0.00     0.211 HD
ENDBRANCH   6  12
ENDBRANCH   1   6
BRANCH   1  14
ATOM     14  O   UNL     1      40.581  19.876  21.349  1.00  0.00    -0.388 OA
ATOM     15  H   UNL     1      41.037  19.166  21.873  1.00  0.00     0.211 HD
ENDBRANCH   1  14
TORSDOF 8
ENDMDL
MODEL 5
REMARK VINA RESULT:    -3.434      1.037      1.855
REMARK INTER + INTRA:          -5.448
REMARK INTER:                  -4.851
REMARK INTRA:                  -0.597
REMARK UNBOUND:                -0.810
REMARK SMILES C[C@H](O)[C@H](O)[C@H](O)[C@H](O)C=O
REMARK SMILES IDX 4 1 2 2 1 3 3 4 6 6 8 7 10 8 11 9 9 10 7 12 5 14
REMARK H PARENT 3 5 9 11 7 13 5 15
REMARK Flexibility Score: inf
ROOT
ATOM      1  C   UNL     1      39.943  22.272  21.698  1.00  0.00     0.174 C 
ENDROOT
BRANCH   1   2
ATOM      2  C   UNL     1      41.267  22.053  20.922  1.00  0.00     0.142 C 
ATOM      3  C   UNL     1      41.206  22.544  19.473  1.00  0.00     0.041 C 
BRANCH   2   4
ATOM      4  O   UNL     1      41.587  20.686  20.914  1.00  0.00    -0.391 OA
ATOM      5  H   UNL     1      40.847  20.217  20.448  1.00  0.00     0.211 HD
ENDBRANCH   2   4
ENDBRANCH   1   2
BRANCH   1   6
ATOM      6  C   UNL     1      39.841  21.423  23.012  1.00  0.00     0.181 C 
BRANCH   6   7
ATOM      7  C   UNL     1      40.811  21.857  24.142  1.00  0.00     0.209 C 
BRANCH   7   8
ATOM      8  C   UNL     1      40.060  22.601  25.212  1.00  0.00     0.258 C 
ATOM      9  O   UNL     1      39.584  23.702  24.984  1.00  0.00    -0.300 OA
ENDBRANCH   7   8
BRANCH   7  10
ATOM     10  O   UNL     1      41.424  20.732  24.716  1.00  0.00    -0.383 OA
ATOM     11  H   UNL     1      41.057  19.935  24.250  1.00  0.00     0.211 HD
ENDBRANCH   7  10
ENDBRANCH   6   7
BRANCH   6  12
ATOM     12  O   UNL     1      38.517  21.444  23.489  1.00  0.00    -0.387 OA
ATOM     13  H   UNL     1      38.214  22.390  23.485  1.00  0.00     0.211 HD
ENDBRANCH   6  12
ENDBRANCH   1   6
BRANCH   1  14
ATOM     14  O   UNL     1      39.754  23.645  21.940  1.00  0.00    -0.388 OA
ATOM     15  H   UNL     1      40.588  24.105  21.658  1.00  0.00     0.211 HD
ENDBRANCH   1  14
TORSDOF 8
ENDMDL
MODEL 6
REMARK VINA RESULT:    -3.376      1.917      3.860
REMARK INTER + INTRA:          -5.370
REMARK INTER:                  -4.550
REMARK INTRA:                  -0.820
REMARK UNBOUND:                -0.810
REMARK SMILES C[C@H](O)[C@H](O)[C@H](O)[C@H](O)C=O
REMARK SMILES IDX 4 1 2 2 1 3 3 4 6 6 8 7 10 8 11 9 9 10 7 12 5 14
REMARK H PARENT 3 5 9 11 7 13 5 15
REMARK Flexibility Score: inf
ROOT
ATOM      1  C   UNL     1      40.350  20.808  24.801  1.00  0.00     0.174 C 
ENDROOT
BRANCH   1   2
ATOM      2  C   UNL     1      40.740  22.204  25.350  1.00  0.00     0.142 C 
ATOM      3  C   UNL     1      39.667  23.270  25.109  1.00  0.00     0.041 C 
BRANCH   2   4
ATOM      4  O   UNL     1      41.934  22.631  24.745  1.00  0.00    -0.391 OA
ATOM      5  H   UNL     1      41.762  22.683  23.769  1.00  0.00     0.211 HD
ENDBRANCH   2   4
ENDBRANCH   1   2
BRANCH   1   6
ATOM      6  C   UNL     1      39.420  20.870  23.540  1.00  0.00     0.181 C 
BRANCH   6   7
ATOM      7  C   UNL     1      40.132  20.569  22.194  1.00  0.00     0.209 C 
BRANCH   7   8
ATOM      8  C   UNL     1      39.181  20.777  21.048  1.00  0.00     0.258 C 
ATOM      9  O   UNL     1      38.243  20.015  20.873  1.00  0.00    -0.300 OA
ENDBRANCH   7   8
BRANCH   7  10
ATOM     10  O   UNL     1      41.236  21.418  22.028  1.00  0.00    -0.383 OA
ATOM     11  H   UNL     1      40.931  22.182  21.471  1.00  0.00     0.211 HD
ENDBRANCH   7  10
ENDBRANCH   6   7
BRANCH   6  12
ATOM     12  O   UNL     1      38.333  19.992  23.708  1.00  0.00    -0.387 OA
ATOM     13  H   UNL     1      38.207  19.506  22.850  1.00  0.00     0.211 HD
ENDBRANCH   6  12
ENDBRANCH   1   6
BRANCH   1  14
ATOM     14  O   UNL     1      41.510  20.047  24.566  1.00  0.00    -0.388 OA
ATOM     15  H   UNL     1      42.148  20.635  24.083  1.00  0.00     0.211 HD
ENDBRANCH   1  14
TORSDOF 8
ENDMDL
MODEL 7
REMARK VINA RESULT:    -3.354     16.014     16.899
REMARK INTER + INTRA:          -5.340
REMARK INTER:                  -4.809
REMARK INTRA:                  -0.531
REMARK UNBOUND:                -0.810
REMARK SMILES C[C@H](O)[C@H](O)[C@H](O)[C@H](O)C=O
REMARK SMILES IDX 4 1 2 2 1 3 3 4 6 6 8 7 10 8 11 9 9 10 7 12 5 14
REMARK H PARENT 3 5 9 11 7 13 5 15
REMARK Flexibility Score: inf
ROOT
ATOM      1  C   UNL     1      37.348  37.881  26.186  1.00  0.00     0.174 C 
ENDROOT
BRANCH   1   2
ATOM      2  C   UNL     1      36.292  38.942  26.588  1.00  0.00     0.142 C 
ATOM      3  C   UNL     1      36.329  39.299  28.076  1.00  0.00     0.041 C 
BRANCH   2   4
ATOM      4  O   UNL     1      35.007  38.467  26.277  1.00  0.00    -0.391 OA
ATOM      5  H   UNL     1      34.929  38.464  25.288  1.00  0.00     0.211 HD
ENDBRANCH   2   4
ENDBRANCH   1   2
BRANCH   1   6
ATOM      6  C   UNL     1      38.703  38.502  25.698  1.00  0.00     0.181 C 
BRANCH   6   7
ATOM      7  C   UNL     1      39.892  38.311  26.677  1.00  0.00     0.209 C 
BRANCH   7   8
ATOM      8  C   UNL     1      41.160  38.835  26.059  1.00  0.00     0.258 C 
ATOM      9  O   UNL     1      41.865  38.108  25.377  1.00  0.00    -0.300 OA
ENDBRANCH   7   8
BRANCH   7  10
ATOM     10  O   UNL     1      39.652  39.001  27.874  1.00  0.00    -0.383 OA
ATOM     11  H   UNL     1      38.808  39.510  27.750  1.00  0.00     0.211 HD
ENDBRANCH   7  10
ENDBRANCH   6   7
BRANCH   6  12
ATOM     12  O   UNL     1      39.039  37.979  24.436  1.00  0.00    -0.387 OA
ATOM     13  H   UNL     1      39.984  38.226  24.253  1.00  0.00     0.211 HD
ENDBRANCH   6  12
ENDBRANCH   1   6
BRANCH   1  14
ATOM     14  O   UNL     1      37.533  36.969  27.241  1.00  0.00    -0.388 OA
ATOM     15  H   UNL     1      38.341  36.436  27.023  1.00  0.00     0.211 HD
ENDBRANCH   1  14
TORSDOF 8
ENDMDL
MODEL 8
REMARK VINA RESULT:    -3.153     13.560     15.372
REMARK INTER + INTRA:          -5.069
REMARK INTER:                  -4.604
REMARK INTRA:                  -0.465
REMARK UNBOUND:                -0.810
REMARK SMILES C[C@H](O)[C@H](O)[C@H](O)[C@H](O)C=O
REMARK SMILES IDX 4 1 2 2 1 3 3 4 6 6 8 7 10 8 11 9 9 10 7 12 5 14
REMARK H PARENT 3 5 9 11 7 13 5 15
REMARK Flexibility Score: inf
ROOT
ATOM      1  C   UNL     1      42.704  37.765  26.525  1.00  0.00     0.174 C 
ENDROOT
BRANCH   1   2
ATOM      2  C   UNL     1      41.279  38.362  26.401  1.00  0.00     0.142 C 
ATOM      3  C   UNL     1      41.146  39.749  27.036  1.00  0.00     0.041 C 
BRANCH   2   4
ATOM      4  O   UNL     1      40.354  37.502  27.016  1.00  0.00    -0.391 OA
ATOM      5  H   UNL     1      39.920  36.978  26.294  1.00  0.00     0.211 HD
ENDBRANCH   2   4
ENDBRANCH   1   2
BRANCH   1   6
ATOM      6  C   UNL     1      42.997  36.624  25.491  1.00  0.00     0.181 C 
BRANCH   6   7
ATOM      7  C   UNL     1      43.336  35.248  26.123  1.00  0.00     0.209 C 
BRANCH   7   8
ATOM      8  C   UNL     1      42.998  35.255  27.589  1.00  0.00     0.258 C 
ATOM      9  O   UNL     1      42.116  34.532  28.026  1.00  0.00    -0.300 OA
ENDBRANCH   7   8
BRANCH   7  10
ATOM     10  O   UNL     1      42.603  34.230  25.494  1.00  0.00    -0.383 OA
ATOM     11  H   UNL     1      43.247  33.710  24.944  1.00  0.00     0.211 HD
ENDBRANCH   7  10
ENDBRANCH   6   7
BRANCH   6  12
ATOM     12  O   UNL     1      41.905  36.486  24.613  1.00  0.00    -0.387 OA
ATOM     13  H   UNL     1      41.911  35.551  24.276  1.00  0.00     0.211 HD
ENDBRANCH   6  12
ENDBRANCH   1   6
BRANCH   1  14
ATOM     14  O   UNL     1      43.659  38.796  26.460  1.00  0.00    -0.388 OA
ATOM     15  H   UNL     1      43.271  39.514  25.895  1.00  0.00     0.211 HD
ENDBRANCH   1  14
TORSDOF 8
ENDMDL
