MODEL 1
REMARK VINA RESULT:    25.762      0.000      0.000
REMARK INTER + INTRA:          31.409
REMARK INTER:                  31.786
REMARK INTRA:                  -0.376
REMARK UNBOUND:                -0.376
REMARK SMILES Oc1cc(O)c2cc(O)c(-c3cc(O)c(O)c(O)c3)[o+]c2c1
REMARK SMILES IDX 10 1 20 2 21 3 22 4 2 5 3 6 4 7 6 8 7 9 8 10 11 11 12 12
REMARK SMILES IDX 13 13 19 14 15 15 17 16 14 17 16 19 18 21 9 23 1 25 5 27
REMARK H PARENT 14 18 16 20 18 22 9 24 1 26 5 28
REMARK Flexibility Score: inf
ROOT
ATOM      1  C   UNL     1      29.120  33.399  48.531  1.00  0.00     0.402 A 
ATOM      2  O   UNL     1      29.378  32.384  49.352  1.00  0.00    -0.202 OA
ATOM      3  C   UNL     1      29.159  31.113  49.033  1.00  0.00     0.368 A 
ATOM      4  C   UNL     1      29.459  30.115  49.964  1.00  0.00     0.162 A 
ATOM      5  C   UNL     1      29.236  28.773  49.657  1.00  0.00     0.128 A 
ATOM      6  C   UNL     1      28.708  28.422  48.408  1.00  0.00     0.093 A 
ATOM      7  C   UNL     1      28.399  29.403  47.457  1.00  0.00     0.136 A 
ATOM      8  C   UNL     1      28.626  30.769  47.766  1.00  0.00     0.125 A 
ATOM      9  C   UNL     1      28.359  31.818  46.870  1.00  0.00     0.078 A 
ATOM     10  C   UNL     1      28.614  33.141  47.243  1.00  0.00     0.223 A 
ENDROOT
BRANCH   1  11
ATOM     11  C   UNL     1      29.399  34.773  49.008  1.00  0.00     0.091 A 
ATOM     12  C   UNL     1      28.363  35.533  49.569  1.00  0.00     0.068 A 
ATOM     13  C   UNL     1      28.586  36.841  50.010  1.00  0.00     0.162 A 
ATOM     14  C   UNL     1      30.667  35.355  48.857  1.00  0.00     0.068 A 
ATOM     15  C   UNL     1      29.873  37.415  49.877  1.00  0.00     0.200 A 
ATOM     16  C   UNL     1      30.907  36.662  49.292  1.00  0.00     0.162 A 
BRANCH  13  17
ATOM     17  O   UNL     1      27.505  37.529  50.570  1.00  0.00    -0.504 OA
ATOM     18  H   UNL     1      26.557  37.182  50.582  1.00  0.00     0.293 HD
ENDBRANCH  13  17
BRANCH  15  19
ATOM     19  O   UNL     1      30.157  38.715  50.307  1.00  0.00    -0.502 OA
ATOM     20  H   UNL     1      29.996  39.543  49.754  1.00  0.00     0.293 HD
ENDBRANCH  15  19
BRANCH  16  21
ATOM     21  O   UNL     1      32.185  37.198  49.128  1.00  0.00    -0.504 OA
ATOM     22  H   UNL     1      32.880  37.174  49.864  1.00  0.00     0.293 HD
ENDBRANCH  16  21
ENDBRANCH   1  11
BRANCH  10  23
ATOM     23  O   UNL     1      28.396  34.179  46.338  1.00  0.00    -0.500 OA
ATOM     24  H   UNL     1      28.093  35.096  46.643  1.00  0.00     0.294 HD
ENDBRANCH  10  23
BRANCH   5  25
ATOM     25  O   UNL     1      29.542  27.793  50.598  1.00  0.00    -0.507 OA
ATOM     26  H   UNL     1      29.119  27.791  51.518  1.00  0.00     0.293 HD
ENDBRANCH   5  25
BRANCH   7  27
ATOM     27  O   UNL     1      27.872  28.971  46.237  1.00  0.00    -0.507 OA
ATOM     28  H   UNL     1      26.902  28.732  46.088  1.00  0.00     0.293 HD
ENDBRANCH   7  27
TORSDOF 7
ENDMDL
MODEL 2
REMARK VINA RESULT:    26.549      1.086      2.559
REMARK INTER + INTRA:          32.381
REMARK INTER:                  32.731
REMARK INTRA:                  -0.351
REMARK UNBOUND:                -0.376
REMARK SMILES Oc1cc(O)c2cc(O)c(-c3cc(O)c(O)c(O)c3)[o+]c2c1
REMARK SMILES IDX 10 1 20 2 21 3 22 4 2 5 3 6 4 7 6 8 7 9 8 10 11 11 12 12
REMARK SMILES IDX 13 13 19 14 15 15 17 16 14 17 16 19 18 21 9 23 1 25 5 27
REMARK H PARENT 14 18 16 20 18 22 9 24 1 26 5 28
REMARK Flexibility Score: inf
ROOT
ATOM      1  C   UNL     1      29.387  33.569  49.265  1.00  0.00     0.402 A 
ATOM      2  O   UNL     1      28.692  33.133  48.218  1.00  0.00    -0.202 OA
ATOM      3  C   UNL     1      28.490  31.845  47.960  1.00  0.00     0.368 A 
ATOM      4  C   UNL     1      27.748  31.485  46.832  1.00  0.00     0.162 A 
ATOM      5  C   UNL     1      27.523  30.141  46.535  1.00  0.00     0.128 A 
ATOM      6  C   UNL     1      28.043  29.146  47.372  1.00  0.00     0.093 A 
ATOM      7  C   UNL     1      28.790  29.481  48.508  1.00  0.00     0.136 A 
ATOM      8  C   UNL     1      29.020  30.847  48.814  1.00  0.00     0.125 A 
ATOM      9  C   UNL     1      29.745  31.276  49.938  1.00  0.00     0.078 A 
ATOM     10  C   UNL     1      29.925  32.641  50.177  1.00  0.00     0.223 A 
ENDROOT
BRANCH   1  11
ATOM     11  C   UNL     1      29.551  35.030  49.438  1.00  0.00     0.091 A 
ATOM     12  C   UNL     1      28.464  35.800  49.875  1.00  0.00     0.068 A 
ATOM     13  C   UNL     1      28.576  37.185  50.029  1.00  0.00     0.162 A 
ATOM     14  C   UNL     1      30.757  35.673  49.119  1.00  0.00     0.068 A 
ATOM     15  C   UNL     1      29.803  37.825  49.729  1.00  0.00     0.200 A 
ATOM     16  C   UNL     1      30.887  37.057  49.268  1.00  0.00     0.162 A 
BRANCH  13  17
ATOM     17  O   UNL     1      27.451  37.881  50.480  1.00  0.00    -0.504 OA
ATOM     18  H   UNL     1      26.692  38.178  49.884  1.00  0.00     0.293 HD
ENDBRANCH  13  17
BRANCH  15  19
ATOM     19  O   UNL     1      29.978  39.205  49.871  1.00  0.00    -0.502 OA
ATOM     20  H   UNL     1      30.180  39.664  50.746  1.00  0.00     0.293 HD
ENDBRANCH  15  19
BRANCH  16  21
ATOM     21  O   UNL     1      32.107  37.653  48.945  1.00  0.00    -0.504 OA
ATOM     22  H   UNL     1      32.414  37.772  47.987  1.00  0.00     0.293 HD
ENDBRANCH  16  21
ENDBRANCH   1  11
BRANCH  10  23
ATOM     23  O   UNL     1      30.602  33.069  51.319  1.00  0.00    -0.500 OA
ATOM     24  H   UNL     1      30.160  33.668  52.006  1.00  0.00     0.294 HD
ENDBRANCH  10  23
BRANCH   5  25
ATOM     25  O   UNL     1      26.780  29.801  45.406  1.00  0.00    -0.507 OA
ATOM     26  H   UNL     1      25.976  30.345  45.118  1.00  0.00     0.293 HD
ENDBRANCH   5  25
BRANCH   7  27
ATOM     27  O   UNL     1      29.278  28.429  49.289  1.00  0.00    -0.507 OA
ATOM     28  H   UNL     1      30.237  28.113  49.284  1.00  0.00     0.293 HD
ENDBRANCH   7  27
TORSDOF 7
ENDMDL
MODEL 3
REMARK VINA RESULT:    26.922      1.558      7.248
REMARK INTER + INTRA:          32.841
REMARK INTER:                  33.225
REMARK INTRA:                  -0.384
REMARK UNBOUND:                -0.376
REMARK SMILES Oc1cc(O)c2cc(O)c(-c3cc(O)c(O)c(O)c3)[o+]c2c1
REMARK SMILES IDX 10 1 20 2 21 3 22 4 2 5 3 6 4 7 6 8 7 9 8 10 11 11 12 12
REMARK SMILES IDX 13 13 19 14 15 15 17 16 14 17 16 19 18 21 9 23 1 25 5 27
REMARK H PARENT 14 18 16 20 18 22 9 24 1 26 5 28
REMARK Flexibility Score: inf
ROOT
ATOM      1  C   UNL     1      29.050  34.103  49.188  1.00  0.00     0.402 A 
ATOM      2  O   UNL     1      27.927  34.730  49.529  1.00  0.00    -0.202 OA
ATOM      3  C   UNL     1      27.873  36.027  49.815  1.00  0.00     0.368 A 
ATOM      4  C   UNL     1      26.646  36.596  50.167  1.00  0.00     0.162 A 
ATOM      5  C   UNL     1      26.560  37.953  50.475  1.00  0.00     0.128 A 
ATOM      6  C   UNL     1      27.710  38.752  50.432  1.00  0.00     0.093 A 
ATOM      7  C   UNL     1      28.951  38.206  50.082  1.00  0.00     0.136 A 
ATOM      8  C   UNL     1      29.042  36.826  49.767  1.00  0.00     0.125 A 
ATOM      9  C   UNL     1      30.241  36.196  49.393  1.00  0.00     0.078 A 
ATOM     10  C   UNL     1      30.251  34.832  49.091  1.00  0.00     0.223 A 
ENDROOT
BRANCH   1  11
ATOM     11  C   UNL     1      28.983  32.652  48.902  1.00  0.00     0.091 A 
ATOM     12  C   UNL     1      28.614  32.217  47.622  1.00  0.00     0.068 A 
ATOM     13  C   UNL     1      28.520  30.854  47.322  1.00  0.00     0.162 A 
ATOM     14  C   UNL     1      29.225  31.699  49.903  1.00  0.00     0.068 A 
ATOM     15  C   UNL     1      28.788  29.896  48.330  1.00  0.00     0.200 A 
ATOM     16  C   UNL     1      29.135  30.332  49.621  1.00  0.00     0.162 A 
BRANCH  13  17
ATOM     17  O   UNL     1      28.158  30.499  46.020  1.00  0.00    -0.504 OA
ATOM     18  H   UNL     1      27.626  29.674  45.784  1.00  0.00     0.293 HD
ENDBRANCH  13  17
BRANCH  15  19
ATOM     19  O   UNL     1      28.718  28.521  48.088  1.00  0.00    -0.502 OA
ATOM     20  H   UNL     1      28.359  28.111  47.239  1.00  0.00     0.293 HD
ENDBRANCH  15  19
BRANCH  16  21
ATOM     21  O   UNL     1      29.391  29.420  50.646  1.00  0.00    -0.504 OA
ATOM     22  H   UNL     1      29.011  29.533  51.578  1.00  0.00     0.293 HD
ENDBRANCH  16  21
ENDBRANCH   1  11
BRANCH  10  23
ATOM     23  O   UNL     1      31.430  34.216  48.672  1.00  0.00    -0.500 OA
ATOM     24  H   UNL     1      31.716  34.220  47.700  1.00  0.00     0.294 HD
ENDBRANCH  10  23
BRANCH   5  25
ATOM     25  O   UNL     1      25.328  38.502  50.823  1.00  0.00    -0.507 OA
ATOM     26  H   UNL     1      24.694  38.025  51.452  1.00  0.00     0.293 HD
ENDBRANCH   5  25
BRANCH   7  27
ATOM     27  O   UNL     1      30.051  39.069  50.067  1.00  0.00    -0.507 OA
ATOM     28  H   UNL     1      29.985  40.076  50.032  1.00  0.00     0.293 HD
ENDBRANCH   7  27
TORSDOF 7
ENDMDL
MODEL 4
REMARK VINA RESULT:    27.647      1.844      2.219
REMARK INTER + INTRA:          33.735
REMARK INTER:                  33.369
REMARK INTRA:                   0.367
REMARK UNBOUND:                -0.376
REMARK SMILES Oc1cc(O)c2cc(O)c(-c3cc(O)c(O)c(O)c3)[o+]c2c1
REMARK SMILES IDX 10 1 20 2 21 3 22 4 2 5 3 6 4 7 6 8 7 9 8 10 11 11 12 12
REMARK SMILES IDX 13 13 19 14 15 15 17 16 14 17 16 19 18 21 9 23 1 25 5 27
REMARK H PARENT 14 18 16 20 18 22 9 24 1 26 5 28
REMARK Flexibility Score: inf
ROOT
ATOM      1  C   UNL     1      28.395  33.541  49.108  1.00  0.00     0.402 A 
ATOM      2  O   UNL     1      28.738  32.425  49.746  1.00  0.00    -0.202 OA
ATOM      3  C   UNL     1      29.078  31.302  49.122  1.00  0.00     0.368 A 
ATOM      4  C   UNL     1      29.420  30.178  49.879  1.00  0.00     0.162 A 
ATOM      5  C   UNL     1      29.779  28.986  49.251  1.00  0.00     0.128 A 
ATOM      6  C   UNL     1      29.797  28.914  47.852  1.00  0.00     0.093 A 
ATOM      7  C   UNL     1      29.459  30.025  47.071  1.00  0.00     0.136 A 
ATOM      8  C   UNL     1      29.095  31.240  47.707  1.00  0.00     0.125 A 
ATOM      9  C   UNL     1      28.755  32.408  47.004  1.00  0.00     0.078 A 
ATOM     10  C   UNL     1      28.412  33.571  47.701  1.00  0.00     0.223 A 
ENDROOT
BRANCH   1  11
ATOM     11  C   UNL     1      28.026  34.725  49.917  1.00  0.00     0.091 A 
ATOM     12  C   UNL     1      27.755  34.570  51.284  1.00  0.00     0.068 A 
ATOM     13  C   UNL     1      27.383  35.662  52.074  1.00  0.00     0.162 A 
ATOM     14  C   UNL     1      27.883  35.993  49.334  1.00  0.00     0.068 A 
ATOM     15  C   UNL     1      27.263  36.944  51.484  1.00  0.00     0.200 A 
ATOM     16  C   UNL     1      27.511  37.096  50.108  1.00  0.00     0.162 A 
BRANCH  13  17
ATOM     17  O   UNL     1      27.142  35.429  53.430  1.00  0.00    -0.504 OA
ATOM     18  H   UNL     1      26.293  35.021  53.793  1.00  0.00     0.293 HD
ENDBRANCH  13  17
BRANCH  15  19
ATOM     19  O   UNL     1      26.903  38.074  52.224  1.00  0.00    -0.502 OA
ATOM     20  H   UNL     1      26.026  38.563  52.122  1.00  0.00     0.293 HD
ENDBRANCH  15  19
BRANCH  16  21
ATOM     21  O   UNL     1      27.388  38.339  49.486  1.00  0.00    -0.504 OA
ATOM     22  H   UNL     1      27.216  38.432  48.492  1.00  0.00     0.293 HD
ENDBRANCH  16  21
ENDBRANCH   1  11
BRANCH  10  23
ATOM     23  O   UNL     1      28.122  34.744  47.005  1.00  0.00    -0.500 OA
ATOM     24  H   UNL     1      28.096  35.645  47.469  1.00  0.00     0.294 HD
ENDBRANCH  10  23
BRANCH   5  25
ATOM     25  O   UNL     1      30.116  27.877  50.023  1.00  0.00    -0.507 OA
ATOM     26  H   UNL     1      29.440  27.427  50.628  1.00  0.00     0.293 HD
ENDBRANCH   5  25
BRANCH   7  27
ATOM     27  O   UNL     1      29.498  29.870  45.682  1.00  0.00    -0.507 OA
ATOM     28  H   UNL     1      30.156  29.281  45.192  1.00  0.00     0.293 HD
ENDBRANCH   7  27
TORSDOF 7
ENDMDL
MODEL 5
REMARK VINA RESULT:    27.917      2.022      3.294
REMARK INTER + INTRA:          34.070
REMARK INTER:                  33.832
REMARK INTRA:                   0.238
REMARK UNBOUND:                -0.376
REMARK SMILES Oc1cc(O)c2cc(O)c(-c3cc(O)c(O)c(O)c3)[o+]c2c1
REMARK SMILES IDX 10 1 20 2 21 3 22 4 2 5 3 6 4 7 6 8 7 9 8 10 11 11 12 12
REMARK SMILES IDX 13 13 19 14 15 15 17 16 14 17 16 19 18 21 9 23 1 25 5 27
REMARK H PARENT 14 18 16 20 18 22 9 24 1 26 5 28
REMARK Flexibility Score: inf
ROOT
ATOM      1  C   UNL     1      28.409  34.053  49.111  1.00  0.00     0.402 A 
ATOM      2  O   UNL     1      27.969  33.267  48.131  1.00  0.00    -0.202 OA
ATOM      3  C   UNL     1      28.410  32.029  47.934  1.00  0.00     0.368 A 
ATOM      4  C   UNL     1      27.888  31.282  46.874  1.00  0.00     0.162 A 
ATOM      5  C   UNL     1      28.334  29.981  46.642  1.00  0.00     0.128 A 
ATOM      6  C   UNL     1      29.311  29.420  47.474  1.00  0.00     0.093 A 
ATOM      7  C   UNL     1      29.850  30.148  48.542  1.00  0.00     0.136 A 
ATOM      8  C   UNL     1      29.397  31.471  48.783  1.00  0.00     0.125 A 
ATOM      9  C   UNL     1      29.870  32.270  49.837  1.00  0.00     0.078 A 
ATOM     10  C   UNL     1      29.371  33.564  50.015  1.00  0.00     0.223 A 
ENDROOT
BRANCH   1  11
ATOM     11  C   UNL     1      27.846  35.418  49.221  1.00  0.00     0.091 A 
ATOM     12  C   UNL     1      27.707  36.008  50.484  1.00  0.00     0.068 A 
ATOM     13  C   UNL     1      27.161  37.287  50.628  1.00  0.00     0.162 A 
ATOM     14  C   UNL     1      27.394  36.115  48.090  1.00  0.00     0.068 A 
ATOM     15  C   UNL     1      26.727  37.995  49.481  1.00  0.00     0.200 A 
ATOM     16  C   UNL     1      26.844  37.394  48.214  1.00  0.00     0.162 A 
BRANCH  13  17
ATOM     17  O   UNL     1      27.067  37.811  51.920  1.00  0.00    -0.504 OA
ATOM     18  H   UNL     1      27.263  37.287  52.760  1.00  0.00     0.293 HD
ENDBRANCH  13  17
BRANCH  15  19
ATOM     19  O   UNL     1      26.180  39.279  49.560  1.00  0.00    -0.502 OA
ATOM     20  H   UNL     1      25.983  39.863  48.761  1.00  0.00     0.293 HD
ENDBRANCH  15  19
BRANCH  16  21
ATOM     21  O   UNL     1      26.414  38.052  47.062  1.00  0.00    -0.504 OA
ATOM     22  H   UNL     1      26.822  37.874  46.152  1.00  0.00     0.293 HD
ENDBRANCH  16  21
ENDBRANCH   1  11
BRANCH  10  23
ATOM     23  O   UNL     1      29.804  34.340  51.090  1.00  0.00    -0.500 OA
ATOM     24  H   UNL     1      30.263  33.926  51.893  1.00  0.00     0.294 HD
ENDBRANCH  10  23
BRANCH   5  25
ATOM     25  O   UNL     1      27.802  29.251  45.581  1.00  0.00    -0.507 OA
ATOM     26  H   UNL     1      28.206  29.295  44.653  1.00  0.00     0.293 HD
ENDBRANCH   5  25
BRANCH   7  27
ATOM     27  O   UNL     1      30.823  29.519  49.323  1.00  0.00    -0.507 OA
ATOM     28  H   UNL     1      30.638  29.058  50.202  1.00  0.00     0.293 HD
ENDBRANCH   7  27
TORSDOF 7
ENDMDL
