MODEL 1
REMARK VINA RESULT:    -3.829      0.000      0.000
REMARK INTER + INTRA:          -5.213
REMARK INTER:                  -4.948
REMARK INTRA:                  -0.265
REMARK UNBOUND:                -0.265
REMARK SMILES CCCCCCC(=O)[O-]
REMARK SMILES IDX 5 1 6 2 7 3 8 4 9 5 4 6 3 7 2 8 1 9
REMARK H PARENT
REMARK Flexibility Score: inf
ROOT
ATOM      1  C   UNL     1       4.357   4.977   1.772  1.00  0.00     0.006 C 
ENDROOT
BRANCH   1   2
ATOM      2  C   UNL     1       4.520   6.498   1.687  1.00  0.00     0.053 C 
BRANCH   2   3
ATOM      3  C   UNL     1       3.186   7.172   1.759  1.00  0.00     0.041 C 
ATOM      4  O   UNL     1       2.366   6.861   2.664  1.00  0.00    -0.550 OA
ATOM      5  O   UNL     1       2.827   8.107   0.797  1.00  0.00    -0.550 OA
ENDBRANCH   2   3
ENDBRANCH   1   2
BRANCH   1   6
ATOM      6  C   UNL     1       5.414   4.264   0.921  1.00  0.00     0.000 C 
BRANCH   6   7
ATOM      7  C   UNL     1       6.355   5.277   0.250  1.00  0.00    -0.000 C 
BRANCH   7   8
ATOM      8  C   UNL     1       7.838   4.936   0.459  1.00  0.00    -0.003 C 
ATOM      9  C   UNL     1       8.095   4.205   1.777  1.00  0.00     0.004 C 
ENDBRANCH   7   8
ENDBRANCH   6   7
ENDBRANCH   1   6
TORSDOF 5
ENDMDL
MODEL 2
REMARK VINA RESULT:    -3.588      1.362      1.862
REMARK INTER + INTRA:          -4.902
REMARK INTER:                  -4.756
REMARK INTRA:                  -0.145
REMARK UNBOUND:                -0.265
REMARK SMILES CCCCCCC(=O)[O-]
REMARK SMILES IDX 5 1 6 2 7 3 8 4 9 5 4 6 3 7 2 8 1 9
REMARK H PARENT
REMARK Flexibility Score: inf
ROOT
ATOM      1  C   UNL     1       3.986   5.541   2.296  1.00  0.00     0.006 C 
ENDROOT
BRANCH   1   2
ATOM      2  C   UNL     1       3.315   6.916   2.210  1.00  0.00     0.053 C 
BRANCH   2   3
ATOM      3  C   UNL     1       2.786   7.325   3.549  1.00  0.00     0.041 C 
ATOM      4  O   UNL     1       1.817   8.125   3.630  1.00  0.00    -0.550 OA
ATOM      5  O   UNL     1       3.395   6.862   4.708  1.00  0.00    -0.550 OA
ENDBRANCH   2   3
ENDBRANCH   1   2
BRANCH   1   6
ATOM      6  C   UNL     1       4.383   5.037   0.904  1.00  0.00     0.000 C 
BRANCH   6   7
ATOM      7  C   UNL     1       5.621   4.128   0.981  1.00  0.00    -0.000 C 
BRANCH   7   8
ATOM      8  C   UNL     1       6.935   4.922   1.012  1.00  0.00    -0.003 C 
ATOM      9  C   UNL     1       8.042   4.202   1.782  1.00  0.00     0.004 C 
ENDBRANCH   7   8
ENDBRANCH   6   7
ENDBRANCH   1   6
TORSDOF 5
ENDMDL
MODEL 3
REMARK VINA RESULT:    -3.454      2.440      4.161
REMARK INTER + INTRA:          -4.728
REMARK INTER:                  -4.298
REMARK INTRA:                  -0.430
REMARK UNBOUND:                -0.265
REMARK SMILES CCCCCCC(=O)[O-]
REMARK SMILES IDX 5 1 6 2 7 3 8 4 9 5 4 6 3 7 2 8 1 9
REMARK H PARENT
REMARK Flexibility Score: inf
ROOT
ATOM      1  C   UNL     1       5.811   4.100   0.934  1.00  0.00     0.006 C 
ENDROOT
BRANCH   1   2
ATOM      2  C   UNL     1       6.972   4.901   1.532  1.00  0.00     0.053 C 
BRANCH   2   3
ATOM      3  C   UNL     1       7.210   6.149   0.740  1.00  0.00     0.041 C 
ATOM      4  O   UNL     1       7.608   6.076  -0.453  1.00  0.00    -0.550 OA
ATOM      5  O   UNL     1       7.040   7.392   1.334  1.00  0.00    -0.550 OA
ENDBRANCH   2   3
ENDBRANCH   1   2
BRANCH   1   6
ATOM      6  C   UNL     1       4.523   4.932   0.916  1.00  0.00     0.000 C 
BRANCH   6   7
ATOM      7  C   UNL     1       3.982   5.138   2.339  1.00  0.00    -0.000 C 
BRANCH   7   8
ATOM      8  C   UNL     1       3.557   6.590   2.605  1.00  0.00    -0.003 C 
ATOM      9  C   UNL     1       3.450   7.418   1.324  1.00  0.00     0.004 C 
ENDBRANCH   7   8
ENDBRANCH   6   7
ENDBRANCH   1   6
TORSDOF 5
ENDMDL
MODEL 4
REMARK VINA RESULT:    -3.380      2.860      4.206
REMARK INTER + INTRA:          -4.632
REMARK INTER:                  -4.210
REMARK INTRA:                  -0.422
REMARK UNBOUND:                -0.265
REMARK SMILES CCCCCCC(=O)[O-]
REMARK SMILES IDX 5 1 6 2 7 3 8 4 9 5 4 6 3 7 2 8 1 9
REMARK H PARENT
REMARK Flexibility Score: inf
ROOT
ATOM      1  C   UNL     1       4.610   4.818   0.709  1.00  0.00     0.006 C 
ENDROOT
BRANCH   1   2
ATOM      2  C   UNL     1       5.856   3.966   0.972  1.00  0.00     0.053 C 
BRANCH   2   3
ATOM      3  C   UNL     1       7.091   4.807   0.892  1.00  0.00     0.041 C 
ATOM      4  O   UNL     1       7.344   5.465  -0.152  1.00  0.00    -0.550 OA
ATOM      5  O   UNL     1       7.990   4.825   1.951  1.00  0.00    -0.550 OA
ENDBRANCH   2   3
ENDBRANCH   1   2
BRANCH   1   6
ATOM      6  C   UNL     1       4.066   5.412   2.014  1.00  0.00     0.000 C 
BRANCH   6   7
ATOM      7  C   UNL     1       3.645   6.876   1.818  1.00  0.00    -0.000 C 
BRANCH   7   8
ATOM      8  C   UNL     1       4.836   7.798   1.514  1.00  0.00    -0.003 C 
ATOM      9  C   UNL     1       5.841   7.863   2.664  1.00  0.00     0.004 C 
ENDBRANCH   7   8
ENDBRANCH   6   7
ENDBRANCH   1   6
TORSDOF 5
ENDMDL
MODEL 5
REMARK VINA RESULT:    -3.273      1.520      2.508
REMARK INTER + INTRA:          -4.495
REMARK INTER:                  -4.144
REMARK INTRA:                  -0.351
REMARK UNBOUND:                -0.265
REMARK SMILES CCCCCCC(=O)[O-]
REMARK SMILES IDX 5 1 6 2 7 3 8 4 9 5 4 6 3 7 2 8 1 9
REMARK H PARENT
REMARK Flexibility Score: inf
ROOT
ATOM      1  C   UNL     1       5.943   7.291   2.369  1.00  0.00     0.006 C 
ENDROOT
BRANCH   1   2
ATOM      2  C   UNL     1       4.564   7.942   2.517  1.00  0.00     0.053 C 
BRANCH   2   3
ATOM      3  C   UNL     1       3.590   6.976   3.114  1.00  0.00     0.041 C 
ATOM      4  O   UNL     1       2.828   6.303   2.369  1.00  0.00    -0.550 OA
ATOM      5  O   UNL     1       3.487   6.854   4.493  1.00  0.00    -0.550 OA
ENDBRANCH   2   3
ENDBRANCH   1   2
BRANCH   1   6
ATOM      6  C   UNL     1       6.230   6.943   0.903  1.00  0.00     0.000 C 
BRANCH   6   7
ATOM      7  C   UNL     1       6.886   5.558   0.786  1.00  0.00    -0.000 C 
BRANCH   7   8
ATOM      8  C   UNL     1       5.900   4.412   1.063  1.00  0.00    -0.003 C 
ATOM      9  C   UNL     1       4.680   4.448   0.143  1.00  0.00     0.004 C 
ENDBRANCH   7   8
ENDBRANCH   6   7
ENDBRANCH   1   6
TORSDOF 5
ENDMDL
MODEL 6
REMARK VINA RESULT:    -3.041     20.536     21.707
REMARK INTER + INTRA:          -4.195
REMARK INTER:                  -4.107
REMARK INTRA:                  -0.088
REMARK UNBOUND:                -0.265
REMARK SMILES CCCCCCC(=O)[O-]
REMARK SMILES IDX 5 1 6 2 7 3 8 4 9 5 4 6 3 7 2 8 1 9
REMARK H PARENT
REMARK Flexibility Score: inf
ROOT
ATOM      1  C   UNL     1      -7.010 -11.995   1.544  1.00  0.00     0.006 C 
ENDROOT
BRANCH   1   2
ATOM      2  C   UNL     1      -6.831 -12.125   3.059  1.00  0.00     0.053 C 
BRANCH   2   3
ATOM      3  C   UNL     1      -5.807 -11.150   3.551  1.00  0.00     0.041 C 
ATOM      4  O   UNL     1      -5.552 -11.065   4.782  1.00  0.00    -0.550 OA
ATOM      5  O   UNL     1      -5.171 -10.300   2.656  1.00  0.00    -0.550 OA
ENDBRANCH   2   3
ENDBRANCH   1   2
BRANCH   1   6
ATOM      6  C   UNL     1      -8.487 -12.125   1.153  1.00  0.00     0.000 C 
BRANCH   6   7
ATOM      7  C   UNL     1      -8.756 -11.461  -0.206  1.00  0.00    -0.000 C 
BRANCH   7   8
ATOM      8  C   UNL     1     -10.250 -11.426  -0.561  1.00  0.00    -0.003 C 
ATOM      9  C   UNL     1     -10.716 -10.044  -1.021  1.00  0.00     0.004 C 
ENDBRANCH   7   8
ENDBRANCH   6   7
ENDBRANCH   1   6
TORSDOF 5
ENDMDL
MODEL 7
REMARK VINA RESULT:    -2.961      2.662      3.607
REMARK INTER + INTRA:          -4.091
REMARK INTER:                  -3.711
REMARK INTRA:                  -0.379
REMARK UNBOUND:                -0.265
REMARK SMILES CCCCCCC(=O)[O-]
REMARK SMILES IDX 5 1 6 2 7 3 8 4 9 5 4 6 3 7 2 8 1 9
REMARK H PARENT
REMARK Flexibility Score: inf
ROOT
ATOM      1  C   UNL     1       5.024   7.563   2.064  1.00  0.00     0.006 C 
ENDROOT
BRANCH   1   2
ATOM      2  C   UNL     1       5.445   8.125   0.703  1.00  0.00     0.053 C 
BRANCH   2   3
ATOM      3  C   UNL     1       6.773   7.570   0.295  1.00  0.00     0.041 C 
ATOM      4  O   UNL     1       7.028   7.366  -0.922  1.00  0.00    -0.550 OA
ATOM      5  O   UNL     1       7.711   7.230   1.261  1.00  0.00    -0.550 OA
ENDBRANCH   2   3
ENDBRANCH   1   2
BRANCH   1   6
ATOM      6  C   UNL     1       3.823   6.621   1.922  1.00  0.00     0.000 C 
BRANCH   6   7
ATOM      7  C   UNL     1       4.248   5.156   2.110  1.00  0.00    -0.000 C 
BRANCH   7   8
ATOM      8  C   UNL     1       4.813   4.534   0.824  1.00  0.00    -0.003 C 
ATOM      9  C   UNL     1       6.235   4.003   0.999  1.00  0.00     0.004 C 
ENDBRANCH   7   8
ENDBRANCH   6   7
ENDBRANCH   1   6
TORSDOF 5
ENDMDL
MODEL 8
REMARK VINA RESULT:    -2.635      3.087      4.743
REMARK INTER + INTRA:          -3.670
REMARK INTER:                  -3.452
REMARK INTRA:                  -0.218
REMARK UNBOUND:                -0.265
REMARK SMILES CCCCCCC(=O)[O-]
REMARK SMILES IDX 5 1 6 2 7 3 8 4 9 5 4 6 3 7 2 8 1 9
REMARK H PARENT
REMARK Flexibility Score: inf
ROOT
ATOM      1  C   UNL     1       5.388   7.243   1.936  1.00  0.00     0.006 C 
ENDROOT
BRANCH   1   2
ATOM      2  C   UNL     1       6.756   7.435   1.274  1.00  0.00     0.053 C 
BRANCH   2   3
ATOM      3  C   UNL     1       6.795   6.749  -0.055  1.00  0.00     0.041 C 
ATOM      4  O   UNL     1       6.736   5.492  -0.121  1.00  0.00    -0.550 OA
ATOM      5  O   UNL     1       6.949   7.493  -1.217  1.00  0.00    -0.550 OA
ENDBRANCH   2   3
ENDBRANCH   1   2
BRANCH   1   6
ATOM      6  C   UNL     1       4.259   7.706   1.008  1.00  0.00     0.000 C 
BRANCH   6   7
ATOM      7  C   UNL     1       2.913   7.729   1.750  1.00  0.00    -0.000 C 
BRANCH   7   8
ATOM      8  C   UNL     1       3.008   7.141   3.165  1.00  0.00    -0.003 C 
ATOM      9  C   UNL     1       2.157   7.904   4.181  1.00  0.00     0.004 C 
ENDBRANCH   7   8
ENDBRANCH   6   7
ENDBRANCH   1   6
TORSDOF 5
ENDMDL
