MODEL 1
REMARK VINA RESULT:    -3.020      0.000      0.000
REMARK INTER + INTRA:          -3.736
REMARK INTER:                  -3.638
REMARK INTRA:                  -0.097
REMARK UNBOUND:                -0.097
REMARK SMILES CC[C@H](C)[C@H]([NH3+])C(=O)[O-]
REMARK SMILES IDX 3 1 4 2 5 3 6 4 7 8 8 9 9 10 2 11 1 12
REMARK H PARENT 6 5 6 6 6 7
REMARK Flexibility Score: inf
ROOT
ATOM      1  C   UNL     1     150.900 144.325 133.509  1.00  0.00     0.050 C 
ATOM      2  C   UNL     1     152.272 144.029 132.875  1.00  0.00     0.014 C 
ENDROOT
BRANCH   1   3
ATOM      3  C   UNL     1     150.343 145.752 133.201  1.00  0.00     0.230 C 
BRANCH   3   4
ATOM      4  N   UNL     1     151.255 146.804 133.673  1.00  0.00    -0.350 N 
ATOM      5  H   UNL     1     151.919 147.061 132.906  1.00  0.00     0.345 HD
ATOM      6  H   UNL     1     151.818 146.457 134.483  1.00  0.00     0.345 HD
ATOM      7  H   UNL     1     150.732 147.662 133.959  1.00  0.00     0.345 HD
ENDBRANCH   3   4
BRANCH   3   8
ATOM      8  C   UNL     1     148.951 145.994 133.732  1.00  0.00     0.099 C 
ATOM      9  O   UNL     1     147.986 145.273 133.367  1.00  0.00    -0.544 OA
ATOM     10  O   UNL     1     148.731 147.014 134.651  1.00  0.00    -0.544 OA
ENDBRANCH   3   8
ENDBRANCH   1   3
BRANCH   1  11
ATOM     11  C   UNL     1     150.850 143.957 135.019  1.00  0.00     0.006 C 
ATOM     12  C   UNL     1     150.810 142.458 135.336  1.00  0.00     0.004 C 
ENDBRANCH   1  11
TORSDOF 4
ENDMDL
MODEL 2
REMARK VINA RESULT:    -2.942      1.918      2.500
REMARK INTER + INTRA:          -3.641
REMARK INTER:                  -3.556
REMARK INTRA:                  -0.084
REMARK UNBOUND:                -0.097
REMARK SMILES CC[C@H](C)[C@H]([NH3+])C(=O)[O-]
REMARK SMILES IDX 3 1 4 2 5 3 6 4 7 8 8 9 9 10 2 11 1 12
REMARK H PARENT 6 5 6 6 6 7
REMARK Flexibility Score: inf
ROOT
ATOM      1  C   UNL     1     150.027 145.107 134.015  1.00  0.00     0.050 C 
ATOM      2  C   UNL     1     148.606 144.544 133.832  1.00  0.00     0.014 C 
ENDROOT
BRANCH   1   3
ATOM      3  C   UNL     1     150.091 146.663 134.149  1.00  0.00     0.230 C 
BRANCH   3   4
ATOM      4  N   UNL     1     151.222 147.225 133.397  1.00  0.00    -0.350 N 
ATOM      5  H   UNL     1     150.870 147.938 132.716  1.00  0.00     0.345 HD
ATOM      6  H   UNL     1     151.706 146.473 132.854  1.00  0.00     0.345 HD
ATOM      7  H   UNL     1     151.910 147.688 134.033  1.00  0.00     0.345 HD
ENDBRANCH   3   4
BRANCH   3   8
ATOM      8  C   UNL     1     150.119 147.154 135.575  1.00  0.00     0.099 C 
ATOM      9  O   UNL     1     149.814 146.389 136.527  1.00  0.00    -0.544 OA
ATOM     10  O   UNL     1     150.505 148.461 135.847  1.00  0.00    -0.544 OA
ENDBRANCH   3   8
ENDBRANCH   1   3
BRANCH   1  11
ATOM     11  C   UNL     1     151.033 144.537 132.975  1.00  0.00     0.006 C 
ATOM     12  C   UNL     1     152.065 143.546 133.525  1.00  0.00     0.004 C 
ENDBRANCH   1  11
TORSDOF 4
ENDMDL
MODEL 3
REMARK VINA RESULT:    -2.874      2.916      4.131
REMARK INTER + INTRA:          -3.560
REMARK INTER:                  -3.472
REMARK INTRA:                  -0.088
REMARK UNBOUND:                -0.097
REMARK SMILES CC[C@H](C)[C@H]([NH3+])C(=O)[O-]
REMARK SMILES IDX 3 1 4 2 5 3 6 4 7 8 8 9 9 10 2 11 1 12
REMARK H PARENT 6 5 6 6 6 7
REMARK Flexibility Score: inf
ROOT
ATOM      1  C   UNL     1     150.310 144.241 134.212  1.00  0.00     0.050 C 
ATOM      2  C   UNL     1     149.718 145.293 135.167  1.00  0.00     0.014 C 
ENDROOT
BRANCH   1   3
ATOM      3  C   UNL     1     151.310 143.248 134.890  1.00  0.00     0.230 C 
BRANCH   3   4
ATOM      4  N   UNL     1     152.358 142.813 133.956  1.00  0.00    -0.350 N 
ATOM      5  H   UNL     1     151.918 142.464 133.073  1.00  0.00     0.345 HD
ATOM      6  H   UNL     1     152.912 142.029 134.372  1.00  0.00     0.345 HD
ATOM      7  H   UNL     1     153.003 143.600 133.714  1.00  0.00     0.345 HD
ENDBRANCH   3   4
BRANCH   3   8
ATOM      8  C   UNL     1     150.648 142.049 135.523  1.00  0.00     0.099 C 
ATOM      9  O   UNL     1     151.279 141.314 136.327  1.00  0.00    -0.544 OA
ATOM     10  O   UNL     1     149.320 141.761 135.233  1.00  0.00    -0.544 OA
ENDBRANCH   3   8
ENDBRANCH   1   3
BRANCH   1  11
ATOM     11  C   UNL     1     150.859 144.867 132.900  1.00  0.00     0.006 C 
ATOM     12  C   UNL     1     150.930 146.398 132.875  1.00  0.00     0.004 C 
ENDBRANCH   1  11
TORSDOF 4
ENDMDL
MODEL 4
REMARK VINA RESULT:    -2.747      2.504      3.324
REMARK INTER + INTRA:          -3.406
REMARK INTER:                  -3.335
REMARK INTRA:                  -0.071
REMARK UNBOUND:                -0.097
REMARK SMILES CC[C@H](C)[C@H]([NH3+])C(=O)[O-]
REMARK SMILES IDX 3 1 4 2 5 3 6 4 7 8 8 9 9 10 2 11 1 12
REMARK H PARENT 6 5 6 6 6 7
REMARK Flexibility Score: inf
ROOT
ATOM      1  C   UNL     1     150.640 146.663 134.274  1.00  0.00     0.050 C 
ATOM      2  C   UNL     1     149.950 145.620 135.170  1.00  0.00     0.014 C 
ENDROOT
BRANCH   1   3
ATOM      3  C   UNL     1     149.887 148.030 134.180  1.00  0.00     0.230 C 
BRANCH   3   4
ATOM      4  N   UNL     1     150.450 148.888 133.127  1.00  0.00    -0.350 N 
ATOM      5  H   UNL     1     151.198 149.496 133.535  1.00  0.00     0.345 HD
ATOM      6  H   UNL     1     149.708 149.510 132.732  1.00  0.00     0.345 HD
ATOM      7  H   UNL     1     150.869 148.320 132.357  1.00  0.00     0.345 HD
ENDBRANCH   3   4
BRANCH   3   8
ATOM      8  C   UNL     1     149.820 148.783 135.485  1.00  0.00     0.099 C 
ATOM      9  O   UNL     1     150.826 148.859 136.239  1.00  0.00    -0.544 OA
ATOM     10  O   UNL     1     148.641 149.420 135.855  1.00  0.00    -0.544 OA
ENDBRANCH   3   8
ENDBRANCH   1   3
BRANCH   1  11
ATOM     11  C   UNL     1     151.043 146.086 132.888  1.00  0.00     0.006 C 
ATOM     12  C   UNL     1     151.572 144.648 132.897  1.00  0.00     0.004 C 
ENDBRANCH   1  11
TORSDOF 4
ENDMDL
MODEL 5
REMARK VINA RESULT:    -2.733      2.533      4.189
REMARK INTER + INTRA:          -3.390
REMARK INTER:                  -3.238
REMARK INTRA:                  -0.151
REMARK UNBOUND:                -0.097
REMARK SMILES CC[C@H](C)[C@H]([NH3+])C(=O)[O-]
REMARK SMILES IDX 3 1 4 2 5 3 6 4 7 8 8 9 9 10 2 11 1 12
REMARK H PARENT 6 5 6 6 6 7
REMARK Flexibility Score: inf
ROOT
ATOM      1  C   UNL     1     149.779 148.279 135.002  1.00  0.00     0.050 C 
ATOM      2  C   UNL     1     150.483 148.647 136.321  1.00  0.00     0.014 C 
ENDROOT
BRANCH   1   3
ATOM      3  C   UNL     1     150.225 146.908 134.395  1.00  0.00     0.230 C 
BRANCH   3   4
ATOM      4  N   UNL     1     151.308 147.077 133.415  1.00  0.00    -0.350 N 
ATOM      5  H   UNL     1     150.919 147.001 132.447  1.00  0.00     0.345 HD
ATOM      6  H   UNL     1     152.025 146.324 133.535  1.00  0.00     0.345 HD
ATOM      7  H   UNL     1     151.769 148.010 133.514  1.00  0.00     0.345 HD
ENDBRANCH   3   4
BRANCH   3   8
ATOM      8  C   UNL     1     149.097 146.110 133.791  1.00  0.00     0.099 C 
ATOM      9  O   UNL     1     149.331 145.143 133.020  1.00  0.00    -0.544 OA
ATOM     10  O   UNL     1     147.781 146.430 134.103  1.00  0.00    -0.544 OA
ENDBRANCH   3   8
ENDBRANCH   1   3
BRANCH   1  11
ATOM     11  C   UNL     1     149.797 149.443 133.972  1.00  0.00     0.006 C 
ATOM     12  C   UNL     1     148.436 149.822 133.377  1.00  0.00     0.004 C 
ENDBRANCH   1  11
TORSDOF 4
ENDMDL
MODEL 6
REMARK VINA RESULT:    -2.680      2.553      3.789
REMARK INTER + INTRA:          -3.326
REMARK INTER:                  -3.250
REMARK INTRA:                  -0.076
REMARK UNBOUND:                -0.097
REMARK SMILES CC[C@H](C)[C@H]([NH3+])C(=O)[O-]
REMARK SMILES IDX 3 1 4 2 5 3 6 4 7 8 8 9 9 10 2 11 1 12
REMARK H PARENT 6 5 6 6 6 7
REMARK Flexibility Score: inf
ROOT
ATOM      1  C   UNL     1     149.187 144.658 133.635  1.00  0.00     0.050 C 
ATOM      2  C   UNL     1     148.256 143.887 134.588  1.00  0.00     0.014 C 
ENDROOT
BRANCH   1   3
ATOM      3  C   UNL     1     150.634 144.876 134.185  1.00  0.00     0.230 C 
BRANCH   3   4
ATOM      4  N   UNL     1     151.249 146.088 133.625  1.00  0.00    -0.350 N 
ATOM      5  H   UNL     1     150.627 146.485 132.883  1.00  0.00     0.345 HD
ATOM      6  H   UNL     1     152.169 145.857 133.185  1.00  0.00     0.345 HD
ATOM      7  H   UNL     1     151.392 146.817 134.361  1.00  0.00     0.345 HD
ENDBRANCH   3   4
BRANCH   3   8
ATOM      8  C   UNL     1     151.548 143.692 133.990  1.00  0.00     0.099 C 
ATOM      9  O   UNL     1     151.559 142.742 134.816  1.00  0.00    -0.544 OA
ATOM     10  O   UNL     1     152.377 143.636 132.875  1.00  0.00    -0.544 OA
ENDBRANCH   3   8
ENDBRANCH   1   3
BRANCH   1  11
ATOM     11  C   UNL     1     148.535 145.958 133.086  1.00  0.00     0.006 C 
ATOM     12  C   UNL     1     147.341 146.490 133.887  1.00  0.00     0.004 C 
ENDBRANCH   1  11
TORSDOF 4
ENDMDL
MODEL 7
REMARK VINA RESULT:    -2.642      2.942      3.401
REMARK INTER + INTRA:          -3.280
REMARK INTER:                  -3.126
REMARK INTRA:                  -0.154
REMARK UNBOUND:                -0.097
REMARK SMILES CC[C@H](C)[C@H]([NH3+])C(=O)[O-]
REMARK SMILES IDX 3 1 4 2 5 3 6 4 7 8 8 9 9 10 2 11 1 12
REMARK H PARENT 6 5 6 6 6 7
REMARK Flexibility Score: inf
ROOT
ATOM      1  C   UNL     1     148.979 146.555 134.332  1.00  0.00     0.050 C 
ATOM      2  C   UNL     1     148.229 145.496 133.502  1.00  0.00     0.014 C 
ENDROOT
BRANCH   1   3
ATOM      3  C   UNL     1     149.876 147.517 133.488  1.00  0.00     0.230 C 
BRANCH   3   4
ATOM      4  N   UNL     1     151.304 147.203 133.645  1.00  0.00    -0.350 N 
ATOM      5  H   UNL     1     151.877 147.928 133.156  1.00  0.00     0.345 HD
ATOM      6  H   UNL     1     151.519 146.275 133.213  1.00  0.00     0.345 HD
ATOM      7  H   UNL     1     151.581 147.187 134.653  1.00  0.00     0.345 HD
ENDBRANCH   3   4
BRANCH   3   8
ATOM      8  C   UNL     1     149.632 148.980 133.764  1.00  0.00     0.099 C 
ATOM      9  O   UNL     1     150.161 149.547 134.756  1.00  0.00    -0.544 OA
ATOM     10  O   UNL     1     148.830 149.720 132.902  1.00  0.00    -0.544 OA
ENDBRANCH   3   8
ENDBRANCH   1   3
BRANCH   1  11
ATOM     11  C   UNL     1     149.715 145.941 135.556  1.00  0.00     0.006 C 
ATOM     12  C   UNL     1     149.602 146.732 136.864  1.00  0.00     0.004 C 
ENDBRANCH   1  11
TORSDOF 4
ENDMDL
MODEL 8
REMARK VINA RESULT:    -1.566      1.577      2.182
REMARK INTER + INTRA:          -1.983
REMARK INTER:                  -1.952
REMARK INTRA:                  -0.032
REMARK UNBOUND:                -0.097
REMARK SMILES CC[C@H](C)[C@H]([NH3+])C(=O)[O-]
REMARK SMILES IDX 3 1 4 2 5 3 6 4 7 8 8 9 9 10 2 11 1 12
REMARK H PARENT 6 5 6 6 6 7
REMARK Flexibility Score: inf
ROOT
ATOM      1  C   UNL     1     150.802 146.323 133.761  1.00  0.00     0.050 C 
ATOM      2  C   UNL     1     150.176 145.879 135.096  1.00  0.00     0.014 C 
ENDROOT
BRANCH   1   3
ATOM      3  C   UNL     1     149.970 147.397 132.986  1.00  0.00     0.230 C 
BRANCH   3   4
ATOM      4  N   UNL     1     150.502 148.750 133.199  1.00  0.00    -0.350 N 
ATOM      5  H   UNL     1     151.150 148.746 134.021  1.00  0.00     0.345 HD
ATOM      6  H   UNL     1     149.723 149.417 133.406  1.00  0.00     0.345 HD
ATOM      7  H   UNL     1     151.031 149.088 132.363  1.00  0.00     0.345 HD
ENDBRANCH   3   4
BRANCH   3   8
ATOM      8  C   UNL     1     148.493 147.364 133.290  1.00  0.00     0.099 C 
ATOM      9  O   UNL     1     147.774 146.409 132.896  1.00  0.00    -0.544 OA
ATOM     10  O   UNL     1     147.919 148.390 134.032  1.00  0.00    -0.544 OA
ENDBRANCH   3   8
ENDBRANCH   1   3
BRANCH   1  11
ATOM     11  C   UNL     1     151.232 145.120 132.875  1.00  0.00     0.006 C 
ATOM     12  C   UNL     1     151.707 143.875 133.632  1.00  0.00     0.004 C 
ENDBRANCH   1  11
TORSDOF 4
ENDMDL
MODEL 9
REMARK VINA RESULT:    -1.356      1.945      2.462
REMARK INTER + INTRA:          -1.731
REMARK INTER:                  -1.632
REMARK INTRA:                  -0.098
REMARK UNBOUND:                -0.097
REMARK SMILES CC[C@H](C)[C@H]([NH3+])C(=O)[O-]
REMARK SMILES IDX 3 1 4 2 5 3 6 4 7 8 8 9 9 10 2 11 1 12
REMARK H PARENT 6 5 6 6 6 7
REMARK Flexibility Score: inf
ROOT
ATOM      1  C   UNL     1     149.997 145.470 133.059  1.00  0.00     0.050 C 
ATOM      2  C   UNL     1     150.874 146.722 132.875  1.00  0.00     0.014 C 
ENDROOT
BRANCH   1   3
ATOM      3  C   UNL     1     148.649 145.733 133.807  1.00  0.00     0.230 C 
BRANCH   3   4
ATOM      4  N   UNL     1     147.580 146.118 132.875  1.00  0.00    -0.350 N 
ATOM      5  H   UNL     1     147.676 147.131 132.632  1.00  0.00     0.345 HD
ATOM      6  H   UNL     1     146.644 145.982 133.322  1.00  0.00     0.345 HD
ATOM      7  H   UNL     1     147.624 145.561 131.992  1.00  0.00     0.345 HD
ENDBRANCH   3   4
BRANCH   3   8
ATOM      8  C   UNL     1     148.755 146.741 134.924  1.00  0.00     0.099 C 
ATOM      9  O   UNL     1     149.315 146.444 136.011  1.00  0.00    -0.544 OA
ATOM     10  O   UNL     1     148.245 148.023 134.747  1.00  0.00    -0.544 OA
ENDBRANCH   3   8
ENDBRANCH   1   3
BRANCH   1  11
ATOM     11  C   UNL     1     150.793 144.264 133.631  1.00  0.00     0.006 C 
ATOM     12  C   UNL     1     152.098 143.925 132.902  1.00  0.00     0.004 C 
ENDBRANCH   1  11
TORSDOF 4
ENDMDL
