MODEL 1
REMARK VINA RESULT:    -3.898      0.000      0.000
REMARK INTER + INTRA:         -10.060
REMARK INTER:                  -7.089
REMARK INTRA:                  -2.971
REMARK UNBOUND:                -2.971
REMARK SMILES CCCCCC=CCC=CCCCCCCCC(=O)[O-]
REMARK SMILES IDX 11 1 12 2 13 3 14 4 15 5 16 6 17 7 18 8 19 9 20 10 10 11
REMARK SMILES IDX 9 12 8 13 7 14 6 15 5 16 4 17 3 18 2 19 1 20
REMARK H PARENT
REMARK Flexibility Score: inf
ROOT
ATOM      1  C   UNL     1     110.012 103.657  98.263  1.00  0.00     0.027 C 
ENDROOT
BRANCH   1   2
ATOM      2  C   UNL     1     110.610 105.037  97.948  1.00  0.00     0.004 C 
BRANCH   2   3
ATOM      3  C   UNL     1     110.188 105.545  96.558  1.00  0.00     0.000 C 
BRANCH   3   4
ATOM      4  C   UNL     1     111.380 106.019  95.712  1.00  0.00     0.000 C 
BRANCH   4   5
ATOM      5  C   UNL     1     112.382 106.861  96.520  1.00  0.00     0.000 C 
BRANCH   5   6
ATOM      6  C   UNL     1     112.607 108.255  95.913  1.00  0.00     0.006 C 
BRANCH   6   7
ATOM      7  C   UNL     1     111.457 108.694  94.997  1.00  0.00     0.053 C 
BRANCH   7   8
ATOM      8  C   UNL     1     110.551 109.643  95.714  1.00  0.00     0.041 C 
ATOM      9  O   UNL     1     110.643 110.883  95.514  1.00  0.00    -0.550 OA
ATOM     10  O   UNL     1     109.568 109.155  96.567  1.00  0.00    -0.550 OA
ENDBRANCH   7   8
ENDBRANCH   6   7
ENDBRANCH   5   6
ENDBRANCH   4   5
ENDBRANCH   3   4
ENDBRANCH   2   3
ENDBRANCH   1   2
BRANCH   1  11
ATOM     11  C   UNL     1     108.535 103.598  97.958  1.00  0.00    -0.031 C 
ATOM     12  C   UNL     1     107.979 102.786  97.037  1.00  0.00    -0.027 C 
BRANCH  12  13
ATOM     13  C   UNL     1     108.743 101.772  96.225  1.00  0.00     0.054 C 
BRANCH  13  14
ATOM     14  C   UNL     1     109.262 102.380  94.946  1.00  0.00    -0.027 C 
ATOM     15  C   UNL     1     110.562 102.367  94.605  1.00  0.00    -0.031 C 
BRANCH  15  16
ATOM     16  C   UNL     1     111.632 101.744  95.470  1.00  0.00     0.027 C 
BRANCH  16  17
ATOM     17  C   UNL     1     112.847 102.667  95.645  1.00  0.00     0.004 C 
BRANCH  17  18
ATOM     18  C   UNL     1     113.393 102.636  97.084  1.00  0.00     0.000 C 
BRANCH  18  19
ATOM     19  C   UNL     1     114.330 103.816  97.383  1.00  0.00    -0.003 C 
ATOM     20  C   UNL     1     114.130 104.388  98.786  1.00  0.00     0.004 C 
ENDBRANCH  18  19
ENDBRANCH  17  18
ENDBRANCH  16  17
ENDBRANCH  15  16
ENDBRANCH  13  14
ENDBRANCH  12  13
ENDBRANCH   1  11
TORSDOF 14
ENDMDL
MODEL 2
REMARK VINA RESULT:    -3.885      1.356      3.052
REMARK INTER + INTRA:         -10.035
REMARK INTER:                  -6.834
REMARK INTRA:                  -3.201
REMARK UNBOUND:                -2.971
REMARK SMILES CCCCCC=CCC=CCCCCCCCC(=O)[O-]
REMARK SMILES IDX 11 1 12 2 13 3 14 4 15 5 16 6 17 7 18 8 19 9 20 10 10 11
REMARK SMILES IDX 9 12 8 13 7 14 6 15 5 16 4 17 3 18 2 19 1 20
REMARK H PARENT
REMARK Flexibility Score: inf
ROOT
ATOM      1  C   UNL     1     112.115 102.266  98.675  1.00  0.00     0.027 C 
ENDROOT
BRANCH   1   2
ATOM      2  C   UNL     1     112.551 103.187  97.526  1.00  0.00     0.004 C 
BRANCH   2   3
ATOM      3  C   UNL     1     113.090 104.534  98.037  1.00  0.00     0.000 C 
BRANCH   3   4
ATOM      4  C   UNL     1     112.621 105.723  97.184  1.00  0.00     0.000 C 
BRANCH   4   5
ATOM      5  C   UNL     1     111.221 106.222  97.585  1.00  0.00     0.000 C 
BRANCH   5   6
ATOM      6  C   UNL     1     110.271 106.341  96.382  1.00  0.00     0.006 C 
BRANCH   6   7
ATOM      7  C   UNL     1     110.869 107.163  95.233  1.00  0.00     0.053 C 
BRANCH   7   8
ATOM      8  C   UNL     1     110.753 108.626  95.522  1.00  0.00     0.041 C 
ATOM      9  O   UNL     1     111.578 109.438  95.026  1.00  0.00    -0.550 OA
ATOM     10  O   UNL     1     109.703 109.100  96.298  1.00  0.00    -0.550 OA
ENDBRANCH   7   8
ENDBRANCH   6   7
ENDBRANCH   5   6
ENDBRANCH   4   5
ENDBRANCH   3   4
ENDBRANCH   2   3
ENDBRANCH   1   2
BRANCH   1  11
ATOM     11  C   UNL     1     111.455 103.033  99.796  1.00  0.00    -0.031 C 
ATOM     12  C   UNL     1     110.123 103.156  99.954  1.00  0.00    -0.027 C 
BRANCH  12  13
ATOM     13  C   UNL     1     109.097 102.489  99.074  1.00  0.00     0.054 C 
BRANCH  13  14
ATOM     14  C   UNL     1     108.607 103.430  98.002  1.00  0.00    -0.027 C 
ATOM     15  C   UNL     1     108.546 103.091  96.703  1.00  0.00    -0.031 C 
BRANCH  15  16
ATOM     16  C   UNL     1     108.965 101.735  96.187  1.00  0.00     0.027 C 
BRANCH  16  17
ATOM     17  C   UNL     1     110.103 101.829  95.161  1.00  0.00     0.004 C 
BRANCH  17  18
ATOM     18  C   UNL     1     110.192 103.226  94.524  1.00  0.00     0.000 C 
BRANCH  18  19
ATOM     19  C   UNL     1     111.605 103.553  94.016  1.00  0.00    -0.003 C 
ATOM     20  C   UNL     1     112.475 102.306  93.851  1.00  0.00     0.004 C 
ENDBRANCH  18  19
ENDBRANCH  17  18
ENDBRANCH  16  17
ENDBRANCH  15  16
ENDBRANCH  13  14
ENDBRANCH  12  13
ENDBRANCH   1  11
TORSDOF 14
ENDMDL
MODEL 3
REMARK VINA RESULT:    -3.882      1.245      3.516
REMARK INTER + INTRA:         -10.030
REMARK INTER:                  -7.538
REMARK INTRA:                  -2.492
REMARK UNBOUND:                -2.971
REMARK SMILES CCCCCC=CCC=CCCCCCCCC(=O)[O-]
REMARK SMILES IDX 11 1 12 2 13 3 14 4 15 5 16 6 17 7 18 8 19 9 20 10 10 11
REMARK SMILES IDX 9 12 8 13 7 14 6 15 5 16 4 17 3 18 2 19 1 20
REMARK H PARENT
REMARK Flexibility Score: inf
ROOT
ATOM      1  C   UNL     1     112.140 104.432  98.385  1.00  0.00     0.027 C 
ENDROOT
BRANCH   1   2
ATOM      2  C   UNL     1     111.576 105.783  97.922  1.00  0.00     0.004 C 
BRANCH   2   3
ATOM      3  C   UNL     1     112.464 106.444  96.853  1.00  0.00     0.000 C 
BRANCH   3   4
ATOM      4  C   UNL     1     111.665 106.918  95.628  1.00  0.00     0.000 C 
BRANCH   4   5
ATOM      5  C   UNL     1     110.147 106.917  95.876  1.00  0.00     0.000 C 
BRANCH   5   6
ATOM      6  C   UNL     1     109.510 108.297  95.646  1.00  0.00     0.006 C 
BRANCH   6   7
ATOM      7  C   UNL     1     110.067 109.371  96.590  1.00  0.00     0.053 C 
BRANCH   7   8
ATOM      8  C   UNL     1     109.116 110.521  96.691  1.00  0.00     0.041 C 
ATOM      9  O   UNL     1     108.289 110.578  97.639  1.00  0.00    -0.550 OA
ATOM     10  O   UNL     1     109.176 111.556  95.767  1.00  0.00    -0.550 OA
ENDBRANCH   7   8
ENDBRANCH   6   7
ENDBRANCH   5   6
ENDBRANCH   4   5
ENDBRANCH   3   4
ENDBRANCH   2   3
ENDBRANCH   1   2
BRANCH   1  11
ATOM     11  C   UNL     1     113.498 104.151  97.789  1.00  0.00    -0.031 C 
ATOM     12  C   UNL     1     113.744 103.202  96.865  1.00  0.00    -0.027 C 
BRANCH  12  13
ATOM     13  C   UNL     1     112.686 102.326  96.244  1.00  0.00     0.054 C 
BRANCH  13  14
ATOM     14  C   UNL     1     112.563 102.588  94.764  1.00  0.00    -0.027 C 
ATOM     15  C   UNL     1     111.474 103.145  94.208  1.00  0.00    -0.031 C 
BRANCH  15  16
ATOM     16  C   UNL     1     110.264 103.561  95.009  1.00  0.00     0.027 C 
BRANCH  16  17
ATOM     17  C   UNL     1     109.192 102.462  95.056  1.00  0.00     0.004 C 
BRANCH  17  18
ATOM     18  C   UNL     1     108.528 102.361  96.441  1.00  0.00     0.000 C 
BRANCH  18  19
ATOM     19  C   UNL     1     108.679 103.651  97.262  1.00  0.00    -0.003 C 
ATOM     20  C   UNL     1     108.642 103.400  98.769  1.00  0.00     0.004 C 
ENDBRANCH  18  19
ENDBRANCH  17  18
ENDBRANCH  16  17
ENDBRANCH  15  16
ENDBRANCH  13  14
ENDBRANCH  12  13
ENDBRANCH   1  11
TORSDOF 14
ENDMDL
MODEL 4
REMARK VINA RESULT:    -3.828      1.628      2.704
REMARK INTER + INTRA:          -9.932
REMARK INTER:                  -6.778
REMARK INTRA:                  -3.154
REMARK UNBOUND:                -2.971
REMARK SMILES CCCCCC=CCC=CCCCCCCCC(=O)[O-]
REMARK SMILES IDX 11 1 12 2 13 3 14 4 15 5 16 6 17 7 18 8 19 9 20 10 10 11
REMARK SMILES IDX 9 12 8 13 7 14 6 15 5 16 4 17 3 18 2 19 1 20
REMARK H PARENT
REMARK Flexibility Score: inf
ROOT
ATOM      1  C   UNL     1     108.567 103.828  98.398  1.00  0.00     0.027 C 
ENDROOT
BRANCH   1   2
ATOM      2  C   UNL     1     109.428 103.272  99.543  1.00  0.00     0.004 C 
BRANCH   2   3
ATOM      3  C   UNL     1     110.688 104.121  99.784  1.00  0.00     0.000 C 
BRANCH   3   4
ATOM      4  C   UNL     1     110.840 105.259  98.762  1.00  0.00     0.000 C 
BRANCH   4   5
ATOM      5  C   UNL     1     112.172 105.191  97.994  1.00  0.00     0.000 C 
BRANCH   5   6
ATOM      6  C   UNL     1     112.352 106.365  97.019  1.00  0.00     0.006 C 
BRANCH   6   7
ATOM      7  C   UNL     1     111.176 107.350  97.054  1.00  0.00     0.053 C 
BRANCH   7   8
ATOM      8  C   UNL     1     110.851 107.824  95.673  1.00  0.00     0.041 C 
ATOM      9  O   UNL     1     111.641 108.591  95.063  1.00  0.00    -0.550 OA
ATOM     10  O   UNL     1     109.698 107.377  95.038  1.00  0.00    -0.550 OA
ENDBRANCH   7   8
ENDBRANCH   6   7
ENDBRANCH   5   6
ENDBRANCH   4   5
ENDBRANCH   3   4
ENDBRANCH   2   3
ENDBRANCH   1   2
BRANCH   1  11
ATOM     11  C   UNL     1     108.345 102.806  97.309  1.00  0.00    -0.031 C 
ATOM     12  C   UNL     1     108.872 102.883  96.072  1.00  0.00    -0.027 C 
BRANCH  12  13
ATOM     13  C   UNL     1     109.815 103.967  95.616  1.00  0.00     0.054 C 
BRANCH  13  14
ATOM     14  C   UNL     1     110.413 103.637  94.271  1.00  0.00    -0.027 C 
ATOM     15  C   UNL     1     111.640 103.109  94.127  1.00  0.00    -0.031 C 
BRANCH  15  16
ATOM     16  C   UNL     1     112.544 102.798  95.296  1.00  0.00     0.027 C 
BRANCH  16  17
ATOM     17  C   UNL     1     112.266 101.412  95.894  1.00  0.00     0.004 C 
BRANCH  17  18
ATOM     18  C   UNL     1     112.175 101.452  97.429  1.00  0.00     0.000 C 
BRANCH  18  19
ATOM     19  C   UNL     1     111.157 100.444  97.986  1.00  0.00    -0.003 C 
ATOM     20  C   UNL     1     110.458  99.644  96.886  1.00  0.00     0.004 C 
ENDBRANCH  18  19
ENDBRANCH  17  18
ENDBRANCH  16  17
ENDBRANCH  15  16
ENDBRANCH  13  14
ENDBRANCH  12  13
ENDBRANCH   1  11
TORSDOF 14
ENDMDL
MODEL 5
REMARK VINA RESULT:    -3.800      2.655      5.439
REMARK INTER + INTRA:          -9.880
REMARK INTER:                  -7.195
REMARK INTRA:                  -2.686
REMARK UNBOUND:                -2.971
REMARK SMILES CCCCCC=CCC=CCCCCCCCC(=O)[O-]
REMARK SMILES IDX 11 1 12 2 13 3 14 4 15 5 16 6 17 7 18 8 19 9 20 10 10 11
REMARK SMILES IDX 9 12 8 13 7 14 6 15 5 16 4 17 3 18 2 19 1 20
REMARK H PARENT
REMARK Flexibility Score: inf
ROOT
ATOM      1  C   UNL     1     111.856 101.039  96.427  1.00  0.00     0.027 C 
ENDROOT
BRANCH   1   2
ATOM      2  C   UNL     1     110.704 100.517  97.298  1.00  0.00     0.004 C 
BRANCH   2   3
ATOM      3  C   UNL     1     109.346 100.622  96.583  1.00  0.00     0.000 C 
BRANCH   3   4
ATOM      4  C   UNL     1     108.280 101.329  97.436  1.00  0.00     0.000 C 
BRANCH   4   5
ATOM      5  C   UNL     1     108.044 102.786  97.000  1.00  0.00     0.000 C 
BRANCH   5   6
ATOM      6  C   UNL     1     108.374 103.795  98.112  1.00  0.00     0.006 C 
BRANCH   6   7
ATOM      7  C   UNL     1     108.986 103.131  99.352  1.00  0.00     0.053 C 
BRANCH   7   8
ATOM      8  C   UNL     1     110.295 103.768  99.693  1.00  0.00     0.041 C 
ATOM      9  O   UNL     1     110.348 104.990  99.993  1.00  0.00    -0.550 OA
ATOM     10  O   UNL     1     111.453 103.001  99.730  1.00  0.00    -0.550 OA
ENDBRANCH   7   8
ENDBRANCH   6   7
ENDBRANCH   5   6
ENDBRANCH   4   5
ENDBRANCH   3   4
ENDBRANCH   2   3
ENDBRANCH   1   2
BRANCH   1  11
ATOM     11  C   UNL     1     111.741 100.570  94.996  1.00  0.00    -0.031 C 
ATOM     12  C   UNL     1     111.810 101.378  93.921  1.00  0.00    -0.027 C 
BRANCH  12  13
ATOM     13  C   UNL     1     112.078 102.860  93.988  1.00  0.00     0.054 C 
BRANCH  13  14
ATOM     14  C   UNL     1     110.792 103.642  94.076  1.00  0.00    -0.027 C 
ATOM     15  C   UNL     1     110.516 104.483  95.087  1.00  0.00    -0.031 C 
BRANCH  15  16
ATOM     16  C   UNL     1     111.465 104.725  96.237  1.00  0.00     0.027 C 
BRANCH  16  17
ATOM     17  C   UNL     1     111.346 106.150  96.798  1.00  0.00     0.004 C 
BRANCH  17  18
ATOM     18  C   UNL     1     112.073 107.180  95.915  1.00  0.00     0.000 C 
BRANCH  18  19
ATOM     19  C   UNL     1     111.101 108.039  95.091  1.00  0.00    -0.003 C 
ATOM     20  C   UNL     1     109.730 108.178  95.753  1.00  0.00     0.004 C 
ENDBRANCH  18  19
ENDBRANCH  17  18
ENDBRANCH  16  17
ENDBRANCH  15  16
ENDBRANCH  13  14
ENDBRANCH  12  13
ENDBRANCH   1  11
TORSDOF 14
ENDMDL
MODEL 6
REMARK VINA RESULT:    -3.772      1.942      3.193
REMARK INTER + INTRA:          -9.831
REMARK INTER:                  -6.776
REMARK INTRA:                  -3.055
REMARK UNBOUND:                -2.971
REMARK SMILES CCCCCC=CCC=CCCCCCCCC(=O)[O-]
REMARK SMILES IDX 11 1 12 2 13 3 14 4 15 5 16 6 17 7 18 8 19 9 20 10 10 11
REMARK SMILES IDX 9 12 8 13 7 14 6 15 5 16 4 17 3 18 2 19 1 20
REMARK H PARENT
REMARK Flexibility Score: inf
ROOT
ATOM      1  C   UNL     1     109.129 102.484  95.490  1.00  0.00     0.027 C 
ENDROOT
BRANCH   1   2
ATOM      2  C   UNL     1     109.156 102.875  96.976  1.00  0.00     0.004 C 
BRANCH   2   3
ATOM      3  C   UNL     1     109.334 104.390  97.172  1.00  0.00     0.000 C 
BRANCH   3   4
ATOM      4  C   UNL     1     110.510 104.734  98.099  1.00  0.00     0.000 C 
BRANCH   4   5
ATOM      5  C   UNL     1     111.154 106.090  97.762  1.00  0.00     0.000 C 
BRANCH   5   6
ATOM      6  C   UNL     1     110.579 106.713  96.480  1.00  0.00     0.006 C 
BRANCH   6   7
ATOM      7  C   UNL     1     111.634 106.880  95.378  1.00  0.00     0.053 C 
BRANCH   7   8
ATOM      8  C   UNL     1     112.252 108.240  95.448  1.00  0.00     0.041 C 
ATOM      9  O   UNL     1     113.451 108.375  95.808  1.00  0.00    -0.550 OA
ATOM     10  O   UNL     1     111.518 109.357  95.068  1.00  0.00    -0.550 OA
ENDBRANCH   7   8
ENDBRANCH   6   7
ENDBRANCH   5   6
ENDBRANCH   4   5
ENDBRANCH   3   4
ENDBRANCH   2   3
ENDBRANCH   1   2
BRANCH   1  11
ATOM     11  C   UNL     1     109.801 103.520  94.621  1.00  0.00    -0.031 C 
ATOM     12  C   UNL     1     111.102 103.496  94.274  1.00  0.00    -0.027 C 
BRANCH  12  13
ATOM     13  C   UNL     1     112.062 102.396  94.649  1.00  0.00     0.054 C 
BRANCH  13  14
ATOM     14  C   UNL     1     112.900 102.789  95.840  1.00  0.00    -0.027 C 
ATOM     15  C   UNL     1     112.914 102.088  96.986  1.00  0.00    -0.031 C 
BRANCH  15  16
ATOM     16  C   UNL     1     112.090 100.841  97.198  1.00  0.00     0.027 C 
BRANCH  16  17
ATOM     17  C   UNL     1     111.707 100.640  98.671  1.00  0.00     0.004 C 
BRANCH  17  18
ATOM     18  C   UNL     1     112.173 101.811  99.554  1.00  0.00     0.000 C 
BRANCH  18  19
ATOM     19  C   UNL     1     111.322 101.964 100.825  1.00  0.00    -0.003 C 
ATOM     20  C   UNL     1     111.384 103.376 101.409  1.00  0.00     0.004 C 
ENDBRANCH  18  19
ENDBRANCH  17  18
ENDBRANCH  16  17
ENDBRANCH  15  16
ENDBRANCH  13  14
ENDBRANCH  12  13
ENDBRANCH   1  11
TORSDOF 14
ENDMDL
MODEL 7
REMARK VINA RESULT:    -3.758      3.474      5.933
REMARK INTER + INTRA:          -9.805
REMARK INTER:                  -7.410
REMARK INTRA:                  -2.395
REMARK UNBOUND:                -2.971
REMARK SMILES CCCCCC=CCC=CCCCCCCCC(=O)[O-]
REMARK SMILES IDX 11 1 12 2 13 3 14 4 15 5 16 6 17 7 18 8 19 9 20 10 10 11
REMARK SMILES IDX 9 12 8 13 7 14 6 15 5 16 4 17 3 18 2 19 1 20
REMARK H PARENT
REMARK Flexibility Score: inf
ROOT
ATOM      1  C   UNL     1     109.981 102.267  98.369  1.00  0.00     0.027 C 
ENDROOT
BRANCH   1   2
ATOM      2  C   UNL     1     109.060 103.184  97.550  1.00  0.00     0.004 C 
BRANCH   2   3
ATOM      3  C   UNL     1     108.284 102.408  96.471  1.00  0.00     0.000 C 
BRANCH   3   4
ATOM      4  C   UNL     1     109.161 102.027  95.269  1.00  0.00     0.000 C 
BRANCH   4   5
ATOM      5  C   UNL     1     109.764 103.254  94.563  1.00  0.00     0.000 C 
BRANCH   5   6
ATOM      6  C   UNL     1     111.238 103.049  94.179  1.00  0.00     0.006 C 
BRANCH   6   7
ATOM      7  C   UNL     1     111.842 101.784  94.802  1.00  0.00     0.053 C 
BRANCH   7   8
ATOM      8  C   UNL     1     112.112 100.760  93.746  1.00  0.00     0.041 C 
ATOM      9  O   UNL     1     112.857 101.036  92.769  1.00  0.00    -0.550 OA
ATOM     10  O   UNL     1     111.582  99.481  93.866  1.00  0.00    -0.550 OA
ENDBRANCH   7   8
ENDBRANCH   6   7
ENDBRANCH   5   6
ENDBRANCH   4   5
ENDBRANCH   3   4
ENDBRANCH   2   3
ENDBRANCH   1   2
BRANCH   1  11
ATOM     11  C   UNL     1     109.808 102.473  99.855  1.00  0.00    -0.031 C 
ATOM     12  C   UNL     1     110.617 103.233 100.618  1.00  0.00    -0.027 C 
BRANCH  12  13
ATOM     13  C   UNL     1     111.773 104.042 100.088  1.00  0.00     0.054 C 
BRANCH  13  14
ATOM     14  C   UNL     1     111.363 105.469  99.826  1.00  0.00    -0.027 C 
ATOM     15  C   UNL     1     111.458 106.047  98.617  1.00  0.00    -0.031 C 
BRANCH  15  16
ATOM     16  C   UNL     1     111.988 105.326  97.400  1.00  0.00     0.027 C 
BRANCH  16  17
ATOM     17  C   UNL     1     111.649 106.061  96.095  1.00  0.00     0.004 C 
BRANCH  17  18
ATOM     18  C   UNL     1     110.163 106.454  96.022  1.00  0.00     0.000 C 
BRANCH  18  19
ATOM     19  C   UNL     1     109.958 107.892  95.521  1.00  0.00    -0.003 C 
ATOM     20  C   UNL     1     111.266 108.563  95.103  1.00  0.00     0.004 C 
ENDBRANCH  18  19
ENDBRANCH  17  18
ENDBRANCH  16  17
ENDBRANCH  15  16
ENDBRANCH  13  14
ENDBRANCH  12  13
ENDBRANCH   1  11
TORSDOF 14
ENDMDL
MODEL 8
REMARK VINA RESULT:    -3.747      3.489      6.068
REMARK INTER + INTRA:          -9.785
REMARK INTER:                  -7.000
REMARK INTRA:                  -2.786
REMARK UNBOUND:                -2.971
REMARK SMILES CCCCCC=CCC=CCCCCCCCC(=O)[O-]
REMARK SMILES IDX 11 1 12 2 13 3 14 4 15 5 16 6 17 7 18 8 19 9 20 10 10 11
REMARK SMILES IDX 9 12 8 13 7 14 6 15 5 16 4 17 3 18 2 19 1 20
REMARK H PARENT
REMARK Flexibility Score: inf
ROOT
ATOM      1  C   UNL     1     111.904 101.150  94.803  1.00  0.00     0.027 C 
ENDROOT
BRANCH   1   2
ATOM      2  C   UNL     1     111.774  99.950  93.853  1.00  0.00     0.004 C 
BRANCH   2   3
ATOM      3  C   UNL     1     110.411  99.249  93.992  1.00  0.00     0.000 C 
BRANCH   3   4
ATOM      4  C   UNL     1     109.258 100.237  94.233  1.00  0.00     0.000 C 
BRANCH   4   5
ATOM      5  C   UNL     1     108.476  99.931  95.522  1.00  0.00     0.000 C 
BRANCH   5   6
ATOM      6  C   UNL     1     108.391 101.144  96.462  1.00  0.00     0.006 C 
BRANCH   6   7
ATOM      7  C   UNL     1     108.813 100.811  97.899  1.00  0.00     0.053 C 
BRANCH   7   8
ATOM      8  C   UNL     1     107.937 101.525  98.879  1.00  0.00     0.041 C 
ATOM      9  O   UNL     1     106.684 101.469  98.769  1.00  0.00    -0.550 OA
ATOM     10  O   UNL     1     108.504 102.213  99.945  1.00  0.00    -0.550 OA
ENDBRANCH   7   8
ENDBRANCH   6   7
ENDBRANCH   5   6
ENDBRANCH   4   5
ENDBRANCH   3   4
ENDBRANCH   2   3
ENDBRANCH   1   2
BRANCH   1  11
ATOM     11  C   UNL     1     112.363 102.395  94.081  1.00  0.00    -0.031 C 
ATOM     12  C   UNL     1     111.634 103.522  93.967  1.00  0.00    -0.027 C 
BRANCH  12  13
ATOM     13  C   UNL     1     110.281 103.727  94.600  1.00  0.00     0.054 C 
BRANCH  13  14
ATOM     14  C   UNL     1     110.203 105.063  95.294  1.00  0.00    -0.027 C 
ATOM     15  C   UNL     1     110.317 105.203  96.626  1.00  0.00    -0.031 C 
BRANCH  15  16
ATOM     16  C   UNL     1     110.531 104.035  97.559  1.00  0.00     0.027 C 
BRANCH  16  17
ATOM     17  C   UNL     1     111.875 104.118  98.296  1.00  0.00     0.004 C 
BRANCH  17  18
ATOM     18  C   UNL     1     113.056 104.303  97.327  1.00  0.00     0.000 C 
BRANCH  18  19
ATOM     19  C   UNL     1     114.001 103.092  97.313  1.00  0.00    -0.003 C 
ATOM     20  C   UNL     1     113.454 101.907  98.109  1.00  0.00     0.004 C 
ENDBRANCH  18  19
ENDBRANCH  17  18
ENDBRANCH  16  17
ENDBRANCH  15  16
ENDBRANCH  13  14
ENDBRANCH  12  13
ENDBRANCH   1  11
TORSDOF 14
ENDMDL
MODEL 9
REMARK VINA RESULT:    -3.747      1.732      3.334
REMARK INTER + INTRA:          -9.785
REMARK INTER:                  -6.882
REMARK INTRA:                  -2.902
REMARK UNBOUND:                -2.971
REMARK SMILES CCCCCC=CCC=CCCCCCCCC(=O)[O-]
REMARK SMILES IDX 11 1 12 2 13 3 14 4 15 5 16 6 17 7 18 8 19 9 20 10 10 11
REMARK SMILES IDX 9 12 8 13 7 14 6 15 5 16 4 17 3 18 2 19 1 20
REMARK H PARENT
REMARK Flexibility Score: inf
ROOT
ATOM      1  C   UNL     1     112.642 102.321  96.668  1.00  0.00     0.027 C 
ENDROOT
BRANCH   1   2
ATOM      2  C   UNL     1     112.415 103.491  97.636  1.00  0.00     0.004 C 
BRANCH   2   3
ATOM      3  C   UNL     1     112.240 104.828  96.896  1.00  0.00     0.000 C 
BRANCH   3   4
ATOM      4  C   UNL     1     110.814 105.389  97.015  1.00  0.00     0.000 C 
BRANCH   4   5
ATOM      5  C   UNL     1     110.279 105.934  95.679  1.00  0.00     0.000 C 
BRANCH   5   6
ATOM      6  C   UNL     1     110.022 107.449  95.720  1.00  0.00     0.006 C 
BRANCH   6   7
ATOM      7  C   UNL     1     111.130 108.257  95.033  1.00  0.00     0.053 C 
BRANCH   7   8
ATOM      8  C   UNL     1     112.262 108.502  95.980  1.00  0.00     0.041 C 
ATOM      9  O   UNL     1     113.451 108.315  95.611  1.00  0.00    -0.550 OA
ATOM     10  O   UNL     1     112.006 108.988  97.257  1.00  0.00    -0.550 OA
ENDBRANCH   7   8
ENDBRANCH   6   7
ENDBRANCH   5   6
ENDBRANCH   4   5
ENDBRANCH   3   4
ENDBRANCH   2   3
ENDBRANCH   1   2
BRANCH   1  11
ATOM     11  C   UNL     1     112.565 102.758  95.224  1.00  0.00    -0.031 C 
ATOM     12  C   UNL     1     111.580 102.409  94.374  1.00  0.00    -0.027 C 
BRANCH  12  13
ATOM     13  C   UNL     1     110.378 101.585  94.757  1.00  0.00     0.054 C 
BRANCH  13  14
ATOM     14  C   UNL     1     109.155 102.452  94.922  1.00  0.00    -0.027 C 
ATOM     15  C   UNL     1     108.524 102.610  96.097  1.00  0.00    -0.031 C 
BRANCH  15  16
ATOM     16  C   UNL     1     108.974 101.933  97.370  1.00  0.00     0.027 C 
BRANCH  16  17
ATOM     17  C   UNL     1     108.771 102.822  98.605  1.00  0.00     0.004 C 
BRANCH  17  18
ATOM     18  C   UNL     1     109.677 102.400  99.776  1.00  0.00     0.000 C 
BRANCH  18  19
ATOM     19  C   UNL     1     109.917 103.543 100.774  1.00  0.00    -0.003 C 
ATOM     20  C   UNL     1     111.344 103.555 101.324  1.00  0.00     0.004 C 
ENDBRANCH  18  19
ENDBRANCH  17  18
ENDBRANCH  16  17
ENDBRANCH  15  16
ENDBRANCH  13  14
ENDBRANCH  12  13
ENDBRANCH   1  11
TORSDOF 14
ENDMDL
