MODEL 1
REMARK VINA RESULT:    -4.972      0.000      0.000
REMARK INTER + INTRA:          -9.998
REMARK INTER:                  -9.041
REMARK INTRA:                  -0.957
REMARK UNBOUND:                -0.957
REMARK SMILES CCCCCCCCCCCCCCCC(=O)[O-]
REMARK SMILES IDX 9 1 10 2 11 3 12 4 13 5 14 6 15 7 16 8 17 9 18 10 8 11 7 12
REMARK SMILES IDX 6 13 5 14 4 15 3 16 2 17 1 18
REMARK H PARENT
REMARK Flexibility Score: inf
ROOT
ATOM      1  C   UNL     1       6.261  -8.354 -22.836  1.00  0.00     0.000 C 
ENDROOT
BRANCH   1   2
ATOM      2  C   UNL     1       5.267  -8.592 -21.685  1.00  0.00     0.000 C 
BRANCH   2   3
ATOM      3  C   UNL     1       4.436  -7.341 -21.353  1.00  0.00     0.000 C 
BRANCH   3   4
ATOM      4  C   UNL     1       4.381  -7.052 -19.843  1.00  0.00     0.000 C 
BRANCH   4   5
ATOM      5  C   UNL     1       3.038  -6.443 -19.407  1.00  0.00     0.000 C 
BRANCH   5   6
ATOM      6  C   UNL     1       3.197  -5.382 -18.305  1.00  0.00     0.006 C 
BRANCH   6   7
ATOM      7  C   UNL     1       3.617  -4.018 -18.872  1.00  0.00     0.053 C 
BRANCH   7   8
ATOM      8  C   UNL     1       4.983  -3.619 -18.404  1.00  0.00     0.041 C 
ATOM      9  O   UNL     1       5.570  -2.635 -18.926  1.00  0.00    -0.550 OA
ATOM     10  O   UNL     1       5.621  -4.353 -17.412  1.00  0.00    -0.550 OA
ENDBRANCH   7   8
ENDBRANCH   6   7
ENDBRANCH   5   6
ENDBRANCH   4   5
ENDBRANCH   3   4
ENDBRANCH   2   3
ENDBRANCH   1   2
BRANCH   1  11
ATOM     11  C   UNL     1       7.248  -9.519 -23.012  1.00  0.00     0.000 C 
BRANCH  11  12
ATOM     12  C   UNL     1       6.972 -10.345 -24.281  1.00  0.00    -0.000 C 
BRANCH  12  13
ATOM     13  C   UNL     1       6.409 -11.739 -23.967  1.00  0.00    -0.000 C 
BRANCH  13  14
ATOM     14  C   UNL     1       4.911 -11.708 -23.628  1.00  0.00    -0.000 C 
BRANCH  14  15
ATOM     15  C   UNL     1       4.669 -12.120 -22.171  1.00  0.00    -0.000 C 
BRANCH  15  16
ATOM     16  C   UNL     1       3.434 -13.021 -22.051  1.00  0.00    -0.000 C 
BRANCH  16  17
ATOM     17  C   UNL     1       3.814 -14.499 -22.196  1.00  0.00    -0.003 C 
ATOM     18  C   UNL     1       5.256 -14.742 -21.760  1.00  0.00     0.004 C 
ENDBRANCH  16  17
ENDBRANCH  15  16
ENDBRANCH  14  15
ENDBRANCH  13  14
ENDBRANCH  12  13
ENDBRANCH  11  12
ENDBRANCH   1  11
TORSDOF 14
ENDMDL
MODEL 2
REMARK VINA RESULT:    -4.928      1.795      2.522
REMARK INTER + INTRA:          -9.918
REMARK INTER:                  -8.038
REMARK INTRA:                  -1.880
REMARK UNBOUND:                -0.957
REMARK SMILES CCCCCCCCCCCCCCCC(=O)[O-]
REMARK SMILES IDX 9 1 10 2 11 3 12 4 13 5 14 6 15 7 16 8 17 9 18 10 8 11 7 12
REMARK SMILES IDX 6 13 5 14 4 15 3 16 2 17 1 18
REMARK H PARENT
REMARK Flexibility Score: inf
ROOT
ATOM      1  C   UNL     1       6.299  -9.061 -22.355  1.00  0.00     0.000 C 
ENDROOT
BRANCH   1   2
ATOM      2  C   UNL     1       5.870  -7.586 -22.464  1.00  0.00     0.000 C 
BRANCH   2   3
ATOM      3  C   UNL     1       4.470  -7.333 -21.881  1.00  0.00     0.000 C 
BRANCH   3   4
ATOM      4  C   UNL     1       4.433  -7.474 -20.349  1.00  0.00     0.000 C 
BRANCH   4   5
ATOM      5  C   UNL     1       3.566  -6.397 -19.678  1.00  0.00     0.000 C 
BRANCH   5   6
ATOM      6  C   UNL     1       4.350  -5.555 -18.656  1.00  0.00     0.006 C 
BRANCH   6   7
ATOM      7  C   UNL     1       5.157  -4.436 -19.328  1.00  0.00     0.053 C 
BRANCH   7   8
ATOM      8  C   UNL     1       4.293  -3.573 -20.196  1.00  0.00     0.041 C 
ATOM      9  O   UNL     1       3.438  -2.806 -19.678  1.00  0.00    -0.550 OA
ATOM     10  O   UNL     1       4.412  -3.636 -21.578  1.00  0.00    -0.550 OA
ENDBRANCH   7   8
ENDBRANCH   6   7
ENDBRANCH   5   6
ENDBRANCH   4   5
ENDBRANCH   3   4
ENDBRANCH   2   3
ENDBRANCH   1   2
BRANCH   1  11
ATOM     11  C   UNL     1       6.954  -9.580 -23.645  1.00  0.00     0.000 C 
BRANCH  11  12
ATOM     12  C   UNL     1       6.508 -11.009 -24.004  1.00  0.00    -0.000 C 
BRANCH  12  13
ATOM     13  C   UNL     1       5.453 -11.560 -23.032  1.00  0.00    -0.000 C 
BRANCH  13  14
ATOM     14  C   UNL     1       4.042 -11.575 -23.639  1.00  0.00    -0.000 C 
BRANCH  14  15
ATOM     15  C   UNL     1       3.071 -10.746 -22.791  1.00  0.00    -0.000 C 
BRANCH  15  16
ATOM     16  C   UNL     1       3.367 -10.910 -21.295  1.00  0.00    -0.000 C 
BRANCH  16  17
ATOM     17  C   UNL     1       2.104 -10.686 -20.456  1.00  0.00    -0.003 C 
ATOM     18  C   UNL     1       1.357  -9.434 -20.908  1.00  0.00     0.004 C 
ENDBRANCH  16  17
ENDBRANCH  15  16
ENDBRANCH  14  15
ENDBRANCH  13  14
ENDBRANCH  12  13
ENDBRANCH  11  12
ENDBRANCH   1  11
TORSDOF 14
ENDMDL
MODEL 3
REMARK VINA RESULT:    -4.886      3.258      7.495
REMARK INTER + INTRA:          -9.841
REMARK INTER:                  -8.582
REMARK INTRA:                  -1.259
REMARK UNBOUND:                -0.957
REMARK SMILES CCCCCCCCCCCCCCCC(=O)[O-]
REMARK SMILES IDX 9 1 10 2 11 3 12 4 13 5 14 6 15 7 16 8 17 9 18 10 8 11 7 12
REMARK SMILES IDX 6 13 5 14 4 15 3 16 2 17 1 18
REMARK H PARENT
REMARK Flexibility Score: inf
ROOT
ATOM      1  C   UNL     1       6.226  -9.003 -22.390  1.00  0.00     0.000 C 
ENDROOT
BRANCH   1   2
ATOM      2  C   UNL     1       7.066  -9.500 -23.581  1.00  0.00     0.000 C 
BRANCH   2   3
ATOM      3  C   UNL     1       6.705 -10.935 -24.001  1.00  0.00     0.000 C 
BRANCH   3   4
ATOM      4  C   UNL     1       5.299 -11.351 -23.533  1.00  0.00     0.000 C 
BRANCH   4   5
ATOM      5  C   UNL     1       5.311 -12.652 -22.714  1.00  0.00     0.000 C 
BRANCH   5   6
ATOM      6  C   UNL     1       4.183 -12.708 -21.671  1.00  0.00     0.006 C 
BRANCH   6   7
ATOM      7  C   UNL     1       3.581 -11.322 -21.397  1.00  0.00     0.053 C 
BRANCH   7   8
ATOM      8  C   UNL     1       2.086 -11.375 -21.308  1.00  0.00     0.041 C 
ATOM      9  O   UNL     1       1.482 -10.754 -20.393  1.00  0.00    -0.550 OA
ATOM     10  O   UNL     1       1.361 -12.134 -22.218  1.00  0.00    -0.550 OA
ENDBRANCH   7   8
ENDBRANCH   6   7
ENDBRANCH   5   6
ENDBRANCH   4   5
ENDBRANCH   3   4
ENDBRANCH   2   3
ENDBRANCH   1   2
BRANCH   1  11
ATOM     11  C   UNL     1       5.869  -7.513 -22.502  1.00  0.00     0.000 C 
BRANCH  11  12
ATOM     12  C   UNL     1       4.465  -7.195 -21.956  1.00  0.00    -0.000 C 
BRANCH  12  13
ATOM     13  C   UNL     1       4.234  -7.770 -20.550  1.00  0.00    -0.000 C 
BRANCH  13  14
ATOM     14  C   UNL     1       3.587  -6.756 -19.596  1.00  0.00    -0.000 C 
BRANCH  14  15
ATOM     15  C   UNL     1       4.583  -5.659 -19.203  1.00  0.00    -0.000 C 
BRANCH  15  16
ATOM     16  C   UNL     1       3.924  -4.615 -18.293  1.00  0.00    -0.000 C 
BRANCH  16  17
ATOM     17  C   UNL     1       2.407  -4.821 -18.228  1.00  0.00    -0.003 C 
ATOM     18  C   UNL     1       1.665  -3.489 -18.301  1.00  0.00     0.004 C 
ENDBRANCH  16  17
ENDBRANCH  15  16
ENDBRANCH  14  15
ENDBRANCH  13  14
ENDBRANCH  12  13
ENDBRANCH  11  12
ENDBRANCH   1  11
TORSDOF 14
ENDMDL
MODEL 4
REMARK VINA RESULT:    -4.884      1.814      2.228
REMARK INTER + INTRA:          -9.837
REMARK INTER:                  -8.971
REMARK INTRA:                  -0.866
REMARK UNBOUND:                -0.957
REMARK SMILES CCCCCCCCCCCCCCCC(=O)[O-]
REMARK SMILES IDX 9 1 10 2 11 3 12 4 13 5 14 6 15 7 16 8 17 9 18 10 8 11 7 12
REMARK SMILES IDX 6 13 5 14 4 15 3 16 2 17 1 18
REMARK H PARENT
REMARK Flexibility Score: inf
ROOT
ATOM      1  C   UNL     1       5.555  -8.570 -22.114  1.00  0.00     0.000 C 
ENDROOT
BRANCH   1   2
ATOM      2  C   UNL     1       5.718  -7.079 -22.460  1.00  0.00     0.000 C 
BRANCH   2   3
ATOM      3  C   UNL     1       4.799  -6.173 -21.623  1.00  0.00     0.000 C 
BRANCH   3   4
ATOM      4  C   UNL     1       4.323  -6.852 -20.326  1.00  0.00     0.000 C 
BRANCH   4   5
ATOM      5  C   UNL     1       4.465  -5.940 -19.096  1.00  0.00     0.000 C 
BRANCH   5   6
ATOM      6  C   UNL     1       3.151  -5.796 -18.310  1.00  0.00     0.006 C 
BRANCH   6   7
ATOM      7  C   UNL     1       2.018  -5.230 -19.177  1.00  0.00     0.053 C 
BRANCH   7   8
ATOM      8  C   UNL     1       1.680  -3.820 -18.798  1.00  0.00     0.041 C 
ATOM      9  O   UNL     1       2.596  -2.995 -18.539  1.00  0.00    -0.550 OA
ATOM     10  O   UNL     1       0.352  -3.425 -18.702  1.00  0.00    -0.550 OA
ENDBRANCH   7   8
ENDBRANCH   6   7
ENDBRANCH   5   6
ENDBRANCH   4   5
ENDBRANCH   3   4
ENDBRANCH   2   3
ENDBRANCH   1   2
BRANCH   1  11
ATOM     11  C   UNL     1       6.529  -9.466 -22.895  1.00  0.00     0.000 C 
BRANCH  11  12
ATOM     12  C   UNL     1       5.903 -10.813 -23.298  1.00  0.00    -0.000 C 
BRANCH  12  13
ATOM     13  C   UNL     1       4.470 -10.981 -22.770  1.00  0.00    -0.000 C 
BRANCH  13  14
ATOM     14  C   UNL     1       4.230 -12.362 -22.143  1.00  0.00    -0.000 C 
BRANCH  14  15
ATOM     15  C   UNL     1       5.506 -13.212 -22.181  1.00  0.00    -0.000 C 
BRANCH  15  16
ATOM     16  C   UNL     1       5.197 -14.683 -21.879  1.00  0.00    -0.000 C 
BRANCH  16  17
ATOM     17  C   UNL     1       3.701 -14.975 -22.033  1.00  0.00    -0.003 C 
ATOM     18  C   UNL     1       3.422 -16.474 -21.967  1.00  0.00     0.004 C 
ENDBRANCH  16  17
ENDBRANCH  15  16
ENDBRANCH  14  15
ENDBRANCH  13  14
ENDBRANCH  12  13
ENDBRANCH  11  12
ENDBRANCH   1  11
TORSDOF 14
ENDMDL
MODEL 5
REMARK VINA RESULT:    -4.864      4.606      8.378
REMARK INTER + INTRA:          -9.802
REMARK INTER:                  -8.829
REMARK INTRA:                  -0.973
REMARK UNBOUND:                -0.957
REMARK SMILES CCCCCCCCCCCCCCCC(=O)[O-]
REMARK SMILES IDX 9 1 10 2 11 3 12 4 13 5 14 6 15 7 16 8 17 9 18 10 8 11 7 12
REMARK SMILES IDX 6 13 5 14 4 15 3 16 2 17 1 18
REMARK H PARENT
REMARK Flexibility Score: inf
ROOT
ATOM      1  C   UNL     1       6.832  -9.346 -22.677  1.00  0.00     0.000 C 
ENDROOT
BRANCH   1   2
ATOM      2  C   UNL     1       6.926 -10.132 -23.997  1.00  0.00     0.000 C 
BRANCH   2   3
ATOM      3  C   UNL     1       6.412 -11.576 -23.864  1.00  0.00     0.000 C 
BRANCH   3   4
ATOM      4  C   UNL     1       4.904 -11.640 -23.560  1.00  0.00     0.000 C 
BRANCH   4   5
ATOM      5  C   UNL     1       4.612 -12.026 -22.101  1.00  0.00     0.000 C 
BRANCH   5   6
ATOM      6  C   UNL     1       4.807 -13.528 -21.834  1.00  0.00     0.006 C 
BRANCH   6   7
ATOM      7  C   UNL     1       3.553 -14.344 -22.180  1.00  0.00     0.053 C 
BRANCH   7   8
ATOM      8  C   UNL     1       3.758 -15.808 -21.935  1.00  0.00     0.041 C 
ATOM      9  O   UNL     1       4.762 -16.398 -22.417  1.00  0.00    -0.550 OA
ATOM     10  O   UNL     1       2.826 -16.527 -21.198  1.00  0.00    -0.550 OA
ENDBRANCH   7   8
ENDBRANCH   6   7
ENDBRANCH   5   6
ENDBRANCH   4   5
ENDBRANCH   3   4
ENDBRANCH   2   3
ENDBRANCH   1   2
BRANCH   1  11
ATOM     11  C   UNL     1       5.907  -8.124 -22.783  1.00  0.00     0.000 C 
BRANCH  11  12
ATOM     12  C   UNL     1       5.239  -7.766 -21.443  1.00  0.00    -0.000 C 
BRANCH  12  13
ATOM     13  C   UNL     1       3.918  -8.517 -21.222  1.00  0.00    -0.000 C 
BRANCH  13  14
ATOM     14  C   UNL     1       2.997  -7.809 -20.217  1.00  0.00    -0.000 C 
BRANCH  14  15
ATOM     15  C   UNL     1       3.399  -6.340 -20.045  1.00  0.00    -0.000 C 
BRANCH  15  16
ATOM     16  C   UNL     1       3.116  -5.855 -18.618  1.00  0.00    -0.000 C 
BRANCH  16  17
ATOM     17  C   UNL     1       3.644  -4.432 -18.406  1.00  0.00    -0.003 C 
ATOM     18  C   UNL     1       5.164  -4.423 -18.264  1.00  0.00     0.004 C 
ENDBRANCH  16  17
ENDBRANCH  15  16
ENDBRANCH  14  15
ENDBRANCH  13  14
ENDBRANCH  12  13
ENDBRANCH  11  12
ENDBRANCH   1  11
TORSDOF 14
ENDMDL
MODEL 6
REMARK VINA RESULT:    -4.857      1.405      2.272
REMARK INTER + INTRA:          -9.790
REMARK INTER:                  -8.586
REMARK INTRA:                  -1.204
REMARK UNBOUND:                -0.957
REMARK SMILES CCCCCCCCCCCCCCCC(=O)[O-]
REMARK SMILES IDX 9 1 10 2 11 3 12 4 13 5 14 6 15 7 16 8 17 9 18 10 8 11 7 12
REMARK SMILES IDX 6 13 5 14 4 15 3 16 2 17 1 18
REMARK H PARENT
REMARK Flexibility Score: inf
ROOT
ATOM      1  C   UNL     1       3.329  -9.527 -20.930  1.00  0.00     0.000 C 
ENDROOT
BRANCH   1   2
ATOM      2  C   UNL     1       4.639  -8.738 -20.754  1.00  0.00     0.000 C 
BRANCH   2   3
ATOM      3  C   UNL     1       4.888  -7.743 -21.900  1.00  0.00     0.000 C 
BRANCH   3   4
ATOM      4  C   UNL     1       4.945  -6.284 -21.413  1.00  0.00     0.000 C 
BRANCH   4   5
ATOM      5  C   UNL     1       3.744  -5.910 -20.529  1.00  0.00     0.000 C 
BRANCH   5   6
ATOM      6  C   UNL     1       4.091  -5.896 -19.031  1.00  0.00     0.006 C 
BRANCH   6   7
ATOM      7  C   UNL     1       3.880  -4.512 -18.402  1.00  0.00     0.053 C 
BRANCH   7   8
ATOM      8  C   UNL     1       5.182  -3.837 -18.096  1.00  0.00     0.041 C 
ATOM      9  O   UNL     1       5.859  -4.189 -17.093  1.00  0.00    -0.550 OA
ATOM     10  O   UNL     1       5.635  -2.800 -18.901  1.00  0.00    -0.550 OA
ENDBRANCH   7   8
ENDBRANCH   6   7
ENDBRANCH   5   6
ENDBRANCH   4   5
ENDBRANCH   3   4
ENDBRANCH   2   3
ENDBRANCH   1   2
BRANCH   1  11
ATOM     11  C   UNL     1       2.927  -9.679 -22.405  1.00  0.00     0.000 C 
BRANCH  11  12
ATOM     12  C   UNL     1       2.806 -11.151 -22.839  1.00  0.00    -0.000 C 
BRANCH  12  13
ATOM     13  C   UNL     1       3.964 -11.596 -23.745  1.00  0.00    -0.000 C 
BRANCH  13  14
ATOM     14  C   UNL     1       5.196 -12.051 -22.949  1.00  0.00    -0.000 C 
BRANCH  14  15
ATOM     15  C   UNL     1       4.793 -12.972 -21.792  1.00  0.00    -0.000 C 
BRANCH  15  16
ATOM     16  C   UNL     1       5.639 -14.251 -21.784  1.00  0.00    -0.000 C 
BRANCH  16  17
ATOM     17  C   UNL     1       4.774 -15.485 -22.064  1.00  0.00    -0.003 C 
ATOM     18  C   UNL     1       3.289 -15.152 -21.962  1.00  0.00     0.004 C 
ENDBRANCH  16  17
ENDBRANCH  15  16
ENDBRANCH  14  15
ENDBRANCH  13  14
ENDBRANCH  12  13
ENDBRANCH  11  12
ENDBRANCH   1  11
TORSDOF 14
ENDMDL
MODEL 7
REMARK VINA RESULT:    -4.789      2.741      3.689
REMARK INTER + INTRA:          -9.665
REMARK INTER:                  -7.721
REMARK INTRA:                  -1.944
REMARK UNBOUND:                -0.957
REMARK SMILES CCCCCCCCCCCCCCCC(=O)[O-]
REMARK SMILES IDX 9 1 10 2 11 3 12 4 13 5 14 6 15 7 16 8 17 9 18 10 8 11 7 12
REMARK SMILES IDX 6 13 5 14 4 15 3 16 2 17 1 18
REMARK H PARENT
REMARK Flexibility Score: inf
ROOT
ATOM      1  C   UNL     1       2.018  -9.718 -23.331  1.00  0.00     0.000 C 
ENDROOT
BRANCH   1   2
ATOM      2  C   UNL     1       2.353  -8.630 -22.295  1.00  0.00     0.000 C 
BRANCH   2   3
ATOM      3  C   UNL     1       3.025  -9.201 -21.035  1.00  0.00     0.000 C 
BRANCH   3   4
ATOM      4  C   UNL     1       4.397  -8.563 -20.756  1.00  0.00     0.000 C 
BRANCH   4   5
ATOM      5  C   UNL     1       5.363  -8.699 -21.945  1.00  0.00     0.000 C 
BRANCH   5   6
ATOM      6  C   UNL     1       5.869  -7.339 -22.456  1.00  0.00     0.006 C 
BRANCH   6   7
ATOM      7  C   UNL     1       5.372  -6.174 -21.589  1.00  0.00     0.053 C 
BRANCH   7   8
ATOM      8  C   UNL     1       4.592  -5.178 -22.392  1.00  0.00     0.041 C 
ATOM      9  O   UNL     1       5.189  -4.368 -23.151  1.00  0.00    -0.550 OA
ATOM     10  O   UNL     1       3.209  -5.124 -22.281  1.00  0.00    -0.550 OA
ENDBRANCH   7   8
ENDBRANCH   6   7
ENDBRANCH   5   6
ENDBRANCH   4   5
ENDBRANCH   3   4
ENDBRANCH   2   3
ENDBRANCH   1   2
BRANCH   1  11
ATOM     11  C   UNL     1       1.753 -11.086 -22.684  1.00  0.00     0.000 C 
BRANCH  11  12
ATOM     12  C   UNL     1       2.644 -12.200 -23.262  1.00  0.00    -0.000 C 
BRANCH  12  13
ATOM     13  C   UNL     1       4.017 -11.680 -23.716  1.00  0.00    -0.000 C 
BRANCH  13  14
ATOM     14  C   UNL     1       5.163 -12.184 -22.825  1.00  0.00    -0.000 C 
BRANCH  14  15
ATOM     15  C   UNL     1       4.650 -13.189 -21.787  1.00  0.00    -0.000 C 
BRANCH  15  16
ATOM     16  C   UNL     1       5.533 -14.442 -21.750  1.00  0.00    -0.000 C 
BRANCH  16  17
ATOM     17  C   UNL     1       4.725 -15.695 -22.107  1.00  0.00    -0.003 C 
ATOM     18  C   UNL     1       3.245 -15.507 -21.783  1.00  0.00     0.004 C 
ENDBRANCH  16  17
ENDBRANCH  15  16
ENDBRANCH  14  15
ENDBRANCH  13  14
ENDBRANCH  12  13
ENDBRANCH  11  12
ENDBRANCH   1  11
TORSDOF 14
ENDMDL
MODEL 8
REMARK VINA RESULT:    -4.751      2.306      3.161
REMARK INTER + INTRA:          -9.596
REMARK INTER:                  -7.587
REMARK INTRA:                  -2.009
REMARK UNBOUND:                -0.957
REMARK SMILES CCCCCCCCCCCCCCCC(=O)[O-]
REMARK SMILES IDX 9 1 10 2 11 3 12 4 13 5 14 6 15 7 16 8 17 9 18 10 8 11 7 12
REMARK SMILES IDX 6 13 5 14 4 15 3 16 2 17 1 18
REMARK H PARENT
REMARK Flexibility Score: inf
ROOT
ATOM      1  C   UNL     1       6.693  -9.755 -23.259  1.00  0.00     0.000 C 
ENDROOT
BRANCH   1   2
ATOM      2  C   UNL     1       5.912  -8.930 -22.221  1.00  0.00     0.000 C 
BRANCH   2   3
ATOM      3  C   UNL     1       5.834  -7.438 -22.589  1.00  0.00     0.000 C 
BRANCH   3   4
ATOM      4  C   UNL     1       4.817  -6.670 -21.727  1.00  0.00     0.000 C 
BRANCH   4   5
ATOM      5  C   UNL     1       4.410  -7.444 -20.463  1.00  0.00     0.000 C 
BRANCH   5   6
ATOM      6  C   UNL     1       3.964  -6.519 -19.318  1.00  0.00     0.006 C 
BRANCH   6   7
ATOM      7  C   UNL     1       2.491  -6.108 -19.447  1.00  0.00     0.053 C 
BRANCH   7   8
ATOM      8  C   UNL     1       2.309  -4.633 -19.256  1.00  0.00     0.041 C 
ATOM      9  O   UNL     1       2.615  -3.831 -20.178  1.00  0.00    -0.550 OA
ATOM     10  O   UNL     1       1.827  -4.142 -18.050  1.00  0.00    -0.550 OA
ENDBRANCH   7   8
ENDBRANCH   6   7
ENDBRANCH   5   6
ENDBRANCH   4   5
ENDBRANCH   3   4
ENDBRANCH   2   3
ENDBRANCH   1   2
BRANCH   1  11
ATOM     11  C   UNL     1       5.964 -11.051 -23.650  1.00  0.00     0.000 C 
BRANCH  11  12
ATOM     12  C   UNL     1       4.743 -11.338 -22.758  1.00  0.00    -0.000 C 
BRANCH  12  13
ATOM     13  C   UNL     1       3.562 -11.927 -23.545  1.00  0.00    -0.000 C 
BRANCH  13  14
ATOM     14  C   UNL     1       2.489 -10.877 -23.871  1.00  0.00    -0.000 C 
BRANCH  14  15
ATOM     15  C   UNL     1       2.522  -9.725 -22.860  1.00  0.00    -0.000 C 
BRANCH  15  16
ATOM     16  C   UNL     1       1.142  -9.505 -22.230  1.00  0.00    -0.000 C 
BRANCH  16  17
ATOM     17  C   UNL     1       1.241  -9.420 -20.703  1.00  0.00    -0.003 C 
ATOM     18  C   UNL     1       2.264 -10.414 -20.161  1.00  0.00     0.004 C 
ENDBRANCH  16  17
ENDBRANCH  15  16
ENDBRANCH  14  15
ENDBRANCH  13  14
ENDBRANCH  12  13
ENDBRANCH  11  12
ENDBRANCH   1  11
TORSDOF 14
ENDMDL
MODEL 9
REMARK VINA RESULT:    -4.737      1.386      2.072
REMARK INTER + INTRA:          -9.571
REMARK INTER:                  -7.938
REMARK INTRA:                  -1.634
REMARK UNBOUND:                -0.957
REMARK SMILES CCCCCCCCCCCCCCCC(=O)[O-]
REMARK SMILES IDX 9 1 10 2 11 3 12 4 13 5 14 6 15 7 16 8 17 9 18 10 8 11 7 12
REMARK SMILES IDX 6 13 5 14 4 15 3 16 2 17 1 18
REMARK H PARENT
REMARK Flexibility Score: inf
ROOT
ATOM      1  C   UNL     1       4.869  -7.502 -22.087  1.00  0.00     0.000 C 
ENDROOT
BRANCH   1   2
ATOM      2  C   UNL     1       4.244  -8.652 -21.276  1.00  0.00     0.000 C 
BRANCH   2   3
ATOM      3  C   UNL     1       3.199  -8.159 -20.261  1.00  0.00     0.000 C 
BRANCH   3   4
ATOM      4  C   UNL     1       2.521  -6.849 -20.700  1.00  0.00     0.000 C 
BRANCH   4   5
ATOM      5  C   UNL     1       2.328  -5.865 -19.535  1.00  0.00     0.000 C 
BRANCH   5   6
ATOM      6  C   UNL     1       3.570  -5.761 -18.634  1.00  0.00     0.006 C 
BRANCH   6   7
ATOM      7  C   UNL     1       4.733  -5.044 -19.333  1.00  0.00     0.053 C 
BRANCH   7   8
ATOM      8  C   UNL     1       4.297  -3.748 -19.947  1.00  0.00     0.041 C 
ATOM      9  O   UNL     1       4.355  -3.586 -21.195  1.00  0.00    -0.550 OA
ATOM     10  O   UNL     1       3.855  -2.709 -19.138  1.00  0.00    -0.550 OA
ENDBRANCH   7   8
ENDBRANCH   6   7
ENDBRANCH   5   6
ENDBRANCH   4   5
ENDBRANCH   3   4
ENDBRANCH   2   3
ENDBRANCH   1   2
BRANCH   1  11
ATOM     11  C   UNL     1       6.222  -7.886 -22.707  1.00  0.00     0.000 C 
BRANCH  11  12
ATOM     12  C   UNL     1       6.542  -9.383 -22.552  1.00  0.00    -0.000 C 
BRANCH  12  13
ATOM     13  C   UNL     1       6.998 -10.029 -23.869  1.00  0.00    -0.000 C 
BRANCH  13  14
ATOM     14  C   UNL     1       6.518 -11.481 -24.012  1.00  0.00    -0.000 C 
BRANCH  14  15
ATOM     15  C   UNL     1       5.036 -11.608 -23.643  1.00  0.00    -0.000 C 
BRANCH  15  16
ATOM     16  C   UNL     1       4.847 -12.511 -22.418  1.00  0.00    -0.000 C 
BRANCH  16  17
ATOM     17  C   UNL     1       3.421 -12.403 -21.869  1.00  0.00    -0.003 C 
ATOM     18  C   UNL     1       2.547 -11.537 -22.771  1.00  0.00     0.004 C 
ENDBRANCH  16  17
ENDBRANCH  15  16
ENDBRANCH  14  15
ENDBRANCH  13  14
ENDBRANCH  12  13
ENDBRANCH  11  12
ENDBRANCH   1  11
TORSDOF 14
ENDMDL
