MODEL 1
REMARK VINA RESULT:    -4.527      0.000      0.000
REMARK INTER + INTRA:          -9.240
REMARK INTER:                  -6.909
REMARK INTRA:                  -2.331
REMARK UNBOUND:                -2.331
REMARK SMILES CC(=O)CCC=C(C)CCC=C(C)CCC=C(C)C
REMARK SMILES IDX 10 1 11 2 12 3 13 4 14 5 15 6 16 7 18 8 17 9 19 10 9 11 7 12
REMARK SMILES IDX 6 13 8 14 5 15 4 16 2 17 3 18 1 19
REMARK H PARENT
REMARK Flexibility Score: inf
ROOT
ATOM      1  C   UNL     1      15.603  11.006  27.161  1.00  0.00     0.032 C 
ENDROOT
BRANCH   1   2
ATOM      2  C   UNL     1      16.232  12.273  26.640  1.00  0.00    -0.028 C 
ATOM      3  C   UNL     1      16.722  12.422  25.388  1.00  0.00    -0.077 C 
ATOM      4  C   UNL     1      16.620  11.323  24.356  1.00  0.00     0.039 C 
BRANCH   3   5
ATOM      5  C   UNL     1      17.388  13.726  25.009  1.00  0.00     0.034 C 
BRANCH   5   6
ATOM      6  C   UNL     1      16.886  14.868  25.899  1.00  0.00     0.032 C 
BRANCH   6   7
ATOM      7  C   UNL     1      15.700  15.557  25.270  1.00  0.00    -0.028 C 
ATOM      8  C   UNL     1      14.307  15.399  27.346  1.00  0.00     0.039 C 
ATOM      9  C   UNL     1      14.542  15.822  25.913  1.00  0.00    -0.080 C 
ATOM     10  C   UNL     1      13.452  16.546  25.164  1.00  0.00     0.039 C 
ENDBRANCH   6   7
ENDBRANCH   5   6
ENDBRANCH   3   5
ENDBRANCH   1   2
BRANCH   1  11
ATOM     11  C   UNL     1      14.103  11.209  27.404  1.00  0.00     0.034 C 
BRANCH  11  12
ATOM     12  C   UNL     1      13.321  11.142  26.105  1.00  0.00    -0.077 C 
ATOM     13  C   UNL     1      13.039   9.984  25.464  1.00  0.00    -0.028 C 
ATOM     14  C   UNL     1      12.834  12.429  25.487  1.00  0.00     0.039 C 
BRANCH  13  15
ATOM     15  C   UNL     1      13.418   8.600  25.934  1.00  0.00     0.035 C 
BRANCH  15  16
ATOM     16  C   UNL     1      14.503   8.014  25.027  1.00  0.00     0.079 C 
BRANCH  16  17
ATOM     17  C   UNL     1      15.599   7.381  25.843  1.00  0.00     0.130 C 
ATOM     18  O   UNL     1      15.326   6.475  26.616  1.00  0.00    -0.300 OA
ATOM     19  C   UNL     1      17.025   7.829  25.718  1.00  0.00     0.087 C 
ENDBRANCH  16  17
ENDBRANCH  15  16
ENDBRANCH  13  15
ENDBRANCH  11  12
ENDBRANCH   1  11
TORSDOF 9
ENDMDL
MODEL 2
REMARK VINA RESULT:    -4.494      2.208      6.328
REMARK INTER + INTRA:          -9.190
REMARK INTER:                  -7.282
REMARK INTRA:                  -1.907
REMARK UNBOUND:                -2.331
REMARK SMILES CC(=O)CCC=C(C)CCC=C(C)CCC=C(C)C
REMARK SMILES IDX 10 1 11 2 12 3 13 4 14 5 15 6 16 7 18 8 17 9 19 10 9 11 7 12
REMARK SMILES IDX 6 13 8 14 5 15 4 16 2 17 3 18 1 19
REMARK H PARENT
REMARK Flexibility Score: inf
ROOT
ATOM      1  C   UNL     1      12.619  13.286  24.841  1.00  0.00     0.032 C 
ENDROOT
BRANCH   1   2
ATOM      2  C   UNL     1      13.219  11.990  25.326  1.00  0.00    -0.028 C 
ATOM      3  C   UNL     1      13.363  11.657  26.629  1.00  0.00    -0.077 C 
ATOM      4  C   UNL     1      12.862  12.550  27.740  1.00  0.00     0.039 C 
BRANCH   3   5
ATOM      5  C   UNL     1      14.041  10.352  26.984  1.00  0.00     0.034 C 
BRANCH   5   6
ATOM      6  C   UNL     1      14.141   9.443  25.755  1.00  0.00     0.032 C 
BRANCH   6   7
ATOM      7  C   UNL     1      14.847   8.154  26.097  1.00  0.00    -0.028 C 
ATOM      8  C   UNL     1      16.934   8.786  24.864  1.00  0.00     0.039 C 
ATOM      9  C   UNL     1      16.110   7.853  25.722  1.00  0.00    -0.080 C 
ATOM     10  C   UNL     1      16.696   6.537  26.164  1.00  0.00     0.039 C 
ENDBRANCH   6   7
ENDBRANCH   5   6
ENDBRANCH   3   5
ENDBRANCH   1   2
BRANCH   1  11
ATOM     11  C   UNL     1      13.610  14.037  23.944  1.00  0.00     0.034 C 
BRANCH  11  12
ATOM     12  C   UNL     1      13.756  15.484  24.376  1.00  0.00    -0.077 C 
ATOM     13  C   UNL     1      14.561  15.883  25.388  1.00  0.00    -0.028 C 
ATOM     14  C   UNL     1      12.963  16.539  23.646  1.00  0.00     0.039 C 
BRANCH  13  15
ATOM     15  C   UNL     1      15.446  14.984  26.217  1.00  0.00     0.035 C 
BRANCH  15  16
ATOM     16  C   UNL     1      16.902  15.108  25.757  1.00  0.00     0.079 C 
BRANCH  16  17
ATOM     17  C   UNL     1      17.393  13.806  25.179  1.00  0.00     0.130 C 
ATOM     18  O   UNL     1      18.264  13.820  24.322  1.00  0.00    -0.300 OA
ATOM     19  C   UNL     1      16.846  12.489  25.642  1.00  0.00     0.087 C 
ENDBRANCH  16  17
ENDBRANCH  15  16
ENDBRANCH  13  15
ENDBRANCH  11  12
ENDBRANCH   1  11
TORSDOF 9
ENDMDL
MODEL 3
REMARK VINA RESULT:    -4.408      2.400      6.299
REMARK INTER + INTRA:          -9.058
REMARK INTER:                  -6.927
REMARK INTRA:                  -2.132
REMARK UNBOUND:                -2.331
REMARK SMILES CC(=O)CCC=C(C)CCC=C(C)CCC=C(C)C
REMARK SMILES IDX 10 1 11 2 12 3 13 4 14 5 15 6 16 7 18 8 17 9 19 10 9 11 7 12
REMARK SMILES IDX 6 13 8 14 5 15 4 16 2 17 3 18 1 19
REMARK H PARENT
REMARK Flexibility Score: inf
ROOT
ATOM      1  C   UNL     1      16.459  12.875  24.593  1.00  0.00     0.032 C 
ENDROOT
BRANCH   1   2
ATOM      2  C   UNL     1      16.048  11.637  25.350  1.00  0.00    -0.028 C 
ATOM      3  C   UNL     1      14.780  11.363  25.732  1.00  0.00    -0.077 C 
ATOM      4  C   UNL     1      13.624  12.265  25.366  1.00  0.00     0.039 C 
BRANCH   3   5
ATOM      5  C   UNL     1      14.510  10.116  26.544  1.00  0.00     0.034 C 
BRANCH   5   6
ATOM      6  C   UNL     1      14.221   8.924  25.626  1.00  0.00     0.032 C 
BRANCH   6   7
ATOM      7  C   UNL     1      14.927   7.685  26.117  1.00  0.00    -0.028 C 
ATOM      8  C   UNL     1      17.083   8.272  24.983  1.00  0.00     0.039 C 
ATOM      9  C   UNL     1      16.219   7.388  25.855  1.00  0.00    -0.080 C 
ATOM     10  C   UNL     1      16.801   6.126  26.439  1.00  0.00     0.039 C 
ENDBRANCH   6   7
ENDBRANCH   5   6
ENDBRANCH   3   5
ENDBRANCH   1   2
BRANCH   1  11
ATOM     11  C   UNL     1      17.147  13.876  25.529  1.00  0.00     0.034 C 
BRANCH  11  12
ATOM     12  C   UNL     1      16.133  14.754  26.237  1.00  0.00    -0.077 C 
ATOM     13  C   UNL     1      15.983  14.784  27.583  1.00  0.00    -0.028 C 
ATOM     14  C   UNL     1      15.238  15.640  25.407  1.00  0.00     0.039 C 
BRANCH  13  15
ATOM     15  C   UNL     1      16.796  13.993  28.578  1.00  0.00     0.035 C 
BRANCH  15  16
ATOM     16  C   UNL     1      16.128  12.642  28.849  1.00  0.00     0.079 C 
BRANCH  16  17
ATOM     17  C   UNL     1      14.992  12.793  29.826  1.00  0.00     0.130 C 
ATOM     18  O   UNL     1      15.208  13.269  30.930  1.00  0.00    -0.300 OA
ATOM     19  C   UNL     1      13.594  12.384  29.469  1.00  0.00     0.087 C 
ENDBRANCH  16  17
ENDBRANCH  15  16
ENDBRANCH  13  15
ENDBRANCH  11  12
ENDBRANCH   1  11
TORSDOF 9
ENDMDL
MODEL 4
REMARK VINA RESULT:    -4.380      2.992      7.141
REMARK INTER + INTRA:          -9.016
REMARK INTER:                  -7.653
REMARK INTRA:                  -1.363
REMARK UNBOUND:                -2.331
REMARK SMILES CC(=O)CCC=C(C)CCC=C(C)CCC=C(C)C
REMARK SMILES IDX 10 1 11 2 12 3 13 4 14 5 15 6 16 7 18 8 17 9 19 10 9 11 7 12
REMARK SMILES IDX 6 13 8 14 5 15 4 16 2 17 3 18 1 19
REMARK H PARENT
REMARK Flexibility Score: inf
ROOT
ATOM      1  C   UNL     1      16.450  13.147  24.594  1.00  0.00     0.032 C 
ENDROOT
BRANCH   1   2
ATOM      2  C   UNL     1      16.128  11.900  25.377  1.00  0.00    -0.028 C 
ATOM      3  C   UNL     1      14.879  11.525  25.735  1.00  0.00    -0.077 C 
ATOM      4  C   UNL     1      13.659  12.311  25.313  1.00  0.00     0.039 C 
BRANCH   3   5
ATOM      5  C   UNL     1      14.697  10.282  26.577  1.00  0.00     0.034 C 
BRANCH   5   6
ATOM      6  C   UNL     1      14.261   9.098  25.708  1.00  0.00     0.032 C 
BRANCH   6   7
ATOM      7  C   UNL     1      14.957   7.831  26.139  1.00  0.00    -0.028 C 
ATOM      8  C   UNL     1      17.087   8.409  24.954  1.00  0.00     0.039 C 
ATOM      9  C   UNL     1      16.234   7.517  25.826  1.00  0.00    -0.080 C 
ATOM     10  C   UNL     1      16.807   6.227  26.355  1.00  0.00     0.039 C 
ENDBRANCH   6   7
ENDBRANCH   5   6
ENDBRANCH   3   5
ENDBRANCH   1   2
BRANCH   1  11
ATOM     11  C   UNL     1      17.209  14.153  25.470  1.00  0.00     0.034 C 
BRANCH  11  12
ATOM     12  C   UNL     1      16.336  14.668  26.598  1.00  0.00    -0.077 C 
ATOM     13  C   UNL     1      15.293  15.510  26.410  1.00  0.00    -0.028 C 
ATOM     14  C   UNL     1      16.643  14.228  28.008  1.00  0.00     0.039 C 
BRANCH  13  15
ATOM     15  C   UNL     1      14.817  16.040  25.079  1.00  0.00     0.035 C 
BRANCH  15  16
ATOM     16  C   UNL     1      13.541  16.865  25.266  1.00  0.00     0.079 C 
BRANCH  16  17
ATOM     17  C   UNL     1      12.565  16.602  24.149  1.00  0.00     0.130 C 
ATOM     18  O   UNL     1      12.230  17.520  23.416  1.00  0.00    -0.300 OA
ATOM     19  C   UNL     1      12.003  15.233  23.908  1.00  0.00     0.087 C 
ENDBRANCH  16  17
ENDBRANCH  15  16
ENDBRANCH  13  15
ENDBRANCH  11  12
ENDBRANCH   1  11
TORSDOF 9
ENDMDL
MODEL 5
REMARK VINA RESULT:    -4.372      1.337      2.121
REMARK INTER + INTRA:          -9.003
REMARK INTER:                  -7.092
REMARK INTRA:                  -1.911
REMARK UNBOUND:                -2.331
REMARK SMILES CC(=O)CCC=C(C)CCC=C(C)CCC=C(C)C
REMARK SMILES IDX 10 1 11 2 12 3 13 4 14 5 15 6 16 7 18 8 17 9 19 10 9 11 7 12
REMARK SMILES IDX 6 13 8 14 5 15 4 16 2 17 3 18 1 19
REMARK H PARENT
REMARK Flexibility Score: inf
ROOT
ATOM      1  C   UNL     1      14.602  10.769  27.189  1.00  0.00     0.032 C 
ENDROOT
BRANCH   1   2
ATOM      2  C   UNL     1      15.705  11.778  26.999  1.00  0.00    -0.028 C 
ATOM      3  C   UNL     1      15.720  13.007  27.563  1.00  0.00    -0.077 C 
ATOM      4  C   UNL     1      14.636  13.462  28.512  1.00  0.00     0.039 C 
BRANCH   3   5
ATOM      5  C   UNL     1      16.858  13.951  27.240  1.00  0.00     0.034 C 
BRANCH   5   6
ATOM      6  C   UNL     1      16.846  14.323  25.753  1.00  0.00     0.032 C 
BRANCH   6   7
ATOM      7  C   UNL     1      15.897  15.466  25.493  1.00  0.00    -0.028 C 
ATOM      8  C   UNL     1      14.198  14.007  24.370  1.00  0.00     0.039 C 
ATOM      9  C   UNL     1      14.693  15.336  24.892  1.00  0.00    -0.080 C 
ATOM     10  C   UNL     1      13.836  16.565  24.727  1.00  0.00     0.039 C 
ENDBRANCH   6   7
ENDBRANCH   5   6
ENDBRANCH   3   5
ENDBRANCH   1   2
BRANCH   1  11
ATOM     11  C   UNL     1      13.842  10.547  25.876  1.00  0.00     0.034 C 
BRANCH  11  12
ATOM     12  C   UNL     1      12.870   9.388  25.991  1.00  0.00    -0.077 C 
ATOM     13  C   UNL     1      13.134   8.144  25.527  1.00  0.00    -0.028 C 
ATOM     14  C   UNL     1      11.535   9.626  26.653  1.00  0.00     0.039 C 
BRANCH  13  15
ATOM     15  C   UNL     1      14.416   7.705  24.861  1.00  0.00     0.035 C 
BRANCH  15  16
ATOM     16  C   UNL     1      15.307   6.968  25.865  1.00  0.00     0.079 C 
BRANCH  16  17
ATOM     17  C   UNL     1      16.719   7.489  25.811  1.00  0.00     0.130 C 
ATOM     18  O   UNL     1      17.600   6.898  26.417  1.00  0.00    -0.300 OA
ATOM     19  C   UNL     1      17.072   8.711  25.017  1.00  0.00     0.087 C 
ENDBRANCH  16  17
ENDBRANCH  15  16
ENDBRANCH  13  15
ENDBRANCH  11  12
ENDBRANCH   1  11
TORSDOF 9
ENDMDL
MODEL 6
REMARK VINA RESULT:    -4.330      2.258      6.106
REMARK INTER + INTRA:          -8.939
REMARK INTER:                  -6.813
REMARK INTRA:                  -2.127
REMARK UNBOUND:                -2.331
REMARK SMILES CC(=O)CCC=C(C)CCC=C(C)CCC=C(C)C
REMARK SMILES IDX 10 1 11 2 12 3 13 4 14 5 15 6 16 7 18 8 17 9 19 10 9 11 7 12
REMARK SMILES IDX 6 13 8 14 5 15 4 16 2 17 3 18 1 19
REMARK H PARENT
REMARK Flexibility Score: inf
ROOT
ATOM      1  C   UNL     1      13.430  13.099  24.669  1.00  0.00     0.032 C 
ENDROOT
BRANCH   1   2
ATOM      2  C   UNL     1      14.281  12.062  25.358  1.00  0.00    -0.028 C 
ATOM      3  C   UNL     1      15.626  11.979  25.242  1.00  0.00    -0.077 C 
ATOM      4  C   UNL     1      16.420  12.985  24.442  1.00  0.00     0.039 C 
BRANCH   3   5
ATOM      5  C   UNL     1      16.356  10.850  25.935  1.00  0.00     0.034 C 
BRANCH   5   6
ATOM      6  C   UNL     1      16.851   9.819  24.916  1.00  0.00     0.032 C 
BRANCH   6   7
ATOM      7  C   UNL     1      17.131   8.496  25.584  1.00  0.00    -0.028 C 
ATOM      8  C   UNL     1      14.838   7.598  25.123  1.00  0.00     0.039 C 
ATOM      9  C   UNL     1      16.244   7.480  25.666  1.00  0.00    -0.080 C 
ATOM     10  C   UNL     1      16.676   6.201  26.338  1.00  0.00     0.039 C 
ENDBRANCH   6   7
ENDBRANCH   5   6
ENDBRANCH   3   5
ENDBRANCH   1   2
BRANCH   1  11
ATOM     11  C   UNL     1      12.993  14.183  25.662  1.00  0.00     0.034 C 
BRANCH  11  12
ATOM     12  C   UNL     1      13.802  15.453  25.482  1.00  0.00    -0.077 C 
ATOM     13  C   UNL     1      14.660  15.928  26.415  1.00  0.00    -0.028 C 
ATOM     14  C   UNL     1      13.646  16.235  24.202  1.00  0.00     0.039 C 
BRANCH  13  15
ATOM     15  C   UNL     1      14.969  15.278  27.742  1.00  0.00     0.035 C 
BRANCH  15  16
ATOM     16  C   UNL     1      16.380  14.684  27.722  1.00  0.00     0.079 C 
BRANCH  16  17
ATOM     17  C   UNL     1      16.499  13.553  28.709  1.00  0.00     0.130 C 
ATOM     18  O   UNL     1      17.566  13.355  29.271  1.00  0.00    -0.300 OA
ATOM     19  C   UNL     1      15.330  12.669  29.030  1.00  0.00     0.087 C 
ENDBRANCH  16  17
ENDBRANCH  15  16
ENDBRANCH  13  15
ENDBRANCH  11  12
ENDBRANCH   1  11
TORSDOF 9
ENDMDL
MODEL 7
REMARK VINA RESULT:    -4.318      3.034      6.475
REMARK INTER + INTRA:          -8.921
REMARK INTER:                  -7.337
REMARK INTRA:                  -1.583
REMARK UNBOUND:                -2.331
REMARK SMILES CC(=O)CCC=C(C)CCC=C(C)CCC=C(C)C
REMARK SMILES IDX 10 1 11 2 12 3 13 4 14 5 15 6 16 7 18 8 17 9 19 10 9 11 7 12
REMARK SMILES IDX 6 13 8 14 5 15 4 16 2 17 3 18 1 19
REMARK H PARENT
REMARK Flexibility Score: inf
ROOT
ATOM      1  C   UNL     1      16.108  12.850  24.274  1.00  0.00     0.032 C 
ENDROOT
BRANCH   1   2
ATOM      2  C   UNL     1      16.648  11.448  24.398  1.00  0.00    -0.028 C 
ATOM      3  C   UNL     1      16.313  10.586  25.385  1.00  0.00    -0.077 C 
ATOM      4  C   UNL     1      15.291  10.940  26.440  1.00  0.00     0.039 C 
BRANCH   3   5
ATOM      5  C   UNL     1      16.977   9.227  25.432  1.00  0.00     0.034 C 
BRANCH   5   6
ATOM      6  C   UNL     1      15.957   8.139  25.781  1.00  0.00     0.032 C 
BRANCH   6   7
ATOM      7  C   UNL     1      15.248   7.650  24.543  1.00  0.00    -0.028 C 
ATOM      8  C   UNL     1      12.974   8.212  25.431  1.00  0.00     0.039 C 
ATOM      9  C   UNL     1      13.910   7.696  24.361  1.00  0.00    -0.080 C 
ATOM     10  C   UNL     1      13.344   7.198  23.056  1.00  0.00     0.039 C 
ENDBRANCH   6   7
ENDBRANCH   5   6
ENDBRANCH   3   5
ENDBRANCH   1   2
BRANCH   1  11
ATOM     11  C   UNL     1      16.996  13.839  25.039  1.00  0.00     0.034 C 
BRANCH  11  12
ATOM     12  C   UNL     1      16.172  14.721  25.958  1.00  0.00    -0.077 C 
ATOM     13  C   UNL     1      16.205  14.626  27.309  1.00  0.00    -0.028 C 
ATOM     14  C   UNL     1      15.264  15.758  25.344  1.00  0.00     0.039 C 
BRANCH  13  15
ATOM     15  C   UNL     1      17.062  13.674  28.105  1.00  0.00     0.035 C 
BRANCH  15  16
ATOM     16  C   UNL     1      16.533  13.561  29.538  1.00  0.00     0.079 C 
BRANCH  16  17
ATOM     17  C   UNL     1      17.539  14.095  30.524  1.00  0.00     0.130 C 
ATOM     18  O   UNL     1      17.178  14.886  31.382  1.00  0.00    -0.300 OA
ATOM     19  C   UNL     1      18.975  13.665  30.486  1.00  0.00     0.087 C 
ENDBRANCH  16  17
ENDBRANCH  15  16
ENDBRANCH  13  15
ENDBRANCH  11  12
ENDBRANCH   1  11
TORSDOF 9
ENDMDL
MODEL 8
REMARK VINA RESULT:    -4.315      2.017      4.838
REMARK INTER + INTRA:          -8.916
REMARK INTER:                  -6.609
REMARK INTRA:                  -2.306
REMARK UNBOUND:                -2.331
REMARK SMILES CC(=O)CCC=C(C)CCC=C(C)CCC=C(C)C
REMARK SMILES IDX 10 1 11 2 12 3 13 4 14 5 15 6 16 7 18 8 17 9 19 10 9 11 7 12
REMARK SMILES IDX 6 13 8 14 5 15 4 16 2 17 3 18 1 19
REMARK H PARENT
REMARK Flexibility Score: inf
ROOT
ATOM      1  C   UNL     1      13.792   7.474  25.353  1.00  0.00     0.032 C 
ENDROOT
BRANCH   1   2
ATOM      2  C   UNL     1      13.001   8.757  25.351  1.00  0.00    -0.028 C 
ATOM      3  C   UNL     1      12.943   9.619  26.392  1.00  0.00    -0.077 C 
ATOM      4  C   UNL     1      13.740   9.397  27.657  1.00  0.00     0.039 C 
BRANCH   3   5
ATOM      5  C   UNL     1      12.059  10.842  26.286  1.00  0.00     0.034 C 
BRANCH   5   6
ATOM      6  C   UNL     1      12.597  11.808  25.225  1.00  0.00     0.032 C 
BRANCH   6   7
ATOM      7  C   UNL     1      13.024  13.111  25.853  1.00  0.00    -0.028 C 
ATOM      8  C   UNL     1      12.992  14.353  23.678  1.00  0.00     0.039 C 
ATOM      9  C   UNL     1      13.185  14.269  25.175  1.00  0.00    -0.080 C 
ATOM     10  C   UNL     1      13.587  15.502  25.942  1.00  0.00     0.039 C 
ENDBRANCH   6   7
ENDBRANCH   5   6
ENDBRANCH   3   5
ENDBRANCH   1   2
BRANCH   1  11
ATOM     11  C   UNL     1      15.062   7.622  24.506  1.00  0.00     0.034 C 
BRANCH  11  12
ATOM     12  C   UNL     1      16.293   7.768  25.380  1.00  0.00    -0.077 C 
ATOM     13  C   UNL     1      17.024   8.905  25.453  1.00  0.00    -0.028 C 
ATOM     14  C   UNL     1      16.735   6.588  26.210  1.00  0.00     0.039 C 
BRANCH  13  15
ATOM     15  C   UNL     1      16.730  10.192  24.721  1.00  0.00     0.035 C 
BRANCH  15  16
ATOM     16  C   UNL     1      16.328  11.284  25.717  1.00  0.00     0.079 C 
BRANCH  16  17
ATOM     17  C   UNL     1      16.504  12.652  25.110  1.00  0.00     0.130 C 
ATOM     18  O   UNL     1      16.142  12.850  23.960  1.00  0.00    -0.300 OA
ATOM     19  C   UNL     1      17.102  13.783  25.892  1.00  0.00     0.087 C 
ENDBRANCH  16  17
ENDBRANCH  15  16
ENDBRANCH  13  15
ENDBRANCH  11  12
ENDBRANCH   1  11
TORSDOF 9
ENDMDL
MODEL 9
REMARK VINA RESULT:    -4.266      1.788      3.924
REMARK INTER + INTRA:          -8.841
REMARK INTER:                  -6.404
REMARK INTRA:                  -2.437
REMARK UNBOUND:                -2.331
REMARK SMILES CC(=O)CCC=C(C)CCC=C(C)CCC=C(C)C
REMARK SMILES IDX 10 1 11 2 12 3 13 4 14 5 15 6 16 7 18 8 17 9 19 10 9 11 7 12
REMARK SMILES IDX 6 13 8 14 5 15 4 16 2 17 3 18 1 19
REMARK H PARENT
REMARK Flexibility Score: inf
ROOT
ATOM      1  C   UNL     1      16.983  14.082  25.601  1.00  0.00     0.032 C 
ENDROOT
BRANCH   1   2
ATOM      2  C   UNL     1      17.056  13.574  27.019  1.00  0.00    -0.028 C 
ATOM      3  C   UNL     1      16.283  14.027  28.032  1.00  0.00    -0.077 C 
ATOM      4  C   UNL     1      15.205  15.063  27.811  1.00  0.00     0.039 C 
BRANCH   3   5
ATOM      5  C   UNL     1      16.500  13.479  29.425  1.00  0.00     0.034 C 
BRANCH   5   6
ATOM      6  C   UNL     1      15.190  12.933  30.002  1.00  0.00     0.032 C 
BRANCH   6   7
ATOM      7  C   UNL     1      14.903  11.552  29.469  1.00  0.00    -0.028 C 
ATOM      8  C   UNL     1      12.734  12.236  28.418  1.00  0.00     0.039 C 
ATOM      9  C   UNL     1      13.814  11.227  28.737  1.00  0.00    -0.080 C 
ATOM     10  C   UNL     1      13.675   9.809  28.245  1.00  0.00     0.039 C 
ENDBRANCH   6   7
ENDBRANCH   5   6
ENDBRANCH   3   5
ENDBRANCH   1   2
BRANCH   1  11
ATOM     11  C   UNL     1      16.729  12.925  24.627  1.00  0.00     0.034 C 
BRANCH  11  12
ATOM     12  C   UNL     1      15.504  12.126  25.028  1.00  0.00    -0.077 C 
ATOM     13  C   UNL     1      15.555  10.834  25.429  1.00  0.00    -0.028 C 
ATOM     14  C   UNL     1      14.154  12.797  24.977  1.00  0.00     0.039 C 
BRANCH  13  15
ATOM     15  C   UNL     1      16.807  10.002  25.568  1.00  0.00     0.035 C 
BRANCH  15  16
ATOM     16  C   UNL     1      16.673   8.708  24.761  1.00  0.00     0.079 C 
BRANCH  16  17
ATOM     17  C   UNL     1      16.373   7.541  25.666  1.00  0.00     0.130 C 
ATOM     18  O   UNL     1      17.296   6.897  26.140  1.00  0.00    -0.300 OA
ATOM     19  C   UNL     1      14.964   7.161  26.011  1.00  0.00     0.087 C 
ENDBRANCH  16  17
ENDBRANCH  15  16
ENDBRANCH  13  15
ENDBRANCH  11  12
ENDBRANCH   1  11
TORSDOF 9
ENDMDL
