MODEL 1
REMARK VINA RESULT:    -5.396      0.000      0.000
REMARK INTER + INTRA:          -5.869
REMARK INTER:                  -5.869
REMARK INTRA:                   0.000
REMARK UNBOUND:                 0.000
REMARK SMILES Cc1cc(O)c2c(c1)C(=O)c1cc(O)cc(O)c1C2=O
REMARK SMILES IDX 1 1 2 2 8 3 7 4 6 5 4 6 3 7 19 8 20 9 18 10 11 11 9 12 10 13
REMARK SMILES IDX 12 14 13 15 15 16 16 17 5 18 17 20 14 22
REMARK H PARENT 5 19 17 21 14 23
REMARK Flexibility Score: inf
ROOT
ATOM      1  C   UNL     1      35.686 -76.876  33.277  1.00  0.00     0.044 C 
ATOM      2  C   UNL     1      36.117 -77.364  34.630  1.00  0.00    -0.047 A 
ATOM      3  C   UNL     1      37.464 -77.313  34.999  1.00  0.00     0.016 A 
ATOM      4  C   UNL     1      37.882 -77.789  36.254  1.00  0.00     0.038 A 
ATOM      5  C   UNL     1      36.934 -78.326  37.156  1.00  0.00     0.076 A 
ATOM      6  C   UNL     1      35.584 -78.465  36.733  1.00  0.00     0.127 A 
ATOM      7  C   UNL     1      35.190 -77.959  35.491  1.00  0.00     0.050 A 
ATOM      8  C   UNL     1      37.383 -78.674  38.533  1.00  0.00     0.201 C 
ATOM      9  O   UNL     1      36.547 -78.752  39.471  1.00  0.00    -0.288 OA
ATOM     10  C   UNL     1      38.833 -78.817  38.832  1.00  0.00     0.076 A 
ATOM     11  C   UNL     1      39.777 -78.340  37.898  1.00  0.00     0.041 A 
ATOM     12  C   UNL     1      39.317 -77.740  36.624  1.00  0.00     0.194 C 
ATOM     13  O   UNL     1      40.151 -77.202  35.847  1.00  0.00    -0.289 OA
ATOM     14  C   UNL     1      41.150 -78.435  38.182  1.00  0.00     0.059 A 
ATOM     15  C   UNL     1      41.590 -79.004  39.382  1.00  0.00     0.120 A 
ATOM     16  C   UNL     1      40.659 -79.483  40.303  1.00  0.00     0.093 A 
ATOM     17  C   UNL     1      39.286 -79.397  40.040  1.00  0.00     0.131 A 
ENDROOT
BRANCH   6  18
ATOM     18  O   UNL     1      34.615 -79.127  37.488  1.00  0.00    -0.507 OA
ATOM     19  H   UNL     1      33.880 -78.656  37.996  1.00  0.00     0.293 HD
ENDBRANCH   6  18
BRANCH  17  20
ATOM     20  O   UNL     1      38.378 -79.897  40.974  1.00  0.00    -0.507 OA
ATOM     21  H   UNL     1      37.377 -79.833  40.830  1.00  0.00     0.293 HD
ENDBRANCH  17  20
BRANCH  15  22
ATOM     22  O   UNL     1      42.950 -79.099  39.667  1.00  0.00    -0.508 OA
ATOM     23  H   UNL     1      43.305 -79.768  40.341  1.00  0.00     0.293 HD
ENDBRANCH  15  22
TORSDOF 3
ENDMDL
MODEL 2
REMARK VINA RESULT:    -5.374      1.483      6.205
REMARK INTER + INTRA:          -5.845
REMARK INTER:                  -5.845
REMARK INTRA:                   0.000
REMARK UNBOUND:                 0.000
REMARK SMILES Cc1cc(O)c2c(c1)C(=O)c1cc(O)cc(O)c1C2=O
REMARK SMILES IDX 1 1 2 2 8 3 7 4 6 5 4 6 3 7 19 8 20 9 18 10 11 11 9 12 10 13
REMARK SMILES IDX 12 14 13 15 15 16 16 17 5 18 17 20 14 22
REMARK H PARENT 5 19 17 21 14 23
REMARK Flexibility Score: inf
ROOT
ATOM      1  C   UNL     1      39.001 -79.875  42.089  1.00  0.00     0.044 C 
ATOM      2  C   UNL     1      39.155 -79.314  40.706  1.00  0.00    -0.047 A 
ATOM      3  C   UNL     1      38.033 -79.127  39.894  1.00  0.00     0.016 A 
ATOM      4  C   UNL     1      38.168 -78.624  38.588  1.00  0.00     0.038 A 
ATOM      5  C   UNL     1      39.450 -78.303  38.086  1.00  0.00     0.076 A 
ATOM      6  C   UNL     1      40.592 -78.590  38.882  1.00  0.00     0.127 A 
ATOM      7  C   UNL     1      40.428 -79.064  40.187  1.00  0.00     0.050 A 
ATOM      8  C   UNL     1      39.544 -77.626  36.762  1.00  0.00     0.201 C 
ATOM      9  O   UNL     1      40.570 -76.961  36.462  1.00  0.00    -0.288 OA
ATOM     10  C   UNL     1      38.381 -77.635  35.835  1.00  0.00     0.076 A 
ATOM     11  C   UNL     1      37.116 -78.022  36.325  1.00  0.00     0.041 A 
ATOM     12  C   UNL     1      36.968 -78.446  37.736  1.00  0.00     0.194 C 
ATOM     13  O   UNL     1      35.820 -78.670  38.208  1.00  0.00    -0.289 OA
ATOM     14  C   UNL     1      36.000 -78.000  35.470  1.00  0.00     0.059 A 
ATOM     15  C   UNL     1      36.134 -77.604  34.136  1.00  0.00     0.120 A 
ATOM     16  C   UNL     1      37.386 -77.229  33.647  1.00  0.00     0.093 A 
ATOM     17  C   UNL     1      38.510 -77.242  34.482  1.00  0.00     0.131 A 
ENDROOT
BRANCH   6  18
ATOM     18  O   UNL     1      41.900 -78.458  38.411  1.00  0.00    -0.507 OA
ATOM     19  H   UNL     1      42.132 -78.144  37.479  1.00  0.00     0.293 HD
ENDBRANCH   6  18
BRANCH  17  20
ATOM     20  O   UNL     1      39.752 -76.875  33.963  1.00  0.00    -0.507 OA
ATOM     21  H   UNL     1      40.602 -77.362  34.223  1.00  0.00     0.293 HD
ENDBRANCH  17  20
BRANCH  15  22
ATOM     22  O   UNL     1      35.031 -77.582  33.286  1.00  0.00    -0.508 OA
ATOM     23  H   UNL     1      34.105 -77.836  33.612  1.00  0.00     0.293 HD
ENDBRANCH  15  22
TORSDOF 3
ENDMDL
MODEL 3
REMARK VINA RESULT:    -5.249     18.572     19.208
REMARK INTER + INTRA:          -5.709
REMARK INTER:                  -5.709
REMARK INTRA:                   0.000
REMARK UNBOUND:                 0.000
REMARK SMILES Cc1cc(O)c2c(c1)C(=O)c1cc(O)cc(O)c1C2=O
REMARK SMILES IDX 1 1 2 2 8 3 7 4 6 5 4 6 3 7 19 8 20 9 18 10 11 11 9 12 10 13
REMARK SMILES IDX 12 14 13 15 15 16 16 17 5 18 17 20 14 22
REMARK H PARENT 5 19 17 21 14 23
REMARK Flexibility Score: inf
ROOT
ATOM      1  C   UNL     1      41.401 -95.142  36.040  1.00  0.00     0.044 C 
ATOM      2  C   UNL     1      40.851 -95.154  34.644  1.00  0.00    -0.047 A 
ATOM      3  C   UNL     1      41.625 -95.641  33.587  1.00  0.00     0.016 A 
ATOM      4  C   UNL     1      41.129 -95.636  32.272  1.00  0.00     0.038 A 
ATOM      5  C   UNL     1      39.834 -95.133  32.010  1.00  0.00     0.076 A 
ATOM      6  C   UNL     1      39.094 -94.549  33.074  1.00  0.00     0.127 A 
ATOM      7  C   UNL     1      39.599 -94.592  34.377  1.00  0.00     0.050 A 
ATOM      8  C   UNL     1      39.278 -95.287  30.636  1.00  0.00     0.201 C 
ATOM      9  O   UNL     1      38.034 -95.250  30.448  1.00  0.00    -0.288 OA
ATOM     10  C   UNL     1      40.181 -95.602  29.497  1.00  0.00     0.076 A 
ATOM     11  C   UNL     1      41.496 -96.039  29.763  1.00  0.00     0.041 A 
ATOM     12  C   UNL     1      41.970 -96.144  31.162  1.00  0.00     0.194 C 
ATOM     13  O   UNL     1      43.098 -96.652  31.406  1.00  0.00    -0.289 OA
ATOM     14  C   UNL     1      42.349 -96.375  28.697  1.00  0.00     0.059 A 
ATOM     15  C   UNL     1      41.907 -96.274  27.374  1.00  0.00     0.120 A 
ATOM     16  C   UNL     1      40.611 -95.834  27.108  1.00  0.00     0.093 A 
ATOM     17  C   UNL     1      39.744 -95.496  28.155  1.00  0.00     0.131 A 
ENDROOT
BRANCH   6  18
ATOM     18  O   UNL     1      37.881 -93.886  32.882  1.00  0.00    -0.507 OA
ATOM     19  H   UNL     1      37.784 -93.036  32.345  1.00  0.00     0.293 HD
ENDBRANCH   6  18
BRANCH  17  20
ATOM     20  O   UNL     1      38.457 -95.046  27.859  1.00  0.00    -0.507 OA
ATOM     21  H   UNL     1      38.297 -94.259  27.240  1.00  0.00     0.293 HD
ENDBRANCH  17  20
BRANCH  15  22
ATOM     22  O   UNL     1      42.750 -96.606  26.316  1.00  0.00    -0.508 OA
ATOM     23  H   UNL     1      42.777 -97.544  25.934  1.00  0.00     0.293 HD
ENDBRANCH  15  22
TORSDOF 3
ENDMDL
MODEL 4
REMARK VINA RESULT:    -5.093      2.037      3.003
REMARK INTER + INTRA:          -5.540
REMARK INTER:                  -5.540
REMARK INTRA:                   0.000
REMARK UNBOUND:                 0.000
REMARK SMILES Cc1cc(O)c2c(c1)C(=O)c1cc(O)cc(O)c1C2=O
REMARK SMILES IDX 1 1 2 2 8 3 7 4 6 5 4 6 3 7 19 8 20 9 18 10 11 11 9 12 10 13
REMARK SMILES IDX 12 14 13 15 15 16 16 17 5 18 17 20 14 22
REMARK H PARENT 5 19 17 21 14 23
REMARK Flexibility Score: inf
ROOT
ATOM      1  C   UNL     1      40.680 -76.875  31.863  1.00  0.00     0.044 C 
ATOM      2  C   UNL     1      39.814 -77.125  33.063  1.00  0.00    -0.047 A 
ATOM      3  C   UNL     1      40.394 -77.358  34.313  1.00  0.00     0.016 A 
ATOM      4  C   UNL     1      39.593 -77.616  35.439  1.00  0.00     0.038 A 
ATOM      5  C   UNL     1      38.185 -77.643  35.311  1.00  0.00     0.076 A 
ATOM      6  C   UNL     1      37.609 -77.504  34.019  1.00  0.00     0.127 A 
ATOM      7  C   UNL     1      38.427 -77.220  32.921  1.00  0.00     0.050 A 
ATOM      8  C   UNL     1      37.363 -77.761  36.548  1.00  0.00     0.201 C 
ATOM      9  O   UNL     1      36.163 -77.381  36.549  1.00  0.00    -0.288 OA
ATOM     10  C   UNL     1      37.986 -78.220  37.817  1.00  0.00     0.076 A 
ATOM     11  C   UNL     1      39.393 -78.256  37.918  1.00  0.00     0.041 A 
ATOM     12  C   UNL     1      40.226 -77.875  36.754  1.00  0.00     0.194 C 
ATOM     13  O   UNL     1      41.478 -77.786  36.880  1.00  0.00    -0.289 OA
ATOM     14  C   UNL     1      39.997 -78.652  39.124  1.00  0.00     0.059 A 
ATOM     15  C   UNL     1      39.215 -79.016  40.225  1.00  0.00     0.120 A 
ATOM     16  C   UNL     1      37.824 -78.989  40.126  1.00  0.00     0.093 A 
ATOM     17  C   UNL     1      37.202 -78.596  38.934  1.00  0.00     0.131 A 
ENDROOT
BRANCH   6  18
ATOM     18  O   UNL     1      36.246 -77.676  33.772  1.00  0.00    -0.507 OA
ATOM     19  H   UNL     1      35.875 -78.062  32.915  1.00  0.00     0.293 HD
ENDBRANCH   6  18
BRANCH  17  20
ATOM     20  O   UNL     1      35.809 -78.591  38.858  1.00  0.00    -0.507 OA
ATOM     21  H   UNL     1      35.301 -79.307  38.352  1.00  0.00     0.293 HD
ENDBRANCH  17  20
BRANCH  15  22
ATOM     22  O   UNL     1      39.811 -79.409  41.421  1.00  0.00    -0.508 OA
ATOM     23  H   UNL     1      39.838 -80.382  41.706  1.00  0.00     0.293 HD
ENDBRANCH  15  22
TORSDOF 3
ENDMDL
MODEL 5
REMARK VINA RESULT:    -5.051      3.158      6.216
REMARK INTER + INTRA:          -5.494
REMARK INTER:                  -5.494
REMARK INTRA:                   0.000
REMARK UNBOUND:                 0.000
REMARK SMILES Cc1cc(O)c2c(c1)C(=O)c1cc(O)cc(O)c1C2=O
REMARK SMILES IDX 1 1 2 2 8 3 7 4 6 5 4 6 3 7 19 8 20 9 18 10 11 11 9 12 10 13
REMARK SMILES IDX 12 14 13 15 15 16 16 17 5 18 17 20 14 22
REMARK H PARENT 5 19 17 21 14 23
REMARK Flexibility Score: inf
ROOT
ATOM      1  C   UNL     1      35.484 -77.621  38.233  1.00  0.00     0.044 C 
ATOM      2  C   UNL     1      36.693 -77.566  37.346  1.00  0.00    -0.047 A 
ATOM      3  C   UNL     1      36.545 -77.448  35.961  1.00  0.00     0.016 A 
ATOM      4  C   UNL     1      37.670 -77.420  35.118  1.00  0.00     0.038 A 
ATOM      5  C   UNL     1      38.967 -77.512  35.673  1.00  0.00     0.076 A 
ATOM      6  C   UNL     1      39.104 -77.731  37.070  1.00  0.00     0.127 A 
ATOM      7  C   UNL     1      37.971 -77.728  37.888  1.00  0.00     0.050 A 
ATOM      8  C   UNL     1      40.138 -77.320  34.772  1.00  0.00     0.201 C 
ATOM      9  O   UNL     1      41.254 -76.981  35.247  1.00  0.00    -0.288 OA
ATOM     10  C   UNL     1      39.969 -77.413  33.297  1.00  0.00     0.076 A 
ATOM     11  C   UNL     1      38.667 -77.389  32.753  1.00  0.00     0.041 A 
ATOM     12  C   UNL     1      37.493 -77.308  33.651  1.00  0.00     0.194 C 
ATOM     13  O   UNL     1      36.339 -77.161  33.164  1.00  0.00    -0.289 OA
ATOM     14  C   UNL     1      38.493 -77.439  31.359  1.00  0.00     0.059 A 
ATOM     15  C   UNL     1      39.599 -77.520  30.506  1.00  0.00     0.120 A 
ATOM     16  C   UNL     1      40.886 -77.552  31.042  1.00  0.00     0.093 A 
ATOM     17  C   UNL     1      41.082 -77.501  32.428  1.00  0.00     0.131 A 
ENDROOT
BRANCH   6  18
ATOM     18  O   UNL     1      40.332 -77.994  37.682  1.00  0.00    -0.507 OA
ATOM     19  H   UNL     1      40.569 -78.879  38.108  1.00  0.00     0.293 HD
ENDBRANCH   6  18
BRANCH  17  20
ATOM     20  O   UNL     1      42.380 -77.548  32.938  1.00  0.00    -0.507 OA
ATOM     21  H   UNL     1      42.563 -77.776  33.908  1.00  0.00     0.293 HD
ENDBRANCH  17  20
BRANCH  15  22
ATOM     22  O   UNL     1      39.429 -77.570  29.125  1.00  0.00    -0.508 OA
ATOM     23  H   UNL     1      38.522 -77.424  28.696  1.00  0.00     0.293 HD
ENDBRANCH  15  22
TORSDOF 3
ENDMDL
MODEL 6
REMARK VINA RESULT:    -4.980      2.034      5.007
REMARK INTER + INTRA:          -5.416
REMARK INTER:                  -5.416
REMARK INTRA:                   0.000
REMARK UNBOUND:                 0.000
REMARK SMILES Cc1cc(O)c2c(c1)C(=O)c1cc(O)cc(O)c1C2=O
REMARK SMILES IDX 1 1 2 2 8 3 7 4 6 5 4 6 3 7 19 8 20 9 18 10 11 11 9 12 10 13
REMARK SMILES IDX 12 14 13 15 15 16 16 17 5 18 17 20 14 22
REMARK H PARENT 5 19 17 21 14 23
REMARK Flexibility Score: inf
ROOT
ATOM      1  C   UNL     1      39.010 -79.999  42.336  1.00  0.00     0.044 C 
ATOM      2  C   UNL     1      38.784 -79.513  40.935  1.00  0.00    -0.047 A 
ATOM      3  C   UNL     1      39.866 -79.347  40.065  1.00  0.00     0.016 A 
ATOM      4  C   UNL     1      39.669 -78.871  38.757  1.00  0.00     0.038 A 
ATOM      5  C   UNL     1      38.364 -78.553  38.312  1.00  0.00     0.076 A 
ATOM      6  C   UNL     1      37.286 -78.630  39.234  1.00  0.00     0.127 A 
ATOM      7  C   UNL     1      37.505 -79.133  40.520  1.00  0.00     0.050 A 
ATOM      8  C   UNL     1      38.171 -78.203  36.877  1.00  0.00     0.201 C 
ATOM      9  O   UNL     1      37.036 -78.320  36.345  1.00  0.00    -0.288 OA
ATOM     10  C   UNL     1      39.338 -77.826  36.037  1.00  0.00     0.076 A 
ATOM     11  C   UNL     1      40.640 -78.083  36.515  1.00  0.00     0.041 A 
ATOM     12  C   UNL     1      40.829 -78.688  37.853  1.00  0.00     0.194 C 
ATOM     13  O   UNL     1      41.982 -79.033  38.229  1.00  0.00    -0.289 OA
ATOM     14  C   UNL     1      41.752 -77.766  35.716  1.00  0.00     0.059 A 
ATOM     15  C   UNL     1      41.580 -77.191  34.453  1.00  0.00     0.120 A 
ATOM     16  C   UNL     1      40.294 -76.928  33.981  1.00  0.00     0.093 A 
ATOM     17  C   UNL     1      39.172 -77.238  34.760  1.00  0.00     0.131 A 
ENDROOT
BRANCH   6  18
ATOM     18  O   UNL     1      35.996 -78.186  38.934  1.00  0.00    -0.507 OA
ATOM     19  H   UNL     1      35.172 -78.766  39.003  1.00  0.00     0.293 HD
ENDBRANCH   6  18
BRANCH  17  20
ATOM     20  O   UNL     1      37.897 -76.951  34.269  1.00  0.00    -0.507 OA
ATOM     21  H   UNL     1      37.419 -76.088  34.501  1.00  0.00     0.293 HD
ENDBRANCH  17  20
BRANCH  15  22
ATOM     22  O   UNL     1      42.680 -76.875  33.659  1.00  0.00    -0.508 OA
ATOM     23  H   UNL     1      43.613 -77.194  33.894  1.00  0.00     0.293 HD
ENDBRANCH  15  22
TORSDOF 3
ENDMDL
MODEL 7
REMARK VINA RESULT:    -4.936     18.186     18.481
REMARK INTER + INTRA:          -5.369
REMARK INTER:                  -5.369
REMARK INTRA:                   0.000
REMARK UNBOUND:                 0.000
REMARK SMILES Cc1cc(O)c2c(c1)C(=O)c1cc(O)cc(O)c1C2=O
REMARK SMILES IDX 1 1 2 2 8 3 7 4 6 5 4 6 3 7 19 8 20 9 18 10 11 11 9 12 10 13
REMARK SMILES IDX 12 14 13 15 15 16 16 17 5 18 17 20 14 22
REMARK H PARENT 5 19 17 21 14 23
REMARK Flexibility Score: inf
ROOT
ATOM      1  C   UNL     1      34.452 -94.928  29.150  1.00  0.00     0.044 C 
ATOM      2  C   UNL     1      35.876 -95.256  29.492  1.00  0.00    -0.047 A 
ATOM      3  C   UNL     1      36.371 -94.988  30.771  1.00  0.00     0.016 A 
ATOM      4  C   UNL     1      37.710 -95.269  31.096  1.00  0.00     0.038 A 
ATOM      5  C   UNL     1      38.568 -95.830  30.122  1.00  0.00     0.076 A 
ATOM      6  C   UNL     1      38.083 -96.006  28.798  1.00  0.00     0.127 A 
ATOM      7  C   UNL     1      36.741 -95.744  28.509  1.00  0.00     0.050 A 
ATOM      8  C   UNL     1      39.931 -96.262  30.542  1.00  0.00     0.201 C 
ATOM      9  O   UNL     1      40.562 -97.114  29.864  1.00  0.00    -0.288 OA
ATOM     10  C   UNL     1      40.505 -95.777  31.825  1.00  0.00     0.076 A 
ATOM     11  C   UNL     1      39.656 -95.157  32.767  1.00  0.00     0.041 A 
ATOM     12  C   UNL     1      38.222 -94.965  32.453  1.00  0.00     0.194 C 
ATOM     13  O   UNL     1      37.439 -94.527  33.340  1.00  0.00    -0.289 OA
ATOM     14  C   UNL     1      40.178 -94.726  33.999  1.00  0.00     0.059 A 
ATOM     15  C   UNL     1      41.532 -94.901  34.298  1.00  0.00     0.120 A 
ATOM     16  C   UNL     1      42.375 -95.506  33.366  1.00  0.00     0.093 A 
ATOM     17  C   UNL     1      41.876 -95.944  32.133  1.00  0.00     0.131 A 
ENDROOT
BRANCH   6  18
ATOM     18  O   UNL     1      38.899 -96.400  27.736  1.00  0.00    -0.507 OA
ATOM     19  H   UNL     1      38.988 -95.881  26.873  1.00  0.00     0.293 HD
ENDBRANCH   6  18
BRANCH  17  20
ATOM     20  O   UNL     1      42.744 -96.534  31.214  1.00  0.00    -0.507 OA
ATOM     21  H   UNL     1      42.515 -96.595  30.228  1.00  0.00     0.293 HD
ENDBRANCH  17  20
BRANCH  15  22
ATOM     22  O   UNL     1      42.052 -94.476  35.518  1.00  0.00    -0.508 OA
ATOM     23  H   UNL     1      42.626 -95.083  36.092  1.00  0.00     0.293 HD
ENDBRANCH  15  22
TORSDOF 3
ENDMDL
MODEL 8
REMARK VINA RESULT:    -4.911      2.773      5.624
REMARK INTER + INTRA:          -5.342
REMARK INTER:                  -5.342
REMARK INTRA:                   0.000
REMARK UNBOUND:                 0.000
REMARK SMILES Cc1cc(O)c2c(c1)C(=O)c1cc(O)cc(O)c1C2=O
REMARK SMILES IDX 1 1 2 2 8 3 7 4 6 5 4 6 3 7 19 8 20 9 18 10 11 11 9 12 10 13
REMARK SMILES IDX 12 14 13 15 15 16 16 17 5 18 17 20 14 22
REMARK H PARENT 5 19 17 21 14 23
REMARK Flexibility Score: inf
ROOT
ATOM      1  C   UNL     1      40.027 -77.336  40.670  1.00  0.00     0.044 C 
ATOM      2  C   UNL     1      39.486 -77.369  39.270  1.00  0.00    -0.047 A 
ATOM      3  C   UNL     1      40.356 -77.478  38.182  1.00  0.00     0.016 A 
ATOM      4  C   UNL     1      39.863 -77.486  36.866  1.00  0.00     0.038 A 
ATOM      5  C   UNL     1      38.471 -77.383  36.635  1.00  0.00     0.076 A 
ATOM      6  C   UNL     1      37.604 -77.173  37.742  1.00  0.00     0.127 A 
ATOM      7  C   UNL     1      38.118 -77.196  39.041  1.00  0.00     0.050 A 
ATOM      8  C   UNL     1      37.969 -77.554  35.243  1.00  0.00     0.201 C 
ATOM      9  O   UNL     1      36.771 -77.883  35.037  1.00  0.00    -0.288 OA
ATOM     10  C   UNL     1      38.907 -77.450  34.094  1.00  0.00     0.076 A 
ATOM     11  C   UNL     1      40.296 -77.486  34.336  1.00  0.00     0.041 A 
ATOM     12  C   UNL     1      40.801 -77.588  35.724  1.00  0.00     0.194 C 
ATOM     13  O   UNL     1      42.035 -77.745  35.933  1.00  0.00    -0.289 OA
ATOM     14  C   UNL     1      41.195 -77.426  33.256  1.00  0.00     0.059 A 
ATOM     15  C   UNL     1      40.723 -77.326  31.943  1.00  0.00     0.120 A 
ATOM     16  C   UNL     1      39.350 -77.283  31.702  1.00  0.00     0.093 A 
ATOM     17  C   UNL     1      38.438 -77.342  32.763  1.00  0.00     0.131 A 
ENDROOT
BRANCH   6  18
ATOM     18  O   UNL     1      36.242 -76.900  37.599  1.00  0.00    -0.507 OA
ATOM     19  H   UNL     1      35.876 -76.149  37.032  1.00  0.00     0.293 HD
ENDBRANCH   6  18
BRANCH  17  20
ATOM     20  O   UNL     1      37.070 -77.283  32.493  1.00  0.00    -0.507 OA
ATOM     21  H   UNL     1      36.489 -76.534  32.851  1.00  0.00     0.293 HD
ENDBRANCH  17  20
BRANCH  15  22
ATOM     22  O   UNL     1      41.611 -77.267  30.872  1.00  0.00    -0.508 OA
ATOM     23  H   UNL     1      42.614 -77.309  31.010  1.00  0.00     0.293 HD
ENDBRANCH  15  22
TORSDOF 3
ENDMDL
MODEL 9
REMARK VINA RESULT:    -4.892      2.984      5.247
REMARK INTER + INTRA:          -5.321
REMARK INTER:                  -5.321
REMARK INTRA:                   0.000
REMARK UNBOUND:                 0.000
REMARK SMILES Cc1cc(O)c2c(c1)C(=O)c1cc(O)cc(O)c1C2=O
REMARK SMILES IDX 1 1 2 2 8 3 7 4 6 5 4 6 3 7 19 8 20 9 18 10 11 11 9 12 10 13
REMARK SMILES IDX 12 14 13 15 15 16 16 17 5 18 17 20 14 22
REMARK H PARENT 5 19 17 21 14 23
REMARK Flexibility Score: inf
ROOT
ATOM      1  C   UNL     1      39.698 -77.243  29.490  1.00  0.00     0.044 C 
ATOM      2  C   UNL     1      39.881 -77.304  30.978  1.00  0.00    -0.047 A 
ATOM      3  C   UNL     1      38.768 -77.315  31.824  1.00  0.00     0.016 A 
ATOM      4  C   UNL     1      38.927 -77.348  33.220  1.00  0.00     0.038 A 
ATOM      5  C   UNL     1      40.226 -77.371  33.780  1.00  0.00     0.076 A 
ATOM      6  C   UNL     1      41.349 -77.259  32.917  1.00  0.00     0.127 A 
ATOM      7  C   UNL     1      41.163 -77.255  31.532  1.00  0.00     0.050 A 
ATOM      8  C   UNL     1      40.359 -77.566  35.251  1.00  0.00     0.201 C 
ATOM      9  O   UNL     1      41.437 -78.000  35.737  1.00  0.00    -0.288 OA
ATOM     10  C   UNL     1      39.187 -77.359  36.141  1.00  0.00     0.076 A 
ATOM     11  C   UNL     1      37.899 -77.269  35.571  1.00  0.00     0.041 A 
ATOM     12  C   UNL     1      37.736 -77.346  34.102  1.00  0.00     0.194 C 
ATOM     13  O   UNL     1      36.580 -77.392  33.600  1.00  0.00    -0.289 OA
ATOM     14  C   UNL     1      36.777 -77.111  36.403  1.00  0.00     0.059 A 
ATOM     15  C   UNL     1      36.926 -77.034  37.791  1.00  0.00     0.120 A 
ATOM     16  C   UNL     1      38.198 -77.114  38.357  1.00  0.00     0.093 A 
ATOM     17  C   UNL     1      39.330 -77.274  37.547  1.00  0.00     0.131 A 
ENDROOT
BRANCH   6  18
ATOM     18  O   UNL     1      42.656 -77.111  33.386  1.00  0.00    -0.507 OA
ATOM     19  H   UNL     1      43.247 -77.885  33.655  1.00  0.00     0.293 HD
ENDBRANCH   6  18
BRANCH  17  20
ATOM     20  O   UNL     1      40.592 -77.337  38.139  1.00  0.00    -0.507 OA
ATOM     21  H   UNL     1      40.960 -76.571  38.691  1.00  0.00     0.293 HD
ENDBRANCH  17  20
BRANCH  15  22
ATOM     22  O   UNL     1      35.816 -76.877  38.618  1.00  0.00    -0.508 OA
ATOM     23  H   UNL     1      35.168 -77.638  38.788  1.00  0.00     0.293 HD
ENDBRANCH  15  22
TORSDOF 3
ENDMDL
