MODEL 1
REMARK VINA RESULT:    -3.066      0.000      0.000
REMARK INTER + INTRA:          -3.662
REMARK INTER:                  -3.604
REMARK INTRA:                  -0.058
REMARK UNBOUND:                -0.058
REMARK SMILES O=C([O-])CCC(=O)[O-]
REMARK SMILES IDX 4 1 2 2 1 3 3 4 5 5 6 6 7 7 8 8
REMARK H PARENT
REMARK Flexibility Score: inf
ROOT
ATOM      1  C   UNL     1      30.002   6.598   1.864  1.00  0.00     0.059 C 
ENDROOT
BRANCH   1   2
ATOM      2  C   UNL     1      28.742   6.931   1.130  1.00  0.00     0.042 C 
ATOM      3  O   UNL     1      28.275   6.130   0.278  1.00  0.00    -0.550 OA
ATOM      4  O   UNL     1      28.108   8.146   1.351  1.00  0.00    -0.550 OA
ENDBRANCH   1   2
BRANCH   1   5
ATOM      5  C   UNL     1      31.155   6.390   0.882  1.00  0.00     0.059 C 
BRANCH   5   6
ATOM      6  C   UNL     1      31.912   7.665   0.684  1.00  0.00     0.042 C 
ATOM      7  O   UNL     1      31.543   8.718   1.267  1.00  0.00    -0.550 OA
ATOM      8  O   UNL     1      32.997   7.701  -0.183  1.00  0.00    -0.550 OA
ENDBRANCH   5   6
ENDBRANCH   1   5
TORSDOF 3
ENDMDL
MODEL 2
REMARK VINA RESULT:    -3.061      0.107      3.794
REMARK INTER + INTRA:          -3.656
REMARK INTER:                  -3.594
REMARK INTRA:                  -0.062
REMARK UNBOUND:                -0.058
REMARK SMILES O=C([O-])CCC(=O)[O-]
REMARK SMILES IDX 4 1 2 2 1 3 3 4 5 5 6 6 7 7 8 8
REMARK H PARENT
REMARK Flexibility Score: inf
ROOT
ATOM      1  C   UNL     1      31.147   6.415   1.050  1.00  0.00     0.059 C 
ENDROOT
BRANCH   1   2
ATOM      2  C   UNL     1      31.873   7.686   0.739  1.00  0.00     0.042 C 
ATOM      3  O   UNL     1      31.534   8.762   1.298  1.00  0.00    -0.550 OA
ATOM      4  O   UNL     1      32.892   7.692  -0.203  1.00  0.00    -0.550 OA
ENDBRANCH   1   2
BRANCH   1   5
ATOM      5  C   UNL     1      29.966   6.688   1.982  1.00  0.00     0.059 C 
BRANCH   5   6
ATOM      6  C   UNL     1      28.730   6.980   1.190  1.00  0.00     0.042 C 
ATOM      7  O   UNL     1      28.340   6.174   0.306  1.00  0.00    -0.550 OA
ATOM      8  O   UNL     1      28.038   8.167   1.396  1.00  0.00    -0.550 OA
ENDBRANCH   5   6
ENDBRANCH   1   5
TORSDOF 3
ENDMDL
MODEL 3
REMARK VINA RESULT:    -2.905      1.409      3.842
REMARK INTER + INTRA:          -3.473
REMARK INTER:                  -3.441
REMARK INTRA:                  -0.032
REMARK UNBOUND:                -0.058
REMARK SMILES O=C([O-])CCC(=O)[O-]
REMARK SMILES IDX 4 1 2 2 1 3 3 4 5 5 6 6 7 7 8 8
REMARK H PARENT
REMARK Flexibility Score: inf
ROOT
ATOM      1  C   UNL     1      31.593   7.752   1.434  1.00  0.00     0.059 C 
ENDROOT
BRANCH   1   2
ATOM      2  C   UNL     1      32.349   7.172   0.281  1.00  0.00     0.042 C 
ATOM      3  O   UNL     1      33.050   7.914  -0.455  1.00  0.00    -0.550 OA
ATOM      4  O   UNL     1      32.242   5.818  -0.009  1.00  0.00    -0.550 OA
ENDBRANCH   1   2
BRANCH   1   5
ATOM      5  C   UNL     1      30.301   6.970   1.675  1.00  0.00     0.059 C 
BRANCH   5   6
ATOM      6  C   UNL     1      29.208   7.888   2.124  1.00  0.00     0.042 C 
ATOM      7  O   UNL     1      28.232   8.127   1.366  1.00  0.00    -0.550 OA
ATOM      8  O   UNL     1      29.293   8.517   3.359  1.00  0.00    -0.550 OA
ENDBRANCH   5   6
ENDBRANCH   1   5
TORSDOF 3
ENDMDL
MODEL 4
REMARK VINA RESULT:    -2.904      8.944      9.462
REMARK INTER + INTRA:          -3.472
REMARK INTER:                  -3.367
REMARK INTRA:                  -0.106
REMARK UNBOUND:                -0.058
REMARK SMILES O=C([O-])CCC(=O)[O-]
REMARK SMILES IDX 4 1 2 2 1 3 3 4 5 5 6 6 7 7 8 8
REMARK H PARENT
REMARK Flexibility Score: inf
ROOT
ATOM      1  C   UNL     1      36.928  12.387   4.963  1.00  0.00     0.059 C 
ENDROOT
BRANCH   1   2
ATOM      2  C   UNL     1      35.636  13.046   5.329  1.00  0.00     0.042 C 
ATOM      3  O   UNL     1      35.018  13.743   4.482  1.00  0.00    -0.550 OA
ATOM      4  O   UNL     1      35.137  12.929   6.620  1.00  0.00    -0.550 OA
ENDBRANCH   1   2
BRANCH   1   5
ATOM      5  C   UNL     1      37.609  11.817   6.208  1.00  0.00     0.059 C 
BRANCH   5   6
ATOM      6  C   UNL     1      37.751  10.332   6.094  1.00  0.00     0.042 C 
ATOM      7  O   UNL     1      36.775   9.629   5.722  1.00  0.00    -0.550 OA
ATOM      8  O   UNL     1      38.947   9.719   6.446  1.00  0.00    -0.550 OA
ENDBRANCH   5   6
ENDBRANCH   1   5
TORSDOF 3
ENDMDL
MODEL 5
REMARK VINA RESULT:    -2.895      0.993      1.217
REMARK INTER + INTRA:          -3.461
REMARK INTER:                  -3.388
REMARK INTRA:                  -0.073
REMARK UNBOUND:                -0.058
REMARK SMILES O=C([O-])CCC(=O)[O-]
REMARK SMILES IDX 4 1 2 2 1 3 3 4 5 5 6 6 7 7 8 8
REMARK H PARENT
REMARK Flexibility Score: inf
ROOT
ATOM      1  C   UNL     1      30.207   6.830   1.948  1.00  0.00     0.059 C 
ENDROOT
BRANCH   1   2
ATOM      2  C   UNL     1      28.927   7.028   1.200  1.00  0.00     0.042 C 
ATOM      3  O   UNL     1      28.543   6.168   0.364  1.00  0.00    -0.550 OA
ATOM      4  O   UNL     1      28.183   8.184   1.390  1.00  0.00    -0.550 OA
ENDBRANCH   1   2
BRANCH   1   5
ATOM      5  C   UNL     1      31.248   7.862   1.512  1.00  0.00     0.059 C 
BRANCH   5   6
ATOM      6  C   UNL     1      32.323   7.212   0.700  1.00  0.00     0.042 C 
ATOM      7  O   UNL     1      32.697   6.040   0.968  1.00  0.00    -0.550 OA
ATOM      8  O   UNL     1      32.947   7.919  -0.320  1.00  0.00    -0.550 OA
ENDBRANCH   5   6
ENDBRANCH   1   5
TORSDOF 3
ENDMDL
MODEL 6
REMARK VINA RESULT:    -2.874      8.974      9.742
REMARK INTER + INTRA:          -3.436
REMARK INTER:                  -3.325
REMARK INTRA:                  -0.111
REMARK UNBOUND:                -0.058
REMARK SMILES O=C([O-])CCC(=O)[O-]
REMARK SMILES IDX 4 1 2 2 1 3 3 4 5 5 6 6 7 7 8 8
REMARK H PARENT
REMARK Flexibility Score: inf
ROOT
ATOM      1  C   UNL     1      37.605  11.820   6.374  1.00  0.00     0.059 C 
ENDROOT
BRANCH   1   2
ATOM      2  C   UNL     1      37.748  10.348   6.144  1.00  0.00     0.042 C 
ATOM      3  O   UNL     1      36.762   9.670   5.754  1.00  0.00    -0.550 OA
ATOM      4  O   UNL     1      38.957   9.718   6.407  1.00  0.00    -0.550 OA
ENDBRANCH   1   2
BRANCH   1   5
ATOM      5  C   UNL     1      37.033  12.502   5.131  1.00  0.00     0.059 C 
BRANCH   5   6
ATOM      6  C   UNL     1      35.678  13.068   5.420  1.00  0.00     0.042 C 
ATOM      7  O   UNL     1      35.161  12.921   6.558  1.00  0.00    -0.550 OA
ATOM      8  O   UNL     1      34.967  13.714   4.417  1.00  0.00    -0.550 OA
ENDBRANCH   5   6
ENDBRANCH   1   5
TORSDOF 3
ENDMDL
MODEL 7
REMARK VINA RESULT:    -2.786      1.140      2.084
REMARK INTER + INTRA:          -3.332
REMARK INTER:                  -3.238
REMARK INTRA:                  -0.094
REMARK UNBOUND:                -0.058
REMARK SMILES O=C([O-])CCC(=O)[O-]
REMARK SMILES IDX 4 1 2 2 1 3 3 4 5 5 6 6 7 7 8 8
REMARK H PARENT
REMARK Flexibility Score: inf
ROOT
ATOM      1  C   UNL     1      30.453   6.067   1.607  1.00  0.00     0.059 C 
ENDROOT
BRANCH   1   2
ATOM      2  C   UNL     1      29.553   5.504   0.552  1.00  0.00     0.042 C 
ATOM      3  O   UNL     1      28.459   6.068   0.286  1.00  0.00    -0.550 OA
ATOM      4  O   UNL     1      29.899   4.331  -0.103  1.00  0.00    -0.550 OA
ENDBRANCH   1   2
BRANCH   1   5
ATOM      5  C   UNL     1      31.889   6.159   1.091  1.00  0.00     0.059 C 
BRANCH   5   6
ATOM      6  C   UNL     1      32.182   7.541   0.597  1.00  0.00     0.042 C 
ATOM      7  O   UNL     1      33.028   7.720  -0.318  1.00  0.00    -0.550 OA
ATOM      8  O   UNL     1      31.556   8.635   1.182  1.00  0.00    -0.550 OA
ENDBRANCH   5   6
ENDBRANCH   1   5
TORSDOF 3
ENDMDL
MODEL 8
REMARK VINA RESULT:    -2.729      1.494      3.816
REMARK INTER + INTRA:          -3.265
REMARK INTER:                  -3.145
REMARK INTRA:                  -0.121
REMARK UNBOUND:                -0.058
REMARK SMILES O=C([O-])CCC(=O)[O-]
REMARK SMILES IDX 4 1 2 2 1 3 3 4 5 5 6 6 7 7 8 8
REMARK H PARENT
REMARK Flexibility Score: inf
ROOT
ATOM      1  C   UNL     1      30.597   6.990   2.623  1.00  0.00     0.059 C 
ENDROOT
BRANCH   1   2
ATOM      2  C   UNL     1      31.606   7.466   1.628  1.00  0.00     0.042 C 
ATOM      3  O   UNL     1      32.529   6.700   1.244  1.00  0.00    -0.550 OA
ATOM      4  O   UNL     1      31.557   8.772   1.159  1.00  0.00    -0.550 OA
ENDBRANCH   1   2
BRANCH   1   5
ATOM      5  C   UNL     1      29.753   8.159   3.132  1.00  0.00     0.059 C 
BRANCH   5   6
ATOM      6  C   UNL     1      28.357   8.068   2.603  1.00  0.00     0.042 C 
ATOM      7  O   UNL     1      27.392   7.879   3.390  1.00  0.00    -0.550 OA
ATOM      8  O   UNL     1      28.126   8.142   1.235  1.00  0.00    -0.550 OA
ENDBRANCH   5   6
ENDBRANCH   1   5
TORSDOF 3
ENDMDL
MODEL 9
REMARK VINA RESULT:    -2.666      2.361      3.668
REMARK INTER + INTRA:          -3.192
REMARK INTER:                  -3.049
REMARK INTRA:                  -0.142
REMARK UNBOUND:                -0.058
REMARK SMILES O=C([O-])CCC(=O)[O-]
REMARK SMILES IDX 4 1 2 2 1 3 3 4 5 5 6 6 7 7 8 8
REMARK H PARENT
REMARK Flexibility Score: inf
ROOT
ATOM      1  C   UNL     1      31.759   6.202   1.033  1.00  0.00     0.059 C 
ENDROOT
BRANCH   1   2
ATOM      2  C   UNL     1      32.146   7.590   0.633  1.00  0.00     0.042 C 
ATOM      3  O   UNL     1      31.585   8.583   1.167  1.00  0.00    -0.550 OA
ATOM      4  O   UNL     1      33.093   7.788  -0.363  1.00  0.00    -0.550 OA
ENDBRANCH   1   2
BRANCH   1   5
ATOM      5  C   UNL     1      31.498   6.132   2.538  1.00  0.00     0.059 C 
BRANCH   5   6
ATOM      6  C   UNL     1      32.787   6.012   3.289  1.00  0.00     0.042 C 
ATOM      7  O   UNL     1      33.152   6.929   4.070  1.00  0.00    -0.550 OA
ATOM      8  O   UNL     1      33.608   4.909   3.088  1.00  0.00    -0.550 OA
ENDBRANCH   5   6
ENDBRANCH   1   5
TORSDOF 3
ENDMDL
