MODEL 1
REMARK VINA RESULT:    -3.902      0.000      0.000
REMARK INTER + INTRA:          -8.030
REMARK INTER:                  -6.868
REMARK INTRA:                  -1.162
REMARK UNBOUND:                -1.162
REMARK SMILES CCCCCCCCCCCCCCC(=O)[O-]
REMARK SMILES IDX 9 1 10 2 11 3 12 4 13 5 14 6 15 7 16 8 17 9 8 10 7 11 6 12
REMARK SMILES IDX 5 13 4 14 3 15 2 16 1 17
REMARK H PARENT
REMARK Flexibility Score: inf
ROOT
ATOM      1  C   UNL     1       3.971  29.610  54.110  1.00  0.00     0.000 C 
ENDROOT
BRANCH   1   2
ATOM      2  C   UNL     1       4.863  29.592  52.856  1.00  0.00     0.000 C 
BRANCH   2   3
ATOM      3  C   UNL     1       4.767  30.892  52.036  1.00  0.00     0.000 C 
BRANCH   3   4
ATOM      4  C   UNL     1       4.473  30.692  50.538  1.00  0.00     0.000 C 
BRANCH   4   5
ATOM      5  C   UNL     1       4.968  29.340  50.004  1.00  0.00     0.006 C 
BRANCH   5   6
ATOM      6  C   UNL     1       3.798  28.485  49.509  1.00  0.00     0.053 C 
BRANCH   6   7
ATOM      7  C   UNL     1       4.266  27.108  49.159  1.00  0.00     0.041 C 
ATOM      8  O   UNL     1       4.635  26.843  47.985  1.00  0.00    -0.550 OA
ATOM      9  O   UNL     1       4.343  26.130  50.142  1.00  0.00    -0.550 OA
ENDBRANCH   6   7
ENDBRANCH   5   6
ENDBRANCH   4   5
ENDBRANCH   3   4
ENDBRANCH   2   3
ENDBRANCH   1   2
BRANCH   1  10
ATOM     10  C   UNL     1       3.532  28.201  54.539  1.00  0.00     0.000 C 
BRANCH  10  11
ATOM     11  C   UNL     1       4.263  27.716  55.803  1.00  0.00    -0.000 C 
BRANCH  11  12
ATOM     12  C   UNL     1       3.854  28.502  57.058  1.00  0.00    -0.000 C 
BRANCH  12  13
ATOM     13  C   UNL     1       2.464  28.099  57.580  1.00  0.00    -0.000 C 
BRANCH  13  14
ATOM     14  C   UNL     1       1.432  29.227  57.439  1.00  0.00    -0.000 C 
BRANCH  14  15
ATOM     15  C   UNL     1       0.103  28.740  56.835  1.00  0.00    -0.000 C 
BRANCH  15  16
ATOM     16  C   UNL     1       0.114  28.755  55.298  1.00  0.00    -0.003 C 
ATOM     17  C   UNL     1       0.192  30.168  54.723  1.00  0.00     0.004 C 
ENDBRANCH  15  16
ENDBRANCH  14  15
ENDBRANCH  13  14
ENDBRANCH  12  13
ENDBRANCH  11  12
ENDBRANCH  10  11
ENDBRANCH   1  10
TORSDOF 13
ENDMDL
MODEL 2
REMARK VINA RESULT:    -3.811      3.215      7.433
REMARK INTER + INTRA:          -7.869
REMARK INTER:                  -6.881
REMARK INTRA:                  -0.988
REMARK UNBOUND:                -1.162
REMARK SMILES CCCCCCCCCCCCCCC(=O)[O-]
REMARK SMILES IDX 9 1 10 2 11 3 12 4 13 5 14 6 15 7 16 8 17 9 8 10 7 11 6 12
REMARK SMILES IDX 5 13 4 14 3 15 2 16 1 17
REMARK H PARENT
REMARK Flexibility Score: inf
ROOT
ATOM      1  C   UNL     1       3.501  29.658  53.761  1.00  0.00     0.000 C 
ENDROOT
BRANCH   1   2
ATOM      2  C   UNL     1       3.324  28.286  54.435  1.00  0.00     0.000 C 
BRANCH   2   3
ATOM      3  C   UNL     1       4.153  28.143  55.724  1.00  0.00     0.000 C 
BRANCH   3   4
ATOM      4  C   UNL     1       3.326  27.929  57.005  1.00  0.00     0.000 C 
BRANCH   4   5
ATOM      5  C   UNL     1       2.240  28.997  57.204  1.00  0.00     0.006 C 
BRANCH   5   6
ATOM      6  C   UNL     1       0.842  28.378  57.131  1.00  0.00     0.053 C 
BRANCH   6   7
ATOM      7  C   UNL     1      -0.111  29.313  56.457  1.00  0.00     0.041 C 
ATOM      8  O   UNL     1      -0.975  29.932  57.130  1.00  0.00    -0.550 OA
ATOM      9  O   UNL     1      -0.012  29.539  55.089  1.00  0.00    -0.550 OA
ENDBRANCH   6   7
ENDBRANCH   5   6
ENDBRANCH   4   5
ENDBRANCH   3   4
ENDBRANCH   2   3
ENDBRANCH   1   2
BRANCH   1  10
ATOM     10  C   UNL     1       4.255  29.564  52.425  1.00  0.00     0.000 C 
BRANCH  10  11
ATOM     11  C   UNL     1       4.650  28.119  52.072  1.00  0.00    -0.000 C 
BRANCH  11  12
ATOM     12  C   UNL     1       5.232  27.996  50.656  1.00  0.00    -0.000 C 
BRANCH  12  13
ATOM     13  C   UNL     1       4.444  27.008  49.778  1.00  0.00    -0.000 C 
BRANCH  13  14
ATOM     14  C   UNL     1       3.454  27.715  48.839  1.00  0.00    -0.000 C 
BRANCH  14  15
ATOM     15  C   UNL     1       3.884  29.154  48.503  1.00  0.00    -0.000 C 
BRANCH  15  16
ATOM     16  C   UNL     1       4.186  29.344  47.008  1.00  0.00    -0.003 C 
ATOM     17  C   UNL     1       5.349  28.477  46.527  1.00  0.00     0.004 C 
ENDBRANCH  15  16
ENDBRANCH  14  15
ENDBRANCH  13  14
ENDBRANCH  12  13
ENDBRANCH  11  12
ENDBRANCH  10  11
ENDBRANCH   1  10
TORSDOF 13
ENDMDL
MODEL 3
REMARK VINA RESULT:    -3.736      3.576      7.745
REMARK INTER + INTRA:          -7.737
REMARK INTER:                  -6.800
REMARK INTRA:                  -0.937
REMARK UNBOUND:                -1.162
REMARK SMILES CCCCCCCCCCCCCCC(=O)[O-]
REMARK SMILES IDX 9 1 10 2 11 3 12 4 13 5 14 6 15 7 16 8 17 9 8 10 7 11 6 12
REMARK SMILES IDX 5 13 4 14 3 15 2 16 1 17
REMARK H PARENT
REMARK Flexibility Score: inf
ROOT
ATOM      1  C   UNL     1       4.425  28.359  52.190  1.00  0.00     0.000 C 
ENDROOT
BRANCH   1   2
ATOM      2  C   UNL     1       4.285  29.014  53.575  1.00  0.00     0.000 C 
BRANCH   2   3
ATOM      3  C   UNL     1       3.180  28.369  54.432  1.00  0.00     0.000 C 
BRANCH   3   4
ATOM      4  C   UNL     1       3.600  28.013  55.870  1.00  0.00     0.000 C 
BRANCH   4   5
ATOM      5  C   UNL     1       2.523  28.350  56.911  1.00  0.00     0.006 C 
BRANCH   5   6
ATOM      6  C   UNL     1       1.349  29.092  56.265  1.00  0.00     0.053 C 
BRANCH   6   7
ATOM      7  C   UNL     1       0.094  28.869  57.046  1.00  0.00     0.041 C 
ATOM      8  O   UNL     1      -0.099  27.775  57.637  1.00  0.00    -0.550 OA
ATOM      9  O   UNL     1      -0.842  29.890  57.164  1.00  0.00    -0.550 OA
ENDBRANCH   6   7
ENDBRANCH   5   6
ENDBRANCH   4   5
ENDBRANCH   3   4
ENDBRANCH   2   3
ENDBRANCH   1   2
BRANCH   1  10
ATOM     10  C   UNL     1       5.677  28.836  51.438  1.00  0.00     0.000 C 
BRANCH  10  11
ATOM     11  C   UNL     1       5.345  29.835  50.315  1.00  0.00    -0.000 C 
BRANCH  11  12
ATOM     12  C   UNL     1       5.447  29.206  48.917  1.00  0.00    -0.000 C 
BRANCH  12  13
ATOM     13  C   UNL     1       4.090  28.700  48.398  1.00  0.00    -0.000 C 
BRANCH  13  14
ATOM     14  C   UNL     1       4.147  27.238  47.929  1.00  0.00    -0.000 C 
BRANCH  14  15
ATOM     15  C   UNL     1       4.243  26.245  49.101  1.00  0.00    -0.000 C 
BRANCH  15  16
ATOM     16  C   UNL     1       5.621  25.571  49.191  1.00  0.00    -0.003 C 
ATOM     17  C   UNL     1       5.530  24.046  49.223  1.00  0.00     0.004 C 
ENDBRANCH  15  16
ENDBRANCH  14  15
ENDBRANCH  13  14
ENDBRANCH  12  13
ENDBRANCH  11  12
ENDBRANCH  10  11
ENDBRANCH   1  10
TORSDOF 13
ENDMDL
MODEL 4
REMARK VINA RESULT:    -3.713      9.668     12.422
REMARK INTER + INTRA:          -7.696
REMARK INTER:                  -6.843
REMARK INTRA:                  -0.853
REMARK UNBOUND:                -1.162
REMARK SMILES CCCCCCCCCCCCCCC(=O)[O-]
REMARK SMILES IDX 9 1 10 2 11 3 12 4 13 5 14 6 15 7 16 8 17 9 8 10 7 11 6 12
REMARK SMILES IDX 5 13 4 14 3 15 2 16 1 17
REMARK H PARENT
REMARK Flexibility Score: inf
ROOT
ATOM      1  C   UNL     1      -6.685  28.803  57.037  1.00  0.00     0.000 C 
ENDROOT
BRANCH   1   2
ATOM      2  C   UNL     1      -5.772  28.791  58.275  1.00  0.00     0.000 C 
BRANCH   2   3
ATOM      3  C   UNL     1      -4.853  30.024  58.351  1.00  0.00     0.000 C 
BRANCH   3   4
ATOM      4  C   UNL     1      -5.055  30.907  59.596  1.00  0.00     0.000 C 
BRANCH   4   5
ATOM      5  C   UNL     1      -6.492  31.430  59.734  1.00  0.00     0.006 C 
BRANCH   5   6
ATOM      6  C   UNL     1      -6.942  32.142  58.455  1.00  0.00     0.053 C 
BRANCH   6   7
ATOM      7  C   UNL     1      -8.412  31.961  58.244  1.00  0.00     0.041 C 
ATOM      8  O   UNL     1      -8.850  31.578  57.128  1.00  0.00    -0.550 OA
ATOM      9  O   UNL     1      -9.295  32.169  59.296  1.00  0.00    -0.550 OA
ENDBRANCH   6   7
ENDBRANCH   5   6
ENDBRANCH   4   5
ENDBRANCH   3   4
ENDBRANCH   2   3
ENDBRANCH   1   2
BRANCH   1  10
ATOM     10  C   UNL     1      -7.785  27.732  57.107  1.00  0.00     0.000 C 
BRANCH  10  11
ATOM     11  C   UNL     1      -7.483  26.519  56.209  1.00  0.00    -0.000 C 
BRANCH  11  12
ATOM     12  C   UNL     1      -6.809  26.918  54.886  1.00  0.00    -0.000 C 
BRANCH  12  13
ATOM     13  C   UNL     1      -7.383  26.155  53.679  1.00  0.00    -0.000 C 
BRANCH  13  14
ATOM     14  C   UNL     1      -6.328  25.892  52.593  1.00  0.00    -0.000 C 
BRANCH  14  15
ATOM     15  C   UNL     1      -5.108  26.822  52.718  1.00  0.00    -0.000 C 
BRANCH  15  16
ATOM     16  C   UNL     1      -4.211  26.786  51.471  1.00  0.00    -0.003 C 
ATOM     17  C   UNL     1      -5.007  26.633  50.176  1.00  0.00     0.004 C 
ENDBRANCH  15  16
ENDBRANCH  14  15
ENDBRANCH  13  14
ENDBRANCH  12  13
ENDBRANCH  11  12
ENDBRANCH  10  11
ENDBRANCH   1  10
TORSDOF 13
ENDMDL
MODEL 5
REMARK VINA RESULT:    -3.711      1.857      3.195
REMARK INTER + INTRA:          -7.693
REMARK INTER:                  -6.621
REMARK INTRA:                  -1.072
REMARK UNBOUND:                -1.162
REMARK SMILES CCCCCCCCCCCCCCC(=O)[O-]
REMARK SMILES IDX 9 1 10 2 11 3 12 4 13 5 14 6 15 7 16 8 17 9 8 10 7 11 6 12
REMARK SMILES IDX 5 13 4 14 3 15 2 16 1 17
REMARK H PARENT
REMARK Flexibility Score: inf
ROOT
ATOM      1  C   UNL     1       4.589  28.078  51.803  1.00  0.00     0.000 C 
ENDROOT
BRANCH   1   2
ATOM      2  C   UNL     1       5.378  27.615  50.566  1.00  0.00     0.000 C 
BRANCH   2   3
ATOM      3  C   UNL     1       4.820  26.318  49.953  1.00  0.00     0.000 C 
BRANCH   3   4
ATOM      4  C   UNL     1       4.257  26.466  48.527  1.00  0.00     0.000 C 
BRANCH   4   5
ATOM      5  C   UNL     1       4.864  27.652  47.763  1.00  0.00     0.006 C 
BRANCH   5   6
ATOM      6  C   UNL     1       3.772  28.476  47.074  1.00  0.00     0.053 C 
BRANCH   6   7
ATOM      7  C   UNL     1       2.915  29.164  48.089  1.00  0.00     0.041 C 
ATOM      8  O   UNL     1       3.424  29.984  48.897  1.00  0.00    -0.550 OA
ATOM      9  O   UNL     1       1.545  28.936  48.110  1.00  0.00    -0.550 OA
ENDBRANCH   6   7
ENDBRANCH   5   6
ENDBRANCH   4   5
ENDBRANCH   3   4
ENDBRANCH   2   3
ENDBRANCH   1   2
BRANCH   1  10
ATOM     10  C   UNL     1       4.697  29.594  52.036  1.00  0.00     0.000 C 
BRANCH  10  11
ATOM     11  C   UNL     1       4.193  30.012  53.429  1.00  0.00    -0.000 C 
BRANCH  11  12
ATOM     12  C   UNL     1       4.791  29.153  54.555  1.00  0.00    -0.000 C 
BRANCH  12  13
ATOM     13  C   UNL     1       3.724  28.653  55.544  1.00  0.00    -0.000 C 
BRANCH  13  14
ATOM     14  C   UNL     1       2.433  28.205  54.842  1.00  0.00    -0.000 C 
BRANCH  14  15
ATOM     15  C   UNL     1       1.200  29.001  55.307  1.00  0.00    -0.000 C 
BRANCH  15  16
ATOM     16  C   UNL     1       0.668  28.521  56.666  1.00  0.00    -0.003 C 
ATOM     17  C   UNL     1      -0.528  29.338  57.153  1.00  0.00     0.004 C 
ENDBRANCH  15  16
ENDBRANCH  14  15
ENDBRANCH  13  14
ENDBRANCH  12  13
ENDBRANCH  11  12
ENDBRANCH  10  11
ENDBRANCH   1  10
TORSDOF 13
ENDMDL
MODEL 6
REMARK VINA RESULT:    -3.698     15.075     16.700
REMARK INTER + INTRA:          -7.669
REMARK INTER:                  -6.148
REMARK INTRA:                  -1.521
REMARK UNBOUND:                -1.162
REMARK SMILES CCCCCCCCCCCCCCC(=O)[O-]
REMARK SMILES IDX 9 1 10 2 11 3 12 4 13 5 14 6 15 7 16 8 17 9 8 10 7 11 6 12
REMARK SMILES IDX 5 13 4 14 3 15 2 16 1 17
REMARK H PARENT
REMARK Flexibility Score: inf
ROOT
ATOM      1  C   UNL     1      -8.500  37.846  45.535  1.00  0.00     0.000 C 
ENDROOT
BRANCH   1   2
ATOM      2  C   UNL     1      -7.668  36.953  46.472  1.00  0.00     0.000 C 
BRANCH   2   3
ATOM      3  C   UNL     1      -6.981  35.790  45.735  1.00  0.00     0.000 C 
BRANCH   3   4
ATOM      4  C   UNL     1      -7.712  35.303  44.470  1.00  0.00     0.000 C 
BRANCH   4   5
ATOM      5  C   UNL     1      -6.823  34.447  43.556  1.00  0.00     0.006 C 
BRANCH   5   6
ATOM      6  C   UNL     1      -7.321  32.999  43.507  1.00  0.00     0.053 C 
BRANCH   6   7
ATOM      7  C   UNL     1      -8.604  32.912  42.744  1.00  0.00     0.041 C 
ATOM      8  O   UNL     1      -8.611  33.070  41.495  1.00  0.00    -0.550 OA
ATOM      9  O   UNL     1      -9.787  32.605  43.405  1.00  0.00    -0.550 OA
ENDBRANCH   6   7
ENDBRANCH   5   6
ENDBRANCH   4   5
ENDBRANCH   3   4
ENDBRANCH   2   3
ENDBRANCH   1   2
BRANCH   1  10
ATOM     10  C   UNL     1      -7.829  39.202  45.265  1.00  0.00     0.000 C 
BRANCH  10  11
ATOM     11  C   UNL     1      -7.009  39.204  43.962  1.00  0.00    -0.000 C 
BRANCH  11  12
ATOM     12  C   UNL     1      -5.535  39.569  44.194  1.00  0.00    -0.000 C 
BRANCH  12  13
ATOM     13  C   UNL     1      -4.593  38.892  43.184  1.00  0.00    -0.000 C 
BRANCH  13  14
ATOM     14  C   UNL     1      -5.006  37.444  42.874  1.00  0.00    -0.000 C 
BRANCH  14  15
ATOM     15  C   UNL     1      -3.796  36.528  42.615  1.00  0.00    -0.000 C 
BRANCH  15  16
ATOM     16  C   UNL     1      -3.980  35.648  41.369  1.00  0.00    -0.003 C 
ATOM     17  C   UNL     1      -3.918  36.447  40.068  1.00  0.00     0.004 C 
ENDBRANCH  15  16
ENDBRANCH  14  15
ENDBRANCH  13  14
ENDBRANCH  12  13
ENDBRANCH  11  12
ENDBRANCH  10  11
ENDBRANCH   1  10
TORSDOF 13
ENDMDL
MODEL 7
REMARK VINA RESULT:    -3.618     14.878     16.066
REMARK INTER + INTRA:          -7.530
REMARK INTER:                  -5.621
REMARK INTRA:                  -1.908
REMARK UNBOUND:                -1.162
REMARK SMILES CCCCCCCCCCCCCCC(=O)[O-]
REMARK SMILES IDX 9 1 10 2 11 3 12 4 13 5 14 6 15 7 16 8 17 9 8 10 7 11 6 12
REMARK SMILES IDX 5 13 4 14 3 15 2 16 1 17
REMARK H PARENT
REMARK Flexibility Score: inf
ROOT
ATOM      1  C   UNL     1      -2.895  36.164  41.802  1.00  0.00     0.000 C 
ENDROOT
BRANCH   1   2
ATOM      2  C   UNL     1      -3.206  34.687  42.096  1.00  0.00     0.000 C 
BRANCH   2   3
ATOM      3  C   UNL     1      -4.611  34.268  41.628  1.00  0.00     0.000 C 
BRANCH   3   4
ATOM      4  C   UNL     1      -5.512  33.677  42.729  1.00  0.00     0.000 C 
BRANCH   4   5
ATOM      5  C   UNL     1      -7.003  33.962  42.501  1.00  0.00     0.006 C 
BRANCH   5   6
ATOM      6  C   UNL     1      -7.864  33.252  43.550  1.00  0.00     0.053 C 
BRANCH   6   7
ATOM      7  C   UNL     1      -9.023  32.566  42.901  1.00  0.00     0.041 C 
ATOM      8  O   UNL     1      -9.090  32.484  41.646  1.00  0.00    -0.550 OA
ATOM      9  O   UNL     1     -10.006  31.972  43.683  1.00  0.00    -0.550 OA
ENDBRANCH   6   7
ENDBRANCH   5   6
ENDBRANCH   4   5
ENDBRANCH   3   4
ENDBRANCH   2   3
ENDBRANCH   1   2
BRANCH   1  10
ATOM     10  C   UNL     1      -4.145  36.959  41.393  1.00  0.00     0.000 C 
BRANCH  10  11
ATOM     11  C   UNL     1      -4.467  38.098  42.376  1.00  0.00    -0.000 C 
BRANCH  11  12
ATOM     12  C   UNL     1      -5.656  37.767  43.292  1.00  0.00    -0.000 C 
BRANCH  12  13
ATOM     13  C   UNL     1      -5.235  36.969  44.538  1.00  0.00    -0.000 C 
BRANCH  13  14
ATOM     14  C   UNL     1      -6.438  36.438  45.332  1.00  0.00    -0.000 C 
BRANCH  14  15
ATOM     15  C   UNL     1      -7.784  36.897  44.742  1.00  0.00    -0.000 C 
BRANCH  15  16
ATOM     16  C   UNL     1      -8.581  37.783  45.711  1.00  0.00    -0.003 C 
ATOM     17  C   UNL     1      -8.018  39.200  45.813  1.00  0.00     0.004 C 
ENDBRANCH  15  16
ENDBRANCH  14  15
ENDBRANCH  13  14
ENDBRANCH  12  13
ENDBRANCH  11  12
ENDBRANCH  10  11
ENDBRANCH   1  10
TORSDOF 13
ENDMDL
MODEL 8
REMARK VINA RESULT:    -3.581      3.044      7.416
REMARK INTER + INTRA:          -7.465
REMARK INTER:                  -6.292
REMARK INTRA:                  -1.173
REMARK UNBOUND:                -1.162
REMARK SMILES CCCCCCCCCCCCCCC(=O)[O-]
REMARK SMILES IDX 9 1 10 2 11 3 12 4 13 5 14 6 15 7 16 8 17 9 8 10 7 11 6 12
REMARK SMILES IDX 5 13 4 14 3 15 2 16 1 17
REMARK H PARENT
REMARK Flexibility Score: inf
ROOT
ATOM      1  C   UNL     1       4.234  29.440  51.947  1.00  0.00     0.000 C 
ENDROOT
BRANCH   1   2
ATOM      2  C   UNL     1       4.195  28.864  53.373  1.00  0.00     0.000 C 
BRANCH   2   3
ATOM      3  C   UNL     1       5.092  29.639  54.355  1.00  0.00     0.000 C 
BRANCH   3   4
ATOM      4  C   UNL     1       5.254  28.983  55.739  1.00  0.00     0.000 C 
BRANCH   4   5
ATOM      5  C   UNL     1       4.228  27.870  56.000  1.00  0.00     0.006 C 
BRANCH   5   6
ATOM      6  C   UNL     1       3.357  28.201  57.215  1.00  0.00     0.053 C 
BRANCH   6   7
ATOM      7  C   UNL     1       1.973  28.567  56.784  1.00  0.00     0.041 C 
ATOM      8  O   UNL     1       1.258  29.308  57.508  1.00  0.00    -0.550 OA
ATOM      9  O   UNL     1       1.489  28.132  55.556  1.00  0.00    -0.550 OA
ENDBRANCH   6   7
ENDBRANCH   5   6
ENDBRANCH   4   5
ENDBRANCH   3   4
ENDBRANCH   2   3
ENDBRANCH   1   2
BRANCH   1  10
ATOM     10  C   UNL     1       5.383  28.857  51.109  1.00  0.00     0.000 C 
BRANCH  10  11
ATOM     11  C   UNL     1       5.169  27.370  50.771  1.00  0.00    -0.000 C 
BRANCH  11  12
ATOM     12  C   UNL     1       5.048  27.121  49.260  1.00  0.00    -0.000 C 
BRANCH  12  13
ATOM     13  C   UNL     1       3.682  27.553  48.699  1.00  0.00    -0.000 C 
BRANCH  13  14
ATOM     14  C   UNL     1       3.680  27.655  47.166  1.00  0.00    -0.000 C 
BRANCH  14  15
ATOM     15  C   UNL     1       4.533  28.828  46.651  1.00  0.00    -0.000 C 
BRANCH  15  16
ATOM     16  C   UNL     1       4.145  30.166  47.298  1.00  0.00    -0.003 C 
ATOM     17  C   UNL     1       5.328  30.862  47.970  1.00  0.00     0.004 C 
ENDBRANCH  15  16
ENDBRANCH  14  15
ENDBRANCH  13  14
ENDBRANCH  12  13
ENDBRANCH  11  12
ENDBRANCH  10  11
ENDBRANCH   1  10
TORSDOF 13
ENDMDL
MODEL 9
REMARK VINA RESULT:    -3.581     11.469     13.264
REMARK INTER + INTRA:          -7.465
REMARK INTER:                  -5.563
REMARK INTRA:                  -1.903
REMARK UNBOUND:                -1.162
REMARK SMILES CCCCCCCCCCCCCCC(=O)[O-]
REMARK SMILES IDX 9 1 10 2 11 3 12 4 13 5 14 6 15 7 16 8 17 9 8 10 7 11 6 12
REMARK SMILES IDX 5 13 4 14 3 15 2 16 1 17
REMARK H PARENT
REMARK Flexibility Score: inf
ROOT
ATOM      1  C   UNL     1      -6.299  28.415  57.025  1.00  0.00     0.000 C 
ENDROOT
BRANCH   1   2
ATOM      2  C   UNL     1      -5.456  28.805  58.252  1.00  0.00     0.000 C 
BRANCH   2   3
ATOM      3  C   UNL     1      -5.621  30.284  58.643  1.00  0.00     0.000 C 
BRANCH   3   4
ATOM      4  C   UNL     1      -6.633  31.071  57.791  1.00  0.00     0.000 C 
BRANCH   4   5
ATOM      5  C   UNL     1      -7.247  32.265  58.537  1.00  0.00     0.006 C 
BRANCH   5   6
ATOM      6  C   UNL     1      -8.498  32.777  57.817  1.00  0.00     0.053 C 
BRANCH   6   7
ATOM      7  C   UNL     1      -9.721  32.508  58.636  1.00  0.00     0.041 C 
ATOM      8  O   UNL     1      -9.614  32.066  59.809  1.00  0.00    -0.550 OA
ATOM      9  O   UNL     1     -10.979  32.795  58.120  1.00  0.00    -0.550 OA
ENDBRANCH   6   7
ENDBRANCH   5   6
ENDBRANCH   4   5
ENDBRANCH   3   4
ENDBRANCH   2   3
ENDBRANCH   1   2
BRANCH   1  10
ATOM     10  C   UNL     1      -7.363  27.356  57.356  1.00  0.00     0.000 C 
BRANCH  10  11
ATOM     11  C   UNL     1      -7.674  26.440  56.159  1.00  0.00    -0.000 C 
BRANCH  11  12
ATOM     12  C   UNL     1      -6.905  26.845  54.891  1.00  0.00    -0.000 C 
BRANCH  12  13
ATOM     13  C   UNL     1      -7.822  26.982  53.664  1.00  0.00    -0.000 C 
BRANCH  13  14
ATOM     14  C   UNL     1      -9.067  27.836  53.951  1.00  0.00    -0.000 C 
BRANCH  14  15
ATOM     15  C   UNL     1      -8.837  29.330  53.660  1.00  0.00    -0.000 C 
BRANCH  15  16
ATOM     16  C   UNL     1      -8.770  30.176  54.940  1.00  0.00    -0.003 C 
ATOM     17  C   UNL     1      -9.806  29.754  55.981  1.00  0.00     0.004 C 
ENDBRANCH  15  16
ENDBRANCH  14  15
ENDBRANCH  13  14
ENDBRANCH  12  13
ENDBRANCH  11  12
ENDBRANCH  10  11
ENDBRANCH   1  10
TORSDOF 13
ENDMDL
