MODEL 1
REMARK VINA RESULT:     0.000      0.000      0.000
REMARK INTER + INTRA:          -7.037
REMARK INTER:                   0.000
REMARK INTRA:                  -7.037
REMARK UNBOUND:                -7.037
REMARK SMILES CCCCCCCCCCCCCCCCCCCCCCCCCCCC(=O)[O-]
REMARK SMILES IDX 15 1 16 2 17 3 18 4 19 5 20 6 21 7 22 8 23 9 24 10 25 11
REMARK SMILES IDX 26 12 27 13 28 14 29 15 30 16 14 17 13 18 12 19 11 20 10 21
REMARK SMILES IDX 9 22 8 23 7 24 6 25 5 26 4 27 3 28 2 29 1 30
REMARK H PARENT
REMARK Flexibility Score: inf
ROOT
ATOM      1  C   UNL     1     174.576 190.276 191.672  1.00  0.00     0.000 C 
ENDROOT
BRANCH   1   2
ATOM      2  C   UNL     1     174.894 191.742 191.330  1.00  0.00     0.000 C 
BRANCH   2   3
ATOM      3  C   UNL     1     174.128 192.247 190.099  1.00  0.00     0.000 C 
BRANCH   3   4
ATOM      4  C   UNL     1     173.452 193.598 190.378  1.00  0.00     0.000 C 
BRANCH   4   5
ATOM      5  C   UNL     1     171.939 193.462 190.614  1.00  0.00     0.000 C 
BRANCH   5   6
ATOM      6  C   UNL     1     171.578 193.375 192.108  1.00  0.00     0.000 C 
BRANCH   6   7
ATOM      7  C   UNL     1     170.528 192.290 192.403  1.00  0.00     0.000 C 
BRANCH   7   8
ATOM      8  C   UNL     1     170.909 190.927 191.799  1.00  0.00     0.000 C 
BRANCH   8   9
ATOM      9  C   UNL     1     170.681 189.755 192.772  1.00  0.00     0.000 C 
BRANCH   9  10
ATOM     10  C   UNL     1     170.173 190.151 194.170  1.00  0.00     0.000 C 
BRANCH  10  11
ATOM     11  C   UNL     1     170.862 189.370 195.304  1.00  0.00     0.000 C 
BRANCH  11  12
ATOM     12  C   UNL     1     171.458 188.038 194.821  1.00  0.00     0.006 C 
BRANCH  12  13
ATOM     13  C   UNL     1     172.739 187.667 195.579  1.00  0.00     0.053 C 
BRANCH  13  14
ATOM     14  C   UNL     1     172.479 187.618 197.051  1.00  0.00     0.041 C 
ATOM     15  O   UNL     1     171.685 186.765 197.527  1.00  0.00    -0.550 OA
ATOM     16  O   UNL     1     173.084 188.542 197.895  1.00  0.00    -0.550 OA
ENDBRANCH  13  14
ENDBRANCH  12  13
ENDBRANCH  11  12
ENDBRANCH  10  11
ENDBRANCH   9  10
ENDBRANCH   8   9
ENDBRANCH   7   8
ENDBRANCH   6   7
ENDBRANCH   5   6
ENDBRANCH   4   5
ENDBRANCH   3   4
ENDBRANCH   2   3
ENDBRANCH   1   2
BRANCH   1  17
ATOM     17  C   UNL     1     174.340 189.986 193.169  1.00  0.00     0.000 C 
BRANCH  17  18
ATOM     18  C   UNL     1     173.904 191.199 194.011  1.00  0.00     0.000 C 
BRANCH  18  19
ATOM     19  C   UNL     1     174.200 191.019 195.509  1.00  0.00     0.000 C 
BRANCH  19  20
ATOM     20  C   UNL     1     173.401 191.985 196.402  1.00  0.00     0.000 C 
BRANCH  20  21
ATOM     21  C   UNL     1     172.333 192.824 195.676  1.00  0.00     0.000 C 
BRANCH  21  22
ATOM     22  C   UNL     1     172.133 194.216 196.295  1.00  0.00    -0.000 C 
BRANCH  22  23
ATOM     23  C   UNL     1     171.931 195.280 195.204  1.00  0.00    -0.000 C 
BRANCH  23  24
ATOM     24  C   UNL     1     173.223 196.071 194.906  1.00  0.00    -0.000 C 
BRANCH  24  25
ATOM     25  C   UNL     1     173.861 195.729 193.548  1.00  0.00    -0.000 C 
BRANCH  25  26
ATOM     26  C   UNL     1     174.953 194.654 193.655  1.00  0.00    -0.000 C 
BRANCH  26  27
ATOM     27  C   UNL     1     175.679 194.737 195.006  1.00  0.00    -0.000 C 
BRANCH  27  28
ATOM     28  C   UNL     1     176.688 193.594 195.214  1.00  0.00    -0.000 C 
BRANCH  28  29
ATOM     29  C   UNL     1     177.247 192.976 193.919  1.00  0.00    -0.003 C 
ATOM     30  C   UNL     1     177.682 191.521 194.090  1.00  0.00     0.004 C 
ENDBRANCH  28  29
ENDBRANCH  27  28
ENDBRANCH  26  27
ENDBRANCH  25  26
ENDBRANCH  24  25
ENDBRANCH  23  24
ENDBRANCH  22  23
ENDBRANCH  21  22
ENDBRANCH  20  21
ENDBRANCH  19  20
ENDBRANCH  18  19
ENDBRANCH  17  18
ENDBRANCH   1  17
TORSDOF 26
ENDMDL
MODEL 2
REMARK VINA RESULT:     0.018      6.140     10.227
REMARK INTER + INTRA:          -6.993
REMARK INTER:                   0.000
REMARK INTRA:                  -6.993
REMARK UNBOUND:                -7.037
REMARK SMILES CCCCCCCCCCCCCCCCCCCCCCCCCCCC(=O)[O-]
REMARK SMILES IDX 15 1 16 2 17 3 18 4 19 5 20 6 21 7 22 8 23 9 24 10 25 11
REMARK SMILES IDX 26 12 27 13 28 14 29 15 30 16 14 17 13 18 12 19 11 20 10 21
REMARK SMILES IDX 9 22 8 23 7 24 6 25 5 26 4 27 3 28 2 29 1 30
REMARK H PARENT
REMARK Flexibility Score: inf
ROOT
ATOM      1  C   UNL     1     181.002 195.141 201.683  1.00  0.00     0.000 C 
ENDROOT
BRANCH   1   2
ATOM      2  C   UNL     1     181.241 193.622 201.744  1.00  0.00     0.000 C 
BRANCH   2   3
ATOM      3  C   UNL     1     182.509 193.188 200.994  1.00  0.00     0.000 C 
BRANCH   3   4
ATOM      4  C   UNL     1     182.308 191.836 200.293  1.00  0.00     0.000 C 
BRANCH   4   5
ATOM      5  C   UNL     1     180.930 191.220 200.588  1.00  0.00     0.000 C 
BRANCH   5   6
ATOM      6  C   UNL     1     180.291 190.575 199.345  1.00  0.00     0.000 C 
BRANCH   6   7
ATOM      7  C   UNL     1     181.203 190.642 198.108  1.00  0.00     0.000 C 
BRANCH   7   8
ATOM      8  C   UNL     1     180.406 190.780 196.799  1.00  0.00     0.000 C 
BRANCH   8   9
ATOM      9  C   UNL     1     178.885 190.859 197.027  1.00  0.00     0.000 C 
BRANCH   9  10
ATOM     10  C   UNL     1     178.175 192.027 196.319  1.00  0.00     0.000 C 
BRANCH  10  11
ATOM     11  C   UNL     1     178.770 192.344 194.935  1.00  0.00     0.000 C 
BRANCH  11  12
ATOM     12  C   UNL     1     178.000 193.457 194.206  1.00  0.00     0.006 C 
BRANCH  12  13
ATOM     13  C   UNL     1     178.270 194.841 194.810  1.00  0.00     0.053 C 
BRANCH  13  14
ATOM     14  C   UNL     1     177.005 195.435 195.343  1.00  0.00     0.041 C 
ATOM     15  O   UNL     1     176.945 196.664 195.611  1.00  0.00    -0.550 OA
ATOM     16  O   UNL     1     175.903 194.623 195.584  1.00  0.00    -0.550 OA
ENDBRANCH  13  14
ENDBRANCH  12  13
ENDBRANCH  11  12
ENDBRANCH  10  11
ENDBRANCH   9  10
ENDBRANCH   8   9
ENDBRANCH   7   8
ENDBRANCH   6   7
ENDBRANCH   5   6
ENDBRANCH   4   5
ENDBRANCH   3   4
ENDBRANCH   2   3
ENDBRANCH   1   2
BRANCH   1  17
ATOM     17  C   UNL     1     182.197 195.974 201.174  1.00  0.00     0.000 C 
BRANCH  17  18
ATOM     18  C   UNL     1     181.827 197.186 200.300  1.00  0.00     0.000 C 
BRANCH  18  19
ATOM     19  C   UNL     1     182.645 197.252 198.999  1.00  0.00     0.000 C 
BRANCH  19  20
ATOM     20  C   UNL     1     183.580 196.044 198.812  1.00  0.00     0.000 C 
BRANCH  20  21
ATOM     21  C   UNL     1     183.563 195.407 197.410  1.00  0.00     0.000 C 
BRANCH  21  22
ATOM     22  C   UNL     1     182.751 194.105 197.347  1.00  0.00    -0.000 C 
BRANCH  22  23
ATOM     23  C   UNL     1     181.289 194.386 196.963  1.00  0.00    -0.000 C 
BRANCH  23  24
ATOM     24  C   UNL     1     180.327 194.239 198.161  1.00  0.00    -0.000 C 
BRANCH  24  25
ATOM     25  C   UNL     1     179.341 195.411 198.312  1.00  0.00    -0.000 C 
BRANCH  25  26
ATOM     26  C   UNL     1     178.020 194.999 198.979  1.00  0.00    -0.000 C 
BRANCH  26  27
ATOM     27  C   UNL     1     178.136 193.609 199.621  1.00  0.00    -0.000 C 
BRANCH  27  28
ATOM     28  C   UNL     1     177.580 193.564 201.055  1.00  0.00    -0.000 C 
BRANCH  28  29
ATOM     29  C   UNL     1     177.567 192.168 201.705  1.00  0.00    -0.003 C 
ATOM     30  C   UNL     1     176.925 191.101 200.819  1.00  0.00     0.004 C 
ENDBRANCH  28  29
ENDBRANCH  27  28
ENDBRANCH  26  27
ENDBRANCH  25  26
ENDBRANCH  24  25
ENDBRANCH  23  24
ENDBRANCH  22  23
ENDBRANCH  21  22
ENDBRANCH  20  21
ENDBRANCH  19  20
ENDBRANCH  18  19
ENDBRANCH  17  18
ENDBRANCH   1  17
TORSDOF 26
ENDMDL
MODEL 3
REMARK VINA RESULT:     0.025      6.306      9.835
REMARK INTER + INTRA:          -6.975
REMARK INTER:                   0.000
REMARK INTRA:                  -6.975
REMARK UNBOUND:                -7.037
REMARK SMILES CCCCCCCCCCCCCCCCCCCCCCCCCCCC(=O)[O-]
REMARK SMILES IDX 15 1 16 2 17 3 18 4 19 5 20 6 21 7 22 8 23 9 24 10 25 11
REMARK SMILES IDX 26 12 27 13 28 14 29 15 30 16 14 17 13 18 12 19 11 20 10 21
REMARK SMILES IDX 9 22 8 23 7 24 6 25 5 26 4 27 3 28 2 29 1 30
REMARK H PARENT
REMARK Flexibility Score: inf
ROOT
ATOM      1  C   UNL     1     183.043 186.640 193.436  1.00  0.00     0.000 C 
ENDROOT
BRANCH   1   2
ATOM      2  C   UNL     1     182.956 188.011 192.741  1.00  0.00     0.000 C 
BRANCH   2   3
ATOM      3  C   UNL     1     181.520 188.389 192.350  1.00  0.00     0.000 C 
BRANCH   3   4
ATOM      4  C   UNL     1     181.217 189.856 192.693  1.00  0.00     0.000 C 
BRANCH   4   5
ATOM      5  C   UNL     1     182.482 190.643 193.075  1.00  0.00     0.000 C 
BRANCH   5   6
ATOM      6  C   UNL     1     182.188 191.797 194.050  1.00  0.00     0.000 C 
BRANCH   6   7
ATOM      7  C   UNL     1     180.690 192.138 194.132  1.00  0.00     0.000 C 
BRANCH   7   8
ATOM      8  C   UNL     1     180.225 192.394 195.576  1.00  0.00     0.000 C 
BRANCH   8   9
ATOM      9  C   UNL     1     178.866 191.743 195.894  1.00  0.00     0.000 C 
BRANCH   9  10
ATOM     10  C   UNL     1     178.344 190.761 194.831  1.00  0.00     0.000 C 
BRANCH  10  11
ATOM     11  C   UNL     1     177.922 189.403 195.421  1.00  0.00     0.000 C 
BRANCH  11  12
ATOM     12  C   UNL     1     178.641 188.222 194.748  1.00  0.00     0.006 C 
BRANCH  12  13
ATOM     13  C   UNL     1     178.352 186.890 195.451  1.00  0.00     0.053 C 
BRANCH  13  14
ATOM     14  C   UNL     1     177.701 185.931 194.506  1.00  0.00     0.041 C 
ATOM     15  O   UNL     1     176.532 186.145 194.090  1.00  0.00    -0.550 OA
ATOM     16  O   UNL     1     178.369 184.777 194.116  1.00  0.00    -0.550 OA
ENDBRANCH  13  14
ENDBRANCH  12  13
ENDBRANCH  11  12
ENDBRANCH  10  11
ENDBRANCH   9  10
ENDBRANCH   8   9
ENDBRANCH   7   8
ENDBRANCH   6   7
ENDBRANCH   5   6
ENDBRANCH   4   5
ENDBRANCH   3   4
ENDBRANCH   2   3
ENDBRANCH   1   2
BRANCH   1  17
ATOM     17  C   UNL     1     181.705 186.087 193.968  1.00  0.00     0.000 C 
BRANCH  17  18
ATOM     18  C   UNL     1     181.780 185.398 195.344  1.00  0.00     0.000 C 
BRANCH  18  19
ATOM     19  C   UNL     1     183.226 185.165 195.813  1.00  0.00     0.000 C 
BRANCH  19  20
ATOM     20  C   UNL     1     183.328 184.843 197.314  1.00  0.00     0.000 C 
BRANCH  20  21
ATOM     21  C   UNL     1     184.391 185.644 198.090  1.00  0.00     0.000 C 
BRANCH  21  22
ATOM     22  C   UNL     1     184.785 186.956 197.394  1.00  0.00    -0.000 C 
BRANCH  22  23
ATOM     23  C   UNL     1     184.636 188.152 198.350  1.00  0.00    -0.000 C 
BRANCH  23  24
ATOM     24  C   UNL     1     183.868 189.327 197.708  1.00  0.00    -0.000 C 
BRANCH  24  25
ATOM     25  C   UNL     1     183.269 188.998 196.330  1.00  0.00    -0.000 C 
BRANCH  25  26
ATOM     26  C   UNL     1     181.734 188.939 196.343  1.00  0.00    -0.000 C 
BRANCH  26  27
ATOM     27  C   UNL     1     181.173 189.477 197.667  1.00  0.00    -0.000 C 
BRANCH  27  28
ATOM     28  C   UNL     1     180.146 188.528 198.311  1.00  0.00    -0.000 C 
BRANCH  28  29
ATOM     29  C   UNL     1     180.641 187.087 198.533  1.00  0.00    -0.003 C 
ATOM     30  C   UNL     1     181.396 186.910 199.850  1.00  0.00     0.004 C 
ENDBRANCH  28  29
ENDBRANCH  27  28
ENDBRANCH  26  27
ENDBRANCH  25  26
ENDBRANCH  24  25
ENDBRANCH  23  24
ENDBRANCH  22  23
ENDBRANCH  21  22
ENDBRANCH  20  21
ENDBRANCH  19  20
ENDBRANCH  18  19
ENDBRANCH  17  18
ENDBRANCH   1  17
TORSDOF 26
ENDMDL
MODEL 4
REMARK VINA RESULT:     0.027      3.817      6.819
REMARK INTER + INTRA:          -6.968
REMARK INTER:                   0.000
REMARK INTRA:                  -6.968
REMARK UNBOUND:                -7.037
REMARK SMILES CCCCCCCCCCCCCCCCCCCCCCCCCCCC(=O)[O-]
REMARK SMILES IDX 15 1 16 2 17 3 18 4 19 5 20 6 21 7 22 8 23 9 24 10 25 11
REMARK SMILES IDX 26 12 27 13 28 14 29 15 30 16 14 17 13 18 12 19 11 20 10 21
REMARK SMILES IDX 9 22 8 23 7 24 6 25 5 26 4 27 3 28 2 29 1 30
REMARK H PARENT
REMARK Flexibility Score: inf
ROOT
ATOM      1  C   UNL     1     172.673 196.964 193.523  1.00  0.00     0.000 C 
ENDROOT
BRANCH   1   2
ATOM      2  C   UNL     1     173.983 196.156 193.524  1.00  0.00     0.000 C 
BRANCH   2   3
ATOM      3  C   UNL     1     174.032 195.103 194.641  1.00  0.00     0.000 C 
BRANCH   3   4
ATOM      4  C   UNL     1     175.474 194.655 194.923  1.00  0.00     0.000 C 
BRANCH   4   5
ATOM      5  C   UNL     1     176.425 194.964 193.753  1.00  0.00     0.000 C 
BRANCH   5   6
ATOM      6  C   UNL     1     176.884 193.695 193.013  1.00  0.00     0.000 C 
BRANCH   6   7
ATOM      7  C   UNL     1     176.573 193.741 191.507  1.00  0.00     0.000 C 
BRANCH   7   8
ATOM      8  C   UNL     1     175.193 193.147 191.175  1.00  0.00     0.000 C 
BRANCH   8   9
ATOM      9  C   UNL     1     174.697 192.148 192.237  1.00  0.00     0.000 C 
BRANCH   9  10
ATOM     10  C   UNL     1     173.222 192.306 192.649  1.00  0.00     0.000 C 
BRANCH  10  11
ATOM     11  C   UNL     1     172.435 193.248 191.721  1.00  0.00     0.000 C 
BRANCH  11  12
ATOM     12  C   UNL     1     171.190 193.839 192.404  1.00  0.00     0.006 C 
BRANCH  12  13
ATOM     13  C   UNL     1     170.399 194.763 191.469  1.00  0.00     0.053 C 
BRANCH  13  14
ATOM     14  C   UNL     1     169.232 195.360 192.188  1.00  0.00     0.041 C 
ATOM     15  O   UNL     1     169.277 195.535 193.435  1.00  0.00    -0.550 OA
ATOM     16  O   UNL     1     168.077 195.688 191.489  1.00  0.00    -0.550 OA
ENDBRANCH  13  14
ENDBRANCH  12  13
ENDBRANCH  11  12
ENDBRANCH  10  11
ENDBRANCH   9  10
ENDBRANCH   8   9
ENDBRANCH   7   8
ENDBRANCH   6   7
ENDBRANCH   5   6
ENDBRANCH   4   5
ENDBRANCH   3   4
ENDBRANCH   2   3
ENDBRANCH   1   2
BRANCH   1  17
ATOM     17  C   UNL     1     172.847 198.497 193.526  1.00  0.00     0.000 C 
BRANCH  17  18
ATOM     18  C   UNL     1     172.587 199.189 192.175  1.00  0.00     0.000 C 
BRANCH  18  19
ATOM     19  C   UNL     1     171.791 198.307 191.199  1.00  0.00     0.000 C 
BRANCH  19  20
ATOM     20  C   UNL     1     172.575 197.962 189.920  1.00  0.00     0.000 C 
BRANCH  20  21
ATOM     21  C   UNL     1     173.070 196.507 189.822  1.00  0.00     0.000 C 
BRANCH  21  22
ATOM     22  C   UNL     1     174.599 196.395 189.710  1.00  0.00    -0.000 C 
BRANCH  22  23
ATOM     23  C   UNL     1     175.272 197.747 189.998  1.00  0.00    -0.000 C 
BRANCH  23  24
ATOM     24  C   UNL     1     176.314 197.656 191.134  1.00  0.00    -0.000 C 
BRANCH  24  25
ATOM     25  C   UNL     1     176.264 198.838 192.117  1.00  0.00    -0.000 C 
BRANCH  25  26
ATOM     26  C   UNL     1     176.977 198.540 193.446  1.00  0.00    -0.000 C 
BRANCH  26  27
ATOM     27  C   UNL     1     176.225 199.169 194.628  1.00  0.00    -0.000 C 
BRANCH  27  28
ATOM     28  C   UNL     1     176.125 198.227 195.841  1.00  0.00    -0.000 C 
BRANCH  28  29
ATOM     29  C   UNL     1     174.778 198.267 196.586  1.00  0.00    -0.003 C 
ATOM     30  C   UNL     1     174.655 197.184 197.657  1.00  0.00     0.004 C 
ENDBRANCH  28  29
ENDBRANCH  27  28
ENDBRANCH  26  27
ENDBRANCH  25  26
ENDBRANCH  24  25
ENDBRANCH  23  24
ENDBRANCH  22  23
ENDBRANCH  21  22
ENDBRANCH  20  21
ENDBRANCH  19  20
ENDBRANCH  18  19
ENDBRANCH  17  18
ENDBRANCH   1  17
TORSDOF 26
ENDMDL
MODEL 5
REMARK VINA RESULT:     0.030      6.534      9.844
REMARK INTER + INTRA:          -6.961
REMARK INTER:                   0.000
REMARK INTRA:                  -6.961
REMARK UNBOUND:                -7.037
REMARK SMILES CCCCCCCCCCCCCCCCCCCCCCCCCCCC(=O)[O-]
REMARK SMILES IDX 15 1 16 2 17 3 18 4 19 5 20 6 21 7 22 8 23 9 24 10 25 11
REMARK SMILES IDX 26 12 27 13 28 14 29 15 30 16 14 17 13 18 12 19 11 20 10 21
REMARK SMILES IDX 9 22 8 23 7 24 6 25 5 26 4 27 3 28 2 29 1 30
REMARK H PARENT
REMARK Flexibility Score: inf
ROOT
ATOM      1  C   UNL     1     171.105 188.679 200.115  1.00  0.00     0.000 C 
ENDROOT
BRANCH   1   2
ATOM      2  C   UNL     1     171.521 189.204 201.501  1.00  0.00     0.000 C 
BRANCH   2   3
ATOM      3  C   UNL     1     171.551 188.102 202.571  1.00  0.00     0.000 C 
BRANCH   3   4
ATOM      4  C   UNL     1     171.232 186.728 201.963  1.00  0.00     0.000 C 
BRANCH   4   5
ATOM      5  C   UNL     1     170.314 185.885 202.864  1.00  0.00     0.000 C 
BRANCH   5   6
ATOM      6  C   UNL     1     169.815 184.605 202.169  1.00  0.00     0.000 C 
BRANCH   6   7
ATOM      7  C   UNL     1     170.641 184.247 200.922  1.00  0.00     0.000 C 
BRANCH   7   8
ATOM      8  C   UNL     1     169.766 183.727 199.769  1.00  0.00     0.000 C 
BRANCH   8   9
ATOM      9  C   UNL     1     170.262 184.185 198.384  1.00  0.00     0.000 C 
BRANCH   9  10
ATOM     10  C   UNL     1     170.893 185.589 198.345  1.00  0.00     0.000 C 
BRANCH  10  11
ATOM     11  C   UNL     1     172.345 185.582 197.834  1.00  0.00     0.000 C 
BRANCH  11  12
ATOM     12  C   UNL     1     173.357 185.937 198.936  1.00  0.00     0.006 C 
BRANCH  12  13
ATOM     13  C   UNL     1     174.077 187.262 198.657  1.00  0.00     0.053 C 
BRANCH  13  14
ATOM     14  C   UNL     1     174.828 187.715 199.869  1.00  0.00     0.041 C 
ATOM     15  O   UNL     1     174.619 187.169 200.984  1.00  0.00    -0.550 OA
ATOM     16  O   UNL     1     175.730 188.768 199.776  1.00  0.00    -0.550 OA
ENDBRANCH  13  14
ENDBRANCH  12  13
ENDBRANCH  11  12
ENDBRANCH  10  11
ENDBRANCH   9  10
ENDBRANCH   8   9
ENDBRANCH   7   8
ENDBRANCH   6   7
ENDBRANCH   5   6
ENDBRANCH   4   5
ENDBRANCH   3   4
ENDBRANCH   2   3
ENDBRANCH   1   2
BRANCH   1  17
ATOM     17  C   UNL     1     170.643 189.760 199.115  1.00  0.00     0.000 C 
BRANCH  17  18
ATOM     18  C   UNL     1     169.935 189.228 197.855  1.00  0.00     0.000 C 
BRANCH  18  19
ATOM     19  C   UNL     1     168.604 189.945 197.574  1.00  0.00     0.000 C 
BRANCH  19  20
ATOM     20  C   UNL     1     168.063 190.712 198.794  1.00  0.00     0.000 C 
BRANCH  20  21
ATOM     21  C   UNL     1     166.580 190.460 199.127  1.00  0.00     0.000 C 
BRANCH  21  22
ATOM     22  C   UNL     1     166.346 190.081 200.597  1.00  0.00    -0.000 C 
BRANCH  22  23
ATOM     23  C   UNL     1     167.677 189.994 201.362  1.00  0.00    -0.000 C 
BRANCH  23  24
ATOM     24  C   UNL     1     167.868 188.631 202.061  1.00  0.00    -0.000 C 
BRANCH  24  25
ATOM     25  C   UNL     1     167.178 187.461 201.339  1.00  0.00    -0.000 C 
BRANCH  25  26
ATOM     26  C   UNL     1     167.950 186.987 200.098  1.00  0.00    -0.000 C 
BRANCH  26  27
ATOM     27  C   UNL     1     167.035 186.208 199.143  1.00  0.00    -0.000 C 
BRANCH  27  28
ATOM     28  C   UNL     1     167.314 186.518 197.662  1.00  0.00    -0.000 C 
BRANCH  28  29
ATOM     29  C   UNL     1     166.151 187.189 196.908  1.00  0.00    -0.003 C 
ATOM     30  C   UNL     1     164.969 187.531 197.814  1.00  0.00     0.004 C 
ENDBRANCH  28  29
ENDBRANCH  27  28
ENDBRANCH  26  27
ENDBRANCH  25  26
ENDBRANCH  24  25
ENDBRANCH  23  24
ENDBRANCH  22  23
ENDBRANCH  21  22
ENDBRANCH  20  21
ENDBRANCH  19  20
ENDBRANCH  18  19
ENDBRANCH  17  18
ENDBRANCH   1  17
TORSDOF 26
ENDMDL
MODEL 6
REMARK VINA RESULT:     0.033      4.467      7.812
REMARK INTER + INTRA:          -6.952
REMARK INTER:                   0.000
REMARK INTRA:                  -6.952
REMARK UNBOUND:                -7.037
REMARK SMILES CCCCCCCCCCCCCCCCCCCCCCCCCCCC(=O)[O-]
REMARK SMILES IDX 15 1 16 2 17 3 18 4 19 5 20 6 21 7 22 8 23 9 24 10 25 11
REMARK SMILES IDX 26 12 27 13 28 14 29 15 30 16 14 17 13 18 12 19 11 20 10 21
REMARK SMILES IDX 9 22 8 23 7 24 6 25 5 26 4 27 3 28 2 29 1 30
REMARK H PARENT
REMARK Flexibility Score: inf
ROOT
ATOM      1  C   UNL     1     181.699 192.867 193.829  1.00  0.00     0.000 C 
ENDROOT
BRANCH   1   2
ATOM      2  C   UNL     1     182.478 192.952 195.154  1.00  0.00     0.000 C 
BRANCH   2   3
ATOM      3  C   UNL     1     181.568 192.851 196.387  1.00  0.00     0.000 C 
BRANCH   3   4
ATOM      4  C   UNL     1     181.561 191.425 196.959  1.00  0.00     0.000 C 
BRANCH   4   5
ATOM      5  C   UNL     1     180.350 190.605 196.482  1.00  0.00     0.000 C 
BRANCH   5   6
ATOM      6  C   UNL     1     179.107 191.478 196.233  1.00  0.00     0.000 C 
BRANCH   6   7
ATOM      7  C   UNL     1     178.169 191.534 197.451  1.00  0.00     0.000 C 
BRANCH   7   8
ATOM      8  C   UNL     1     178.298 192.855 198.230  1.00  0.00     0.000 C 
BRANCH   8   9
ATOM      9  C   UNL     1     177.005 193.691 198.215  1.00  0.00     0.000 C 
BRANCH   9  10
ATOM     10  C   UNL     1     175.840 193.082 197.413  1.00  0.00     0.000 C 
BRANCH  10  11
ATOM     11  C   UNL     1     175.272 194.042 196.352  1.00  0.00     0.000 C 
BRANCH  11  12
ATOM     12  C   UNL     1     174.899 193.320 195.047  1.00  0.00     0.006 C 
BRANCH  12  13
ATOM     13  C   UNL     1     175.392 191.867 195.027  1.00  0.00     0.053 C 
BRANCH  13  14
ATOM     14  C   UNL     1     176.047 191.556 193.718  1.00  0.00     0.041 C 
ATOM     15  O   UNL     1     176.858 190.598 193.628  1.00  0.00    -0.550 OA
ATOM     16  O   UNL     1     175.791 192.349 192.606  1.00  0.00    -0.550 OA
ENDBRANCH  13  14
ENDBRANCH  12  13
ENDBRANCH  11  12
ENDBRANCH  10  11
ENDBRANCH   9  10
ENDBRANCH   8   9
ENDBRANCH   7   8
ENDBRANCH   6   7
ENDBRANCH   5   6
ENDBRANCH   4   5
ENDBRANCH   3   4
ENDBRANCH   2   3
ENDBRANCH   1   2
BRANCH   1  17
ATOM     17  C   UNL     1     180.753 194.053 193.547  1.00  0.00     0.000 C 
BRANCH  17  18
ATOM     18  C   UNL     1     179.290 193.670 193.257  1.00  0.00     0.000 C 
BRANCH  18  19
ATOM     19  C   UNL     1     178.290 194.429 194.146  1.00  0.00     0.000 C 
BRANCH  19  20
ATOM     20  C   UNL     1     178.958 195.130 195.342  1.00  0.00     0.000 C 
BRANCH  20  21
ATOM     21  C   UNL     1     178.194 196.342 195.907  1.00  0.00     0.000 C 
BRANCH  21  22
ATOM     22  C   UNL     1     178.811 196.897 197.200  1.00  0.00    -0.000 C 
BRANCH  22  23
ATOM     23  C   UNL     1     180.055 196.090 197.607  1.00  0.00    -0.000 C 
BRANCH  23  24
ATOM     24  C   UNL     1     181.340 196.944 197.596  1.00  0.00    -0.000 C 
BRANCH  24  25
ATOM     25  C   UNL     1     182.415 196.435 196.619  1.00  0.00    -0.000 C 
BRANCH  25  26
ATOM     26  C   UNL     1     182.226 196.971 195.191  1.00  0.00    -0.000 C 
BRANCH  26  27
ATOM     27  C   UNL     1     181.732 198.424 195.208  1.00  0.00    -0.000 C 
BRANCH  27  28
ATOM     28  C   UNL     1     180.530 198.658 194.275  1.00  0.00    -0.000 C 
BRANCH  28  29
ATOM     29  C   UNL     1     180.456 197.714 193.060  1.00  0.00    -0.003 C 
ATOM     30  C   UNL     1     179.063 197.652 192.435  1.00  0.00     0.004 C 
ENDBRANCH  28  29
ENDBRANCH  27  28
ENDBRANCH  26  27
ENDBRANCH  25  26
ENDBRANCH  24  25
ENDBRANCH  23  24
ENDBRANCH  22  23
ENDBRANCH  21  22
ENDBRANCH  20  21
ENDBRANCH  19  20
ENDBRANCH  18  19
ENDBRANCH  17  18
ENDBRANCH   1  17
TORSDOF 26
ENDMDL
MODEL 7
REMARK VINA RESULT:     0.051      7.114     10.161
REMARK INTER + INTRA:          -6.908
REMARK INTER:                   0.000
REMARK INTRA:                  -6.908
REMARK UNBOUND:                -7.037
REMARK SMILES CCCCCCCCCCCCCCCCCCCCCCCCCCCC(=O)[O-]
REMARK SMILES IDX 15 1 16 2 17 3 18 4 19 5 20 6 21 7 22 8 23 9 24 10 25 11
REMARK SMILES IDX 26 12 27 13 28 14 29 15 30 16 14 17 13 18 12 19 11 20 10 21
REMARK SMILES IDX 9 22 8 23 7 24 6 25 5 26 4 27 3 28 2 29 1 30
REMARK H PARENT
REMARK Flexibility Score: inf
ROOT
ATOM      1  C   UNL     1     169.361 187.752 196.936  1.00  0.00     0.000 C 
ENDROOT
BRANCH   1   2
ATOM      2  C   UNL     1     170.730 187.140 197.282  1.00  0.00     0.000 C 
BRANCH   2   3
ATOM      3  C   UNL     1     170.681 185.610 197.416  1.00  0.00     0.000 C 
BRANCH   3   4
ATOM      4  C   UNL     1     171.255 185.151 198.765  1.00  0.00     0.000 C 
BRANCH   4   5
ATOM      5  C   UNL     1     170.157 184.764 199.770  1.00  0.00     0.000 C 
BRANCH   5   6
ATOM      6  C   UNL     1     170.496 185.190 201.210  1.00  0.00     0.000 C 
BRANCH   6   7
ATOM      7  C   UNL     1     169.389 184.823 202.213  1.00  0.00     0.000 C 
BRANCH   7   8
ATOM      8  C   UNL     1     169.468 185.655 203.504  1.00  0.00     0.000 C 
BRANCH   8   9
ATOM      9  C   UNL     1     170.702 186.576 203.551  1.00  0.00     0.000 C 
BRANCH   9  10
ATOM     10  C   UNL     1     170.526 187.869 204.368  1.00  0.00     0.000 C 
BRANCH  10  11
ATOM     11  C   UNL     1     169.136 188.507 204.194  1.00  0.00     0.000 C 
BRANCH  11  12
ATOM     12  C   UNL     1     169.215 190.019 203.924  1.00  0.00     0.006 C 
BRANCH  12  13
ATOM     13  C   UNL     1     170.663 190.516 203.822  1.00  0.00     0.053 C 
BRANCH  13  14
ATOM     14  C   UNL     1     170.717 191.829 203.108  1.00  0.00     0.041 C 
ATOM     15  O   UNL     1     169.964 192.774 203.461  1.00  0.00    -0.550 OA
ATOM     16  O   UNL     1     171.571 191.997 202.025  1.00  0.00    -0.550 OA
ENDBRANCH  13  14
ENDBRANCH  12  13
ENDBRANCH  11  12
ENDBRANCH  10  11
ENDBRANCH   9  10
ENDBRANCH   8   9
ENDBRANCH   7   8
ENDBRANCH   6   7
ENDBRANCH   5   6
ENDBRANCH   4   5
ENDBRANCH   3   4
ENDBRANCH   2   3
ENDBRANCH   1   2
BRANCH   1  17
ATOM     17  C   UNL     1     168.142 187.003 197.513  1.00  0.00     0.000 C 
BRANCH  17  18
ATOM     18  C   UNL     1     166.911 187.882 197.804  1.00  0.00     0.000 C 
BRANCH  18  19
ATOM     19  C   UNL     1     166.119 187.405 199.034  1.00  0.00     0.000 C 
BRANCH  19  20
ATOM     20  C   UNL     1     167.016 186.824 200.141  1.00  0.00     0.000 C 
BRANCH  20  21
ATOM     21  C   UNL     1     166.688 187.293 201.571  1.00  0.00     0.000 C 
BRANCH  21  22
ATOM     22  C   UNL     1     165.468 188.224 201.636  1.00  0.00    -0.000 C 
BRANCH  22  23
ATOM     23  C   UNL     1     165.681 189.337 202.676  1.00  0.00    -0.000 C 
BRANCH  23  24
ATOM     24  C   UNL     1     166.108 190.673 202.031  1.00  0.00    -0.000 C 
BRANCH  24  25
ATOM     25  C   UNL     1     165.788 190.767 200.529  1.00  0.00    -0.000 C 
BRANCH  25  26
ATOM     26  C   UNL     1     167.037 191.001 199.665  1.00  0.00    -0.000 C 
BRANCH  26  27
ATOM     27  C   UNL     1     168.319 190.847 200.495  1.00  0.00    -0.000 C 
BRANCH  27  28
ATOM     28  C   UNL     1     169.409 190.040 199.767  1.00  0.00    -0.000 C 
BRANCH  28  29
ATOM     29  C   UNL     1     169.941 188.820 200.541  1.00  0.00    -0.003 C 
ATOM     30  C   UNL     1     171.468 188.746 200.563  1.00  0.00     0.004 C 
ENDBRANCH  28  29
ENDBRANCH  27  28
ENDBRANCH  26  27
ENDBRANCH  25  26
ENDBRANCH  24  25
ENDBRANCH  23  24
ENDBRANCH  22  23
ENDBRANCH  21  22
ENDBRANCH  20  21
ENDBRANCH  19  20
ENDBRANCH  18  19
ENDBRANCH  17  18
ENDBRANCH   1  17
TORSDOF 26
ENDMDL
MODEL 8
REMARK VINA RESULT:     0.072      4.957      8.446
REMARK INTER + INTRA:          -6.855
REMARK INTER:                   0.000
REMARK INTRA:                  -6.855
REMARK UNBOUND:                -7.037
REMARK SMILES CCCCCCCCCCCCCCCCCCCCCCCCCCCC(=O)[O-]
REMARK SMILES IDX 15 1 16 2 17 3 18 4 19 5 20 6 21 7 22 8 23 9 24 10 25 11
REMARK SMILES IDX 26 12 27 13 28 14 29 15 30 16 14 17 13 18 12 19 11 20 10 21
REMARK SMILES IDX 9 22 8 23 7 24 6 25 5 26 4 27 3 28 2 29 1 30
REMARK H PARENT
REMARK Flexibility Score: inf
ROOT
ATOM      1  C   UNL     1     171.733 187.883 201.727  1.00  0.00     0.000 C 
ENDROOT
BRANCH   1   2
ATOM      2  C   UNL     1     171.487 187.393 200.289  1.00  0.00     0.000 C 
BRANCH   2   3
ATOM      3  C   UNL     1     170.930 188.493 199.373  1.00  0.00     0.000 C 
BRANCH   3   4
ATOM      4  C   UNL     1     171.560 188.424 197.974  1.00  0.00     0.000 C 
BRANCH   4   5
ATOM      5  C   UNL     1     171.885 189.816 197.406  1.00  0.00     0.000 C 
BRANCH   5   6
ATOM      6  C   UNL     1     171.790 190.926 198.469  1.00  0.00     0.000 C 
BRANCH   6   7
ATOM      7  C   UNL     1     172.914 191.968 198.339  1.00  0.00     0.000 C 
BRANCH   7   8
ATOM      8  C   UNL     1     173.806 192.027 199.592  1.00  0.00     0.000 C 
BRANCH   8   9
ATOM      9  C   UNL     1     173.649 190.792 200.500  1.00  0.00     0.000 C 
BRANCH   9  10
ATOM     10  C   UNL     1     174.903 189.910 200.630  1.00  0.00     0.000 C 
BRANCH  10  11
ATOM     11  C   UNL     1     174.885 188.693 199.687  1.00  0.00     0.000 C 
BRANCH  11  12
ATOM     12  C   UNL     1     175.994 188.759 198.624  1.00  0.00     0.006 C 
BRANCH  12  13
ATOM     13  C   UNL     1     175.490 189.337 197.295  1.00  0.00     0.053 C 
BRANCH  13  14
ATOM     14  C   UNL     1     176.138 190.657 197.020  1.00  0.00     0.041 C 
ATOM     15  O   UNL     1     176.008 191.204 195.893  1.00  0.00    -0.550 OA
ATOM     16  O   UNL     1     176.919 191.265 197.995  1.00  0.00    -0.550 OA
ENDBRANCH  13  14
ENDBRANCH  12  13
ENDBRANCH  11  12
ENDBRANCH  10  11
ENDBRANCH   9  10
ENDBRANCH   8   9
ENDBRANCH   7   8
ENDBRANCH   6   7
ENDBRANCH   5   6
ENDBRANCH   4   5
ENDBRANCH   3   4
ENDBRANCH   2   3
ENDBRANCH   1   2
BRANCH   1  17
ATOM     17  C   UNL     1     172.880 187.172 202.476  1.00  0.00     0.000 C 
BRANCH  17  18
ATOM     18  C   UNL     1     173.545 187.998 203.592  1.00  0.00     0.000 C 
BRANCH  18  19
ATOM     19  C   UNL     1     172.880 189.370 203.793  1.00  0.00     0.000 C 
BRANCH  19  20
ATOM     20  C   UNL     1     173.868 190.459 204.248  1.00  0.00     0.000 C 
BRANCH  20  21
ATOM     21  C   UNL     1     173.415 191.909 203.994  1.00  0.00     0.000 C 
BRANCH  21  22
ATOM     22  C   UNL     1     171.901 192.038 203.766  1.00  0.00    -0.000 C 
BRANCH  22  23
ATOM     23  C   UNL     1     171.593 193.114 202.712  1.00  0.00    -0.000 C 
BRANCH  23  24
ATOM     24  C   UNL     1     170.624 192.610 201.621  1.00  0.00    -0.000 C 
BRANCH  24  25
ATOM     25  C   UNL     1     170.169 191.154 201.820  1.00  0.00    -0.000 C 
BRANCH  25  26
ATOM     26  C   UNL     1     168.726 190.909 201.354  1.00  0.00    -0.000 C 
BRANCH  26  27
ATOM     27  C   UNL     1     168.480 191.530 199.971  1.00  0.00    -0.000 C 
BRANCH  27  28
ATOM     28  C   UNL     1     167.880 190.531 198.966  1.00  0.00    -0.000 C 
BRANCH  28  29
ATOM     29  C   UNL     1     168.218 190.811 197.490  1.00  0.00    -0.003 C 
ATOM     30  C   UNL     1     168.210 189.551 196.625  1.00  0.00     0.004 C 
ENDBRANCH  28  29
ENDBRANCH  27  28
ENDBRANCH  26  27
ENDBRANCH  25  26
ENDBRANCH  24  25
ENDBRANCH  23  24
ENDBRANCH  22  23
ENDBRANCH  21  22
ENDBRANCH  20  21
ENDBRANCH  19  20
ENDBRANCH  18  19
ENDBRANCH  17  18
ENDBRANCH   1  17
TORSDOF 26
ENDMDL
MODEL 9
REMARK VINA RESULT:     0.073      4.265      7.172
REMARK INTER + INTRA:          -6.852
REMARK INTER:                   0.000
REMARK INTRA:                  -6.852
REMARK UNBOUND:                -7.037
REMARK SMILES CCCCCCCCCCCCCCCCCCCCCCCCCCCC(=O)[O-]
REMARK SMILES IDX 15 1 16 2 17 3 18 4 19 5 20 6 21 7 22 8 23 9 24 10 25 11
REMARK SMILES IDX 26 12 27 13 28 14 29 15 30 16 14 17 13 18 12 19 11 20 10 21
REMARK SMILES IDX 9 22 8 23 7 24 6 25 5 26 4 27 3 28 2 29 1 30
REMARK H PARENT
REMARK Flexibility Score: inf
ROOT
ATOM      1  C   UNL     1     170.269 191.693 187.318  1.00  0.00     0.000 C 
ENDROOT
BRANCH   1   2
ATOM      2  C   UNL     1     170.712 193.165 187.397  1.00  0.00     0.000 C 
BRANCH   2   3
ATOM      3  C   UNL     1     170.846 193.821 186.014  1.00  0.00     0.000 C 
BRANCH   3   4
ATOM      4  C   UNL     1     172.145 194.634 185.908  1.00  0.00     0.000 C 
BRANCH   4   5
ATOM      5  C   UNL     1     173.089 194.394 187.098  1.00  0.00     0.000 C 
BRANCH   5   6
ATOM      6  C   UNL     1     174.467 193.865 186.664  1.00  0.00     0.000 C 
BRANCH   6   7
ATOM      7  C   UNL     1     174.497 193.427 185.189  1.00  0.00     0.000 C 
BRANCH   7   8
ATOM      8  C   UNL     1     174.683 191.908 185.032  1.00  0.00     0.000 C 
BRANCH   8   9
ATOM      9  C   UNL     1     173.365 191.124 185.172  1.00  0.00     0.000 C 
BRANCH   9  10
ATOM     10  C   UNL     1     173.524 189.614 185.429  1.00  0.00     0.000 C 
BRANCH  10  11
ATOM     11  C   UNL     1     172.179 188.870 185.496  1.00  0.00     0.000 C 
BRANCH  11  12
ATOM     12  C   UNL     1     172.155 187.800 186.601  1.00  0.00     0.006 C 
BRANCH  12  13
ATOM     13  C   UNL     1     173.566 187.369 187.021  1.00  0.00     0.053 C 
BRANCH  13  14
ATOM     14  C   UNL     1     173.513 186.559 188.278  1.00  0.00     0.041 C 
ATOM     15  O   UNL     1     174.554 186.384 188.964  1.00  0.00    -0.550 OA
ATOM     16  O   UNL     1     172.321 185.964 188.672  1.00  0.00    -0.550 OA
ENDBRANCH  13  14
ENDBRANCH  12  13
ENDBRANCH  11  12
ENDBRANCH  10  11
ENDBRANCH   9  10
ENDBRANCH   8   9
ENDBRANCH   7   8
ENDBRANCH   6   7
ENDBRANCH   5   6
ENDBRANCH   4   5
ENDBRANCH   3   4
ENDBRANCH   2   3
ENDBRANCH   1   2
BRANCH   1  17
ATOM     17  C   UNL     1     170.875 190.767 188.392  1.00  0.00     0.000 C 
BRANCH  17  18
ATOM     18  C   UNL     1     172.367 190.999 188.692  1.00  0.00     0.000 C 
BRANCH  18  19
ATOM     19  C   UNL     1     172.941 189.971 189.682  1.00  0.00     0.000 C 
BRANCH  19  20
ATOM     20  C   UNL     1     174.479 189.909 189.664  1.00  0.00     0.000 C 
BRANCH  20  21
ATOM     21  C   UNL     1     175.160 190.750 188.569  1.00  0.00     0.000 C 
BRANCH  21  22
ATOM     22  C   UNL     1     176.178 191.758 189.125  1.00  0.00    -0.000 C 
BRANCH  22  23
ATOM     23  C   UNL     1     175.729 192.295 190.493  1.00  0.00    -0.000 C 
BRANCH  23  24
ATOM     24  C   UNL     1     174.787 193.513 190.368  1.00  0.00    -0.000 C 
BRANCH  24  25
ATOM     25  C   UNL     1     173.541 193.428 191.266  1.00  0.00    -0.000 C 
BRANCH  25  26
ATOM     26  C   UNL     1     172.322 194.145 190.666  1.00  0.00    -0.000 C 
BRANCH  26  27
ATOM     27  C   UNL     1     171.013 193.512 191.156  1.00  0.00    -0.000 C 
BRANCH  27  28
ATOM     28  C   UNL     1     171.242 192.283 192.054  1.00  0.00    -0.000 C 
BRANCH  28  29
ATOM     29  C   UNL     1     170.169 191.185 191.940  1.00  0.00    -0.003 C 
ATOM     30  C   UNL     1     170.468 189.964 192.810  1.00  0.00     0.004 C 
ENDBRANCH  28  29
ENDBRANCH  27  28
ENDBRANCH  26  27
ENDBRANCH  25  26
ENDBRANCH  24  25
ENDBRANCH  23  24
ENDBRANCH  22  23
ENDBRANCH  21  22
ENDBRANCH  20  21
ENDBRANCH  19  20
ENDBRANCH  18  19
ENDBRANCH  17  18
ENDBRANCH   1  17
TORSDOF 26
ENDMDL
