MODEL 1
REMARK VINA RESULT:    -7.284      0.000      0.000
REMARK INTER + INTRA:          -9.332
REMARK INTER:                  -9.839
REMARK INTRA:                   0.506
REMARK UNBOUND:                 0.506
REMARK SMILES O=c1c(-c2ccc(O)cc2)coc2c([C@@H]3O[C@@H](CO)[C@H](O)[C@@H](O)[C@@H]3O)c(O)ccc12
REMARK SMILES IDX 3 1 11 2 12 3 13 4 30 5 2 6 1 7 29 8 28 9 26 10 14 11 4 12
REMARK SMILES IDX 5 13 6 14 7 15 10 16 9 17 8 18 15 20 24 21 16 22 22 23 17 24
REMARK SMILES IDX 20 25 25 26 23 28 18 30 19 31 21 33 27 35
REMARK H PARENT 8 19 25 27 23 29 19 32 21 34 27 36
REMARK Flexibility Score: inf
ROOT
ATOM      1  C   UNL     1     174.579 171.850 175.388  1.00  0.00     0.065 A 
ATOM      2  C   UNL     1     175.145 172.648 174.384  1.00  0.00     0.208 A 
ATOM      3  O   UNL     1     176.145 172.181 173.653  1.00  0.00    -0.463 OA
ATOM      4  C   UNL     1     176.656 170.966 173.807  1.00  0.00     0.147 A 
ATOM      5  C   UNL     1     176.043 170.073 174.724  1.00  0.00     0.066 A 
ATOM      6  C   UNL     1     174.942 170.511 175.457  1.00  0.00     0.200 A 
ATOM      7  O   UNL     1     174.340 169.726 176.262  1.00  0.00    -0.288 OA
ATOM      8  C   UNL     1     176.666 168.846 174.976  1.00  0.00     0.020 A 
ATOM      9  C   UNL     1     177.810 168.484 174.283  1.00  0.00     0.047 A 
ATOM     10  C   UNL     1     178.289 169.247 173.261  1.00  0.00     0.125 A 
ATOM     11  C   UNL     1     177.815 170.552 173.085  1.00  0.00     0.069 A 
ENDROOT
BRANCH   1  12
ATOM     12  C   UNL     1     174.146 172.513 176.649  1.00  0.00    -0.011 A 
ATOM     13  C   UNL     1     175.143 172.988 177.501  1.00  0.00     0.013 A 
ATOM     14  C   UNL     1     174.850 173.328 178.809  1.00  0.00     0.047 A 
ATOM     15  C   UNL     1     173.542 173.201 179.296  1.00  0.00     0.115 A 
ATOM     16  C   UNL     1     172.837 172.452 177.099  1.00  0.00     0.013 A 
ATOM     17  C   UNL     1     172.532 172.813 178.418  1.00  0.00     0.047 A 
BRANCH  15  18
ATOM     18  O   UNL     1     173.249 173.443 180.646  1.00  0.00    -0.508 OA
ATOM     19  H   UNL     1     172.585 174.143 180.949  1.00  0.00     0.293 HD
ENDBRANCH  15  18
ENDBRANCH   1  12
BRANCH  11  20
ATOM     20  C   UNL     1     178.661 171.551 172.287  1.00  0.00     0.188 C 
ATOM     21  C   UNL     1     180.005 171.929 172.992  1.00  0.00     0.179 C 
ATOM     22  O   UNL     1     178.870 171.181 170.913  1.00  0.00    -0.362 OA
ATOM     23  C   UNL     1     181.026 172.285 171.911  1.00  0.00     0.177 C 
ATOM     24  C   UNL     1     179.978 170.310 170.771  1.00  0.00     0.176 C 
ATOM     25  C   UNL     1     181.306 171.050 171.055  1.00  0.00     0.177 C 
BRANCH  21  26
ATOM     26  O   UNL     1     180.520 170.842 173.748  1.00  0.00    -0.387 OA
ATOM     27  H   UNL     1     181.517 170.916 173.781  1.00  0.00     0.211 HD
ENDBRANCH  21  26
BRANCH  23  28
ATOM     28  O   UNL     1     180.449 173.281 171.101  1.00  0.00    -0.387 OA
ATOM     29  H   UNL     1     180.736 174.151 171.439  1.00  0.00     0.211 HD
ENDBRANCH  23  28
BRANCH  24  30
ATOM     30  C   UNL     1     179.982 169.718 169.338  1.00  0.00     0.191 C 
BRANCH  30  31
ATOM     31  O   UNL     1     181.319 169.528 168.986  1.00  0.00    -0.394 OA
ATOM     32  H   UNL     1     181.460 168.544 168.982  1.00  0.00     0.210 HD
ENDBRANCH  30  31
ENDBRANCH  24  30
BRANCH  25  33
ATOM     33  O   UNL     1     182.246 170.237 171.732  1.00  0.00    -0.388 OA
ATOM     34  H   UNL     1     182.779 169.758 171.058  1.00  0.00     0.211 HD
ENDBRANCH  25  33
ENDBRANCH  11  20
BRANCH  10  35
ATOM     35  O   UNL     1     179.359 168.726 172.534  1.00  0.00    -0.507 OA
ATOM     36  H   UNL     1     180.211 169.231 172.431  1.00  0.00     0.293 HD
ENDBRANCH  10  35
TORSDOF 9
ENDMDL
MODEL 2
REMARK VINA RESULT:    -7.238      7.416     11.154
REMARK INTER + INTRA:          -9.271
REMARK INTER:                  -9.778
REMARK INTRA:                   0.507
REMARK UNBOUND:                 0.506
REMARK SMILES O=c1c(-c2ccc(O)cc2)coc2c([C@@H]3O[C@@H](CO)[C@H](O)[C@@H](O)[C@@H]3O)c(O)ccc12
REMARK SMILES IDX 3 1 11 2 12 3 13 4 30 5 2 6 1 7 29 8 28 9 26 10 14 11 4 12
REMARK SMILES IDX 5 13 6 14 7 15 10 16 9 17 8 18 15 20 24 21 16 22 22 23 17 24
REMARK SMILES IDX 20 25 25 26 23 28 18 30 19 31 21 33 27 35
REMARK H PARENT 8 19 25 27 23 29 19 32 21 34 27 36
REMARK Flexibility Score: inf
ROOT
ATOM      1  C   UNL     1     171.785 174.519 175.371  1.00  0.00     0.065 A 
ATOM      2  C   UNL     1     171.214 173.712 174.378  1.00  0.00     0.208 A 
ATOM      3  O   UNL     1     170.213 174.173 173.644  1.00  0.00    -0.463 OA
ATOM      4  C   UNL     1     169.706 175.392 173.787  1.00  0.00     0.147 A 
ATOM      5  C   UNL     1     170.324 176.292 174.692  1.00  0.00     0.066 A 
ATOM      6  C   UNL     1     171.426 175.860 175.427  1.00  0.00     0.200 A 
ATOM      7  O   UNL     1     172.032 176.652 176.221  1.00  0.00    -0.288 OA
ATOM      8  C   UNL     1     169.705 177.524 174.932  1.00  0.00     0.020 A 
ATOM      9  C   UNL     1     168.560 177.882 174.238  1.00  0.00     0.047 A 
ATOM     10  C   UNL     1     168.076 177.109 173.226  1.00  0.00     0.125 A 
ATOM     11  C   UNL     1     168.546 175.801 173.063  1.00  0.00     0.069 A 
ENDROOT
BRANCH   1  12
ATOM     12  C   UNL     1     172.219 173.869 176.639  1.00  0.00    -0.011 A 
ATOM     13  C   UNL     1     171.224 173.427 177.510  1.00  0.00     0.013 A 
ATOM     14  C   UNL     1     171.525 173.104 178.819  1.00  0.00     0.047 A 
ATOM     15  C   UNL     1     172.841 173.213 179.290  1.00  0.00     0.115 A 
ATOM     16  C   UNL     1     173.534 173.912 177.072  1.00  0.00     0.013 A 
ATOM     17  C   UNL     1     173.848 173.567 178.394  1.00  0.00     0.047 A 
BRANCH  15  18
ATOM     18  O   UNL     1     173.145 172.988 180.640  1.00  0.00    -0.508 OA
ATOM     19  H   UNL     1     174.017 172.580 180.948  1.00  0.00     0.293 HD
ENDBRANCH  15  18
ENDBRANCH   1  12
BRANCH  11  20
ATOM     20  C   UNL     1     167.695 174.795 172.278  1.00  0.00     0.188 C 
ATOM     21  C   UNL     1     166.354 174.426 172.993  1.00  0.00     0.179 C 
ATOM     22  O   UNL     1     167.480 175.153 170.902  1.00  0.00    -0.362 OA
ATOM     23  C   UNL     1     165.327 174.061 171.920  1.00  0.00     0.177 C 
ATOM     24  C   UNL     1     166.373 176.024 170.756  1.00  0.00     0.176 C 
ATOM     25  C   UNL     1     165.046 175.288 171.054  1.00  0.00     0.177 C 
BRANCH  21  26
ATOM     26  O   UNL     1     165.844 175.520 173.741  1.00  0.00    -0.387 OA
ATOM     27  H   UNL     1     166.522 175.784 174.428  1.00  0.00     0.211 HD
ENDBRANCH  21  26
BRANCH  23  28
ATOM     28  O   UNL     1     165.900 173.057 171.117  1.00  0.00    -0.387 OA
ATOM     29  H   UNL     1     165.267 172.315 171.062  1.00  0.00     0.211 HD
ENDBRANCH  23  28
BRANCH  24  30
ATOM     30  C   UNL     1     166.364 176.603 169.318  1.00  0.00     0.191 C 
BRANCH  30  31
ATOM     31  O   UNL     1     165.025 176.733 168.947  1.00  0.00    -0.394 OA
ATOM     32  H   UNL     1     164.773 177.668 169.171  1.00  0.00     0.210 HD
ENDBRANCH  30  31
ENDBRANCH  24  30
BRANCH  25  33
ATOM     33  O   UNL     1     164.109 176.109 171.727  1.00  0.00    -0.388 OA
ATOM     34  H   UNL     1     163.207 175.765 171.538  1.00  0.00     0.211 HD
ENDBRANCH  25  33
ENDBRANCH  11  20
BRANCH  10  35
ATOM     35  O   UNL     1     167.006 177.625 172.497  1.00  0.00    -0.507 OA
ATOM     36  H   UNL     1     167.112 177.904 171.547  1.00  0.00     0.293 HD
ENDBRANCH  10  35
TORSDOF 9
ENDMDL
MODEL 3
REMARK VINA RESULT:    -7.147      1.303      1.751
REMARK INTER + INTRA:          -9.148
REMARK INTER:                  -9.411
REMARK INTRA:                   0.263
REMARK UNBOUND:                 0.506
REMARK SMILES O=c1c(-c2ccc(O)cc2)coc2c([C@@H]3O[C@@H](CO)[C@H](O)[C@@H](O)[C@@H]3O)c(O)ccc12
REMARK SMILES IDX 3 1 11 2 12 3 13 4 30 5 2 6 1 7 29 8 28 9 26 10 14 11 4 12
REMARK SMILES IDX 5 13 6 14 7 15 10 16 9 17 8 18 15 20 24 21 16 22 22 23 17 24
REMARK SMILES IDX 20 25 25 26 23 28 18 30 19 31 21 33 27 35
REMARK H PARENT 8 19 25 27 23 29 19 32 21 34 27 36
REMARK Flexibility Score: inf
ROOT
ATOM      1  C   UNL     1     173.761 171.422 175.507  1.00  0.00     0.065 A 
ATOM      2  C   UNL     1     174.060 172.096 174.316  1.00  0.00     0.208 A 
ATOM      3  O   UNL     1     174.974 171.609 173.491  1.00  0.00    -0.463 OA
ATOM      4  C   UNL     1     175.639 170.484 173.722  1.00  0.00     0.147 A 
ATOM      5  C   UNL     1     175.291 169.698 174.851  1.00  0.00     0.066 A 
ATOM      6  C   UNL     1     174.282 170.148 175.700  1.00  0.00     0.200 A 
ATOM      7  O   UNL     1     173.913 169.451 176.702  1.00  0.00    -0.288 OA
ATOM      8  C   UNL     1     176.083 168.587 175.159  1.00  0.00     0.020 A 
ATOM      9  C   UNL     1     177.133 168.221 174.331  1.00  0.00     0.047 A 
ATOM     10  C   UNL     1     177.347 168.852 173.142  1.00  0.00     0.125 A 
ATOM     11  C   UNL     1     176.705 170.064 172.871  1.00  0.00     0.069 A 
ENDROOT
BRANCH   1  12
ATOM     12  C   UNL     1     173.467 172.236 176.719  1.00  0.00    -0.011 A 
ATOM     13  C   UNL     1     174.547 172.626 177.510  1.00  0.00     0.013 A 
ATOM     14  C   UNL     1     174.346 173.104 178.791  1.00  0.00     0.047 A 
ATOM     15  C   UNL     1     173.049 173.208 179.312  1.00  0.00     0.115 A 
ATOM     16  C   UNL     1     172.177 172.402 177.197  1.00  0.00     0.013 A 
ATOM     17  C   UNL     1     171.967 172.905 178.488  1.00  0.00     0.047 A 
BRANCH  15  18
ATOM     18  O   UNL     1     172.835 173.594 180.644  1.00  0.00    -0.508 OA
ATOM     19  H   UNL     1     173.493 174.155 181.166  1.00  0.00     0.293 HD
ENDBRANCH  15  18
ENDBRANCH   1  12
BRANCH  11  20
ATOM     20  C   UNL     1     177.289 170.994 171.800  1.00  0.00     0.188 C 
ATOM     21  C   UNL     1     177.281 172.502 172.217  1.00  0.00     0.179 C 
ATOM     22  O   UNL     1     178.577 170.589 171.307  1.00  0.00    -0.362 OA
ATOM     23  C   UNL     1     178.446 173.197 171.510  1.00  0.00     0.177 C 
ATOM     24  C   UNL     1     179.625 171.070 172.128  1.00  0.00     0.176 C 
ATOM     25  C   UNL     1     179.763 172.606 172.009  1.00  0.00     0.177 C 
BRANCH  21  26
ATOM     26  O   UNL     1     177.456 172.656 173.618  1.00  0.00    -0.387 OA
ATOM     27  H   UNL     1     177.418 173.631 173.842  1.00  0.00     0.211 HD
ENDBRANCH  21  26
BRANCH  23  28
ATOM     28  O   UNL     1     178.318 172.933 170.134  1.00  0.00    -0.387 OA
ATOM     29  H   UNL     1     179.079 173.337 169.675  1.00  0.00     0.211 HD
ENDBRANCH  23  28
BRANCH  24  30
ATOM     30  C   UNL     1     180.951 170.373 171.727  1.00  0.00     0.191 C 
BRANCH  30  31
ATOM     31  O   UNL     1     181.821 171.378 171.304  1.00  0.00    -0.394 OA
ATOM     32  H   UNL     1     182.634 170.911 170.974  1.00  0.00     0.210 HD
ENDBRANCH  30  31
ENDBRANCH  24  30
BRANCH  25  33
ATOM     33  O   UNL     1     180.093 173.218 173.242  1.00  0.00    -0.388 OA
ATOM     34  H   UNL     1     180.182 174.186 173.090  1.00  0.00     0.211 HD
ENDBRANCH  25  33
ENDBRANCH  11  20
BRANCH  10  35
ATOM     35  O   UNL     1     178.337 168.318 172.317  1.00  0.00    -0.507 OA
ATOM     36  H   UNL     1     178.191 168.205 171.339  1.00  0.00     0.293 HD
ENDBRANCH  10  35
TORSDOF 9
ENDMDL
MODEL 4
REMARK VINA RESULT:    -7.134      6.978     10.266
REMARK INTER + INTRA:          -9.130
REMARK INTER:                  -9.386
REMARK INTRA:                   0.256
REMARK UNBOUND:                 0.506
REMARK SMILES O=c1c(-c2ccc(O)cc2)coc2c([C@@H]3O[C@@H](CO)[C@H](O)[C@@H](O)[C@@H]3O)c(O)ccc12
REMARK SMILES IDX 3 1 11 2 12 3 13 4 30 5 2 6 1 7 29 8 28 9 26 10 14 11 4 12
REMARK SMILES IDX 5 13 6 14 7 15 10 16 9 17 8 18 15 20 24 21 16 22 22 23 17 24
REMARK SMILES IDX 20 25 25 26 23 28 18 30 19 31 21 33 27 35
REMARK H PARENT 8 19 25 27 23 29 19 32 21 34 27 36
REMARK Flexibility Score: inf
ROOT
ATOM      1  C   UNL     1     172.604 174.964 175.504  1.00  0.00     0.065 A 
ATOM      2  C   UNL     1     172.329 174.297 174.302  1.00  0.00     0.208 A 
ATOM      3  O   UNL     1     171.414 174.775 173.473  1.00  0.00    -0.463 OA
ATOM      4  C   UNL     1     170.726 175.885 173.710  1.00  0.00     0.147 A 
ATOM      5  C   UNL     1     171.048 176.665 174.849  1.00  0.00     0.066 A 
ATOM      6  C   UNL     1     172.058 176.226 175.704  1.00  0.00     0.200 A 
ATOM      7  O   UNL     1     172.403 176.919 176.717  1.00  0.00    -0.288 OA
ATOM      8  C   UNL     1     170.232 177.759 175.161  1.00  0.00     0.020 A 
ATOM      9  C   UNL     1     169.185 178.113 174.326  1.00  0.00     0.047 A 
ATOM     10  C   UNL     1     168.993 177.492 173.129  1.00  0.00     0.125 A 
ATOM     11  C   UNL     1     169.661 176.294 172.852  1.00  0.00     0.069 A 
ENDROOT
BRANCH   1  12
ATOM     12  C   UNL     1     172.901 174.143 176.710  1.00  0.00    -0.011 A 
ATOM     13  C   UNL     1     171.821 173.727 177.488  1.00  0.00     0.013 A 
ATOM     14  C   UNL     1     172.019 173.240 178.766  1.00  0.00     0.047 A 
ATOM     15  C   UNL     1     173.313 173.152 179.297  1.00  0.00     0.115 A 
ATOM     16  C   UNL     1     174.189 173.994 177.197  1.00  0.00     0.013 A 
ATOM     17  C   UNL     1     174.397 173.482 178.485  1.00  0.00     0.047 A 
BRANCH  15  18
ATOM     18  O   UNL     1     173.522 172.757 180.626  1.00  0.00    -0.508 OA
ATOM     19  H   UNL     1     172.795 172.354 181.201  1.00  0.00     0.293 HD
ENDBRANCH  15  18
ENDBRANCH   1  12
BRANCH  11  20
ATOM     20  C   UNL     1     169.105 175.364 171.766  1.00  0.00     0.188 C 
ATOM     21  C   UNL     1     169.137 173.853 172.167  1.00  0.00     0.179 C 
ATOM     22  O   UNL     1     167.814 175.751 171.264  1.00  0.00    -0.362 OA
ATOM     23  C   UNL     1     167.992 173.143 171.442  1.00  0.00     0.177 C 
ATOM     24  C   UNL     1     166.767 175.242 172.071  1.00  0.00     0.176 C 
ATOM     25  C   UNL     1     166.659 173.705 171.935  1.00  0.00     0.177 C 
BRANCH  21  26
ATOM     26  O   UNL     1     168.951 173.681 173.565  1.00  0.00    -0.387 OA
ATOM     27  H   UNL     1     168.918 172.702 173.767  1.00  0.00     0.211 HD
ENDBRANCH  21  26
BRANCH  23  28
ATOM     28  O   UNL     1     168.128 173.424 170.070  1.00  0.00    -0.387 OA
ATOM     29  H   UNL     1     167.357 173.953 169.791  1.00  0.00     0.211 HD
ENDBRANCH  23  28
BRANCH  24  30
ATOM     30  C   UNL     1     165.433 175.919 171.663  1.00  0.00     0.191 C 
BRANCH  30  31
ATOM     31  O   UNL     1     164.568 174.896 171.270  1.00  0.00    -0.394 OA
ATOM     32  H   UNL     1     164.655 174.835 170.282  1.00  0.00     0.210 HD
ENDBRANCH  30  31
ENDBRANCH  24  30
BRANCH  25  33
ATOM     33  O   UNL     1     166.329 173.074 173.158  1.00  0.00    -0.388 OA
ATOM     34  H   UNL     1     167.080 173.199 173.781  1.00  0.00     0.211 HD
ENDBRANCH  25  33
ENDBRANCH  11  20
BRANCH  10  35
ATOM     35  O   UNL     1     168.002 178.016 172.300  1.00  0.00    -0.507 OA
ATOM     36  H   UNL     1     167.645 177.498 171.528  1.00  0.00     0.293 HD
ENDBRANCH  10  35
TORSDOF 9
ENDMDL
MODEL 5
REMARK VINA RESULT:    -6.746      7.226     10.070
REMARK INTER + INTRA:          -8.606
REMARK INTER:                  -9.052
REMARK INTRA:                   0.446
REMARK UNBOUND:                 0.506
REMARK SMILES O=c1c(-c2ccc(O)cc2)coc2c([C@@H]3O[C@@H](CO)[C@H](O)[C@@H](O)[C@@H]3O)c(O)ccc12
REMARK SMILES IDX 3 1 11 2 12 3 13 4 30 5 2 6 1 7 29 8 28 9 26 10 14 11 4 12
REMARK SMILES IDX 5 13 6 14 7 15 10 16 9 17 8 18 15 20 24 21 16 22 22 23 17 24
REMARK SMILES IDX 20 25 25 26 23 28 18 30 19 31 21 33 27 35
REMARK H PARENT 8 19 25 27 23 29 19 32 21 34 27 36
REMARK Flexibility Score: inf
ROOT
ATOM      1  C   UNL     1     172.538 174.598 176.260  1.00  0.00     0.065 A 
ATOM      2  C   UNL     1     172.088 173.643 175.338  1.00  0.00     0.208 A 
ATOM      3  O   UNL     1     171.230 173.990 174.391  1.00  0.00    -0.463 OA
ATOM      4  C   UNL     1     170.762 175.224 174.248  1.00  0.00     0.147 A 
ATOM      5  C   UNL     1     171.276 176.255 175.075  1.00  0.00     0.066 A 
ATOM      6  C   UNL     1     172.234 175.935 176.035  1.00  0.00     0.200 A 
ATOM      7  O   UNL     1     172.749 176.840 176.771  1.00  0.00    -0.288 OA
ATOM      8  C   UNL     1     170.683 177.521 175.008  1.00  0.00     0.020 A 
ATOM      9  C   UNL     1     169.673 177.775 174.094  1.00  0.00     0.047 A 
ATOM     10  C   UNL     1     169.313 176.849 173.162  1.00  0.00     0.125 A 
ATOM     11  C   UNL     1     169.744 175.524 173.294  1.00  0.00     0.069 A 
ENDROOT
BRANCH   1  12
ATOM     12  C   UNL     1     172.747 174.167 177.670  1.00  0.00    -0.011 A 
ATOM     13  C   UNL     1     174.037 173.795 178.045  1.00  0.00     0.013 A 
ATOM     14  C   UNL     1     174.258 173.099 179.219  1.00  0.00     0.047 A 
ATOM     15  C   UNL     1     173.182 172.760 180.052  1.00  0.00     0.115 A 
ATOM     16  C   UNL     1     171.687 173.901 178.521  1.00  0.00     0.013 A 
ATOM     17  C   UNL     1     171.906 173.212 179.721  1.00  0.00     0.047 A 
BRANCH  15  18
ATOM     18  O   UNL     1     173.376 171.966 181.192  1.00  0.00    -0.508 OA
ATOM     19  H   UNL     1     173.099 172.258 182.120  1.00  0.00     0.293 HD
ENDBRANCH  15  18
ENDBRANCH   1  12
BRANCH  11  20
ATOM     20  C   UNL     1     168.976 174.415 172.565  1.00  0.00     0.188 C 
ATOM     21  C   UNL     1     167.513 174.226 173.085  1.00  0.00     0.179 C 
ATOM     22  O   UNL     1     169.019 174.514 171.131  1.00  0.00    -0.362 OA
ATOM     23  C   UNL     1     166.662 173.697 171.930  1.00  0.00     0.177 C 
ATOM     24  C   UNL     1     168.009 175.374 170.637  1.00  0.00     0.176 C 
ATOM     25  C   UNL     1     166.607 174.747 170.822  1.00  0.00     0.177 C 
BRANCH  21  26
ATOM     26  O   UNL     1     166.954 175.457 173.522  1.00  0.00    -0.387 OA
ATOM     27  H   UNL     1     167.579 175.880 174.177  1.00  0.00     0.211 HD
ENDBRANCH  21  26
BRANCH  23  28
ATOM     28  O   UNL     1     167.298 172.543 171.436  1.00  0.00    -0.387 OA
ATOM     29  H   UNL     1     166.713 172.137 170.767  1.00  0.00     0.211 HD
ENDBRANCH  23  28
BRANCH  24  30
ATOM     30  C   UNL     1     168.278 175.672 169.139  1.00  0.00     0.191 C 
BRANCH  30  31
ATOM     31  O   UNL     1     167.033 175.854 168.537  1.00  0.00    -0.394 OA
ATOM     32  H   UNL     1     166.828 176.822 168.628  1.00  0.00     0.210 HD
ENDBRANCH  30  31
ENDBRANCH  24  30
BRANCH  25  33
ATOM     33  O   UNL     1     165.623 175.708 171.160  1.00  0.00    -0.388 OA
ATOM     34  H   UNL     1     166.082 176.541 171.412  1.00  0.00     0.211 HD
ENDBRANCH  25  33
ENDBRANCH  11  20
BRANCH  10  35
ATOM     35  O   UNL     1     168.389 177.252 172.199  1.00  0.00    -0.507 OA
ATOM     36  H   UNL     1     168.552 177.101 171.229  1.00  0.00     0.293 HD
ENDBRANCH  10  35
TORSDOF 9
ENDMDL
MODEL 6
REMARK VINA RESULT:    -6.604      1.920      2.740
REMARK INTER + INTRA:          -8.414
REMARK INTER:                  -9.071
REMARK INTRA:                   0.657
REMARK UNBOUND:                 0.506
REMARK SMILES O=c1c(-c2ccc(O)cc2)coc2c([C@@H]3O[C@@H](CO)[C@H](O)[C@@H](O)[C@@H]3O)c(O)ccc12
REMARK SMILES IDX 3 1 11 2 12 3 13 4 30 5 2 6 1 7 29 8 28 9 26 10 14 11 4 12
REMARK SMILES IDX 5 13 6 14 7 15 10 16 9 17 8 18 15 20 24 21 16 22 22 23 17 24
REMARK SMILES IDX 20 25 25 26 23 28 18 30 19 31 21 33 27 35
REMARK H PARENT 8 19 25 27 23 29 19 32 21 34 27 36
REMARK Flexibility Score: inf
ROOT
ATOM      1  C   UNL     1     173.451 172.185 176.526  1.00  0.00     0.065 A 
ATOM      2  C   UNL     1     174.718 172.650 176.147  1.00  0.00     0.208 A 
ATOM      3  O   UNL     1     175.425 171.985 175.246  1.00  0.00    -0.463 OA
ATOM      4  C   UNL     1     174.994 170.878 174.653  1.00  0.00     0.147 A 
ATOM      5  C   UNL     1     173.673 170.431 174.908  1.00  0.00     0.066 A 
ATOM      6  C   UNL     1     172.877 171.150 175.797  1.00  0.00     0.200 A 
ATOM      7  O   UNL     1     171.671 170.802 176.022  1.00  0.00    -0.288 OA
ATOM      8  C   UNL     1     173.275 169.196 174.384  1.00  0.00     0.020 A 
ATOM      9  C   UNL     1     174.130 168.471 173.570  1.00  0.00     0.047 A 
ATOM     10  C   UNL     1     175.322 168.986 173.160  1.00  0.00     0.125 A 
ATOM     11  C   UNL     1     175.840 170.126 173.785  1.00  0.00     0.069 A 
ENDROOT
BRANCH   1  12
ATOM     12  C   UNL     1     173.050 172.328 177.953  1.00  0.00    -0.011 A 
ATOM     13  C   UNL     1     172.005 173.204 178.243  1.00  0.00     0.013 A 
ATOM     14  C   UNL     1     171.778 173.627 179.539  1.00  0.00     0.047 A 
ATOM     15  C   UNL     1     172.598 173.176 180.584  1.00  0.00     0.115 A 
ATOM     16  C   UNL     1     173.820 171.820 178.986  1.00  0.00     0.013 A 
ATOM     17  C   UNL     1     173.583 172.231 180.305  1.00  0.00     0.047 A 
BRANCH  15  18
ATOM     18  O   UNL     1     172.446 173.675 181.886  1.00  0.00    -0.508 OA
ATOM     19  H   UNL     1     172.882 174.530 182.201  1.00  0.00     0.293 HD
ENDBRANCH  15  18
ENDBRANCH   1  12
BRANCH  11  20
ATOM     20  C   UNL     1     177.343 170.416 173.680  1.00  0.00     0.188 C 
ATOM     21  C   UNL     1     178.236 169.303 174.321  1.00  0.00     0.179 C 
ATOM     22  O   UNL     1     177.787 170.752 172.355  1.00  0.00    -0.362 OA
ATOM     23  C   UNL     1     179.575 169.283 173.582  1.00  0.00     0.177 C 
ATOM     24  C   UNL     1     178.077 169.595 171.592  1.00  0.00     0.176 C 
ATOM     25  C   UNL     1     179.341 168.882 172.127  1.00  0.00     0.177 C 
BRANCH  21  26
ATOM     26  O   UNL     1     177.640 168.020 174.194  1.00  0.00    -0.387 OA
ATOM     27  H   UNL     1     178.252 167.431 173.666  1.00  0.00     0.211 HD
ENDBRANCH  21  26
BRANCH  23  28
ATOM     28  O   UNL     1     180.092 170.591 173.619  1.00  0.00    -0.387 OA
ATOM     29  H   UNL     1     179.747 171.076 172.845  1.00  0.00     0.211 HD
ENDBRANCH  23  28
BRANCH  24  30
ATOM     30  C   UNL     1     178.266 169.996 170.106  1.00  0.00     0.191 C 
BRANCH  30  31
ATOM     31  O   UNL     1     179.071 169.015 169.526  1.00  0.00    -0.394 OA
ATOM     32  H   UNL     1     179.095 168.265 170.178  1.00  0.00     0.210 HD
ENDBRANCH  30  31
ENDBRANCH  24  30
BRANCH  25  33
ATOM     33  O   UNL     1     179.238 167.471 172.059  1.00  0.00    -0.388 OA
ATOM     34  H   UNL     1     180.068 167.121 171.663  1.00  0.00     0.211 HD
ENDBRANCH  25  33
ENDBRANCH  11  20
BRANCH  10  35
ATOM     35  O   UNL     1     176.044 168.240 172.228  1.00  0.00    -0.507 OA
ATOM     36  H   UNL     1     176.260 168.604 171.328  1.00  0.00     0.293 HD
ENDBRANCH  10  35
TORSDOF 9
ENDMDL
MODEL 7
REMARK VINA RESULT:    -6.566      6.195      9.278
REMARK INTER + INTRA:          -8.363
REMARK INTER:                  -8.672
REMARK INTRA:                   0.310
REMARK UNBOUND:                 0.506
REMARK SMILES O=c1c(-c2ccc(O)cc2)coc2c([C@@H]3O[C@@H](CO)[C@H](O)[C@@H](O)[C@@H]3O)c(O)ccc12
REMARK SMILES IDX 3 1 11 2 12 3 13 4 30 5 2 6 1 7 29 8 28 9 26 10 14 11 4 12
REMARK SMILES IDX 5 13 6 14 7 15 10 16 9 17 8 18 15 20 24 21 16 22 22 23 17 24
REMARK SMILES IDX 20 25 25 26 23 28 18 30 19 31 21 33 27 35
REMARK H PARENT 8 19 25 27 23 29 19 32 21 34 27 36
REMARK Flexibility Score: inf
ROOT
ATOM      1  C   UNL     1     173.529 173.987 176.343  1.00  0.00     0.065 A 
ATOM      2  C   UNL     1     172.306 173.624 175.762  1.00  0.00     0.208 A 
ATOM      3  O   UNL     1     171.853 174.283 174.706  1.00  0.00    -0.463 OA
ATOM      4  C   UNL     1     172.507 175.290 174.140  1.00  0.00     0.147 A 
ATOM      5  C   UNL     1     173.803 175.620 174.611  1.00  0.00     0.066 A 
ATOM      6  C   UNL     1     174.339 174.897 175.675  1.00  0.00     0.200 A 
ATOM      7  O   UNL     1     175.516 175.138 176.101  1.00  0.00    -0.288 OA
ATOM      8  C   UNL     1     174.427 176.763 174.098  1.00  0.00     0.020 A 
ATOM      9  C   UNL     1     173.821 177.504 173.097  1.00  0.00     0.047 A 
ATOM     10  C   UNL     1     172.671 177.081 172.501  1.00  0.00     0.125 A 
ATOM     11  C   UNL     1     171.922 176.052 173.085  1.00  0.00     0.069 A 
ENDROOT
BRANCH   1  12
ATOM     12  C   UNL     1     173.648 173.918 177.826  1.00  0.00    -0.011 A 
ATOM     13  C   UNL     1     174.605 173.053 178.356  1.00  0.00     0.013 A 
ATOM     14  C   UNL     1     174.573 172.698 179.691  1.00  0.00     0.047 A 
ATOM     15  C   UNL     1     173.576 173.209 180.535  1.00  0.00     0.115 A 
ATOM     16  C   UNL     1     172.702 174.485 178.665  1.00  0.00     0.013 A 
ATOM     17  C   UNL     1     172.677 174.143 180.024  1.00  0.00     0.047 A 
BRANCH  15  18
ATOM     18  O   UNL     1     173.468 172.779 181.865  1.00  0.00    -0.508 OA
ATOM     19  H   UNL     1     174.253 172.754 182.501  1.00  0.00     0.293 HD
ENDBRANCH  15  18
ENDBRANCH   1  12
BRANCH  11  20
ATOM     20  C   UNL     1     170.440 175.908 172.718  1.00  0.00     0.188 C 
ATOM     21  C   UNL     1     169.523 175.599 173.947  1.00  0.00     0.179 C 
ATOM     22  O   UNL     1     169.920 176.993 171.930  1.00  0.00    -0.362 OA
ATOM     23  C   UNL     1     168.134 176.169 173.659  1.00  0.00     0.177 C 
ATOM     24  C   UNL     1     169.492 178.070 172.743  1.00  0.00     0.176 C 
ATOM     25  C   UNL     1     168.226 177.690 173.546  1.00  0.00     0.177 C 
BRANCH  21  26
ATOM     26  O   UNL     1     170.017 176.209 175.131  1.00  0.00    -0.387 OA
ATOM     27  H   UNL     1     170.976 175.952 175.250  1.00  0.00     0.211 HD
ENDBRANCH  21  26
BRANCH  23  28
ATOM     28  O   UNL     1     167.713 175.643 172.424  1.00  0.00    -0.387 OA
ATOM     29  H   UNL     1     168.480 175.212 172.000  1.00  0.00     0.211 HD
ENDBRANCH  23  28
BRANCH  24  30
ATOM     30  C   UNL     1     169.218 179.308 171.850  1.00  0.00     0.191 C 
BRANCH  30  31
ATOM     31  O   UNL     1     170.408 180.034 171.795  1.00  0.00    -0.394 OA
ATOM     32  H   UNL     1     170.582 180.196 170.830  1.00  0.00     0.210 HD
ENDBRANCH  30  31
ENDBRANCH  24  30
BRANCH  25  33
ATOM     33  O   UNL     1     168.225 178.240 174.850  1.00  0.00    -0.388 OA
ATOM     34  H   UNL     1     168.249 177.498 175.496  1.00  0.00     0.211 HD
ENDBRANCH  25  33
ENDBRANCH  11  20
BRANCH  10  35
ATOM     35  O   UNL     1     172.219 177.820 171.409  1.00  0.00    -0.507 OA
ATOM     36  H   UNL     1     171.967 177.378 170.552  1.00  0.00     0.293 HD
ENDBRANCH  10  35
TORSDOF 9
ENDMDL
MODEL 8
REMARK VINA RESULT:    -6.544      6.634      8.589
REMARK INTER + INTRA:          -8.333
REMARK INTER:                  -8.814
REMARK INTRA:                   0.481
REMARK UNBOUND:                 0.506
REMARK SMILES O=c1c(-c2ccc(O)cc2)coc2c([C@@H]3O[C@@H](CO)[C@H](O)[C@@H](O)[C@@H]3O)c(O)ccc12
REMARK SMILES IDX 3 1 11 2 12 3 13 4 30 5 2 6 1 7 29 8 28 9 26 10 14 11 4 12
REMARK SMILES IDX 5 13 6 14 7 15 10 16 9 17 8 18 15 20 24 21 16 22 22 23 17 24
REMARK SMILES IDX 20 25 25 26 23 28 18 30 19 31 21 33 27 35
REMARK H PARENT 8 19 25 27 23 29 19 32 21 34 27 36
REMARK Flexibility Score: inf
ROOT
ATOM      1  C   UNL     1     171.337 172.862 177.064  1.00  0.00     0.065 A 
ATOM      2  C   UNL     1     170.901 174.151 176.726  1.00  0.00     0.208 A 
ATOM      3  O   UNL     1     170.767 174.492 175.453  1.00  0.00    -0.463 OA
ATOM      4  C   UNL     1     171.017 173.664 174.447  1.00  0.00     0.147 A 
ATOM      5  C   UNL     1     171.344 172.314 174.731  1.00  0.00     0.066 A 
ATOM      6  C   UNL     1     171.422 171.905 176.061  1.00  0.00     0.200 A 
ATOM      7  O   UNL     1     171.674 170.690 176.356  1.00  0.00    -0.288 OA
ATOM      8  C   UNL     1     171.734 171.486 173.673  1.00  0.00     0.020 A 
ATOM      9  C   UNL     1     171.722 171.958 172.370  1.00  0.00     0.047 A 
ATOM     10  C   UNL     1     171.220 173.188 172.069  1.00  0.00     0.125 A 
ATOM     11  C   UNL     1     170.983 174.113 173.092  1.00  0.00     0.069 A 
ENDROOT
BRANCH   1  12
ATOM     12  C   UNL     1     172.243 172.714 178.236  1.00  0.00    -0.011 A 
ATOM     13  C   UNL     1     171.732 173.044 179.491  1.00  0.00     0.013 A 
ATOM     14  C   UNL     1     172.575 173.232 180.570  1.00  0.00     0.047 A 
ATOM     15  C   UNL     1     173.961 173.090 180.416  1.00  0.00     0.115 A 
ATOM     16  C   UNL     1     173.604 172.500 178.090  1.00  0.00     0.013 A 
ATOM     17  C   UNL     1     174.462 172.671 179.185  1.00  0.00     0.047 A 
BRANCH  15  18
ATOM     18  O   UNL     1     174.837 173.377 181.473  1.00  0.00    -0.508 OA
ATOM     19  H   UNL     1     175.843 173.356 181.376  1.00  0.00     0.293 HD
ENDBRANCH  15  18
ENDBRANCH   1  12
BRANCH  11  20
ATOM     20  C   UNL     1     170.893 175.604 172.744  1.00  0.00     0.188 C 
ATOM     21  C   UNL     1     169.429 176.153 172.738  1.00  0.00     0.179 C 
ATOM     22  O   UNL     1     171.770 176.443 173.515  1.00  0.00    -0.362 OA
ATOM     23  C   UNL     1     169.476 177.638 173.101  1.00  0.00     0.177 C 
ATOM     24  C   UNL     1     171.183 176.817 174.748  1.00  0.00     0.176 C 
ATOM     25  C   UNL     1     170.003 177.792 174.527  1.00  0.00     0.177 C 
BRANCH  21  26
ATOM     26  O   UNL     1     168.619 175.488 173.697  1.00  0.00    -0.387 OA
ATOM     27  H   UNL     1     169.123 175.431 174.560  1.00  0.00     0.211 HD
ENDBRANCH  21  26
BRANCH  23  28
ATOM     28  O   UNL     1     170.375 178.258 172.212  1.00  0.00    -0.387 OA
ATOM     29  H   UNL     1     171.247 177.833 172.318  1.00  0.00     0.211 HD
ENDBRANCH  23  28
BRANCH  24  30
ATOM     30  C   UNL     1     172.262 177.466 175.653  1.00  0.00     0.191 C 
BRANCH  30  31
ATOM     31  O   UNL     1     171.590 178.313 176.534  1.00  0.00    -0.394 OA
ATOM     32  H   UNL     1     171.180 177.720 177.218  1.00  0.00     0.210 HD
ENDBRANCH  30  31
ENDBRANCH  24  30
BRANCH  25  33
ATOM     33  O   UNL     1     168.935 177.565 175.428  1.00  0.00    -0.388 OA
ATOM     34  H   UNL     1     168.913 178.309 176.072  1.00  0.00     0.211 HD
ENDBRANCH  25  33
ENDBRANCH  11  20
BRANCH  10  35
ATOM     35  O   UNL     1     171.120 173.513 170.717  1.00  0.00    -0.507 OA
ATOM     36  H   UNL     1     171.913 173.478 170.115  1.00  0.00     0.293 HD
ENDBRANCH  10  35
TORSDOF 9
ENDMDL
MODEL 9
REMARK VINA RESULT:    -6.522      2.358      3.747
REMARK INTER + INTRA:          -8.303
REMARK INTER:                  -8.816
REMARK INTRA:                   0.514
REMARK UNBOUND:                 0.506
REMARK SMILES O=c1c(-c2ccc(O)cc2)coc2c([C@@H]3O[C@@H](CO)[C@H](O)[C@@H](O)[C@@H]3O)c(O)ccc12
REMARK SMILES IDX 3 1 11 2 12 3 13 4 30 5 2 6 1 7 29 8 28 9 26 10 14 11 4 12
REMARK SMILES IDX 5 13 6 14 7 15 10 16 9 17 8 18 15 20 24 21 16 22 22 23 17 24
REMARK SMILES IDX 20 25 25 26 23 28 18 30 19 31 21 33 27 35
REMARK H PARENT 8 19 25 27 23 29 19 32 21 34 27 36
REMARK Flexibility Score: inf
ROOT
ATOM      1  C   UNL     1     173.333 173.185 176.531  1.00  0.00     0.065 A 
ATOM      2  C   UNL     1     174.469 173.372 175.731  1.00  0.00     0.208 A 
ATOM      3  O   UNL     1     174.729 172.529 174.744  1.00  0.00    -0.463 OA
ATOM      4  C   UNL     1     173.955 171.492 174.447  1.00  0.00     0.147 A 
ATOM      5  C   UNL     1     172.731 171.326 175.144  1.00  0.00     0.066 A 
ATOM      6  C   UNL     1     172.393 172.239 176.141  1.00  0.00     0.200 A 
ATOM      7  O   UNL     1     171.284 172.146 176.763  1.00  0.00    -0.288 OA
ATOM      8  C   UNL     1     171.989 170.161 174.918  1.00  0.00     0.020 A 
ATOM      9  C   UNL     1     172.404 169.236 173.974  1.00  0.00     0.047 A 
ATOM     10  C   UNL     1     173.469 169.485 173.162  1.00  0.00     0.125 A 
ATOM     11  C   UNL     1     174.341 170.538 173.458  1.00  0.00     0.069 A 
ENDROOT
BRANCH   1  12
ATOM     12  C   UNL     1     173.441 173.490 177.984  1.00  0.00    -0.011 A 
ATOM     13  C   UNL     1     174.496 172.909 178.688  1.00  0.00     0.013 A 
ATOM     14  C   UNL     1     174.493 172.884 180.070  1.00  0.00     0.047 A 
ATOM     15  C   UNL     1     173.428 173.449 180.785  1.00  0.00     0.115 A 
ATOM     16  C   UNL     1     172.420 174.115 178.681  1.00  0.00     0.013 A 
ATOM     17  C   UNL     1     172.421 174.109 180.082  1.00  0.00     0.047 A 
BRANCH  15  18
ATOM     18  O   UNL     1     173.360 173.342 182.182  1.00  0.00    -0.508 OA
ATOM     19  H   UNL     1     173.657 174.079 182.805  1.00  0.00     0.293 HD
ENDBRANCH  15  18
ENDBRANCH   1  12
BRANCH  11  20
ATOM     20  C   UNL     1     175.755 170.525 172.867  1.00  0.00     0.188 C 
ATOM     21  C   UNL     1     176.853 171.013 173.869  1.00  0.00     0.179 C 
ATOM     22  O   UNL     1     176.122 169.281 172.246  1.00  0.00    -0.362 OA
ATOM     23  C   UNL     1     178.168 170.320 173.510  1.00  0.00     0.177 C 
ATOM     24  C   UNL     1     176.636 168.358 173.189  1.00  0.00     0.176 C 
ATOM     25  C   UNL     1     178.017 168.814 173.716  1.00  0.00     0.177 C 
BRANCH  21  26
ATOM     26  O   UNL     1     176.523 170.672 175.208  1.00  0.00    -0.387 OA
ATOM     27  H   UNL     1     175.715 170.082 175.201  1.00  0.00     0.211 HD
ENDBRANCH  21  26
BRANCH  23  28
ATOM     28  O   UNL     1     178.416 170.574 172.148  1.00  0.00    -0.387 OA
ATOM     29  H   UNL     1     178.320 171.533 171.995  1.00  0.00     0.211 HD
ENDBRANCH  23  28
BRANCH  24  30
ATOM     30  C   UNL     1     176.740 166.958 172.531  1.00  0.00     0.191 C 
BRANCH  30  31
ATOM     31  O   UNL     1     176.045 167.030 171.323  1.00  0.00    -0.394 OA
ATOM     32  H   UNL     1     176.657 166.654 170.637  1.00  0.00     0.210 HD
ENDBRANCH  30  31
ENDBRANCH  24  30
BRANCH  25  33
ATOM     33  O   UNL     1     178.195 168.527 175.091  1.00  0.00    -0.388 OA
ATOM     34  H   UNL     1     177.355 168.151 175.437  1.00  0.00     0.211 HD
ENDBRANCH  25  33
ENDBRANCH  11  20
BRANCH  10  35
ATOM     35  O   UNL     1     173.719 168.557 172.151  1.00  0.00    -0.507 OA
ATOM     36  H   UNL     1     173.667 167.577 172.322  1.00  0.00     0.293 HD
ENDBRANCH  10  35
TORSDOF 9
ENDMDL
