MODEL 1
REMARK VINA RESULT:    -4.889      0.000      0.000
REMARK INTER + INTRA:         -11.293
REMARK INTER:                  -8.891
REMARK INTRA:                  -2.403
REMARK UNBOUND:                -2.403
REMARK SMILES CCCCCCCCCCCCCC[C@H](C)C(=O)[O-]
REMARK SMILES IDX 9 1 10 2 11 3 12 4 13 5 14 6 15 7 16 8 17 9 18 10 19 11 8 12
REMARK SMILES IDX 7 13 6 14 5 15 4 16 3 17 2 18 1 19
REMARK H PARENT
REMARK Flexibility Score: inf
ROOT
ATOM      1  C   UNL     1      62.471  28.767  13.214  1.00  0.00     0.000 C 
ENDROOT
BRANCH   1   2
ATOM      2  C   UNL     1      63.116  29.931  13.981  1.00  0.00     0.000 C 
BRANCH   2   3
ATOM      3  C   UNL     1      64.369  30.437  13.257  1.00  0.00     0.000 C 
BRANCH   3   4
ATOM      4  C   UNL     1      64.072  31.735  12.489  1.00  0.00     0.000 C 
BRANCH   4   5
ATOM      5  C   UNL     1      63.719  32.906  13.420  1.00  0.00     0.001 C 
BRANCH   5   6
ATOM      6  C   UNL     1      62.263  33.377  13.253  1.00  0.00     0.009 C 
BRANCH   6   7
ATOM      7  C   UNL     1      61.609  33.728  14.607  1.00  0.00     0.032 C 
ATOM      8  C   UNL     1      62.668  34.181  15.618  1.00  0.00     0.014 C 
BRANCH   7   9
ATOM      9  C   UNL     1      60.833  32.563  15.162  1.00  0.00     0.044 C 
ATOM     10  O   UNL     1      59.770  32.178  14.605  1.00  0.00    -0.550 OA
ATOM     11  O   UNL     1      61.289  31.905  16.297  1.00  0.00    -0.550 OA
ENDBRANCH   7   9
ENDBRANCH   6   7
ENDBRANCH   5   6
ENDBRANCH   4   5
ENDBRANCH   3   4
ENDBRANCH   2   3
ENDBRANCH   1   2
BRANCH   1  12
ATOM     12  C   UNL     1      61.010  29.048  12.818  1.00  0.00     0.000 C 
BRANCH  12  13
ATOM     13  C   UNL     1      60.810  30.269  11.897  1.00  0.00    -0.000 C 
BRANCH  13  14
ATOM     14  C   UNL     1      60.606  29.939  10.405  1.00  0.00    -0.000 C 
BRANCH  14  15
ATOM     15  C   UNL     1      61.835  30.184   9.512  1.00  0.00    -0.000 C 
BRANCH  15  16
ATOM     16  C   UNL     1      62.741  28.950   9.394  1.00  0.00    -0.000 C 
BRANCH  16  17
ATOM     17  C   UNL     1      64.192  29.298   9.748  1.00  0.00    -0.000 C 
BRANCH  17  18
ATOM     18  C   UNL     1      64.638  30.583   9.042  1.00  0.00    -0.003 C 
ATOM     19  C   UNL     1      66.151  30.763   9.127  1.00  0.00     0.004 C 
ENDBRANCH  17  18
ENDBRANCH  16  17
ENDBRANCH  15  16
ENDBRANCH  14  15
ENDBRANCH  13  14
ENDBRANCH  12  13
ENDBRANCH   1  12
TORSDOF 14
ENDMDL
MODEL 2
REMARK VINA RESULT:    -4.862      1.325      2.059
REMARK INTER + INTRA:         -11.244
REMARK INTER:                  -8.742
REMARK INTRA:                  -2.502
REMARK UNBOUND:                -2.403
REMARK SMILES CCCCCCCCCCCCCC[C@H](C)C(=O)[O-]
REMARK SMILES IDX 9 1 10 2 11 3 12 4 13 5 14 6 15 7 16 8 17 9 18 10 19 11 8 12
REMARK SMILES IDX 7 13 6 14 5 15 4 16 3 17 2 18 1 19
REMARK H PARENT
REMARK Flexibility Score: inf
ROOT
ATOM      1  C   UNL     1      61.115  28.949  12.812  1.00  0.00     0.000 C 
ENDROOT
BRANCH   1   2
ATOM      2  C   UNL     1      62.244  29.386  13.758  1.00  0.00     0.000 C 
BRANCH   2   3
ATOM      3  C   UNL     1      63.598  29.373  13.039  1.00  0.00     0.000 C 
BRANCH   3   4
ATOM      4  C   UNL     1      64.372  30.674  13.300  1.00  0.00     0.000 C 
BRANCH   4   5
ATOM      5  C   UNL     1      63.603  31.923  12.841  1.00  0.00     0.001 C 
BRANCH   5   6
ATOM      6  C   UNL     1      63.679  33.075  13.859  1.00  0.00     0.009 C 
BRANCH   6   7
ATOM      7  C   UNL     1      62.477  33.072  14.828  1.00  0.00     0.032 C 
ATOM      8  C   UNL     1      61.157  33.085  14.051  1.00  0.00     0.014 C 
BRANCH   7   9
ATOM      9  C   UNL     1      62.529  34.243  15.773  1.00  0.00     0.044 C 
ATOM     10  O   UNL     1      63.616  34.585  16.310  1.00  0.00    -0.550 OA
ATOM     11  O   UNL     1      61.371  34.956  16.057  1.00  0.00    -0.550 OA
ENDBRANCH   7   9
ENDBRANCH   6   7
ENDBRANCH   5   6
ENDBRANCH   4   5
ENDBRANCH   3   4
ENDBRANCH   2   3
ENDBRANCH   1   2
BRANCH   1  12
ATOM     12  C   UNL     1      60.618  30.092  11.908  1.00  0.00     0.000 C 
BRANCH  12  13
ATOM     13  C   UNL     1      60.691  29.802  10.395  1.00  0.00    -0.000 C 
BRANCH  13  14
ATOM     14  C   UNL     1      62.031  30.160   9.722  1.00  0.00    -0.000 C 
BRANCH  14  15
ATOM     15  C   UNL     1      62.965  28.965   9.459  1.00  0.00    -0.000 C 
BRANCH  15  16
ATOM     16  C   UNL     1      64.450  29.354   9.478  1.00  0.00    -0.000 C 
BRANCH  16  17
ATOM     17  C   UNL     1      64.625  30.863   9.269  1.00  0.00    -0.000 C 
BRANCH  17  18
ATOM     18  C   UNL     1      66.035  31.315   9.667  1.00  0.00    -0.003 C 
ATOM     19  C   UNL     1      66.003  32.667  10.372  1.00  0.00     0.004 C 
ENDBRANCH  17  18
ENDBRANCH  16  17
ENDBRANCH  15  16
ENDBRANCH  14  15
ENDBRANCH  13  14
ENDBRANCH  12  13
ENDBRANCH   1  12
TORSDOF 14
ENDMDL
MODEL 3
REMARK VINA RESULT:    -4.811      0.951      3.139
REMARK INTER + INTRA:         -11.150
REMARK INTER:                  -9.247
REMARK INTRA:                  -1.904
REMARK UNBOUND:                -2.403
REMARK SMILES CCCCCCCCCCCCCC[C@H](C)C(=O)[O-]
REMARK SMILES IDX 9 1 10 2 11 3 12 4 13 5 14 6 15 7 16 8 17 9 18 10 19 11 8 12
REMARK SMILES IDX 7 13 6 14 5 15 4 16 3 17 2 18 1 19
REMARK H PARENT
REMARK Flexibility Score: inf
ROOT
ATOM      1  C   UNL     1      64.622  30.848   9.814  1.00  0.00     0.000 C 
ENDROOT
BRANCH   1   2
ATOM      2  C   UNL     1      64.634  31.339  11.270  1.00  0.00     0.000 C 
BRANCH   2   3
ATOM      3  C   UNL     1      65.401  32.660  11.396  1.00  0.00     0.000 C 
BRANCH   3   4
ATOM      4  C   UNL     1      65.086  33.353  12.732  1.00  0.00     0.000 C 
BRANCH   4   5
ATOM      5  C   UNL     1      63.690  33.001  13.266  1.00  0.00     0.001 C 
BRANCH   5   6
ATOM      6  C   UNL     1      63.403  33.634  14.640  1.00  0.00     0.009 C 
BRANCH   6   7
ATOM      7  C   UNL     1      61.893  33.850  14.875  1.00  0.00     0.032 C 
ATOM      8  C   UNL     1      61.656  34.691  16.133  1.00  0.00     0.014 C 
BRANCH   7   9
ATOM      9  C   UNL     1      61.160  32.540  14.986  1.00  0.00     0.044 C 
ATOM     10  O   UNL     1      60.196  32.277  14.218  1.00  0.00    -0.550 OA
ATOM     11  O   UNL     1      61.546  31.609  15.943  1.00  0.00    -0.550 OA
ENDBRANCH   7   9
ENDBRANCH   6   7
ENDBRANCH   5   6
ENDBRANCH   4   5
ENDBRANCH   3   4
ENDBRANCH   2   3
ENDBRANCH   1   2
BRANCH   1  12
ATOM     12  C   UNL     1      64.322  29.343   9.694  1.00  0.00     0.000 C 
BRANCH  12  13
ATOM     13  C   UNL     1      62.902  29.001   9.198  1.00  0.00    -0.000 C 
BRANCH  13  14
ATOM     14  C   UNL     1      61.955  30.207   9.035  1.00  0.00    -0.000 C 
BRANCH  14  15
ATOM     15  C   UNL     1      60.684  30.157   9.901  1.00  0.00    -0.000 C 
BRANCH  15  16
ATOM     16  C   UNL     1      60.980  30.293  11.402  1.00  0.00    -0.000 C 
BRANCH  16  17
ATOM     17  C   UNL     1      60.275  29.192  12.203  1.00  0.00    -0.000 C 
BRANCH  17  18
ATOM     18  C   UNL     1      61.190  28.635  13.300  1.00  0.00    -0.003 C 
ATOM     19  C   UNL     1      62.536  29.353  13.312  1.00  0.00     0.004 C 
ENDBRANCH  17  18
ENDBRANCH  16  17
ENDBRANCH  15  16
ENDBRANCH  14  15
ENDBRANCH  13  14
ENDBRANCH  12  13
ENDBRANCH   1  12
TORSDOF 14
ENDMDL
MODEL 4
REMARK VINA RESULT:    -4.797      1.653      2.774
REMARK INTER + INTRA:         -11.126
REMARK INTER:                  -9.089
REMARK INTRA:                  -2.037
REMARK UNBOUND:                -2.403
REMARK SMILES CCCCCCCCCCCCCC[C@H](C)C(=O)[O-]
REMARK SMILES IDX 9 1 10 2 11 3 12 4 13 5 14 6 15 7 16 8 17 9 18 10 19 11 8 12
REMARK SMILES IDX 7 13 6 14 5 15 4 16 3 17 2 18 1 19
REMARK H PARENT
REMARK Flexibility Score: inf
ROOT
ATOM      1  C   UNL     1      63.226  30.346  13.908  1.00  0.00     0.000 C 
ENDROOT
BRANCH   1   2
ATOM      2  C   UNL     1      64.146  31.252  13.075  1.00  0.00     0.000 C 
BRANCH   2   3
ATOM      3  C   UNL     1      63.517  32.635  12.873  1.00  0.00     0.000 C 
BRANCH   3   4
ATOM      4  C   UNL     1      62.053  32.646  13.340  1.00  0.00     0.000 C 
BRANCH   4   5
ATOM      5  C   UNL     1      61.779  33.726  14.398  1.00  0.00     0.001 C 
BRANCH   5   6
ATOM      6  C   UNL     1      62.357  33.364  15.778  1.00  0.00     0.009 C 
BRANCH   6   7
ATOM      7  C   UNL     1      63.406  34.391  16.254  1.00  0.00     0.032 C 
ATOM      8  C   UNL     1      64.824  33.841  16.068  1.00  0.00     0.014 C 
BRANCH   7   9
ATOM      9  C   UNL     1      63.188  34.774  17.694  1.00  0.00     0.044 C 
ATOM     10  O   UNL     1      63.904  35.658  18.237  1.00  0.00    -0.550 OA
ATOM     11  O   UNL     1      62.191  34.151  18.433  1.00  0.00    -0.550 OA
ENDBRANCH   7   9
ENDBRANCH   6   7
ENDBRANCH   5   6
ENDBRANCH   4   5
ENDBRANCH   3   4
ENDBRANCH   2   3
ENDBRANCH   1   2
BRANCH   1  12
ATOM     12  C   UNL     1      62.729  29.118  13.125  1.00  0.00     0.000 C 
BRANCH  12  13
ATOM     13  C   UNL     1      61.263  28.723  13.396  1.00  0.00    -0.000 C 
BRANCH  13  14
ATOM     14  C   UNL     1      60.289  28.972  12.227  1.00  0.00    -0.000 C 
BRANCH  14  15
ATOM     15  C   UNL     1      60.718  30.080  11.249  1.00  0.00    -0.000 C 
BRANCH  15  16
ATOM     16  C   UNL     1      60.827  29.586   9.799  1.00  0.00    -0.000 C 
BRANCH  16  17
ATOM     17  C   UNL     1      62.135  30.061   9.154  1.00  0.00    -0.000 C 
BRANCH  17  18
ATOM     18  C   UNL     1      63.238  29.008   9.305  1.00  0.00    -0.003 C 
ATOM     19  C   UNL     1      64.524  29.628   9.842  1.00  0.00     0.004 C 
ENDBRANCH  17  18
ENDBRANCH  16  17
ENDBRANCH  15  16
ENDBRANCH  14  15
ENDBRANCH  13  14
ENDBRANCH  12  13
ENDBRANCH   1  12
TORSDOF 14
ENDMDL
MODEL 5
REMARK VINA RESULT:    -4.791      1.944      4.019
REMARK INTER + INTRA:         -11.114
REMARK INTER:                  -9.141
REMARK INTRA:                  -1.973
REMARK UNBOUND:                -2.403
REMARK SMILES CCCCCCCCCCCCCC[C@H](C)C(=O)[O-]
REMARK SMILES IDX 9 1 10 2 11 3 12 4 13 5 14 6 15 7 16 8 17 9 18 10 19 11 8 12
REMARK SMILES IDX 7 13 6 14 5 15 4 16 3 17 2 18 1 19
REMARK H PARENT
REMARK Flexibility Score: inf
ROOT
ATOM      1  C   UNL     1      64.284  31.494  13.481  1.00  0.00     0.000 C 
ENDROOT
BRANCH   1   2
ATOM      2  C   UNL     1      63.573  32.683  12.818  1.00  0.00     0.000 C 
BRANCH   2   3
ATOM      3  C   UNL     1      62.066  32.644  13.093  1.00  0.00     0.000 C 
BRANCH   3   4
ATOM      4  C   UNL     1      61.651  33.777  14.046  1.00  0.00     0.000 C 
BRANCH   4   5
ATOM      5  C   UNL     1      61.286  33.266  15.449  1.00  0.00     0.001 C 
BRANCH   5   6
ATOM      6  C   UNL     1      62.510  33.157  16.377  1.00  0.00     0.009 C 
BRANCH   6   7
ATOM      7  C   UNL     1      63.300  34.481  16.453  1.00  0.00     0.032 C 
ATOM      8  C   UNL     1      64.725  34.291  15.924  1.00  0.00     0.014 C 
BRANCH   7   9
ATOM      9  C   UNL     1      63.340  35.018  17.859  1.00  0.00     0.044 C 
ATOM     10  O   UNL     1      62.311  34.991  18.585  1.00  0.00    -0.550 OA
ATOM     11  O   UNL     1      64.520  35.549  18.363  1.00  0.00    -0.550 OA
ENDBRANCH   7   9
ENDBRANCH   6   7
ENDBRANCH   5   6
ENDBRANCH   4   5
ENDBRANCH   3   4
ENDBRANCH   2   3
ENDBRANCH   1   2
BRANCH   1  12
ATOM     12  C   UNL     1      64.234  30.215  12.625  1.00  0.00     0.000 C 
BRANCH  12  13
ATOM     13  C   UNL     1      64.713  30.388  11.169  1.00  0.00    -0.000 C 
BRANCH  13  14
ATOM     14  C   UNL     1      64.015  29.480  10.137  1.00  0.00    -0.000 C 
BRANCH  14  15
ATOM     15  C   UNL     1      62.617  28.985  10.547  1.00  0.00    -0.000 C 
BRANCH  15  16
ATOM     16  C   UNL     1      61.515  30.017  10.269  1.00  0.00    -0.000 C 
BRANCH  16  17
ATOM     17  C   UNL     1      60.272  29.737  11.124  1.00  0.00    -0.000 C 
BRANCH  17  18
ATOM     18  C   UNL     1      60.659  29.434  12.576  1.00  0.00    -0.003 C 
ATOM     19  C   UNL     1      59.831  28.284  13.140  1.00  0.00     0.004 C 
ENDBRANCH  17  18
ENDBRANCH  16  17
ENDBRANCH  15  16
ENDBRANCH  14  15
ENDBRANCH  13  14
ENDBRANCH  12  13
ENDBRANCH   1  12
TORSDOF 14
ENDMDL
MODEL 6
REMARK VINA RESULT:    -4.685     12.292     14.890
REMARK INTER + INTRA:         -10.922
REMARK INTER:                  -8.810
REMARK INTRA:                  -2.112
REMARK UNBOUND:                -2.403
REMARK SMILES CCCCCCCCCCCCCC[C@H](C)C(=O)[O-]
REMARK SMILES IDX 9 1 10 2 11 3 12 4 13 5 14 6 15 7 16 8 17 9 18 10 19 11 8 12
REMARK SMILES IDX 7 13 6 14 5 15 4 16 3 17 2 18 1 19
REMARK H PARENT
REMARK Flexibility Score: inf
ROOT
ATOM      1  C   UNL     1      64.726  30.838  27.813  1.00  0.00     0.000 C 
ENDROOT
BRANCH   1   2
ATOM      2  C   UNL     1      66.105  30.601  28.446  1.00  0.00     0.000 C 
BRANCH   2   3
ATOM      3  C   UNL     1      67.106  30.090  27.404  1.00  0.00     0.000 C 
BRANCH   3   4
ATOM      4  C   UNL     1      66.406  29.797  26.068  1.00  0.00     0.000 C 
BRANCH   4   5
ATOM      5  C   UNL     1      67.027  28.604  25.325  1.00  0.00     0.001 C 
BRANCH   5   6
ATOM      6  C   UNL     1      66.192  27.318  25.467  1.00  0.00     0.009 C 
BRANCH   6   7
ATOM      7  C   UNL     1      66.203  26.474  24.174  1.00  0.00     0.032 C 
ATOM      8  C   UNL     1      67.129  27.102  23.126  1.00  0.00     0.014 C 
BRANCH   7   9
ATOM      9  C   UNL     1      64.817  26.316  23.607  1.00  0.00     0.044 C 
ATOM     10  O   UNL     1      64.485  26.916  22.550  1.00  0.00    -0.550 OA
ATOM     11  O   UNL     1      63.894  25.504  24.252  1.00  0.00    -0.550 OA
ENDBRANCH   7   9
ENDBRANCH   6   7
ENDBRANCH   5   6
ENDBRANCH   4   5
ENDBRANCH   3   4
ENDBRANCH   2   3
ENDBRANCH   1   2
BRANCH   1  12
ATOM     12  C   UNL     1      63.586  30.842  28.848  1.00  0.00     0.000 C 
BRANCH  12  13
ATOM     13  C   UNL     1      62.760  29.541  28.911  1.00  0.00    -0.000 C 
BRANCH  13  14
ATOM     14  C   UNL     1      63.536  28.254  28.569  1.00  0.00    -0.000 C 
BRANCH  14  15
ATOM     15  C   UNL     1      62.951  27.431  27.407  1.00  0.00    -0.000 C 
BRANCH  15  16
ATOM     16  C   UNL     1      61.442  27.650  27.224  1.00  0.00    -0.000 C 
BRANCH  16  17
ATOM     17  C   UNL     1      61.140  28.268  25.853  1.00  0.00    -0.000 C 
BRANCH  17  18
ATOM     18  C   UNL     1      62.434  28.579  25.091  1.00  0.00    -0.003 C 
ATOM     19  C   UNL     1      62.730  30.075  25.095  1.00  0.00     0.004 C 
ENDBRANCH  17  18
ENDBRANCH  16  17
ENDBRANCH  15  16
ENDBRANCH  14  15
ENDBRANCH  13  14
ENDBRANCH  12  13
ENDBRANCH   1  12
TORSDOF 14
ENDMDL
MODEL 7
REMARK VINA RESULT:    -4.649      1.472      3.113
REMARK INTER + INTRA:         -10.856
REMARK INTER:                  -8.754
REMARK INTRA:                  -2.102
REMARK UNBOUND:                -2.403
REMARK SMILES CCCCCCCCCCCCCC[C@H](C)C(=O)[O-]
REMARK SMILES IDX 9 1 10 2 11 3 12 4 13 5 14 6 15 7 16 8 17 9 18 10 19 11 8 12
REMARK SMILES IDX 7 13 6 14 5 15 4 16 3 17 2 18 1 19
REMARK H PARENT
REMARK Flexibility Score: inf
ROOT
ATOM      1  C   UNL     1      61.277  29.952  11.108  1.00  0.00     0.000 C 
ENDROOT
BRANCH   1   2
ATOM      2  C   UNL     1      60.520  29.152  12.179  1.00  0.00     0.000 C 
BRANCH   2   3
ATOM      3  C   UNL     1      61.388  28.945  13.425  1.00  0.00     0.000 C 
BRANCH   3   4
ATOM      4  C   UNL     1      62.848  29.340  13.149  1.00  0.00     0.000 C 
BRANCH   4   5
ATOM      5  C   UNL     1      63.517  30.010  14.360  1.00  0.00     0.001 C 
BRANCH   5   6
ATOM      6  C   UNL     1      62.514  30.766  15.250  1.00  0.00     0.009 C 
BRANCH   6   7
ATOM      7  C   UNL     1      62.450  32.268  14.903  1.00  0.00     0.032 C 
ATOM      8  C   UNL     1      62.390  33.115  16.179  1.00  0.00     0.014 C 
BRANCH   7   9
ATOM      9  C   UNL     1      61.269  32.581  14.023  1.00  0.00     0.044 C 
ATOM     10  O   UNL     1      61.438  33.063  12.872  1.00  0.00    -0.550 OA
ATOM     11  O   UNL     1      59.980  32.337  14.481  1.00  0.00    -0.550 OA
ENDBRANCH   7   9
ENDBRANCH   6   7
ENDBRANCH   5   6
ENDBRANCH   4   5
ENDBRANCH   3   4
ENDBRANCH   2   3
ENDBRANCH   1   2
BRANCH   1  12
ATOM     12  C   UNL     1      61.417  29.187   9.779  1.00  0.00     0.000 C 
BRANCH  12  13
ATOM     13  C   UNL     1      62.852  29.118   9.217  1.00  0.00    -0.000 C 
BRANCH  13  14
ATOM     14  C   UNL     1      63.635  30.446   9.250  1.00  0.00    -0.000 C 
BRANCH  14  15
ATOM     15  C   UNL     1      64.922  30.420  10.093  1.00  0.00    -0.000 C 
BRANCH  15  16
ATOM     16  C   UNL     1      65.350  31.815  10.571  1.00  0.00    -0.000 C 
BRANCH  16  17
ATOM     17  C   UNL     1      64.687  32.164  11.909  1.00  0.00    -0.000 C 
BRANCH  17  18
ATOM     18  C   UNL     1      65.323  33.414  12.530  1.00  0.00    -0.003 C 
ATOM     19  C   UNL     1      66.547  33.862  11.736  1.00  0.00     0.004 C 
ENDBRANCH  17  18
ENDBRANCH  16  17
ENDBRANCH  15  16
ENDBRANCH  14  15
ENDBRANCH  13  14
ENDBRANCH  12  13
ENDBRANCH   1  12
TORSDOF 14
ENDMDL
MODEL 8
REMARK VINA RESULT:    -4.594     11.977     14.379
REMARK INTER + INTRA:         -10.757
REMARK INTER:                  -8.472
REMARK INTRA:                  -2.285
REMARK UNBOUND:                -2.403
REMARK SMILES CCCCCCCCCCCCCC[C@H](C)C(=O)[O-]
REMARK SMILES IDX 9 1 10 2 11 3 12 4 13 5 14 6 15 7 16 8 17 9 18 10 19 11 8 12
REMARK SMILES IDX 7 13 6 14 5 15 4 16 3 17 2 18 1 19
REMARK H PARENT
REMARK Flexibility Score: inf
ROOT
ATOM      1  C   UNL     1      64.936  29.883  25.642  1.00  0.00     0.000 C 
ENDROOT
BRANCH   1   2
ATOM      2  C   UNL     1      64.037  30.853  26.424  1.00  0.00     0.000 C 
BRANCH   2   3
ATOM      3  C   UNL     1      64.453  30.918  27.897  1.00  0.00     0.000 C 
BRANCH   3   4
ATOM      4  C   UNL     1      63.232  30.779  28.820  1.00  0.00     0.000 C 
BRANCH   4   5
ATOM      5  C   UNL     1      62.838  29.314  29.063  1.00  0.00     0.001 C 
BRANCH   5   6
ATOM      6  C   UNL     1      61.523  28.929  28.362  1.00  0.00     0.009 C 
BRANCH   6   7
ATOM      7  C   UNL     1      61.662  27.630  27.541  1.00  0.00     0.032 C 
ATOM      8  C   UNL     1      63.133  27.214  27.433  1.00  0.00     0.014 C 
BRANCH   7   9
ATOM      9  C   UNL     1      61.068  27.780  26.166  1.00  0.00     0.044 C 
ATOM     10  O   UNL     1      61.491  28.668  25.379  1.00  0.00    -0.550 OA
ATOM     11  O   UNL     1      60.044  26.934  25.758  1.00  0.00    -0.550 OA
ENDBRANCH   7   9
ENDBRANCH   6   7
ENDBRANCH   5   6
ENDBRANCH   4   5
ENDBRANCH   3   4
ENDBRANCH   2   3
ENDBRANCH   1   2
BRANCH   1  12
ATOM     12  C   UNL     1      66.040  29.257  26.513  1.00  0.00     0.000 C 
BRANCH  12  13
ATOM     13  C   UNL     1      67.475  29.450  25.981  1.00  0.00    -0.000 C 
BRANCH  13  14
ATOM     14  C   UNL     1      67.578  29.832  24.491  1.00  0.00    -0.000 C 
BRANCH  14  15
ATOM     15  C   UNL     1      67.976  28.681  23.551  1.00  0.00    -0.000 C 
BRANCH  15  16
ATOM     16  C   UNL     1      66.780  28.089  22.793  1.00  0.00    -0.000 C 
BRANCH  16  17
ATOM     17  C   UNL     1      66.626  26.593  23.092  1.00  0.00    -0.000 C 
BRANCH  17  18
ATOM     18  C   UNL     1      65.883  26.368  24.414  1.00  0.00    -0.003 C 
ATOM     19  C   UNL     1      64.420  26.012  24.171  1.00  0.00     0.004 C 
ENDBRANCH  17  18
ENDBRANCH  16  17
ENDBRANCH  15  16
ENDBRANCH  14  15
ENDBRANCH  13  14
ENDBRANCH  12  13
ENDBRANCH   1  12
TORSDOF 14
ENDMDL
MODEL 9
REMARK VINA RESULT:    -4.559     11.602     14.574
REMARK INTER + INTRA:         -10.692
REMARK INTER:                  -8.384
REMARK INTRA:                  -2.308
REMARK UNBOUND:                -2.403
REMARK SMILES CCCCCCCCCCCCCC[C@H](C)C(=O)[O-]
REMARK SMILES IDX 9 1 10 2 11 3 12 4 13 5 14 6 15 7 16 8 17 9 18 10 19 11 8 12
REMARK SMILES IDX 7 13 6 14 5 15 4 16 3 17 2 18 1 19
REMARK H PARENT
REMARK Flexibility Score: inf
ROOT
ATOM      1  C   UNL     1      64.723  29.865  25.336  1.00  0.00     0.000 C 
ENDROOT
BRANCH   1   2
ATOM      2  C   UNL     1      66.044  29.702  26.101  1.00  0.00     0.000 C 
BRANCH   2   3
ATOM      3  C   UNL     1      66.636  28.305  25.882  1.00  0.00     0.000 C 
BRANCH   3   4
ATOM      4  C   UNL     1      65.533  27.234  25.883  1.00  0.00     0.000 C 
BRANCH   4   5
ATOM      5  C   UNL     1      65.533  26.383  24.604  1.00  0.00     0.001 C 
BRANCH   5   6
ATOM      6  C   UNL     1      66.659  26.777  23.630  1.00  0.00     0.009 C 
BRANCH   6   7
ATOM      7  C   UNL     1      66.107  27.370  22.316  1.00  0.00     0.032 C 
ATOM      8  C   UNL     1      64.576  27.297  22.290  1.00  0.00     0.014 C 
BRANCH   7   9
ATOM      9  C   UNL     1      66.676  26.666  21.113  1.00  0.00     0.044 C 
ATOM     10  O   UNL     1      67.472  25.699  21.253  1.00  0.00    -0.550 OA
ATOM     11  O   UNL     1      66.322  27.082  19.835  1.00  0.00    -0.550 OA
ENDBRANCH   7   9
ENDBRANCH   6   7
ENDBRANCH   5   6
ENDBRANCH   4   5
ENDBRANCH   3   4
ENDBRANCH   2   3
ENDBRANCH   1   2
BRANCH   1  12
ATOM     12  C   UNL     1      63.681  30.691  26.111  1.00  0.00     0.000 C 
BRANCH  12  13
ATOM     13  C   UNL     1      63.982  30.874  27.613  1.00  0.00    -0.000 C 
BRANCH  13  14
ATOM     14  C   UNL     1      63.039  30.117  28.569  1.00  0.00    -0.000 C 
BRANCH  14  15
ATOM     15  C   UNL     1      63.571  28.763  29.069  1.00  0.00    -0.000 C 
BRANCH  15  16
ATOM     16  C   UNL     1      62.940  27.569  28.338  1.00  0.00    -0.000 C 
BRANCH  16  17
ATOM     17  C   UNL     1      61.649  27.983  27.622  1.00  0.00    -0.000 C 
BRANCH  17  18
ATOM     18  C   UNL     1      61.672  27.554  26.151  1.00  0.00    -0.003 C 
ATOM     19  C   UNL     1      60.283  27.142  25.674  1.00  0.00     0.004 C 
ENDBRANCH  17  18
ENDBRANCH  16  17
ENDBRANCH  15  16
ENDBRANCH  14  15
ENDBRANCH  13  14
ENDBRANCH  12  13
ENDBRANCH   1  12
TORSDOF 14
ENDMDL
