MODEL 1
REMARK VINA RESULT:    -2.677      0.000      0.000
REMARK INTER + INTRA:          -3.435
REMARK INTER:                  -3.460
REMARK INTRA:                   0.025
REMARK UNBOUND:                 0.025
REMARK SMILES COc1cc(-c2[o+]c3cc(O)cc(O)c3cc2O)cc(OC)c1O
REMARK SMILES IDX 6 1 7 2 8 3 9 4 10 5 12 6 13 7 15 8 16 9 17 10 5 11 3 12
REMARK SMILES IDX 4 13 23 14 20 15 19 16 2 17 1 18 24 19 21 21 22 22 18 23
REMARK SMILES IDX 11 25 14 27
REMARK H PARENT 24 20 18 24 11 26 14 28
REMARK Flexibility Score: inf
ROOT
ATOM      1  C   UNL     1       6.678   1.467  13.025  1.00  0.00     0.402 A 
ATOM      2  O   UNL     1       7.084   2.422  12.194  1.00  0.00    -0.202 OA
ATOM      3  C   UNL     1       7.240   3.691  12.559  1.00  0.00     0.368 A 
ATOM      4  C   UNL     1       7.674   4.623  11.614  1.00  0.00     0.162 A 
ATOM      5  C   UNL     1       7.848   5.961  11.970  1.00  0.00     0.128 A 
ATOM      6  C   UNL     1       7.587   6.372  13.281  1.00  0.00     0.093 A 
ATOM      7  C   UNL     1       7.151   5.457  14.248  1.00  0.00     0.136 A 
ATOM      8  C   UNL     1       6.971   4.097  13.889  1.00  0.00     0.125 A 
ATOM      9  C   UNL     1       6.524   3.113  14.787  1.00  0.00     0.078 A 
ATOM     10  C   UNL     1       6.366   1.792  14.358  1.00  0.00     0.223 A 
ENDROOT
BRANCH   1  11
ATOM     11  C   UNL     1       6.554   0.088  12.500  1.00  0.00     0.091 A 
ATOM     12  C   UNL     1       6.168  -1.407  10.607  1.00  0.00     0.165 A 
ATOM     13  C   UNL     1       6.274  -0.108  11.141  1.00  0.00     0.069 A 
ATOM     14  C   UNL     1       6.360  -2.515  11.452  1.00  0.00     0.200 A 
ATOM     15  C   UNL     1       6.661  -2.332  12.809  1.00  0.00     0.165 A 
ATOM     16  C   UNL     1       6.765  -1.027  13.326  1.00  0.00     0.069 A 
BRANCH  12  17
ATOM     17  O   UNL     1       5.878  -1.631   9.252  1.00  0.00    -0.493 OA
ATOM     18  C   UNL     1       5.921  -0.630   8.239  1.00  0.00     0.278 C 
ENDBRANCH  12  17
BRANCH  14  19
ATOM     19  O   UNL     1       6.257  -3.816  10.955  1.00  0.00    -0.502 OA
ATOM     20  H   UNL     1       6.882  -4.175  10.244  1.00  0.00     0.293 HD
ENDBRANCH  14  19
BRANCH  15  21
ATOM     21  O   UNL     1       6.854  -3.469  13.608  1.00  0.00    -0.493 OA
ATOM     22  C   UNL     1       7.095  -3.439  15.012  1.00  0.00     0.278 C 
ENDBRANCH  15  21
ENDBRANCH   1  11
BRANCH  10  23
ATOM     23  O   UNL     1       5.875   0.824  15.236  1.00  0.00    -0.500 OA
ATOM     24  H   UNL     1       5.940  -0.165  15.028  1.00  0.00     0.294 HD
ENDBRANCH  10  23
BRANCH   5  25
ATOM     25  O   UNL     1       8.282   6.875  11.012  1.00  0.00    -0.507 OA
ATOM     26  H   UNL     1       9.266   6.995  10.802  1.00  0.00     0.293 HD
ENDBRANCH   5  25
BRANCH   7  27
ATOM     27  O   UNL     1       6.915   5.945  15.537  1.00  0.00    -0.507 OA
ATOM     28  H   UNL     1       7.632   6.090  16.233  1.00  0.00     0.293 HD
ENDBRANCH   7  27
TORSDOF 7
ENDMDL
MODEL 2
REMARK VINA RESULT:    -0.227      2.012      7.864
REMARK INTER + INTRA:          -0.269
REMARK INTER:                  -0.250
REMARK INTRA:                  -0.019
REMARK UNBOUND:                 0.025
REMARK SMILES COc1cc(-c2[o+]c3cc(O)cc(O)c3cc2O)cc(OC)c1O
REMARK SMILES IDX 6 1 7 2 8 3 9 4 10 5 12 6 13 7 15 8 16 9 17 10 5 11 3 12
REMARK SMILES IDX 4 13 23 14 20 15 19 16 2 17 1 18 24 19 21 21 22 22 18 23
REMARK SMILES IDX 11 25 14 27
REMARK H PARENT 24 20 18 24 11 26 14 28
REMARK Flexibility Score: inf
ROOT
ATOM      1  C   UNL     1       7.132   3.089  12.969  1.00  0.00     0.402 A 
ATOM      2  O   UNL     1       6.934   2.133  13.872  1.00  0.00    -0.202 OA
ATOM      3  C   UNL     1       6.594   0.887  13.556  1.00  0.00     0.368 A 
ATOM      4  C   UNL     1       6.410  -0.048  14.577  1.00  0.00     0.162 A 
ATOM      5  C   UNL     1       6.055  -1.363  14.273  1.00  0.00     0.128 A 
ATOM      6  C   UNL     1       5.884  -1.748  12.939  1.00  0.00     0.093 A 
ATOM      7  C   UNL     1       6.062  -0.830  11.897  1.00  0.00     0.136 A 
ATOM      8  C   UNL     1       6.420   0.509  12.202  1.00  0.00     0.125 A 
ATOM      9  C   UNL     1       6.607   1.501  11.224  1.00  0.00     0.078 A 
ATOM     10  C   UNL     1       6.955   2.801  11.602  1.00  0.00     0.223 A 
ENDROOT
BRANCH   1  11
ATOM     11  C   UNL     1       7.517   4.436  13.447  1.00  0.00     0.091 A 
ATOM     12  C   UNL     1       6.855   6.618  14.321  1.00  0.00     0.165 A 
ATOM     13  C   UNL     1       6.520   5.337  13.844  1.00  0.00     0.069 A 
ATOM     14  C   UNL     1       8.210   6.986  14.410  1.00  0.00     0.200 A 
ATOM     15  C   UNL     1       9.217   6.086  14.036  1.00  0.00     0.165 A 
ATOM     16  C   UNL     1       8.866   4.809  13.562  1.00  0.00     0.069 A 
BRANCH  12  17
ATOM     17  O   UNL     1       5.875   7.544  14.714  1.00  0.00    -0.493 OA
ATOM     18  C   UNL     1       5.917   8.303  15.919  1.00  0.00     0.278 C 
ENDBRANCH  12  17
BRANCH  14  19
ATOM     19  O   UNL     1       8.575   8.251  14.874  1.00  0.00    -0.502 OA
ATOM     20  H   UNL     1       8.619   8.474  15.861  1.00  0.00     0.293 HD
ENDBRANCH  14  19
BRANCH  15  21
ATOM     21  O   UNL     1      10.555   6.497  14.154  1.00  0.00    -0.493 OA
ATOM     22  C   UNL     1      11.359   6.308  15.315  1.00  0.00     0.278 C 
ENDBRANCH  15  21
ENDBRANCH   1  11
BRANCH  10  23
ATOM     23  O   UNL     1       7.092   3.798  10.636  1.00  0.00    -0.500 OA
ATOM     24  H   UNL     1       7.933   4.359  10.565  1.00  0.00     0.294 HD
ENDBRANCH  10  23
BRANCH   5  25
ATOM     25  O   UNL     1       5.876  -2.281  15.306  1.00  0.00    -0.507 OA
ATOM     26  H   UNL     1       4.985  -2.379  15.779  1.00  0.00     0.293 HD
ENDBRANCH   5  25
BRANCH   7  27
ATOM     27  O   UNL     1       5.876  -1.292  10.591  1.00  0.00    -0.507 OA
ATOM     28  H   UNL     1       5.416  -2.158  10.352  1.00  0.00     0.293 HD
ENDBRANCH   7  27
TORSDOF 7
ENDMDL
