MODEL 1
REMARK VINA RESULT:    -4.776      0.000      0.000
REMARK INTER + INTRA:          -6.709
REMARK INTER:                  -6.731
REMARK INTRA:                   0.022
REMARK UNBOUND:                 0.022
REMARK SMILES CC1=CCC(=C(C)C)C(=O)CC(C)=CCC1
REMARK SMILES IDX 12 1 14 2 13 3 15 4 16 5 2 6 1 7 3 8 11 10 9 11 10 12 5 13
REMARK SMILES IDX 6 14 7 15 8 16 4 17
REMARK H PARENT
REMARK Flexibility Score: 60.00
ROOT
ATOM      1  C   UNL     1      -9.996  74.780  21.208  1.00  0.00    -0.070 C 
ATOM      2  C   UNL     1      -9.030  74.346  20.348  1.00  0.00    -0.027 C 
ATOM      3  C   UNL     1     -11.307  75.211  20.592  1.00  0.00     0.039 C 
ENDROOT
BRANCH   2   4
ATOM      4  C   UNL     1      -7.632  73.792  20.598  1.00  0.00     0.032 C 
BRANCH   4   5
ATOM      5  C   UNL     1      -7.521  72.507  21.426  1.00  0.00     0.034 C 
BRANCH   5   6
ATOM      6  C   UNL     1      -6.810  72.577  22.785  1.00  0.00    -0.077 C 
ATOM      7  C   UNL     1      -5.369  73.034  22.742  1.00  0.00     0.039 C 
ATOM      8  C   UNL     1      -7.321  72.363  24.034  1.00  0.00    -0.023 CG0
ATOM      9  G   UNL     1      -8.713  71.963  24.484  1.00  0.00     0.000 G0
ENDBRANCH   5   6
ENDBRANCH   4   5
ENDBRANCH   2   4
BRANCH   1  10
ATOM     10  C   UNL     1      -9.890  74.885  22.721  1.00  0.00     0.111 C 
BRANCH  10  11
ATOM     11  C   UNL     1     -10.306  73.615  23.398  1.00  0.00     0.163 C 
ATOM     12  O   UNL     1     -11.220  72.917  22.881  1.00  0.00    -0.294 OA
BRANCH  11  13
ATOM     13  C   UNL     1      -9.627  73.157  24.637  1.00  0.00    -0.002 C 
ATOM     14  C   UNL     1      -9.837  73.775  25.836  1.00  0.00    -0.069 C 
ATOM     15  C   UNL     1      -9.233  73.245  27.118  1.00  0.00     0.039 C 
ATOM     16  C   UNL     1     -10.674  75.030  25.932  1.00  0.00     0.039 C 
BRANCH  13  17
ATOM     17  C   UNL     1      -8.711  71.960  24.490  1.00  0.00     0.066 CG0
ATOM     18  G   UNL     1      -7.321  72.361  24.035  1.00  0.00     0.000 G0
ENDBRANCH  13  17
ENDBRANCH  11  13
ENDBRANCH  10  11
ENDBRANCH   1  10
TORSDOF 0
ENDMDL
MODEL 2
REMARK VINA RESULT:    -4.022      1.535      3.958
REMARK INTER + INTRA:          -5.645
REMARK INTER:                  -5.812
REMARK INTRA:                   0.167
REMARK UNBOUND:                 0.022
REMARK SMILES CC1=CCC(=C(C)C)C(=O)CC(C)=CCC1
REMARK SMILES IDX 12 1 14 2 13 3 15 4 16 5 2 6 1 7 3 8 11 10 9 11 10 12 5 13
REMARK SMILES IDX 6 14 7 15 8 16 4 17
REMARK H PARENT
REMARK Flexibility Score: 60.00
ROOT
ATOM      1  C   UNL     1      -9.492  74.656  21.336  1.00  0.00    -0.070 C 
ATOM      2  C   UNL     1     -10.570  74.457  22.147  1.00  0.00    -0.027 C 
ATOM      3  C   UNL     1      -9.784  74.992  19.892  1.00  0.00     0.039 C 
ENDROOT
BRANCH   2   4
ATOM      4  C   UNL     1     -10.669  74.162  23.640  1.00  0.00     0.032 C 
BRANCH   4   5
ATOM      5  C   UNL     1     -10.244  72.767  24.112  1.00  0.00     0.034 C 
BRANCH   5   6
ATOM      6  C   UNL     1      -8.886  72.619  24.813  1.00  0.00    -0.077 C 
ATOM      7  C   UNL     1      -8.851  73.060  26.260  1.00  0.00     0.039 C 
ATOM      8  C   UNL     1      -7.729  72.068  24.339  1.00  0.00    -0.023 CG0
ATOM      9  G   UNL     1      -7.396  71.467  22.987  1.00  0.00     0.000 G0
ENDBRANCH   5   6
ENDBRANCH   4   5
ENDBRANCH   2   4
BRANCH   1  10
ATOM     10  C   UNL     1      -8.026  74.568  21.729  1.00  0.00     0.111 C 
BRANCH  10  11
ATOM     11  C   UNL     1      -7.383  73.320  21.207  1.00  0.00     0.163 C 
ATOM     12  O   UNL     1      -7.485  73.047  19.979  1.00  0.00    -0.294 OA
BRANCH  11  13
ATOM     13  C   UNL     1      -6.600  72.434  22.106  1.00  0.00    -0.002 C 
ATOM     14  C   UNL     1      -5.237  72.488  22.152  1.00  0.00    -0.069 C 
ATOM     15  C   UNL     1      -4.443  71.665  23.142  1.00  0.00     0.039 C 
ATOM     16  C   UNL     1      -4.458  73.367  21.200  1.00  0.00     0.039 C 
BRANCH  13  17
ATOM     17  C   UNL     1      -7.404  71.488  22.973  1.00  0.00     0.066 CG0
ATOM     18  G   UNL     1      -7.713  72.086  24.332  1.00  0.00     0.000 G0
ENDBRANCH  13  17
ENDBRANCH  11  13
ENDBRANCH  10  11
ENDBRANCH   1  10
TORSDOF 0
ENDMDL
MODEL 3
REMARK VINA RESULT:    -3.500      2.068      4.590
REMARK INTER + INTRA:          -4.911
REMARK INTER:                  -4.840
REMARK INTRA:                  -0.071
REMARK UNBOUND:                 0.022
REMARK SMILES CC1=CCC(=C(C)C)C(=O)CC(C)=CCC1
REMARK SMILES IDX 12 1 14 2 13 3 15 4 16 5 2 6 1 7 3 8 11 10 9 11 10 12 5 13
REMARK SMILES IDX 6 14 7 15 8 16 4 17
REMARK H PARENT
REMARK Flexibility Score: 60.00
ROOT
ATOM      1  C   UNL     1      -9.449  73.100  24.911  1.00  0.00    -0.070 C 
ATOM      2  C   UNL     1      -9.800  74.316  24.400  1.00  0.00    -0.027 C 
ATOM      3  C   UNL     1      -9.678  72.897  26.391  1.00  0.00     0.039 C 
ENDROOT
BRANCH   2   4
ATOM      4  C   UNL     1      -9.769  74.858  22.974  1.00  0.00     0.032 C 
BRANCH   4   5
ATOM      5  C   UNL     1      -8.398  74.995  22.303  1.00  0.00     0.034 C 
BRANCH   5   6
ATOM      6  C   UNL     1      -8.058  74.048  21.143  1.00  0.00    -0.077 C 
ATOM      7  C   UNL     1      -8.859  74.259  19.877  1.00  0.00     0.039 C 
ATOM      8  C   UNL     1      -7.077  73.100  21.067  1.00  0.00    -0.023 CG0
ATOM      9  G   UNL     1      -6.047  72.651  22.085  1.00  0.00     0.000 G0
ENDBRANCH   5   6
ENDBRANCH   4   5
ENDBRANCH   2   4
BRANCH   1  10
ATOM     10  C   UNL     1      -8.846  71.931  24.150  1.00  0.00     0.111 C 
BRANCH  10  11
ATOM     11  C   UNL     1      -7.348  71.972  24.162  1.00  0.00     0.163 C 
ATOM     12  O   UNL     1      -6.755  72.348  25.210  1.00  0.00    -0.294 OA
BRANCH  11  13
ATOM     13  C   UNL     1      -6.567  71.538  22.976  1.00  0.00    -0.002 C 
ATOM     14  C   UNL     1      -6.355  70.217  22.704  1.00  0.00    -0.069 C 
ATOM     15  C   UNL     1      -5.652  69.770  21.442  1.00  0.00     0.039 C 
ATOM     16  C   UNL     1      -6.802  69.141  23.667  1.00  0.00     0.039 C 
BRANCH  13  17
ATOM     17  C   UNL     1      -6.041  72.644  22.085  1.00  0.00     0.066 CG0
ATOM     18  G   UNL     1      -7.077  73.105  21.078  1.00  0.00     0.000 G0
ENDBRANCH  13  17
ENDBRANCH  11  13
ENDBRANCH  10  11
ENDBRANCH   1  10
TORSDOF 0
ENDMDL
MODEL 4
REMARK VINA RESULT:    -3.401     11.664     14.431
REMARK INTER + INTRA:          -4.770
REMARK INTER:                  -4.889
REMARK INTRA:                   0.119
REMARK UNBOUND:                 0.022
REMARK SMILES CC1=CCC(=C(C)C)C(=O)CC(C)=CCC1
REMARK SMILES IDX 12 1 14 2 13 3 15 4 16 5 2 6 1 7 3 8 11 10 9 11 10 12 5 13
REMARK SMILES IDX 6 14 7 15 8 16 4 17
REMARK H PARENT
REMARK Flexibility Score: 60.00
ROOT
ATOM      1  C   UNL     1      -4.288  70.060  36.738  1.00  0.00    -0.070 C 
ATOM      2  C   UNL     1      -5.441  70.187  37.457  1.00  0.00    -0.027 C 
ATOM      3  C   UNL     1      -2.994  70.250  37.495  1.00  0.00     0.039 C 
ENDROOT
BRANCH   2   4
ATOM      4  C   UNL     1      -6.903  70.014  37.059  1.00  0.00     0.032 C 
BRANCH   4   5
ATOM      5  C   UNL     1      -7.650  68.806  37.635  1.00  0.00     0.034 C 
BRANCH   5   6
ATOM      6  C   UNL     1      -7.364  67.420  37.039  1.00  0.00    -0.077 C 
ATOM      7  C   UNL     1      -7.501  66.260  38.000  1.00  0.00     0.039 C 
ATOM      8  C   UNL     1      -7.083  67.082  35.746  1.00  0.00    -0.023 CG0
ATOM      9  G   UNL     1      -6.930  67.940  34.505  1.00  0.00     0.000 G0
ENDBRANCH   5   6
ENDBRANCH   4   5
ENDBRANCH   2   4
BRANCH   1  10
ATOM     10  C   UNL     1      -4.168  69.756  35.253  1.00  0.00     0.111 C 
BRANCH  10  11
ATOM     11  C   UNL     1      -4.450  68.316  34.955  1.00  0.00     0.163 C 
ATOM     12  O   UNL     1      -3.806  67.425  35.574  1.00  0.00    -0.294 OA
BRANCH  11  13
ATOM     13  C   UNL     1      -5.501  67.934  33.977  1.00  0.00    -0.002 C 
ATOM     14  C   UNL     1      -5.190  67.585  32.694  1.00  0.00    -0.069 C 
ATOM     15  C   UNL     1      -6.245  67.092  31.729  1.00  0.00     0.039 C 
ATOM     16  C   UNL     1      -3.774  67.692  32.178  1.00  0.00     0.039 C 
BRANCH  13  17
ATOM     17  C   UNL     1      -6.924  67.937  34.495  1.00  0.00     0.066 CG0
ATOM     18  G   UNL     1      -7.079  67.082  35.738  1.00  0.00     0.000 G0
ENDBRANCH  13  17
ENDBRANCH  11  13
ENDBRANCH  10  11
ENDBRANCH   1  10
TORSDOF 0
ENDMDL
MODEL 5
REMARK VINA RESULT:    -3.367      5.593      7.571
REMARK INTER + INTRA:          -4.723
REMARK INTER:                  -4.785
REMARK INTRA:                   0.062
REMARK UNBOUND:                 0.022
REMARK SMILES CC1=CCC(=C(C)C)C(=O)CC(C)=CCC1
REMARK SMILES IDX 12 1 14 2 13 3 15 4 16 5 2 6 1 7 3 8 11 10 9 11 10 12 5 13
REMARK SMILES IDX 6 14 7 15 8 16 4 17
REMARK H PARENT
REMARK Flexibility Score: 60.00
ROOT
ATOM      1  C   UNL     1      -4.523  71.185  24.638  1.00  0.00    -0.070 C 
ATOM      2  C   UNL     1      -3.281  71.217  25.202  1.00  0.00    -0.027 C 
ATOM      3  C   UNL     1      -4.937  72.402  23.845  1.00  0.00     0.039 C 
ENDROOT
BRANCH   2   4
ATOM      4  C   UNL     1      -2.512  70.176  26.009  1.00  0.00     0.032 C 
BRANCH   4   5
ATOM      5  C   UNL     1      -2.835  70.064  27.503  1.00  0.00     0.034 C 
BRANCH   5   6
ATOM      6  C   UNL     1      -3.892  69.041  27.946  1.00  0.00    -0.077 C 
ATOM      7  C   UNL     1      -4.598  69.358  29.246  1.00  0.00     0.039 C 
ATOM      8  C   UNL     1      -4.341  67.931  27.289  1.00  0.00    -0.023 CG0
ATOM      9  G   UNL     1      -3.934  67.332  25.956  1.00  0.00     0.000 G0
ENDBRANCH   5   6
ENDBRANCH   4   5
ENDBRANCH   2   4
BRANCH   1  10
ATOM     10  C   UNL     1      -5.538  70.057  24.731  1.00  0.00     0.111 C 
BRANCH  10  11
ATOM     11  C   UNL     1      -5.014  68.786  24.138  1.00  0.00     0.163 C 
ATOM     12  O   UNL     1      -4.506  68.813  22.983  1.00  0.00    -0.294 OA
BRANCH  11  13
ATOM     13  C   UNL     1      -5.050  67.516  24.907  1.00  0.00    -0.002 C 
ATOM     14  C   UNL     1      -6.009  66.571  24.680  1.00  0.00    -0.069 C 
ATOM     15  C   UNL     1      -5.986  65.232  25.385  1.00  0.00     0.039 C 
ATOM     16  C   UNL     1      -7.149  66.829  23.722  1.00  0.00     0.039 C 
BRANCH  13  17
ATOM     17  C   UNL     1      -3.955  67.330  25.936  1.00  0.00     0.066 CG0
ATOM     18  G   UNL     1      -4.335  67.913  27.283  1.00  0.00     0.000 G0
ENDBRANCH  13  17
ENDBRANCH  11  13
ENDBRANCH  10  11
ENDBRANCH   1  10
TORSDOF 0
ENDMDL
MODEL 6
REMARK VINA RESULT:    -3.349      1.395      4.006
REMARK INTER + INTRA:          -4.697
REMARK INTER:                  -6.361
REMARK INTRA:                   1.664
REMARK UNBOUND:                 0.022
REMARK SMILES CC1=CCC(=C(C)C)C(=O)CC(C)=CCC1
REMARK SMILES IDX 12 1 14 2 13 3 15 4 16 5 2 6 1 7 3 8 11 10 9 11 10 12 5 13
REMARK SMILES IDX 6 14 7 15 8 16 4 17
REMARK H PARENT
REMARK Flexibility Score: 60.00
ROOT
ATOM      1  C   UNL     1      -9.367  73.813  25.837  1.00  0.00    -0.070 C 
ATOM      2  C   UNL     1      -8.659  72.674  25.586  1.00  0.00    -0.027 C 
ATOM      3  C   UNL     1      -9.429  74.268  27.276  1.00  0.00     0.039 C 
ENDROOT
BRANCH   2   4
ATOM      4  C   UNL     1      -8.334  71.954  24.282  1.00  0.00     0.032 C 
BRANCH   4   5
ATOM      5  C   UNL     1      -6.916  72.116  23.723  1.00  0.00     0.034 C 
BRANCH   5   6
ATOM      6  C   UNL     1      -6.752  72.679  22.304  1.00  0.00    -0.077 C 
ATOM      7  C   UNL     1      -5.955  71.815  21.351  1.00  0.00     0.039 C 
ATOM      8  C   UNL     1      -7.295  73.808  21.759  1.00  0.00    -0.023 CG0
ATOM      9  G   UNL     1      -8.188  74.873  22.365  1.00  0.00     0.000 G0
ENDBRANCH   5   6
ENDBRANCH   4   5
ENDBRANCH   2   4
BRANCH   1  10
ATOM     10  C   UNL     1     -10.107  74.669  24.821  1.00  0.00     0.111 C 
BRANCH  10  11
ATOM     11  C   UNL     1     -10.273  73.961  23.512  1.00  0.00     0.163 C 
ATOM     12  O   UNL     1     -10.978  72.915  23.466  1.00  0.00    -0.294 OA
BRANCH  11  13
ATOM     13  C   UNL     1      -9.654  74.499  22.273  1.00  0.00    -0.002 C 
ATOM     14  C   UNL     1     -10.376  74.656  21.125  1.00  0.00    -0.069 C 
ATOM     15  C   UNL     1      -9.779  75.303  19.895  1.00  0.00     0.039 C 
ATOM     16  C   UNL     1     -11.806  74.174  21.029  1.00  0.00     0.039 C 
BRANCH  13  17
ATOM     17  C   UNL     1      -8.191  74.875  22.370  1.00  0.00     0.066 CG0
ATOM     18  G   UNL     1      -7.289  73.811  21.776  1.00  0.00     0.000 G0
ENDBRANCH  13  17
ENDBRANCH  11  13
ENDBRANCH  10  11
ENDBRANCH   1  10
TORSDOF 0
ENDMDL
MODEL 7
REMARK VINA RESULT:    -3.209     11.886     14.364
REMARK INTER + INTRA:          -4.499
REMARK INTER:                  -4.579
REMARK INTRA:                   0.079
REMARK UNBOUND:                 0.022
REMARK SMILES CC1=CCC(=C(C)C)C(=O)CC(C)=CCC1
REMARK SMILES IDX 12 1 14 2 13 3 15 4 16 5 2 6 1 7 3 8 11 10 9 11 10 12 5 13
REMARK SMILES IDX 6 14 7 15 8 16 4 17
REMARK H PARENT
REMARK Flexibility Score: 60.00
ROOT
ATOM      1  C   UNL     1      -7.934  69.110  36.494  1.00  0.00    -0.070 C 
ATOM      2  C   UNL     1      -8.380  68.036  35.781  1.00  0.00    -0.027 C 
ATOM      3  C   UNL     1      -8.721  70.392  36.349  1.00  0.00     0.039 C 
ENDROOT
BRANCH   2   4
ATOM      4  C   UNL     1      -7.889  66.593  35.717  1.00  0.00     0.032 C 
BRANCH   4   5
ATOM      5  C   UNL     1      -7.163  66.153  34.441  1.00  0.00     0.034 C 
BRANCH   5   6
ATOM      6  C   UNL     1      -6.062  67.064  33.879  1.00  0.00    -0.077 C 
ATOM      7  C   UNL     1      -6.294  67.572  32.473  1.00  0.00     0.039 C 
ATOM      8  C   UNL     1      -4.945  67.546  34.501  1.00  0.00    -0.023 CG0
ATOM      9  G   UNL     1      -4.413  67.322  35.904  1.00  0.00     0.000 G0
ENDBRANCH   5   6
ENDBRANCH   4   5
ENDBRANCH   2   4
BRANCH   1  10
ATOM     10  C   UNL     1      -6.724  69.156  37.413  1.00  0.00     0.111 C 
BRANCH  10  11
ATOM     11  C   UNL     1      -5.474  69.518  36.671  1.00  0.00     0.163 C 
ATOM     12  O   UNL     1      -5.427  70.615  36.051  1.00  0.00    -0.294 OA
BRANCH  11  13
ATOM     13  C   UNL     1      -4.289  68.622  36.695  1.00  0.00    -0.002 C 
ATOM     14  C   UNL     1      -3.163  68.946  37.396  1.00  0.00    -0.069 C 
ATOM     15  C   UNL     1      -1.997  67.990  37.511  1.00  0.00     0.039 C 
ATOM     16  C   UNL     1      -3.027  70.289  38.078  1.00  0.00     0.039 C 
BRANCH  13  17
ATOM     17  C   UNL     1      -4.416  67.330  35.915  1.00  0.00     0.066 CG0
ATOM     18  G   UNL     1      -4.959  67.560  34.518  1.00  0.00     0.000 G0
ENDBRANCH  13  17
ENDBRANCH  11  13
ENDBRANCH  10  11
ENDBRANCH   1  10
TORSDOF 0
ENDMDL
MODEL 8
REMARK VINA RESULT:    -3.151      2.851      4.849
REMARK INTER + INTRA:          -4.418
REMARK INTER:                  -4.380
REMARK INTRA:                  -0.038
REMARK UNBOUND:                 0.022
REMARK SMILES CC1=CCC(=C(C)C)C(=O)CC(C)=CCC1
REMARK SMILES IDX 12 1 14 2 13 3 15 4 16 5 2 6 1 7 3 8 11 10 9 11 10 12 5 13
REMARK SMILES IDX 6 14 7 15 8 16 4 17
REMARK H PARENT
REMARK Flexibility Score: 60.00
ROOT
ATOM      1  C   UNL     1      -8.101  72.734  23.836  1.00  0.00    -0.070 C 
ATOM      2  C   UNL     1      -8.371  73.552  22.778  1.00  0.00    -0.027 C 
ATOM      3  C   UNL     1      -9.263  72.389  24.739  1.00  0.00     0.039 C 
ENDROOT
BRANCH   2   4
ATOM      4  C   UNL     1      -7.486  74.061  21.645  1.00  0.00     0.032 C 
BRANCH   4   5
ATOM      5  C   UNL     1      -6.903  73.019  20.684  1.00  0.00     0.034 C 
BRANCH   5   6
ATOM      6  C   UNL     1      -5.389  72.765  20.716  1.00  0.00    -0.077 C 
ATOM      7  C   UNL     1      -4.525  73.948  20.337  1.00  0.00     0.039 C 
ATOM      8  C   UNL     1      -4.713  71.648  21.118  1.00  0.00    -0.023 CG0
ATOM      9  G   UNL     1      -5.216  70.309  21.621  1.00  0.00     0.000 G0
ENDBRANCH   5   6
ENDBRANCH   4   5
ENDBRANCH   2   4
BRANCH   1  10
ATOM     10  C   UNL     1      -6.752  72.139  24.209  1.00  0.00     0.111 C 
BRANCH  10  11
ATOM     11  C   UNL     1      -6.605  70.736  23.707  1.00  0.00     0.163 C 
ATOM     12  O   UNL     1      -7.602  69.964  23.745  1.00  0.00    -0.294 OA
BRANCH  11  13
ATOM     13  C   UNL     1      -5.318  70.265  23.133  1.00  0.00    -0.002 C 
ATOM     14  C   UNL     1      -4.305  69.810  23.928  1.00  0.00    -0.069 C 
ATOM     15  C   UNL     1      -3.037  69.230  23.343  1.00  0.00     0.039 C 
ATOM     16  C   UNL     1      -4.403  69.882  25.435  1.00  0.00     0.039 C 
BRANCH  13  17
ATOM     17  C   UNL     1      -5.210  70.303  21.623  1.00  0.00     0.066 CG0
ATOM     18  G   UNL     1      -4.709  71.644  21.122  1.00  0.00     0.000 G0
ENDBRANCH  13  17
ENDBRANCH  11  13
ENDBRANCH  10  11
ENDBRANCH   1  10
TORSDOF 0
ENDMDL
MODEL 9
REMARK VINA RESULT:    -2.997     11.926     14.216
REMARK INTER + INTRA:          -4.201
REMARK INTER:                  -4.398
REMARK INTRA:                   0.197
REMARK UNBOUND:                 0.022
REMARK SMILES CC1=CCC(=C(C)C)C(=O)CC(C)=CCC1
REMARK SMILES IDX 12 1 14 2 13 3 15 4 16 5 2 6 1 7 3 8 11 10 9 11 10 12 5 13
REMARK SMILES IDX 6 14 7 15 8 16 4 17
REMARK H PARENT
REMARK Flexibility Score: 60.00
ROOT
ATOM      1  C   UNL     1      -7.556  69.494  36.518  1.00  0.00    -0.070 C 
ATOM      2  C   UNL     1      -6.629  70.265  37.157  1.00  0.00    -0.027 C 
ATOM      3  C   UNL     1      -8.660  70.226  35.790  1.00  0.00     0.039 C 
ENDROOT
BRANCH   2   4
ATOM      4  C   UNL     1      -5.369  69.893  37.932  1.00  0.00     0.032 C 
BRANCH   4   5
ATOM      5  C   UNL     1      -4.024  70.317  37.332  1.00  0.00     0.034 C 
BRANCH   5   6
ATOM      6  C   UNL     1      -3.256  69.300  36.475  1.00  0.00    -0.077 C 
ATOM      7  C   UNL     1      -1.941  68.826  37.053  1.00  0.00     0.039 C 
ATOM      8  C   UNL     1      -3.633  68.703  35.305  1.00  0.00    -0.023 CG0
ATOM      9  G   UNL     1      -4.886  68.865  34.466  1.00  0.00     0.000 G0
ENDBRANCH   5   6
ENDBRANCH   4   5
ENDBRANCH   2   4
BRANCH   1  10
ATOM     10  C   UNL     1      -7.600  67.975  36.466  1.00  0.00     0.111 C 
BRANCH  10  11
ATOM     11  C   UNL     1      -6.312  67.397  35.967  1.00  0.00     0.163 C 
ATOM     12  O   UNL     1      -5.653  66.629  36.720  1.00  0.00    -0.294 OA
BRANCH  11  13
ATOM     13  C   UNL     1      -5.832  67.685  34.591  1.00  0.00    -0.002 C 
ATOM     14  C   UNL     1      -6.243  66.942  33.522  1.00  0.00    -0.069 C 
ATOM     15  C   UNL     1      -5.842  67.298  32.107  1.00  0.00     0.039 C 
ATOM     16  C   UNL     1      -7.108  65.716  33.708  1.00  0.00     0.039 C 
BRANCH  13  17
ATOM     17  C   UNL     1      -4.882  68.855  34.449  1.00  0.00     0.066 CG0
ATOM     18  G   UNL     1      -3.644  68.690  35.308  1.00  0.00     0.000 G0
ENDBRANCH  13  17
ENDBRANCH  11  13
ENDBRANCH  10  11
ENDBRANCH   1  10
TORSDOF 0
ENDMDL
