MODEL 1
REMARK VINA RESULT:    -6.279      0.000      0.000
REMARK INTER + INTRA:          -9.467
REMARK INTER:                  -8.848
REMARK INTRA:                  -0.619
REMARK UNBOUND:                -0.619
REMARK SMILES COc1ccc(-c2cc(=O)c3c(OC)c(OC)c(OC)c(OC)c3o2)cc1OC
REMARK SMILES IDX 7 1 8 2 9 3 10 4 11 5 24 6 25 7 21 8 18 9 15 10 12 11 6 12
REMARK SMILES IDX 3 13 27 14 4 15 26 16 5 17 2 18 1 19 28 20 29 21 22 22 23 23
REMARK SMILES IDX 13 24 14 25 19 26 20 27 16 28 17 29
REMARK H PARENT
REMARK Flexibility Score: inf
ROOT
ATOM      1  C   UNL     1       7.683  -7.022   1.119  1.00  0.00     0.138 A 
ATOM      2  C   UNL     1       7.916  -8.399   0.987  1.00  0.00     0.100 A 
ATOM      3  C   UNL     1       7.798  -8.997  -0.266  1.00  0.00     0.197 A 
ATOM      4  O   UNL     1       8.019 -10.234  -0.365  1.00  0.00    -0.289 OA
ATOM      5  C   UNL     1       7.432  -8.215  -1.388  1.00  0.00     0.115 A 
ATOM      6  C   UNL     1       7.184  -6.844  -1.168  1.00  0.00     0.188 A 
ATOM      7  O   UNL     1       7.321  -6.321   0.049  1.00  0.00    -0.452 OA
ATOM      8  C   UNL     1       6.804  -6.009  -2.223  1.00  0.00     0.209 A 
ATOM      9  C   UNL     1       6.735  -6.513  -3.541  1.00  0.00     0.211 A 
ATOM     10  C   UNL     1       6.946  -7.899  -3.772  1.00  0.00     0.208 A 
ATOM     11  C   UNL     1       7.303  -8.753  -2.692  1.00  0.00     0.179 A 
ENDROOT
BRANCH   1  12
ATOM     12  C   UNL     1       7.814  -6.321   2.424  1.00  0.00     0.021 A 
ATOM     13  C   UNL     1       8.112  -4.964   4.884  1.00  0.00     0.160 A 
ATOM     14  C   UNL     1       7.317  -6.116   4.816  1.00  0.00     0.161 A 
ATOM     15  C   UNL     1       8.764  -4.500   3.727  1.00  0.00     0.051 A 
ATOM     16  C   UNL     1       7.178  -6.797   3.589  1.00  0.00     0.062 A 
ATOM     17  C   UNL     1       8.617  -5.174   2.514  1.00  0.00     0.016 A 
BRANCH  13  18
ATOM     18  O   UNL     1       8.230  -4.307   6.120  1.00  0.00    -0.493 OA
ATOM     19  C   UNL     1       9.104  -3.211   6.371  1.00  0.00     0.278 C 
ENDBRANCH  13  18
BRANCH  14  20
ATOM     20  O   UNL     1       6.680  -6.554   5.988  1.00  0.00    -0.493 OA
ATOM     21  C   UNL     1       7.302  -7.330   7.005  1.00  0.00     0.278 C 
ENDBRANCH  14  20
ENDBRANCH   1  12
BRANCH   8  22
ATOM     22  O   UNL     1       6.509  -4.671  -1.950  1.00  0.00    -0.490 OA
ATOM     23  C   UNL     1       7.496  -3.649  -2.036  1.00  0.00     0.278 C 
ENDBRANCH   8  22
BRANCH  11  24
ATOM     24  O   UNL     1       7.535 -10.136  -2.856  1.00  0.00    -0.492 OA
ATOM     25  C   UNL     1       6.619 -11.124  -3.317  1.00  0.00     0.278 C 
ENDBRANCH  11  24
BRANCH   9  26
ATOM     26  O   UNL     1       6.478  -5.684  -4.650  1.00  0.00    -0.490 OA
ATOM     27  C   UNL     1       7.436  -5.029  -5.474  1.00  0.00     0.279 C 
ENDBRANCH   9  26
BRANCH  10  28
ATOM     28  O   UNL     1       6.830  -8.459  -5.057  1.00  0.00    -0.490 OA
ATOM     29  C   UNL     1       7.881  -8.657  -5.998  1.00  0.00     0.278 C 
ENDBRANCH  10  28
TORSDOF 7
ENDMDL
MODEL 2
REMARK VINA RESULT:    -5.972      1.023      3.364
REMARK INTER + INTRA:          -9.034
REMARK INTER:                  -8.297
REMARK INTRA:                  -0.737
REMARK UNBOUND:                -0.619
REMARK SMILES COc1ccc(-c2cc(=O)c3c(OC)c(OC)c(OC)c(OC)c3o2)cc1OC
REMARK SMILES IDX 7 1 8 2 9 3 10 4 11 5 24 6 25 7 21 8 18 9 15 10 12 11 6 12
REMARK SMILES IDX 3 13 27 14 4 15 26 16 5 17 2 18 1 19 28 20 29 21 22 22 23 23
REMARK SMILES IDX 13 24 14 25 19 26 20 27 16 28 17 29
REMARK H PARENT
REMARK Flexibility Score: inf
ROOT
ATOM      1  C   UNL     1       7.890  -5.465   0.501  1.00  0.00     0.138 A 
ATOM      2  C   UNL     1       7.722  -4.393  -0.387  1.00  0.00     0.100 A 
ATOM      3  C   UNL     1       7.438  -4.652  -1.727  1.00  0.00     0.197 A 
ATOM      4  O   UNL     1       7.283  -3.675  -2.508  1.00  0.00    -0.289 OA
ATOM      5  C   UNL     1       7.335  -5.989  -2.179  1.00  0.00     0.115 A 
ATOM      6  C   UNL     1       7.548  -7.011  -1.231  1.00  0.00     0.188 A 
ATOM      7  O   UNL     1       7.807  -6.708   0.040  1.00  0.00    -0.452 OA
ATOM      8  C   UNL     1       7.477  -8.357  -1.604  1.00  0.00     0.209 A 
ATOM      9  C   UNL     1       7.118  -8.713  -2.923  1.00  0.00     0.211 A 
ATOM     10  C   UNL     1       6.938  -7.695  -3.897  1.00  0.00     0.208 A 
ATOM     11  C   UNL     1       7.039  -6.327  -3.523  1.00  0.00     0.179 A 
ENDROOT
BRANCH   1  12
ATOM     12  C   UNL     1       8.173  -5.255   1.946  1.00  0.00     0.021 A 
ATOM     13  C   UNL     1       8.750  -4.814   4.677  1.00  0.00     0.160 A 
ATOM     14  C   UNL     1       8.177  -6.028   4.273  1.00  0.00     0.161 A 
ATOM     15  C   UNL     1       9.044  -3.830   3.715  1.00  0.00     0.051 A 
ATOM     16  C   UNL     1       7.899  -6.248   2.908  1.00  0.00     0.062 A 
ATOM     17  C   UNL     1       8.760  -4.052   2.367  1.00  0.00     0.016 A 
BRANCH  13  18
ATOM     18  O   UNL     1       9.014  -4.623   6.043  1.00  0.00    -0.493 OA
ATOM     19  C   UNL     1       8.846  -3.389   6.733  1.00  0.00     0.278 C 
ENDBRANCH  13  18
BRANCH  14  20
ATOM     20  O   UNL     1       7.897  -6.990   5.256  1.00  0.00    -0.493 OA
ATOM     21  C   UNL     1       6.761  -7.847   5.248  1.00  0.00     0.278 C 
ENDBRANCH  14  20
ENDBRANCH   1  12
BRANCH   8  22
ATOM     22  O   UNL     1       7.756  -9.336  -0.647  1.00  0.00    -0.490 OA
ATOM     23  C   UNL     1       9.065  -9.868  -0.474  1.00  0.00     0.278 C 
ENDBRANCH   8  22
BRANCH  11  24
ATOM     24  O   UNL     1       6.862  -5.269  -4.440  1.00  0.00    -0.492 OA
ATOM     25  C   UNL     1       7.753  -4.848  -5.469  1.00  0.00     0.278 C 
ENDBRANCH  11  24
BRANCH   9  26
ATOM     26  O   UNL     1       6.915 -10.051  -3.312  1.00  0.00    -0.490 OA
ATOM     27  C   UNL     1       7.896 -10.965  -3.790  1.00  0.00     0.279 C 
ENDBRANCH   9  26
BRANCH  10  28
ATOM     28  O   UNL     1       6.638  -8.001  -5.237  1.00  0.00    -0.490 OA
ATOM     29  C   UNL     1       7.570  -8.292  -6.274  1.00  0.00     0.278 C 
ENDBRANCH  10  28
TORSDOF 7
ENDMDL
MODEL 3
REMARK VINA RESULT:    -5.730     12.921     14.974
REMARK INTER + INTRA:          -8.694
REMARK INTER:                  -8.286
REMARK INTRA:                  -0.408
REMARK UNBOUND:                -0.619
REMARK SMILES COc1ccc(-c2cc(=O)c3c(OC)c(OC)c(OC)c(OC)c3o2)cc1OC
REMARK SMILES IDX 7 1 8 2 9 3 10 4 11 5 24 6 25 7 21 8 18 9 15 10 12 11 6 12
REMARK SMILES IDX 3 13 27 14 4 15 26 16 5 17 2 18 1 19 28 20 29 21 22 22 23 23
REMARK SMILES IDX 13 24 14 25 19 26 20 27 16 28 17 29
REMARK H PARENT
REMARK Flexibility Score: inf
ROOT
ATOM      1  C   UNL     1       4.591   6.278   6.822  1.00  0.00     0.138 A 
ATOM      2  C   UNL     1       5.784   5.543   6.877  1.00  0.00     0.100 A 
ATOM      3  C   UNL     1       6.456   5.238   5.695  1.00  0.00     0.197 A 
ATOM      4  O   UNL     1       7.531   4.584   5.766  1.00  0.00    -0.289 OA
ATOM      5  C   UNL     1       5.923   5.660   4.453  1.00  0.00     0.115 A 
ATOM      6  C   UNL     1       4.703   6.367   4.480  1.00  0.00     0.188 A 
ATOM      7  O   UNL     1       4.107   6.641   5.639  1.00  0.00    -0.452 OA
ATOM      8  C   UNL     1       4.105   6.805   3.293  1.00  0.00     0.209 A 
ATOM      9  C   UNL     1       4.755   6.608   2.054  1.00  0.00     0.211 A 
ATOM     10  C   UNL     1       5.965   5.865   2.009  1.00  0.00     0.208 A 
ATOM     11  C   UNL     1       6.556   5.395   3.213  1.00  0.00     0.179 A 
ENDROOT
BRANCH   1  12
ATOM     12  C   UNL     1       3.839   6.654   8.049  1.00  0.00     0.021 A 
ATOM     13  C   UNL     1       2.454   7.402  10.396  1.00  0.00     0.160 A 
ATOM     14  C   UNL     1       2.109   6.217   9.731  1.00  0.00     0.161 A 
ATOM     15  C   UNL     1       3.497   8.202   9.894  1.00  0.00     0.051 A 
ATOM     16  C   UNL     1       2.809   5.842   8.566  1.00  0.00     0.062 A 
ATOM     17  C   UNL     1       4.181   7.828   8.736  1.00  0.00     0.016 A 
BRANCH  13  18
ATOM     18  O   UNL     1       1.740   7.750  11.553  1.00  0.00    -0.493 OA
ATOM     19  C   UNL     1       1.146   9.024  11.783  1.00  0.00     0.278 C 
ENDBRANCH  13  18
BRANCH  14  20
ATOM     20  O   UNL     1       1.066   5.440  10.257  1.00  0.00    -0.493 OA
ATOM     21  C   UNL     1      -0.306   5.816  10.251  1.00  0.00     0.278 C 
ENDBRANCH  14  20
ENDBRANCH   1  12
BRANCH   8  22
ATOM     22  O   UNL     1       2.867   7.447   3.360  1.00  0.00    -0.490 OA
ATOM     23  C   UNL     1       1.690   6.873   2.802  1.00  0.00     0.278 C 
ENDBRANCH   8  22
BRANCH  11  24
ATOM     24  O   UNL     1       7.761   4.660   3.237  1.00  0.00    -0.492 OA
ATOM     25  C   UNL     1       9.084   5.149   3.043  1.00  0.00     0.278 C 
ENDBRANCH  11  24
BRANCH   9  26
ATOM     26  O   UNL     1       4.252   7.138   0.850  1.00  0.00    -0.490 OA
ATOM     27  C   UNL     1       4.399   8.470   0.370  1.00  0.00     0.279 C 
ENDBRANCH   9  26
BRANCH  10  28
ATOM     28  O   UNL     1       6.617   5.592   0.793  1.00  0.00    -0.490 OA
ATOM     29  C   UNL     1       7.528   6.445   0.105  1.00  0.00     0.278 C 
ENDBRANCH  10  28
TORSDOF 7
ENDMDL
MODEL 4
REMARK VINA RESULT:    -5.138      1.107      3.726
REMARK INTER + INTRA:          -7.859
REMARK INTER:                  -7.286
REMARK INTRA:                  -0.573
REMARK UNBOUND:                -0.619
REMARK SMILES COc1ccc(-c2cc(=O)c3c(OC)c(OC)c(OC)c(OC)c3o2)cc1OC
REMARK SMILES IDX 7 1 8 2 9 3 10 4 11 5 24 6 25 7 21 8 18 9 15 10 12 11 6 12
REMARK SMILES IDX 3 13 27 14 4 15 26 16 5 17 2 18 1 19 28 20 29 21 22 22 23 23
REMARK SMILES IDX 13 24 14 25 19 26 20 27 16 28 17 29
REMARK H PARENT
REMARK Flexibility Score: inf
ROOT
ATOM      1  C   UNL     1       7.688  -6.497   1.274  1.00  0.00     0.138 A 
ATOM      2  C   UNL     1       7.258  -5.344   0.603  1.00  0.00     0.100 A 
ATOM      3  C   UNL     1       7.083  -5.380  -0.779  1.00  0.00     0.197 A 
ATOM      4  O   UNL     1       6.687  -4.335  -1.363  1.00  0.00    -0.289 OA
ATOM      5  C   UNL     1       7.352  -6.573  -1.492  1.00  0.00     0.115 A 
ATOM      6  C   UNL     1       7.811  -7.680  -0.749  1.00  0.00     0.188 A 
ATOM      7  O   UNL     1       7.952  -7.595   0.572  1.00  0.00    -0.452 OA
ATOM      8  C   UNL     1       8.113  -8.890  -1.383  1.00  0.00     0.209 A 
ATOM      9  C   UNL     1       7.891  -9.042  -2.771  1.00  0.00     0.211 A 
ATOM     10  C   UNL     1       7.464  -7.925  -3.537  1.00  0.00     0.208 A 
ATOM     11  C   UNL     1       7.186  -6.686  -2.895  1.00  0.00     0.179 A 
ENDROOT
BRANCH   1  12
ATOM     12  C   UNL     1       7.874  -6.529   2.749  1.00  0.00     0.021 A 
ATOM     13  C   UNL     1       8.186  -6.632   5.556  1.00  0.00     0.160 A 
ATOM     14  C   UNL     1       8.576  -5.483   4.852  1.00  0.00     0.161 A 
ATOM     15  C   UNL     1       7.631  -7.719   4.856  1.00  0.00     0.051 A 
ATOM     16  C   UNL     1       8.410  -5.431   3.453  1.00  0.00     0.062 A 
ATOM     17  C   UNL     1       7.475  -7.664   3.471  1.00  0.00     0.016 A 
BRANCH  13  18
ATOM     18  O   UNL     1       8.364  -6.654   6.948  1.00  0.00    -0.493 OA
ATOM     19  C   UNL     1       7.303  -6.636   7.898  1.00  0.00     0.278 C 
ENDBRANCH  13  18
BRANCH  14  20
ATOM     20  O   UNL     1       9.125  -4.414   5.578  1.00  0.00    -0.493 OA
ATOM     21  C   UNL     1       8.783  -3.047   5.387  1.00  0.00     0.278 C 
ENDBRANCH  14  20
ENDBRANCH   1  12
BRANCH   8  22
ATOM     22  O   UNL     1       8.623  -9.942  -0.619  1.00  0.00    -0.490 OA
ATOM     23  C   UNL     1       7.816 -11.047  -0.226  1.00  0.00     0.278 C 
ENDBRANCH   8  22
BRANCH  11  24
ATOM     24  O   UNL     1       6.751  -5.542  -3.597  1.00  0.00    -0.492 OA
ATOM     25  C   UNL     1       7.519  -4.697  -4.448  1.00  0.00     0.278 C 
ENDBRANCH  11  24
BRANCH   9  26
ATOM     26  O   UNL     1       8.063 -10.275  -3.429  1.00  0.00    -0.490 OA
ATOM     27  C   UNL     1       7.044 -11.114  -3.960  1.00  0.00     0.279 C 
ENDBRANCH   9  26
BRANCH  10  28
ATOM     28  O   UNL     1       7.286  -8.010  -4.930  1.00  0.00    -0.490 OA
ATOM     29  C   UNL     1       8.294  -7.875  -5.927  1.00  0.00     0.278 C 
ENDBRANCH  10  28
TORSDOF 7
ENDMDL
MODEL 5
REMARK VINA RESULT:    -4.794      1.790      8.628
REMARK INTER + INTRA:          -7.375
REMARK INTER:                  -6.984
REMARK INTRA:                  -0.391
REMARK UNBOUND:                -0.619
REMARK SMILES COc1ccc(-c2cc(=O)c3c(OC)c(OC)c(OC)c(OC)c3o2)cc1OC
REMARK SMILES IDX 7 1 8 2 9 3 10 4 11 5 24 6 25 7 21 8 18 9 15 10 12 11 6 12
REMARK SMILES IDX 3 13 27 14 4 15 26 16 5 17 2 18 1 19 28 20 29 21 22 22 23 23
REMARK SMILES IDX 13 24 14 25 19 26 20 27 16 28 17 29
REMARK H PARENT
REMARK Flexibility Score: inf
ROOT
ATOM      1  C   UNL     1       8.085  -5.141   0.674  1.00  0.00     0.138 A 
ATOM      2  C   UNL     1       8.438  -3.915   1.254  1.00  0.00     0.100 A 
ATOM      3  C   UNL     1       8.645  -3.842   2.631  1.00  0.00     0.197 A 
ATOM      4  O   UNL     1       8.970  -2.732   3.133  1.00  0.00    -0.289 OA
ATOM      5  C   UNL     1       8.486  -5.000   3.429  1.00  0.00     0.115 A 
ATOM      6  C   UNL     1       8.099  -6.188   2.775  1.00  0.00     0.188 A 
ATOM      7  O   UNL     1       7.924  -6.205   1.455  1.00  0.00    -0.452 OA
ATOM      8  C   UNL     1       7.907  -7.371   3.496  1.00  0.00     0.209 A 
ATOM      9  C   UNL     1       8.170  -7.410   4.884  1.00  0.00     0.211 A 
ATOM     10  C   UNL     1       8.524  -6.213   5.562  1.00  0.00     0.208 A 
ATOM     11  C   UNL     1       8.690  -5.004   4.831  1.00  0.00     0.179 A 
ENDROOT
BRANCH   1  12
ATOM     12  C   UNL     1       7.871  -5.289  -0.790  1.00  0.00     0.021 A 
ATOM     13  C   UNL     1       7.435  -5.517  -3.573  1.00  0.00     0.160 A 
ATOM     14  C   UNL     1       7.729  -6.661  -2.817  1.00  0.00     0.161 A 
ATOM     15  C   UNL     1       7.348  -4.267  -2.935  1.00  0.00     0.051 A 
ATOM     16  C   UNL     1       7.937  -6.545  -1.427  1.00  0.00     0.062 A 
ATOM     17  C   UNL     1       7.561  -4.157  -1.560  1.00  0.00     0.016 A 
BRANCH  13  18
ATOM     18  O   UNL     1       7.234  -5.665  -4.955  1.00  0.00    -0.493 OA
ATOM     19  C   UNL     1       7.837  -4.843  -5.950  1.00  0.00     0.278 C 
ENDBRANCH  13  18
BRANCH  14  20
ATOM     20  O   UNL     1       7.808  -7.895  -3.482  1.00  0.00    -0.493 OA
ATOM     21  C   UNL     1       8.850  -8.846  -3.302  1.00  0.00     0.278 C 
ENDBRANCH  14  20
ENDBRANCH   1  12
BRANCH   8  22
ATOM     22  O   UNL     1       7.465  -8.510   2.818  1.00  0.00    -0.490 OA
ATOM     23  C   UNL     1       8.320  -9.251   1.954  1.00  0.00     0.278 C 
ENDBRANCH   8  22
BRANCH  11  24
ATOM     24  O   UNL     1       9.049  -3.784   5.443  1.00  0.00    -0.492 OA
ATOM     25  C   UNL     1       8.456  -3.175   6.587  1.00  0.00     0.278 C 
ENDBRANCH  11  24
BRANCH   9  26
ATOM     26  O   UNL     1       8.110  -8.604   5.627  1.00  0.00    -0.490 OA
ATOM     27  C   UNL     1       9.125  -9.594   5.746  1.00  0.00     0.279 C 
ENDBRANCH   9  26
BRANCH  10  28
ATOM     28  O   UNL     1       8.738  -6.188   6.952  1.00  0.00    -0.490 OA
ATOM     29  C   UNL     1       7.755  -6.361   7.968  1.00  0.00     0.278 C 
ENDBRANCH  10  28
TORSDOF 7
ENDMDL
MODEL 6
REMARK VINA RESULT:    -4.780     12.957     14.850
REMARK INTER + INTRA:          -7.356
REMARK INTER:                  -6.574
REMARK INTRA:                  -0.782
REMARK UNBOUND:                -0.619
REMARK SMILES COc1ccc(-c2cc(=O)c3c(OC)c(OC)c(OC)c(OC)c3o2)cc1OC
REMARK SMILES IDX 7 1 8 2 9 3 10 4 11 5 24 6 25 7 21 8 18 9 15 10 12 11 6 12
REMARK SMILES IDX 3 13 27 14 4 15 26 16 5 17 2 18 1 19 28 20 29 21 22 22 23 23
REMARK SMILES IDX 13 24 14 25 19 26 20 27 16 28 17 29
REMARK H PARENT
REMARK Flexibility Score: inf
ROOT
ATOM      1  C   UNL     1       4.615   6.825   5.472  1.00  0.00     0.138 A 
ATOM      2  C   UNL     1       3.492   7.197   4.720  1.00  0.00     0.100 A 
ATOM      3  C   UNL     1       3.617   7.370   3.342  1.00  0.00     0.197 A 
ATOM      4  O   UNL     1       2.594   7.698   2.682  1.00  0.00    -0.289 OA
ATOM      5  C   UNL     1       4.874   7.181   2.719  1.00  0.00     0.115 A 
ATOM      6  C   UNL     1       5.961   6.838   3.549  1.00  0.00     0.188 A 
ATOM      7  O   UNL     1       5.786   6.675   4.859  1.00  0.00    -0.452 OA
ATOM      8  C   UNL     1       7.238   6.648   3.011  1.00  0.00     0.209 A 
ATOM      9  C   UNL     1       7.441   6.726   1.614  1.00  0.00     0.211 A 
ATOM     10  C   UNL     1       6.364   7.108   0.771  1.00  0.00     0.208 A 
ATOM     11  C   UNL     1       5.072   7.329   1.324  1.00  0.00     0.179 A 
ENDROOT
BRANCH   1  12
ATOM     12  C   UNL     1       4.543   6.604   6.941  1.00  0.00     0.021 A 
ATOM     13  C   UNL     1       4.465   6.185   9.734  1.00  0.00     0.160 A 
ATOM     14  C   UNL     1       3.358   5.840   8.946  1.00  0.00     0.161 A 
ATOM     15  C   UNL     1       5.611   6.727   9.123  1.00  0.00     0.051 A 
ATOM     16  C   UNL     1       3.404   6.041   7.551  1.00  0.00     0.062 A 
ATOM     17  C   UNL     1       5.647   6.930   7.743  1.00  0.00     0.016 A 
BRANCH  13  18
ATOM     18  O   UNL     1       4.390   5.974  11.120  1.00  0.00    -0.493 OA
ATOM     19  C   UNL     1       4.089   6.986  12.076  1.00  0.00     0.278 C 
ENDBRANCH  13  18
BRANCH  14  20
ATOM     20  O   UNL     1       2.231   5.300   9.585  1.00  0.00    -0.493 OA
ATOM     21  C   UNL     1       1.015   6.002   9.810  1.00  0.00     0.278 C 
ENDBRANCH  14  20
ENDBRANCH   1  12
BRANCH   8  22
ATOM     22  O   UNL     1       8.300   6.369   3.876  1.00  0.00    -0.490 OA
ATOM     23  C   UNL     1       8.631   5.038   4.254  1.00  0.00     0.278 C 
ENDBRANCH   8  22
BRANCH  11  24
ATOM     24  O   UNL     1       3.959   7.701   0.540  1.00  0.00    -0.492 OA
ATOM     25  C   UNL     1       3.776   8.906  -0.197  1.00  0.00     0.278 C 
ENDBRANCH  11  24
BRANCH   9  26
ATOM     26  O   UNL     1       8.680   6.423   1.017  1.00  0.00    -0.490 OA
ATOM     27  C   UNL     1       9.124   5.151   0.558  1.00  0.00     0.279 C 
ENDBRANCH   9  26
BRANCH  10  28
ATOM     28  O   UNL     1       6.531   7.257  -0.617  1.00  0.00    -0.490 OA
ATOM     29  C   UNL     1       6.306   6.264  -1.614  1.00  0.00     0.278 C 
ENDBRANCH  10  28
TORSDOF 7
ENDMDL
MODEL 7
REMARK VINA RESULT:    -4.770     13.285     16.351
REMARK INTER + INTRA:          -7.341
REMARK INTER:                  -6.732
REMARK INTRA:                  -0.608
REMARK UNBOUND:                -0.619
REMARK SMILES COc1ccc(-c2cc(=O)c3c(OC)c(OC)c(OC)c(OC)c3o2)cc1OC
REMARK SMILES IDX 7 1 8 2 9 3 10 4 11 5 24 6 25 7 21 8 18 9 15 10 12 11 6 12
REMARK SMILES IDX 3 13 27 14 4 15 26 16 5 17 2 18 1 19 28 20 29 21 22 22 23 23
REMARK SMILES IDX 13 24 14 25 19 26 20 27 16 28 17 29
REMARK H PARENT
REMARK Flexibility Score: inf
ROOT
ATOM      1  C   UNL     1       2.061   7.585   1.831  1.00  0.00     0.138 A 
ATOM      2  C   UNL     1       2.240   7.159   3.155  1.00  0.00     0.100 A 
ATOM      3  C   UNL     1       3.519   6.828   3.601  1.00  0.00     0.197 A 
ATOM      4  O   UNL     1       3.661   6.454   4.796  1.00  0.00    -0.289 OA
ATOM      5  C   UNL     1       4.618   6.912   2.713  1.00  0.00     0.115 A 
ATOM      6  C   UNL     1       4.351   7.318   1.389  1.00  0.00     0.188 A 
ATOM      7  O   UNL     1       3.112   7.633   1.018  1.00  0.00    -0.452 OA
ATOM      8  C   UNL     1       5.382   7.412   0.449  1.00  0.00     0.209 A 
ATOM      9  C   UNL     1       6.720   7.171   0.833  1.00  0.00     0.211 A 
ATOM     10  C   UNL     1       6.999   6.724   2.152  1.00  0.00     0.208 A 
ATOM     11  C   UNL     1       5.945   6.601   3.099  1.00  0.00     0.179 A 
ENDROOT
BRANCH   1  12
ATOM     12  C   UNL     1       0.727   7.973   1.301  1.00  0.00     0.021 A 
ATOM     13  C   UNL     1      -1.783   8.754   0.264  1.00  0.00     0.160 A 
ATOM     14  C   UNL     1      -1.720   8.000   1.444  1.00  0.00     0.161 A 
ATOM     15  C   UNL     1      -0.592   9.125  -0.387  1.00  0.00     0.051 A 
ATOM     16  C   UNL     1      -0.466   7.621   1.964  1.00  0.00     0.062 A 
ATOM     17  C   UNL     1       0.646   8.741   0.129  1.00  0.00     0.016 A 
BRANCH  13  18
ATOM     18  O   UNL     1      -3.046   9.117  -0.230  1.00  0.00    -0.493 OA
ATOM     19  C   UNL     1      -3.746   8.412  -1.251  1.00  0.00     0.278 C 
ENDBRANCH  13  18
BRANCH  14  20
ATOM     20  O   UNL     1      -2.926   7.647   2.071  1.00  0.00    -0.493 OA
ATOM     21  C   UNL     1      -3.720   8.531   2.853  1.00  0.00     0.278 C 
ENDBRANCH  14  20
ENDBRANCH   1  12
BRANCH   8  22
ATOM     22  O   UNL     1       5.065   7.759  -0.866  1.00  0.00    -0.490 OA
ATOM     23  C   UNL     1       5.193   9.094  -1.344  1.00  0.00     0.278 C 
ENDBRANCH   8  22
BRANCH  11  24
ATOM     24  O   UNL     1       6.158   6.172   4.427  1.00  0.00    -0.492 OA
ATOM     25  C   UNL     1       6.805   6.881   5.479  1.00  0.00     0.278 C 
ENDBRANCH  11  24
BRANCH   9  26
ATOM     26  O   UNL     1       7.802   7.372  -0.046  1.00  0.00    -0.490 OA
ATOM     27  C   UNL     1       8.391   6.413  -0.916  1.00  0.00     0.279 C 
ENDBRANCH   9  26
BRANCH  10  28
ATOM     28  O   UNL     1       8.308   6.414   2.565  1.00  0.00    -0.490 OA
ATOM     29  C   UNL     1       8.932   5.134   2.528  1.00  0.00     0.278 C 
ENDBRANCH  10  28
TORSDOF 7
ENDMDL
MODEL 8
REMARK VINA RESULT:    -4.635      1.843      8.784
REMARK INTER + INTRA:          -7.151
REMARK INTER:                  -6.991
REMARK INTRA:                  -0.160
REMARK UNBOUND:                -0.619
REMARK SMILES COc1ccc(-c2cc(=O)c3c(OC)c(OC)c(OC)c(OC)c3o2)cc1OC
REMARK SMILES IDX 7 1 8 2 9 3 10 4 11 5 24 6 25 7 21 8 18 9 15 10 12 11 6 12
REMARK SMILES IDX 3 13 27 14 4 15 26 16 5 17 2 18 1 19 28 20 29 21 22 22 23 23
REMARK SMILES IDX 13 24 14 25 19 26 20 27 16 28 17 29
REMARK H PARENT
REMARK Flexibility Score: inf
ROOT
ATOM      1  C   UNL     1       7.369  -7.298  -1.377  1.00  0.00     0.138 A 
ATOM      2  C   UNL     1       7.372  -5.896  -1.391  1.00  0.00     0.100 A 
ATOM      3  C   UNL     1       7.664  -5.200  -0.219  1.00  0.00     0.197 A 
ATOM      4  O   UNL     1       7.669  -3.940  -0.253  1.00  0.00    -0.289 OA
ATOM      5  C   UNL     1       7.942  -5.912   0.972  1.00  0.00     0.115 A 
ATOM      6  C   UNL     1       7.888  -7.320   0.911  1.00  0.00     0.188 A 
ATOM      7  O   UNL     1       7.614  -7.936  -0.237  1.00  0.00    -0.452 OA
ATOM      8  C   UNL     1       8.137  -8.094   2.050  1.00  0.00     0.209 A 
ATOM      9  C   UNL     1       8.517  -7.476   3.262  1.00  0.00     0.211 A 
ATOM     10  C   UNL     1       8.538  -6.059   3.348  1.00  0.00     0.208 A 
ATOM     11  C   UNL     1       8.256  -5.272   2.197  1.00  0.00     0.179 A 
ENDROOT
BRANCH   1  12
ATOM     12  C   UNL     1       7.086  -8.098  -2.599  1.00  0.00     0.021 A 
ATOM     13  C   UNL     1       6.565  -9.668  -4.890  1.00  0.00     0.160 A 
ATOM     14  C   UNL     1       6.800  -8.292  -5.026  1.00  0.00     0.161 A 
ATOM     15  C   UNL     1       6.602 -10.256  -3.613  1.00  0.00     0.051 A 
ATOM     16  C   UNL     1       7.070  -7.514  -3.881  1.00  0.00     0.062 A 
ATOM     17  C   UNL     1       6.863  -9.479  -2.483  1.00  0.00     0.016 A 
BRANCH  13  18
ATOM     18  O   UNL     1       6.299 -10.416  -6.048  1.00  0.00    -0.493 OA
ATOM     19  C   UNL     1       5.009 -10.571  -6.630  1.00  0.00     0.278 C 
ENDBRANCH  13  18
BRANCH  14  20
ATOM     20  O   UNL     1       6.758  -7.735  -6.314  1.00  0.00    -0.493 OA
ATOM     21  C   UNL     1       5.884  -6.686  -6.712  1.00  0.00     0.278 C 
ENDBRANCH  14  20
ENDBRANCH   1  12
BRANCH   8  22
ATOM     22  O   UNL     1       8.013  -9.483   1.960  1.00  0.00    -0.490 OA
ATOM     23  C   UNL     1       9.125 -10.319   1.657  1.00  0.00     0.278 C 
ENDBRANCH   8  22
BRANCH  11  24
ATOM     24  O   UNL     1       8.270  -3.861   2.213  1.00  0.00    -0.492 OA
ATOM     25  C   UNL     1       9.125  -3.006   2.967  1.00  0.00     0.278 C 
ENDBRANCH  11  24
BRANCH   9  26
ATOM     26  O   UNL     1       8.895  -8.218   4.398  1.00  0.00    -0.490 OA
ATOM     27  C   UNL     1       8.120  -8.452   5.568  1.00  0.00     0.279 C 
ENDBRANCH   9  26
BRANCH  10  28
ATOM     28  O   UNL     1       8.853  -5.397   4.548  1.00  0.00    -0.490 OA
ATOM     29  C   UNL     1       7.935  -4.964   5.548  1.00  0.00     0.278 C 
ENDBRANCH  10  28
TORSDOF 7
ENDMDL
MODEL 9
REMARK VINA RESULT:    -4.520     12.612     14.893
REMARK INTER + INTRA:          -6.988
REMARK INTER:                  -6.234
REMARK INTRA:                  -0.754
REMARK UNBOUND:                -0.619
REMARK SMILES COc1ccc(-c2cc(=O)c3c(OC)c(OC)c(OC)c(OC)c3o2)cc1OC
REMARK SMILES IDX 7 1 8 2 9 3 10 4 11 5 24 6 25 7 21 8 18 9 15 10 12 11 6 12
REMARK SMILES IDX 3 13 27 14 4 15 26 16 5 17 2 18 1 19 28 20 29 21 22 22 23 23
REMARK SMILES IDX 13 24 14 25 19 26 20 27 16 28 17 29
REMARK H PARENT
REMARK Flexibility Score: inf
ROOT
ATOM      1  C   UNL     1       5.762   6.118   6.472  1.00  0.00     0.138 A 
ATOM      2  C   UNL     1       6.979   5.443   6.303  1.00  0.00     0.100 A 
ATOM      3  C   UNL     1       7.621   5.488   5.067  1.00  0.00     0.197 A 
ATOM      4  O   UNL     1       8.719   4.881   4.937  1.00  0.00    -0.289 OA
ATOM      5  C   UNL     1       7.036   6.201   3.994  1.00  0.00     0.115 A 
ATOM      6  C   UNL     1       5.795   6.827   4.235  1.00  0.00     0.188 A 
ATOM      7  O   UNL     1       5.229   6.762   5.438  1.00  0.00    -0.452 OA
ATOM      8  C   UNL     1       5.146   7.539   3.221  1.00  0.00     0.209 A 
ATOM      9  C   UNL     1       5.761   7.703   1.959  1.00  0.00     0.211 A 
ATOM     10  C   UNL     1       6.992   7.046   1.691  1.00  0.00     0.208 A 
ATOM     11  C   UNL     1       7.636   6.298   2.714  1.00  0.00     0.179 A 
ENDROOT
BRANCH   1  12
ATOM     12  C   UNL     1       5.038   6.127   7.771  1.00  0.00     0.021 A 
ATOM     13  C   UNL     1       3.611   6.148  10.210  1.00  0.00     0.160 A 
ATOM     14  C   UNL     1       4.972   6.488  10.195  1.00  0.00     0.161 A 
ATOM     15  C   UNL     1       2.967   5.810   9.006  1.00  0.00     0.051 A 
ATOM     16  C   UNL     1       5.678   6.486   8.974  1.00  0.00     0.062 A 
ATOM     17  C   UNL     1       3.673   5.803   7.803  1.00  0.00     0.016 A 
BRANCH  13  18
ATOM     18  O   UNL     1       2.935   6.158  11.440  1.00  0.00    -0.493 OA
ATOM     19  C   UNL     1       1.658   6.751  11.655  1.00  0.00     0.278 C 
ENDBRANCH  13  18
BRANCH  14  20
ATOM     20  O   UNL     1       5.587   6.822  11.412  1.00  0.00    -0.493 OA
ATOM     21  C   UNL     1       5.838   8.151  11.853  1.00  0.00     0.278 C 
ENDBRANCH  14  20
ENDBRANCH   1  12
BRANCH   8  22
ATOM     22  O   UNL     1       3.890   8.092   3.484  1.00  0.00    -0.490 OA
ATOM     23  C   UNL     1       2.684   7.402   3.174  1.00  0.00     0.278 C 
ENDBRANCH   8  22
BRANCH  11  24
ATOM     24  O   UNL     1       8.864   5.631   2.515  1.00  0.00    -0.492 OA
ATOM     25  C   UNL     1       9.125   4.523   1.658  1.00  0.00     0.278 C 
ENDBRANCH  11  24
BRANCH   9  26
ATOM     26  O   UNL     1       5.203   8.512   0.950  1.00  0.00    -0.490 OA
ATOM     27  C   UNL     1       4.263   8.120  -0.044  1.00  0.00     0.279 C 
ENDBRANCH   9  26
BRANCH  10  28
ATOM     28  O   UNL     1       7.613   7.130   0.432  1.00  0.00    -0.490 OA
ATOM     29  C   UNL     1       8.561   8.107   0.013  1.00  0.00     0.278 C 
ENDBRANCH  10  28
TORSDOF 7
ENDMDL
