MODEL 1
REMARK VINA RESULT:    -3.584      0.000      0.000
REMARK INTER + INTRA:          -4.098
REMARK INTER:                  -4.003
REMARK INTRA:                  -0.096
REMARK UNBOUND:                -0.096
REMARK SMILES O=C([O-])c1ccccc1C(=O)[O-]
REMARK SMILES IDX 4 1 9 2 5 3 8 4 6 5 7 6 2 7 1 8 3 9 10 10 11 11 12 12
REMARK H PARENT
REMARK Flexibility Score: inf
ROOT
ATOM      1  C   UNL     1       2.909   8.461   4.498  1.00  0.00     0.006 A 
ATOM      2  C   UNL     1       1.682   8.955   3.974  1.00  0.00     0.006 A 
ATOM      3  C   UNL     1       3.314   7.154   4.173  1.00  0.00     0.010 A 
ATOM      4  C   UNL     1       0.875   8.101   3.199  1.00  0.00     0.010 A 
ATOM      5  C   UNL     1       2.509   6.332   3.383  1.00  0.00     0.001 A 
ATOM      6  C   UNL     1       1.287   6.800   2.908  1.00  0.00     0.001 A 
ENDROOT
BRANCH   1   7
ATOM      7  C   UNL     1       3.756   9.236   5.433  1.00  0.00     0.072 C 
ATOM      8  O   UNL     1       4.945   9.527   5.136  1.00  0.00    -0.545 OA
ATOM      9  O   UNL     1       3.224   9.712   6.626  1.00  0.00    -0.545 OA
ENDBRANCH   1   7
BRANCH   2  10
ATOM     10  C   UNL     1       1.245  10.359   4.149  1.00  0.00     0.072 C 
ATOM     11  O   UNL     1       1.722  11.268   3.417  1.00  0.00    -0.545 OA
ATOM     12  O   UNL     1       0.357  10.705   5.161  1.00  0.00    -0.545 OA
ENDBRANCH   2  10
TORSDOF 2
ENDMDL
MODEL 2
REMARK VINA RESULT:    -3.583      0.153      2.997
REMARK INTER + INTRA:          -4.098
REMARK INTER:                  -3.959
REMARK INTRA:                  -0.139
REMARK UNBOUND:                -0.096
REMARK SMILES O=C([O-])c1ccccc1C(=O)[O-]
REMARK SMILES IDX 4 1 9 2 5 3 8 4 6 5 7 6 2 7 1 8 3 9 10 10 11 11 12 12
REMARK H PARENT
REMARK Flexibility Score: inf
ROOT
ATOM      1  C   UNL     1       1.746   9.003   3.942  1.00  0.00     0.006 A 
ATOM      2  C   UNL     1       2.937   8.500   4.538  1.00  0.00     0.006 A 
ATOM      3  C   UNL     1       0.955   8.139   3.163  1.00  0.00     0.010 A 
ATOM      4  C   UNL     1       3.325   7.173   4.277  1.00  0.00     0.010 A 
ATOM      5  C   UNL     1       1.348   6.819   2.937  1.00  0.00     0.001 A 
ATOM      6  C   UNL     1       2.535   6.341   3.483  1.00  0.00     0.001 A 
ENDROOT
BRANCH   1   7
ATOM      7  C   UNL     1       1.330  10.420   4.045  1.00  0.00     0.072 C 
ATOM      8  O   UNL     1       0.441  10.772   4.865  1.00  0.00    -0.545 OA
ATOM      9  O   UNL     1       1.966  11.392   3.281  1.00  0.00    -0.545 OA
ENDBRANCH   1   7
BRANCH   2  10
ATOM     10  C   UNL     1       3.756   9.295   5.482  1.00  0.00     0.072 C 
ATOM     11  O   UNL     1       4.970   9.522   5.233  1.00  0.00    -0.545 OA
ATOM     12  O   UNL     1       3.218   9.743   6.683  1.00  0.00    -0.545 OA
ENDBRANCH   2  10
TORSDOF 2
ENDMDL
MODEL 3
REMARK VINA RESULT:    -3.490      1.645      3.151
REMARK INTER + INTRA:          -3.994
REMARK INTER:                  -3.772
REMARK INTRA:                  -0.222
REMARK UNBOUND:                -0.096
REMARK SMILES O=C([O-])c1ccccc1C(=O)[O-]
REMARK SMILES IDX 4 1 9 2 5 3 8 4 6 5 7 6 2 7 1 8 3 9 10 10 11 11 12 12
REMARK H PARENT
REMARK Flexibility Score: inf
ROOT
ATOM      1  C   UNL     1       2.044   9.251   4.330  1.00  0.00     0.006 A 
ATOM      2  C   UNL     1       2.261   8.003   3.681  1.00  0.00     0.006 A 
ATOM      3  C   UNL     1       0.759   9.822   4.300  1.00  0.00     0.010 A 
ATOM      4  C   UNL     1       1.202   7.408   2.971  1.00  0.00     0.010 A 
ATOM      5  C   UNL     1      -0.283   9.203   3.608  1.00  0.00     0.001 A 
ATOM      6  C   UNL     1      -0.059   8.005   2.936  1.00  0.00     0.001 A 
ENDROOT
BRANCH   1   7
ATOM      7  C   UNL     1       3.128  10.019   4.984  1.00  0.00     0.072 C 
ATOM      8  O   UNL     1       3.706  10.960   4.380  1.00  0.00    -0.545 OA
ATOM      9  O   UNL     1       3.475   9.750   6.303  1.00  0.00    -0.545 OA
ENDBRANCH   1   7
BRANCH   2  10
ATOM     10  C   UNL     1       3.540   7.262   3.778  1.00  0.00     0.072 C 
ATOM     11  O   UNL     1       3.731   6.448   4.721  1.00  0.00    -0.545 OA
ATOM     12  O   UNL     1       4.568   7.502   2.875  1.00  0.00    -0.545 OA
ENDBRANCH   2  10
TORSDOF 2
ENDMDL
MODEL 4
REMARK VINA RESULT:    -3.075      2.137      4.371
REMARK INTER + INTRA:          -3.531
REMARK INTER:                  -3.359
REMARK INTRA:                  -0.172
REMARK UNBOUND:                -0.096
REMARK SMILES O=C([O-])c1ccccc1C(=O)[O-]
REMARK SMILES IDX 4 1 9 2 5 3 8 4 6 5 7 6 2 7 1 8 3 9 10 10 11 11 12 12
REMARK H PARENT
REMARK Flexibility Score: inf
ROOT
ATOM      1  C   UNL     1       1.452  10.841   3.970  1.00  0.00     0.006 A 
ATOM      2  C   UNL     1       2.685  10.140   3.858  1.00  0.00     0.006 A 
ATOM      3  C   UNL     1       1.369  12.159   3.486  1.00  0.00     0.010 A 
ATOM      4  C   UNL     1       3.805  10.806   3.328  1.00  0.00     0.010 A 
ATOM      5  C   UNL     1       2.487  12.793   2.943  1.00  0.00     0.001 A 
ATOM      6  C   UNL     1       3.705  12.123   2.875  1.00  0.00     0.001 A 
ENDROOT
BRANCH   1   7
ATOM      7  C   UNL     1       0.259  10.271   4.637  1.00  0.00     0.072 C 
ATOM      8  O   UNL     1       0.003  10.541   5.841  1.00  0.00    -0.545 OA
ATOM      9  O   UNL     1      -0.632   9.482   3.919  1.00  0.00    -0.545 OA
ENDBRANCH   1   7
BRANCH   2  10
ATOM     10  C   UNL     1       2.827   8.708   4.212  1.00  0.00     0.072 C 
ATOM     11  O   UNL     1       3.578   8.362   5.163  1.00  0.00    -0.545 OA
ATOM     12  O   UNL     1       2.190   7.726   3.463  1.00  0.00    -0.545 OA
ENDBRANCH   2  10
TORSDOF 2
ENDMDL
MODEL 5
REMARK VINA RESULT:    -2.937      2.203      3.289
REMARK INTER + INTRA:          -3.376
REMARK INTER:                  -3.388
REMARK INTRA:                   0.013
REMARK UNBOUND:                -0.096
REMARK SMILES O=C([O-])c1ccccc1C(=O)[O-]
REMARK SMILES IDX 4 1 9 2 5 3 8 4 6 5 7 6 2 7 1 8 3 9 10 10 11 11 12 12
REMARK H PARENT
REMARK Flexibility Score: inf
ROOT
ATOM      1  C   UNL     1       2.106   9.891   4.313  1.00  0.00     0.006 A 
ATOM      2  C   UNL     1       2.837  10.914   3.644  1.00  0.00     0.006 A 
ATOM      3  C   UNL     1       2.724   8.648   4.540  1.00  0.00     0.010 A 
ATOM      4  C   UNL     1       4.131  10.631   3.170  1.00  0.00     0.010 A 
ATOM      5  C   UNL     1       4.018   8.398   4.081  1.00  0.00     0.001 A 
ATOM      6  C   UNL     1       4.715   9.383   3.388  1.00  0.00     0.001 A 
ENDROOT
BRANCH   1   7
ATOM      7  C   UNL     1       0.693  10.049   4.725  1.00  0.00     0.072 C 
ATOM      8  O   UNL     1       0.400  10.495   5.866  1.00  0.00    -0.545 OA
ATOM      9  O   UNL     1      -0.331   9.768   3.827  1.00  0.00    -0.545 OA
ENDBRANCH   1   7
BRANCH   2  10
ATOM     10  C   UNL     1       2.320  12.292   3.485  1.00  0.00     0.072 C 
ATOM     11  O   UNL     1       1.236  12.497   2.875  1.00  0.00    -0.545 OA
ATOM     12  O   UNL     1       3.051  13.381   3.945  1.00  0.00    -0.545 OA
ENDBRANCH   2  10
TORSDOF 2
ENDMDL
MODEL 6
REMARK VINA RESULT:    -2.920      2.199      3.264
REMARK INTER + INTRA:          -3.357
REMARK INTER:                  -3.323
REMARK INTRA:                  -0.035
REMARK UNBOUND:                -0.096
REMARK SMILES O=C([O-])c1ccccc1C(=O)[O-]
REMARK SMILES IDX 4 1 9 2 5 3 8 4 6 5 7 6 2 7 1 8 3 9 10 10 11 11 12 12
REMARK H PARENT
REMARK Flexibility Score: inf
ROOT
ATOM      1  C   UNL     1       2.818  11.010   3.607  1.00  0.00     0.006 A 
ATOM      2  C   UNL     1       2.073   9.969   4.228  1.00  0.00     0.006 A 
ATOM      3  C   UNL     1       4.100  10.725   3.104  1.00  0.00     0.010 A 
ATOM      4  C   UNL     1       2.664   8.702   4.381  1.00  0.00     0.010 A 
ATOM      5  C   UNL     1       4.658   9.454   3.246  1.00  0.00     0.001 A 
ATOM      6  C   UNL     1       3.947   8.448   3.893  1.00  0.00     0.001 A 
ENDROOT
BRANCH   1   7
ATOM      7  C   UNL     1       2.336  12.408   3.524  1.00  0.00     0.072 C 
ATOM      8  O   UNL     1       3.026  13.356   3.983  1.00  0.00    -0.545 OA
ATOM      9  O   UNL     1       1.141  12.695   2.875  1.00  0.00    -0.545 OA
ENDBRANCH   1   7
BRANCH   2  10
ATOM     10  C   UNL     1       0.667  10.141   4.662  1.00  0.00     0.072 C 
ATOM     11  O   UNL     1       0.406  10.504   5.840  1.00  0.00    -0.545 OA
ATOM     12  O   UNL     1      -0.382   9.841   3.801  1.00  0.00    -0.545 OA
ENDBRANCH   2  10
TORSDOF 2
ENDMDL
MODEL 7
REMARK VINA RESULT:    -2.886      2.275      3.655
REMARK INTER + INTRA:          -3.319
REMARK INTER:                  -3.090
REMARK INTRA:                  -0.229
REMARK UNBOUND:                -0.096
REMARK SMILES O=C([O-])c1ccccc1C(=O)[O-]
REMARK SMILES IDX 4 1 9 2 5 3 8 4 6 5 7 6 2 7 1 8 3 9 10 10 11 11 12 12
REMARK H PARENT
REMARK Flexibility Score: inf
ROOT
ATOM      1  C   UNL     1       2.343  10.721   4.319  1.00  0.00     0.006 A 
ATOM      2  C   UNL     1       0.992  11.116   4.111  1.00  0.00     0.006 A 
ATOM      3  C   UNL     1       3.377  11.541   3.832  1.00  0.00     0.010 A 
ATOM      4  C   UNL     1       0.726  12.281   3.367  1.00  0.00     0.010 A 
ATOM      5  C   UNL     1       3.091  12.705   3.117  1.00  0.00     0.001 A 
ATOM      6  C   UNL     1       1.769  13.068   2.875  1.00  0.00     0.001 A 
ENDROOT
BRANCH   1   7
ATOM      7  C   UNL     1       2.718   9.444   4.968  1.00  0.00     0.072 C 
ATOM      8  O   UNL     1       3.064   9.414   6.178  1.00  0.00    -0.545 OA
ATOM      9  O   UNL     1       2.627   8.250   4.262  1.00  0.00    -0.545 OA
ENDBRANCH   1   7
BRANCH   2  10
ATOM     10  C   UNL     1      -0.155  10.390   4.704  1.00  0.00     0.072 C 
ATOM     11  O   UNL     1      -0.538  10.659   5.875  1.00  0.00    -0.545 OA
ATOM     12  O   UNL     1      -0.780   9.362   4.009  1.00  0.00    -0.545 OA
ENDBRANCH   2  10
TORSDOF 2
ENDMDL
MODEL 8
REMARK VINA RESULT:    -2.861      6.106      7.485
REMARK INTER + INTRA:          -3.291
REMARK INTER:                  -3.074
REMARK INTRA:                  -0.217
REMARK UNBOUND:                -0.096
REMARK SMILES O=C([O-])c1ccccc1C(=O)[O-]
REMARK SMILES IDX 4 1 9 2 5 3 8 4 6 5 7 6 2 7 1 8 3 9 10 10 11 11 12 12
REMARK H PARENT
REMARK Flexibility Score: inf
ROOT
ATOM      1  C   UNL     1      -4.352   7.449   3.957  1.00  0.00     0.006 A 
ATOM      2  C   UNL     1      -5.444   7.510   4.868  1.00  0.00     0.006 A 
ATOM      3  C   UNL     1      -4.131   6.262   3.235  1.00  0.00     0.010 A 
ATOM      4  C   UNL     1      -6.231   6.362   5.070  1.00  0.00     0.010 A 
ATOM      5  C   UNL     1      -4.939   5.142   3.435  1.00  0.00     0.001 A 
ATOM      6  C   UNL     1      -5.979   5.188   4.359  1.00  0.00     0.001 A 
ENDROOT
BRANCH   1   7
ATOM      7  C   UNL     1      -3.387   8.559   3.779  1.00  0.00     0.072 C 
ATOM      8  O   UNL     1      -2.275   8.546   4.370  1.00  0.00    -0.545 OA
ATOM      9  O   UNL     1      -3.673   9.597   2.901  1.00  0.00    -0.545 OA
ENDBRANCH   1   7
BRANCH   2  10
ATOM     10  C   UNL     1      -5.835   8.757   5.565  1.00  0.00     0.072 C 
ATOM     11  O   UNL     1      -6.566   9.605   4.986  1.00  0.00    -0.545 OA
ATOM     12  O   UNL     1      -5.351   9.040   6.837  1.00  0.00    -0.545 OA
ENDBRANCH   2  10
TORSDOF 2
ENDMDL
