MODEL 1
REMARK VINA RESULT:    -5.882      0.000      0.000
REMARK INTER + INTRA:          -7.222
REMARK INTER:                  -6.914
REMARK INTRA:                  -0.308
REMARK UNBOUND:                -0.308
REMARK SMILES O=c1c(O)c(-c2ccc(O)c(O)c2)oc2cc(O)ccc12
REMARK SMILES IDX 5 1 3 2 2 3 1 4 21 5 15 6 14 7 16 8 17 9 19 10 20 11 6 12
REMARK SMILES IDX 7 13 8 14 9 15 13 16 11 17 10 18 12 20 4 22 18 24
REMARK H PARENT 10 19 12 21 4 23 18 25
REMARK Flexibility Score: inf
ROOT
ATOM      1  C   UNL     1      -9.452   8.556  17.309  1.00  0.00     0.180 A 
ATOM      2  C   UNL     1      -9.609   7.168  17.113  1.00  0.00     0.208 A 
ATOM      3  C   UNL     1     -10.243   6.718  15.944  1.00  0.00     0.235 A 
ATOM      4  O   UNL     1     -10.386   5.481  15.741  1.00  0.00    -0.285 OA
ATOM      5  C   UNL     1     -10.721   7.654  15.013  1.00  0.00     0.069 A 
ATOM      6  C   UNL     1     -10.546   9.026  15.294  1.00  0.00     0.142 A 
ATOM      7  O   UNL     1      -9.933   9.411  16.409  1.00  0.00    -0.452 OA
ATOM      8  C   UNL     1     -11.017   9.990  14.397  1.00  0.00     0.094 A 
ATOM      9  C   UNL     1     -11.660   9.600  13.217  1.00  0.00     0.119 A 
ATOM     10  C   UNL     1     -11.835   8.239  12.934  1.00  0.00     0.047 A 
ATOM     11  C   UNL     1     -11.368   7.268  13.825  1.00  0.00     0.020 A 
ENDROOT
BRANCH   1  12
ATOM     12  C   UNL     1      -8.779   9.110  18.506  1.00  0.00     0.025 A 
ATOM     13  C   UNL     1      -7.403   9.387  18.457  1.00  0.00     0.016 A 
ATOM     14  C   UNL     1      -6.743   9.890  19.581  1.00  0.00     0.051 A 
ATOM     15  C   UNL     1      -7.440  10.109  20.772  1.00  0.00     0.157 A 
ATOM     16  C   UNL     1      -9.475   9.311  19.712  1.00  0.00     0.062 A 
ATOM     17  C   UNL     1      -8.812   9.814  20.841  1.00  0.00     0.158 A 
BRANCH  15  18
ATOM     18  O   UNL     1      -6.754  10.613  21.876  1.00  0.00    -0.504 OA
ATOM     19  H   UNL     1      -6.162  10.029  22.455  1.00  0.00     0.293 HD
ENDBRANCH  15  18
BRANCH  17  20
ATOM     20  O   UNL     1      -9.510  10.016  22.030  1.00  0.00    -0.504 OA
ATOM     21  H   UNL     1      -9.623  10.941  22.429  1.00  0.00     0.293 HD
ENDBRANCH  17  20
ENDBRANCH   1  12
BRANCH   2  22
ATOM     22  O   UNL     1      -9.167   6.262  18.080  1.00  0.00    -0.502 OA
ATOM     23  H   UNL     1      -9.169   5.261  17.925  1.00  0.00     0.293 HD
ENDBRANCH   2  22
BRANCH   9  24
ATOM     24  O   UNL     1     -12.123  10.574  12.334  1.00  0.00    -0.508 OA
ATOM     25  H   UNL     1     -12.537  11.437  12.666  1.00  0.00     0.293 HD
ENDBRANCH   9  24
TORSDOF 5
ENDMDL
MODEL 2
REMARK VINA RESULT:    -5.823      2.319      6.703
REMARK INTER + INTRA:          -7.152
REMARK INTER:                  -6.852
REMARK INTRA:                  -0.300
REMARK UNBOUND:                -0.308
REMARK SMILES O=c1c(O)c(-c2ccc(O)c(O)c2)oc2cc(O)ccc12
REMARK SMILES IDX 5 1 3 2 2 3 1 4 21 5 15 6 14 7 16 8 17 9 19 10 20 11 6 12
REMARK SMILES IDX 7 13 8 14 9 15 13 16 11 17 10 18 12 20 4 22 18 24
REMARK H PARENT 10 19 12 21 4 23 18 25
REMARK Flexibility Score: inf
ROOT
ATOM      1  C   UNL     1      -9.247   8.313  16.828  1.00  0.00     0.180 A 
ATOM      2  C   UNL     1     -10.591   8.605  17.143  1.00  0.00     0.208 A 
ATOM      3  C   UNL     1     -10.873   9.281  18.341  1.00  0.00     0.235 A 
ATOM      4  O   UNL     1     -12.066   9.562  18.639  1.00  0.00    -0.285 OA
ATOM      5  C   UNL     1      -9.821   9.629  19.202  1.00  0.00     0.069 A 
ATOM      6  C   UNL     1      -8.506   9.280  18.826  1.00  0.00     0.142 A 
ATOM      7  O   UNL     1      -8.279   8.648  17.679  1.00  0.00    -0.452 OA
ATOM      8  C   UNL     1      -7.430   9.601  19.661  1.00  0.00     0.094 A 
ATOM      9  C   UNL     1      -7.652  10.271  20.870  1.00  0.00     0.119 A 
ATOM     10  C   UNL     1      -8.956  10.620  21.245  1.00  0.00     0.047 A 
ATOM     11  C   UNL     1     -10.037  10.302  20.418  1.00  0.00     0.020 A 
ENDROOT
BRANCH   1  12
ATOM     12  C   UNL     1      -8.866   7.620  15.576  1.00  0.00     0.025 A 
ATOM     13  C   UNL     1      -8.913   6.218  15.521  1.00  0.00     0.016 A 
ATOM     14  C   UNL     1      -8.538   5.543  14.357  1.00  0.00     0.051 A 
ATOM     15  C   UNL     1      -8.097   6.255  13.237  1.00  0.00     0.157 A 
ATOM     16  C   UNL     1      -8.402   8.334  14.456  1.00  0.00     0.062 A 
ATOM     17  C   UNL     1      -8.023   7.656  13.288  1.00  0.00     0.158 A 
BRANCH  15  18
ATOM     18  O   UNL     1      -7.732   5.553  12.089  1.00  0.00    -0.504 OA
ATOM     19  H   UNL     1      -6.772   5.511  11.767  1.00  0.00     0.293 HD
ENDBRANCH  15  18
BRANCH  17  20
ATOM     20  O   UNL     1      -7.571   8.371  12.180  1.00  0.00    -0.504 OA
ATOM     21  H   UNL     1      -8.066   9.186  11.836  1.00  0.00     0.293 HD
ENDBRANCH  17  20
ENDBRANCH   1  12
BRANCH   2  22
ATOM     22  O   UNL     1     -11.621   8.202  16.290  1.00  0.00    -0.502 OA
ATOM     23  H   UNL     1     -11.701   7.251  15.949  1.00  0.00     0.293 HD
ENDBRANCH   2  22
BRANCH   9  24
ATOM     24  O   UNL     1      -6.569  10.583  21.690  1.00  0.00    -0.508 OA
ATOM     25  H   UNL     1      -6.702  10.927  22.633  1.00  0.00     0.293 HD
ENDBRANCH   9  24
TORSDOF 5
ENDMDL
MODEL 3
REMARK VINA RESULT:    -5.273      3.450      4.947
REMARK INTER + INTRA:          -6.506
REMARK INTER:                  -6.437
REMARK INTRA:                  -0.069
REMARK UNBOUND:                -0.308
REMARK SMILES O=c1c(O)c(-c2ccc(O)c(O)c2)oc2cc(O)ccc12
REMARK SMILES IDX 5 1 3 2 2 3 1 4 21 5 15 6 14 7 16 8 17 9 19 10 20 11 6 12
REMARK SMILES IDX 7 13 8 14 9 15 13 16 11 17 10 18 12 20 4 22 18 24
REMARK H PARENT 10 19 12 21 4 23 18 25
REMARK Flexibility Score: inf
ROOT
ATOM      1  C   UNL     1      -9.539   7.358  13.571  1.00  0.00     0.180 A 
ATOM      2  C   UNL     1      -8.203   7.455  13.129  1.00  0.00     0.208 A 
ATOM      3  C   UNL     1      -7.905   7.112  11.801  1.00  0.00     0.235 A 
ATOM      4  O   UNL     1      -6.719   7.201  11.379  1.00  0.00    -0.285 OA
ATOM      5  C   UNL     1      -8.931   6.664  10.955  1.00  0.00     0.069 A 
ATOM      6  C   UNL     1     -10.238   6.572  11.481  1.00  0.00     0.142 A 
ATOM      7  O   UNL     1     -10.482   6.915  12.741  1.00  0.00    -0.452 OA
ATOM      8  C   UNL     1     -11.287   6.120  10.673  1.00  0.00     0.094 A 
ATOM      9  C   UNL     1     -11.048   5.760   9.342  1.00  0.00     0.119 A 
ATOM     10  C   UNL     1      -9.752   5.851   8.817  1.00  0.00     0.047 A 
ATOM     11  C   UNL     1      -8.697   6.301   9.616  1.00  0.00     0.020 A 
ENDROOT
BRANCH   1  12
ATOM     12  C   UNL     1      -9.939   7.719  14.951  1.00  0.00     0.025 A 
ATOM     13  C   UNL     1     -10.884   8.738  15.151  1.00  0.00     0.016 A 
ATOM     14  C   UNL     1     -11.260   9.109  16.445  1.00  0.00     0.051 A 
ATOM     15  C   UNL     1     -10.689   8.481  17.555  1.00  0.00     0.157 A 
ATOM     16  C   UNL     1      -9.349   7.103  16.069  1.00  0.00     0.062 A 
ATOM     17  C   UNL     1      -9.725   7.477  17.368  1.00  0.00     0.158 A 
BRANCH  15  18
ATOM     18  O   UNL     1     -11.086   8.872  18.833  1.00  0.00    -0.504 OA
ATOM     19  H   UNL     1     -10.539   9.516  19.393  1.00  0.00     0.293 HD
ENDBRANCH  15  18
BRANCH  17  20
ATOM     20  O   UNL     1      -9.140   6.856  18.471  1.00  0.00    -0.504 OA
ATOM     21  H   UNL     1      -9.533   6.015  18.877  1.00  0.00     0.293 HD
ENDBRANCH  17  20
ENDBRANCH   1  12
BRANCH   2  22
ATOM     22  O   UNL     1      -7.195   7.858  14.007  1.00  0.00    -0.502 OA
ATOM     23  H   UNL     1      -6.854   7.260  14.751  1.00  0.00     0.293 HD
ENDBRANCH   2  22
BRANCH   9  24
ATOM     24  O   UNL     1     -12.105   5.313   8.552  1.00  0.00    -0.508 OA
ATOM     25  H   UNL     1     -12.041   4.452   8.021  1.00  0.00     0.293 HD
ENDBRANCH   9  24
TORSDOF 5
ENDMDL
MODEL 4
REMARK VINA RESULT:    -5.244      1.833      2.785
REMARK INTER + INTRA:          -6.472
REMARK INTER:                  -6.291
REMARK INTRA:                  -0.182
REMARK UNBOUND:                -0.308
REMARK SMILES O=c1c(O)c(-c2ccc(O)c(O)c2)oc2cc(O)ccc12
REMARK SMILES IDX 5 1 3 2 2 3 1 4 21 5 15 6 14 7 16 8 17 9 19 10 20 11 6 12
REMARK SMILES IDX 7 13 8 14 9 15 13 16 11 17 10 18 12 20 4 22 18 24
REMARK H PARENT 10 19 12 21 4 23 18 25
REMARK Flexibility Score: inf
ROOT
ATOM      1  C   UNL     1      -9.299   8.818  16.687  1.00  0.00     0.180 A 
ATOM      2  C   UNL     1     -10.553   9.256  16.212  1.00  0.00     0.208 A 
ATOM      3  C   UNL     1     -11.002   8.796  14.964  1.00  0.00     0.235 A 
ATOM      4  O   UNL     1     -12.125   9.166  14.523  1.00  0.00    -0.285 OA
ATOM      5  C   UNL     1     -10.188   7.935  14.212  1.00  0.00     0.069 A 
ATOM      6  C   UNL     1      -8.936   7.562  14.746  1.00  0.00     0.142 A 
ATOM      7  O   UNL     1      -8.551   8.012  15.936  1.00  0.00    -0.452 OA
ATOM      8  C   UNL     1      -8.092   6.712  14.023  1.00  0.00     0.094 A 
ATOM      9  C   UNL     1      -8.484   6.226  12.771  1.00  0.00     0.119 A 
ATOM     10  C   UNL     1      -9.727   6.593  12.239  1.00  0.00     0.047 A 
ATOM     11  C   UNL     1     -10.577   7.442  12.953  1.00  0.00     0.020 A 
ENDROOT
BRANCH   1  12
ATOM     12  C   UNL     1      -8.764   9.242  18.001  1.00  0.00     0.025 A 
ATOM     13  C   UNL     1      -7.567   9.975  18.054  1.00  0.00     0.016 A 
ATOM     14  C   UNL     1      -7.034  10.368  19.285  1.00  0.00     0.051 A 
ATOM     15  C   UNL     1      -7.676  10.023  20.477  1.00  0.00     0.157 A 
ATOM     16  C   UNL     1      -9.398   8.878  19.202  1.00  0.00     0.062 A 
ATOM     17  C   UNL     1      -8.861   9.270  20.437  1.00  0.00     0.158 A 
BRANCH  15  18
ATOM     18  O   UNL     1      -7.120  10.431  21.689  1.00  0.00    -0.504 OA
ATOM     19  H   UNL     1      -6.821  11.385  21.849  1.00  0.00     0.293 HD
ENDBRANCH  15  18
BRANCH  17  20
ATOM     20  O   UNL     1      -9.499   8.910  21.623  1.00  0.00    -0.504 OA
ATOM     21  H   UNL     1      -9.668   9.584  22.361  1.00  0.00     0.293 HD
ENDBRANCH  17  20
ENDBRANCH   1  12
BRANCH   2  22
ATOM     22  O   UNL     1     -11.319  10.153  16.961  1.00  0.00    -0.502 OA
ATOM     23  H   UNL     1     -11.679   9.922  17.879  1.00  0.00     0.293 HD
ENDBRANCH   2  22
BRANCH   9  24
ATOM     24  O   UNL     1      -7.631   5.380  12.065  1.00  0.00    -0.508 OA
ATOM     25  H   UNL     1      -6.785   5.726  11.628  1.00  0.00     0.293 HD
ENDBRANCH   9  24
TORSDOF 5
ENDMDL
MODEL 5
REMARK VINA RESULT:    -5.213      5.425      8.676
REMARK INTER + INTRA:          -6.435
REMARK INTER:                  -6.339
REMARK INTRA:                  -0.095
REMARK UNBOUND:                -0.308
REMARK SMILES O=c1c(O)c(-c2ccc(O)c(O)c2)oc2cc(O)ccc12
REMARK SMILES IDX 5 1 3 2 2 3 1 4 21 5 15 6 14 7 16 8 17 9 19 10 20 11 6 12
REMARK SMILES IDX 7 13 8 14 9 15 13 16 11 17 10 18 12 20 4 22 18 24
REMARK H PARENT 10 19 12 21 4 23 18 25
REMARK Flexibility Score: inf
ROOT
ATOM      1  C   UNL     1      -8.139   6.903  10.965  1.00  0.00     0.180 A 
ATOM      2  C   UNL     1      -9.450   7.329  10.662  1.00  0.00     0.208 A 
ATOM      3  C   UNL     1     -10.436   7.240  11.657  1.00  0.00     0.235 A 
ATOM      4  O   UNL     1     -11.613   7.624  11.414  1.00  0.00    -0.285 OA
ATOM      5  C   UNL     1     -10.103   6.714  12.915  1.00  0.00     0.069 A 
ATOM      6  C   UNL     1      -8.775   6.287  13.131  1.00  0.00     0.142 A 
ATOM      7  O   UNL     1      -7.868   6.397  12.166  1.00  0.00    -0.452 OA
ATOM      8  C   UNL     1      -8.405   5.749  14.368  1.00  0.00     0.094 A 
ATOM      9  C   UNL     1      -9.347   5.631  15.396  1.00  0.00     0.119 A 
ATOM     10  C   UNL     1     -10.666   6.054  15.185  1.00  0.00     0.047 A 
ATOM     11  C   UNL     1     -11.045   6.593  13.953  1.00  0.00     0.020 A 
ENDROOT
BRANCH   1  12
ATOM     12  C   UNL     1      -7.040   6.983   9.977  1.00  0.00     0.025 A 
ATOM     13  C   UNL     1      -7.139   6.264   8.775  1.00  0.00     0.016 A 
ATOM     14  C   UNL     1      -6.104   6.308   7.837  1.00  0.00     0.051 A 
ATOM     15  C   UNL     1      -4.951   7.056   8.090  1.00  0.00     0.157 A 
ATOM     16  C   UNL     1      -5.870   7.718  10.240  1.00  0.00     0.062 A 
ATOM     17  C   UNL     1      -4.829   7.760   9.299  1.00  0.00     0.158 A 
BRANCH  15  18
ATOM     18  O   UNL     1      -3.936   7.081   7.135  1.00  0.00    -0.504 OA
ATOM     19  H   UNL     1      -3.521   6.233   6.768  1.00  0.00     0.293 HD
ENDBRANCH  15  18
BRANCH  17  20
ATOM     20  O   UNL     1      -3.676   8.496   9.565  1.00  0.00    -0.504 OA
ATOM     21  H   UNL     1      -2.755   8.143   9.332  1.00  0.00     0.293 HD
ENDBRANCH  17  20
ENDBRANCH   1  12
BRANCH   2  22
ATOM     22  O   UNL     1      -9.763   7.802   9.386  1.00  0.00    -0.502 OA
ATOM     23  H   UNL     1     -10.387   8.586   9.237  1.00  0.00     0.293 HD
ENDBRANCH   2  22
BRANCH   9  24
ATOM     24  O   UNL     1      -8.961   5.093  16.622  1.00  0.00    -0.508 OA
ATOM     25  H   UNL     1      -9.348   4.220  16.962  1.00  0.00     0.293 HD
ENDBRANCH   9  24
TORSDOF 5
ENDMDL
MODEL 6
REMARK VINA RESULT:    -5.178      2.742      7.307
REMARK INTER + INTRA:          -6.394
REMARK INTER:                  -6.219
REMARK INTRA:                  -0.175
REMARK UNBOUND:                -0.308
REMARK SMILES O=c1c(O)c(-c2ccc(O)c(O)c2)oc2cc(O)ccc12
REMARK SMILES IDX 5 1 3 2 2 3 1 4 21 5 15 6 14 7 16 8 17 9 19 10 20 11 6 12
REMARK SMILES IDX 7 13 8 14 9 15 13 16 11 17 10 18 12 20 4 22 18 24
REMARK H PARENT 10 19 12 21 4 23 18 25
REMARK Flexibility Score: inf
ROOT
ATOM      1  C   UNL     1      -8.650   8.468  14.917  1.00  0.00     0.180 A 
ATOM      2  C   UNL     1      -7.602   9.413  14.913  1.00  0.00     0.208 A 
ATOM      3  C   UNL     1      -7.193   9.974  16.133  1.00  0.00     0.235 A 
ATOM      4  O   UNL     1      -6.251  10.814  16.156  1.00  0.00    -0.285 OA
ATOM      5  C   UNL     1      -7.845   9.601  17.318  1.00  0.00     0.069 A 
ATOM      6  C   UNL     1      -8.900   8.667  17.236  1.00  0.00     0.142 A 
ATOM      7  O   UNL     1      -9.251   8.151  16.062  1.00  0.00    -0.452 OA
ATOM      8  C   UNL     1      -9.581   8.275  18.393  1.00  0.00     0.094 A 
ATOM      9  C   UNL     1      -9.219   8.805  19.637  1.00  0.00     0.119 A 
ATOM     10  C   UNL     1      -8.172   9.732  19.723  1.00  0.00     0.047 A 
ATOM     11  C   UNL     1      -7.486  10.129  18.571  1.00  0.00     0.020 A 
ENDROOT
BRANCH   1  12
ATOM     12  C   UNL     1      -9.126   7.817  13.676  1.00  0.00     0.025 A 
ATOM     13  C   UNL     1     -10.457   7.999  13.268  1.00  0.00     0.016 A 
ATOM     14  C   UNL     1     -10.933   7.378  12.111  1.00  0.00     0.051 A 
ATOM     15  C   UNL     1     -10.095   6.555  11.353  1.00  0.00     0.157 A 
ATOM     16  C   UNL     1      -8.289   6.972  12.924  1.00  0.00     0.062 A 
ATOM     17  C   UNL     1      -8.768   6.346  11.763  1.00  0.00     0.158 A 
BRANCH  15  18
ATOM     18  O   UNL     1     -10.599   5.950  10.203  1.00  0.00    -0.504 OA
ATOM     19  H   UNL     1     -10.191   6.108   9.289  1.00  0.00     0.293 HD
ENDBRANCH  15  18
BRANCH  17  20
ATOM     20  O   UNL     1      -7.931   5.516  11.020  1.00  0.00    -0.504 OA
ATOM     21  H   UNL     1      -8.301   4.840  10.362  1.00  0.00     0.293 HD
ENDBRANCH  17  20
ENDBRANCH   1  12
BRANCH   2  22
ATOM     22  O   UNL     1      -7.005   9.802  13.711  1.00  0.00    -0.502 OA
ATOM     23  H   UNL     1      -6.013   9.992  13.636  1.00  0.00     0.293 HD
ENDBRANCH   2  22
BRANCH   9  24
ATOM     24  O   UNL     1      -9.908   8.404  20.780  1.00  0.00    -0.508 OA
ATOM     25  H   UNL     1     -10.467   9.056  21.317  1.00  0.00     0.293 HD
ENDBRANCH   9  24
TORSDOF 5
ENDMDL
MODEL 7
REMARK VINA RESULT:    -5.168      1.775      6.839
REMARK INTER + INTRA:          -6.382
REMARK INTER:                  -6.064
REMARK INTRA:                  -0.318
REMARK UNBOUND:                -0.308
REMARK SMILES O=c1c(O)c(-c2ccc(O)c(O)c2)oc2cc(O)ccc12
REMARK SMILES IDX 5 1 3 2 2 3 1 4 21 5 15 6 14 7 16 8 17 9 19 10 20 11 6 12
REMARK SMILES IDX 7 13 8 14 9 15 13 16 11 17 10 18 12 20 4 22 18 24
REMARK H PARENT 10 19 12 21 4 23 18 25
REMARK Flexibility Score: inf
ROOT
ATOM      1  C   UNL     1      -9.162   8.705  16.494  1.00  0.00     0.180 A 
ATOM      2  C   UNL     1      -9.889   8.646  17.701  1.00  0.00     0.208 A 
ATOM      3  C   UNL     1      -9.259   9.046  18.890  1.00  0.00     0.235 A 
ATOM      4  O   UNL     1      -9.892   9.012  19.981  1.00  0.00    -0.285 OA
ATOM      5  C   UNL     1      -7.922   9.472  18.854  1.00  0.00     0.069 A 
ATOM      6  C   UNL     1      -7.256   9.480  17.610  1.00  0.00     0.142 A 
ATOM      7  O   UNL     1      -7.891   9.103  16.505  1.00  0.00    -0.452 OA
ATOM      8  C   UNL     1      -5.921   9.890  17.533  1.00  0.00     0.094 A 
ATOM      9  C   UNL     1      -5.240  10.295  18.687  1.00  0.00     0.119 A 
ATOM     10  C   UNL     1      -5.899  10.289  19.923  1.00  0.00     0.047 A 
ATOM     11  C   UNL     1      -7.233   9.881  20.010  1.00  0.00     0.020 A 
ENDROOT
BRANCH   1  12
ATOM     12  C   UNL     1      -9.761   8.320  15.196  1.00  0.00     0.025 A 
ATOM     13  C   UNL     1      -9.682   6.984  14.769  1.00  0.00     0.016 A 
ATOM     14  C   UNL     1     -10.222   6.602  13.538  1.00  0.00     0.051 A 
ATOM     15  C   UNL     1     -10.834   7.547  12.710  1.00  0.00     0.157 A 
ATOM     16  C   UNL     1     -10.358   9.273  14.352  1.00  0.00     0.062 A 
ATOM     17  C   UNL     1     -10.898   8.890  13.115  1.00  0.00     0.158 A 
BRANCH  15  18
ATOM     18  O   UNL     1     -11.365   7.135  11.489  1.00  0.00    -0.504 OA
ATOM     19  H   UNL     1     -12.337   7.288  11.246  1.00  0.00     0.293 HD
ENDBRANCH  15  18
BRANCH  17  20
ATOM     20  O   UNL     1     -11.495   9.841  12.288  1.00  0.00    -0.504 OA
ATOM     21  H   UNL     1     -10.949  10.400  11.642  1.00  0.00     0.293 HD
ENDBRANCH  17  20
ENDBRANCH   1  12
BRANCH   2  22
ATOM     22  O   UNL     1     -11.203   8.170  17.713  1.00  0.00    -0.502 OA
ATOM     23  H   UNL     1     -11.428   7.210  17.942  1.00  0.00     0.293 HD
ENDBRANCH   2  22
BRANCH   9  24
ATOM     24  O   UNL     1      -3.910  10.700  18.592  1.00  0.00    -0.508 OA
ATOM     25  H   UNL     1      -3.173  10.045  18.362  1.00  0.00     0.293 HD
ENDBRANCH   9  24
TORSDOF 5
ENDMDL
MODEL 8
REMARK VINA RESULT:    -5.150      3.683      8.382
REMARK INTER + INTRA:          -6.362
REMARK INTER:                  -6.190
REMARK INTRA:                  -0.172
REMARK UNBOUND:                -0.308
REMARK SMILES O=c1c(O)c(-c2ccc(O)c(O)c2)oc2cc(O)ccc12
REMARK SMILES IDX 5 1 3 2 2 3 1 4 21 5 15 6 14 7 16 8 17 9 19 10 20 11 6 12
REMARK SMILES IDX 7 13 8 14 9 15 13 16 11 17 10 18 12 20 4 22 18 24
REMARK H PARENT 10 19 12 21 4 23 18 25
REMARK Flexibility Score: inf
ROOT
ATOM      1  C   UNL     1     -10.310   7.120  12.318  1.00  0.00     0.180 A 
ATOM      2  C   UNL     1     -11.138   8.258  12.409  1.00  0.00     0.208 A 
ATOM      3  C   UNL     1     -11.395   8.807  13.676  1.00  0.00     0.235 A 
ATOM      4  O   UNL     1     -12.124   9.832  13.782  1.00  0.00    -0.285 OA
ATOM      5  C   UNL     1     -10.843   8.202  14.816  1.00  0.00     0.069 A 
ATOM      6  C   UNL     1     -10.045   7.051  14.642  1.00  0.00     0.142 A 
ATOM      7  O   UNL     1      -9.818   6.568  13.425  1.00  0.00    -0.452 OA
ATOM      8  C   UNL     1      -9.485   6.414  15.754  1.00  0.00     0.094 A 
ATOM      9  C   UNL     1      -9.711   6.913  17.042  1.00  0.00     0.119 A 
ATOM     10  C   UNL     1     -10.502   8.056  17.217  1.00  0.00     0.047 A 
ATOM     11  C   UNL     1     -11.066   8.700  16.113  1.00  0.00     0.020 A 
ENDROOT
BRANCH   1  12
ATOM     12  C   UNL     1      -9.976   6.493  11.019  1.00  0.00     0.025 A 
ATOM     13  C   UNL     1     -10.984   5.846  10.286  1.00  0.00     0.016 A 
ATOM     14  C   UNL     1     -10.686   5.230   9.067  1.00  0.00     0.051 A 
ATOM     15  C   UNL     1      -9.380   5.238   8.570  1.00  0.00     0.157 A 
ATOM     16  C   UNL     1      -8.658   6.482  10.528  1.00  0.00     0.062 A 
ATOM     17  C   UNL     1      -8.359   5.862   9.306  1.00  0.00     0.158 A 
BRANCH  15  18
ATOM     18  O   UNL     1      -9.115   4.617   7.351  1.00  0.00    -0.504 OA
ATOM     19  H   UNL     1      -8.828   3.647   7.292  1.00  0.00     0.293 HD
ENDBRANCH  15  18
BRANCH  17  20
ATOM     20  O   UNL     1      -7.051   5.861   8.823  1.00  0.00    -0.504 OA
ATOM     21  H   UNL     1      -6.364   6.530   9.151  1.00  0.00     0.293 HD
ENDBRANCH  17  20
ENDBRANCH   1  12
BRANCH   2  22
ATOM     22  O   UNL     1     -11.713   8.809  11.262  1.00  0.00    -0.502 OA
ATOM     23  H   UNL     1     -12.501   9.444  11.302  1.00  0.00     0.293 HD
ENDBRANCH   2  22
BRANCH   9  24
ATOM     24  O   UNL     1      -9.145   6.266  18.138  1.00  0.00    -0.508 OA
ATOM     25  H   UNL     1      -9.653   6.155  19.008  1.00  0.00     0.293 HD
ENDBRANCH   9  24
TORSDOF 5
ENDMDL
MODEL 9
REMARK VINA RESULT:    -5.138      1.876      6.906
REMARK INTER + INTRA:          -6.347
REMARK INTER:                  -6.035
REMARK INTRA:                  -0.312
REMARK UNBOUND:                -0.308
REMARK SMILES O=c1c(O)c(-c2ccc(O)c(O)c2)oc2cc(O)ccc12
REMARK SMILES IDX 5 1 3 2 2 3 1 4 21 5 15 6 14 7 16 8 17 9 19 10 20 11 6 12
REMARK SMILES IDX 7 13 8 14 9 15 13 16 11 17 10 18 12 20 4 22 18 24
REMARK H PARENT 10 19 12 21 4 23 18 25
REMARK Flexibility Score: inf
ROOT
ATOM      1  C   UNL     1      -8.687   8.744  16.502  1.00  0.00     0.180 A 
ATOM      2  C   UNL     1      -7.393   9.305  16.487  1.00  0.00     0.208 A 
ATOM      3  C   UNL     1      -6.869   9.829  17.680  1.00  0.00     0.235 A 
ATOM      4  O   UNL     1      -5.710  10.328  17.693  1.00  0.00    -0.285 OA
ATOM      5  C   UNL     1      -7.648   9.802  18.847  1.00  0.00     0.069 A 
ATOM      6  C   UNL     1      -8.943   9.244  18.774  1.00  0.00     0.142 A 
ATOM      7  O   UNL     1      -9.399   8.750  17.628  1.00  0.00    -0.452 OA
ATOM      8  C   UNL     1      -9.754   9.207  19.913  1.00  0.00     0.094 A 
ATOM      9  C   UNL     1      -9.287   9.719  21.128  1.00  0.00     0.119 A 
ATOM     10  C   UNL     1      -8.002  10.272  21.205  1.00  0.00     0.047 A 
ATOM     11  C   UNL     1      -7.184  10.315  20.072  1.00  0.00     0.020 A 
ENDROOT
BRANCH   1  12
ATOM     12  C   UNL     1      -9.302   8.153  15.291  1.00  0.00     0.025 A 
ATOM     13  C   UNL     1      -9.020   6.819  14.955  1.00  0.00     0.016 A 
ATOM     14  C   UNL     1      -9.573   6.248  13.806  1.00  0.00     0.051 A 
ATOM     15  C   UNL     1     -10.400   7.002  12.969  1.00  0.00     0.157 A 
ATOM     16  C   UNL     1     -10.117   8.917  14.437  1.00  0.00     0.062 A 
ATOM     17  C   UNL     1     -10.670   8.345  13.282  1.00  0.00     0.158 A 
BRANCH  15  18
ATOM     18  O   UNL     1     -10.939   6.404  11.831  1.00  0.00    -0.504 OA
ATOM     19  H   UNL     1     -10.368   5.880  11.177  1.00  0.00     0.293 HD
ENDBRANCH  15  18
BRANCH  17  20
ATOM     20  O   UNL     1     -11.483   9.107  12.444  1.00  0.00    -0.504 OA
ATOM     21  H   UNL     1     -12.083   9.838  12.808  1.00  0.00     0.293 HD
ENDBRANCH  17  20
ENDBRANCH   1  12
BRANCH   2  22
ATOM     22  O   UNL     1      -6.660   9.363  15.299  1.00  0.00    -0.502 OA
ATOM     23  H   UNL     1      -7.056   9.094  14.406  1.00  0.00     0.293 HD
ENDBRANCH   2  22
BRANCH   9  24
ATOM     24  O   UNL     1     -10.108   9.673  22.253  1.00  0.00    -0.508 OA
ATOM     25  H   UNL     1     -10.350   8.795  22.697  1.00  0.00     0.293 HD
ENDBRANCH   9  24
TORSDOF 5
ENDMDL
