MODEL 1
REMARK VINA RESULT:    -2.406      0.000      0.000
REMARK INTER + INTRA:          -2.406
REMARK INTER:                  -2.406
REMARK INTRA:                   0.000
REMARK UNBOUND:                 0.000
REMARK SMILES CC(=O)[O-]
REMARK SMILES IDX 1 1 2 2 3 3 4 4
REMARK H PARENT
REMARK Flexibility Score: inf
ROOT
ATOM      1  C   UNL     1     -17.763  40.825  18.574  1.00  0.00     0.063 C 
ATOM      2  C   UNL     1     -18.769  41.315  19.561  1.00  0.00     0.038 C 
ATOM      3  O   UNL     1     -19.598  40.515  20.068  1.00  0.00    -0.550 OA
ATOM      4  O   UNL     1     -18.758  42.645  19.961  1.00  0.00    -0.550 OA
ENDROOT
TORSDOF 0
ENDMDL
MODEL 2
REMARK VINA RESULT:    -2.380      0.087      1.622
REMARK INTER + INTRA:          -2.380
REMARK INTER:                  -2.380
REMARK INTRA:                   0.000
REMARK UNBOUND:                 0.000
REMARK SMILES CC(=O)[O-]
REMARK SMILES IDX 1 1 2 2 3 3 4 4
REMARK H PARENT
REMARK Flexibility Score: inf
ROOT
ATOM      1  C   UNL     1     -17.727  40.928  18.598  1.00  0.00     0.063 C 
ATOM      2  C   UNL     1     -18.729  41.393  19.601  1.00  0.00     0.038 C 
ATOM      3  O   UNL     1     -18.766  42.604  19.942  1.00  0.00    -0.550 OA
ATOM      4  O   UNL     1     -19.659  40.501  20.120  1.00  0.00    -0.550 OA
ENDROOT
TORSDOF 0
ENDMDL
MODEL 3
REMARK VINA RESULT:    -2.277     11.430     11.851
REMARK INTER + INTRA:          -2.277
REMARK INTER:                  -2.277
REMARK INTRA:                   0.000
REMARK UNBOUND:                 0.000
REMARK SMILES CC(=O)[O-]
REMARK SMILES IDX 1 1 2 2 3 3 4 4
REMARK H PARENT
REMARK Flexibility Score: inf
ROOT
ATOM      1  C   UNL     1     -29.321  41.891  19.994  1.00  0.00     0.063 C 
ATOM      2  C   UNL     1     -30.381  42.846  19.557  1.00  0.00     0.038 C 
ATOM      3  O   UNL     1     -30.314  43.389  18.423  1.00  0.00    -0.550 OA
ATOM      4  O   UNL     1     -31.472  43.096  20.379  1.00  0.00    -0.550 OA
ENDROOT
TORSDOF 0
ENDMDL
MODEL 4
REMARK VINA RESULT:    -2.265      1.680      2.074
REMARK INTER + INTRA:          -2.265
REMARK INTER:                  -2.265
REMARK INTRA:                   0.000
REMARK UNBOUND:                 0.000
REMARK SMILES CC(=O)[O-]
REMARK SMILES IDX 1 1 2 2 3 3 4 4
REMARK H PARENT
REMARK Flexibility Score: inf
ROOT
ATOM      1  C   UNL     1     -17.681  38.879  19.243  1.00  0.00     0.063 C 
ATOM      2  C   UNL     1     -18.219  40.266  19.139  1.00  0.00     0.038 C 
ATOM      3  O   UNL     1     -17.670  41.101  18.372  1.00  0.00    -0.550 OA
ATOM      4  O   UNL     1     -19.359  40.625  19.847  1.00  0.00    -0.550 OA
ENDROOT
TORSDOF 0
ENDMDL
MODEL 5
REMARK VINA RESULT:    -2.236      1.676      1.921
REMARK INTER + INTRA:          -2.236
REMARK INTER:                  -2.236
REMARK INTRA:                   0.000
REMARK UNBOUND:                 0.000
REMARK SMILES CC(=O)[O-]
REMARK SMILES IDX 1 1 2 2 3 3 4 4
REMARK H PARENT
REMARK Flexibility Score: inf
ROOT
ATOM      1  C   UNL     1     -18.874  41.878  20.005  1.00  0.00     0.063 C 
ATOM      2  C   UNL     1     -18.468  40.666  19.237  1.00  0.00     0.038 C 
ATOM      3  O   UNL     1     -18.894  39.531  19.576  1.00  0.00    -0.550 OA
ATOM      4  O   UNL     1     -17.660  40.792  18.114  1.00  0.00    -0.550 OA
ENDROOT
TORSDOF 0
ENDMDL
MODEL 6
REMARK VINA RESULT:    -2.205     11.939     12.396
REMARK INTER + INTRA:          -2.205
REMARK INTER:                  -2.205
REMARK INTRA:                   0.000
REMARK UNBOUND:                 0.000
REMARK SMILES CC(=O)[O-]
REMARK SMILES IDX 1 1 2 2 3 3 4 4
REMARK H PARENT
REMARK Flexibility Score: inf
ROOT
ATOM      1  C   UNL     1     -31.524  43.023  20.049  1.00  0.00     0.063 C 
ATOM      2  C   UNL     1     -30.796  43.008  18.747  1.00  0.00     0.038 C 
ATOM      3  O   UNL     1     -31.249  43.649  17.763  1.00  0.00    -0.550 OA
ATOM      4  O   UNL     1     -29.590  42.329  18.633  1.00  0.00    -0.550 OA
ENDROOT
TORSDOF 0
ENDMDL
MODEL 7
REMARK VINA RESULT:    -2.197      2.048      2.289
REMARK INTER + INTRA:          -2.197
REMARK INTER:                  -2.197
REMARK INTRA:                   0.000
REMARK UNBOUND:                 0.000
REMARK SMILES CC(=O)[O-]
REMARK SMILES IDX 1 1 2 2 3 3 4 4
REMARK H PARENT
REMARK Flexibility Score: inf
ROOT
ATOM      1  C   UNL     1     -17.037  42.929  21.514  1.00  0.00     0.063 C 
ATOM      2  C   UNL     1     -17.966  41.924  20.921  1.00  0.00     0.038 C 
ATOM      3  O   UNL     1     -17.925  40.725  21.302  1.00  0.00    -0.550 OA
ATOM      4  O   UNL     1     -18.914  42.320  19.987  1.00  0.00    -0.550 OA
ENDROOT
TORSDOF 0
ENDMDL
MODEL 8
REMARK VINA RESULT:    -2.184      2.055      2.741
REMARK INTER + INTRA:          -2.184
REMARK INTER:                  -2.184
REMARK INTRA:                   0.000
REMARK UNBOUND:                 0.000
REMARK SMILES CC(=O)[O-]
REMARK SMILES IDX 1 1 2 2 3 3 4 4
REMARK H PARENT
REMARK Flexibility Score: inf
ROOT
ATOM      1  C   UNL     1     -18.781  41.912  19.994  1.00  0.00     0.063 C 
ATOM      2  C   UNL     1     -17.782  41.898  21.103  1.00  0.00     0.038 C 
ATOM      3  O   UNL     1     -17.281  42.977  21.516  1.00  0.00    -0.550 OA
ATOM      4  O   UNL     1     -17.444  40.700  21.718  1.00  0.00    -0.550 OA
ENDROOT
TORSDOF 0
ENDMDL
MODEL 9
REMARK VINA RESULT:    -2.184      3.918      4.502
REMARK INTER + INTRA:          -2.184
REMARK INTER:                  -2.184
REMARK INTRA:                   0.000
REMARK UNBOUND:                 0.000
REMARK SMILES CC(=O)[O-]
REMARK SMILES IDX 1 1 2 2 3 3 4 4
REMARK H PARENT
REMARK Flexibility Score: inf
ROOT
ATOM      1  C   UNL     1     -16.706  44.711  22.539  1.00  0.00     0.063 C 
ATOM      2  C   UNL     1     -16.359  43.392  21.934  1.00  0.00     0.038 C 
ATOM      3  O   UNL     1     -15.163  43.001  21.914  1.00  0.00    -0.550 OA
ATOM      4  O   UNL     1     -17.363  42.569  21.439  1.00  0.00    -0.550 OA
ENDROOT
TORSDOF 0
ENDMDL
