MODEL 1
REMARK VINA RESULT:    -3.069      0.000      0.000
REMARK INTER + INTRA:          -3.339
REMARK INTER:                  -3.339
REMARK INTRA:                   0.000
REMARK UNBOUND:                 0.000
REMARK SMILES [NH3+]CC(=O)[O-]
REMARK SMILES IDX 2 1 1 2 3 6 4 7 5 8
REMARK H PARENT 1 3 1 4 1 5
REMARK Flexibility Score: inf
ROOT
ATOM      1  C   UNL     1       4.835  -5.033 -18.775  1.00  0.00     0.312 C 
ENDROOT
BRANCH   1   2
ATOM      2  N   UNL     1       5.471  -5.112 -20.089  1.00  0.00    -0.353 N 
ATOM      3  H   UNL     1       4.907  -5.723 -20.724  1.00  0.00     0.344 HD
ATOM      4  H   UNL     1       5.558  -4.155 -20.502  1.00  0.00     0.344 HD
ATOM      5  H   UNL     1       6.426  -5.524 -19.982  1.00  0.00     0.344 HD
ENDBRANCH   1   2
BRANCH   1   6
ATOM      6  C   UNL     1       4.335  -6.378 -18.348  1.00  0.00     0.096 C 
ATOM      7  O   UNL     1       5.137  -7.238 -17.898  1.00  0.00    -0.544 OA
ATOM      8  O   UNL     1       2.977  -6.663 -18.398  1.00  0.00    -0.544 OA
ENDBRANCH   1   6
TORSDOF 2
ENDMDL
MODEL 2
REMARK VINA RESULT:    -3.039     16.268     16.646
REMARK INTER + INTRA:          -3.306
REMARK INTER:                  -3.306
REMARK INTRA:                   0.000
REMARK UNBOUND:                 0.000
REMARK SMILES [NH3+]CC(=O)[O-]
REMARK SMILES IDX 2 1 1 2 3 6 4 7 5 8
REMARK H PARENT 1 3 1 4 1 5
REMARK Flexibility Score: inf
ROOT
ATOM      1  C   UNL     1      20.490  -6.757 -21.066  1.00  0.00     0.312 C 
ENDROOT
BRANCH   1   2
ATOM      2  N   UNL     1      21.021  -5.984 -19.944  1.00  0.00    -0.353 N 
ATOM      3  H   UNL     1      20.593  -6.313 -19.048  1.00  0.00     0.344 HD
ATOM      4  H   UNL     1      22.061  -6.087 -19.900  1.00  0.00     0.344 HD
ATOM      5  H   UNL     1      20.785  -4.975 -20.082  1.00  0.00     0.344 HD
ENDBRANCH   1   2
BRANCH   1   6
ATOM      6  C   UNL     1      20.869  -8.200 -20.941  1.00  0.00     0.096 C 
ATOM      7  O   UNL     1      20.529  -8.857 -19.922  1.00  0.00    -0.544 OA
ATOM      8  O   UNL     1      21.551  -8.832 -21.972  1.00  0.00    -0.544 OA
ENDBRANCH   1   6
TORSDOF 2
ENDMDL
MODEL 3
REMARK VINA RESULT:    -2.994     16.230     16.399
REMARK INTER + INTRA:          -3.256
REMARK INTER:                  -3.256
REMARK INTRA:                   0.000
REMARK UNBOUND:                 0.000
REMARK SMILES [NH3+]CC(=O)[O-]
REMARK SMILES IDX 2 1 1 2 3 6 4 7 5 8
REMARK H PARENT 1 3 1 4 1 5
REMARK Flexibility Score: inf
ROOT
ATOM      1  C   UNL     1      20.882  -8.594 -20.289  1.00  0.00     0.312 C 
ENDROOT
BRANCH   1   2
ATOM      2  N   UNL     1      20.107  -8.743 -19.058  1.00  0.00    -0.353 N 
ATOM      3  H   UNL     1      20.428  -9.589 -18.532  1.00  0.00     0.344 HD
ATOM      4  H   UNL     1      20.218  -7.891 -18.461  1.00  0.00     0.344 HD
ATOM      5  H   UNL     1      19.097  -8.858 -19.302  1.00  0.00     0.344 HD
ENDBRANCH   1   2
BRANCH   1   6
ATOM      6  C   UNL     1      20.665  -7.240 -20.890  1.00  0.00     0.096 C 
ATOM      7  O   UNL     1      20.205  -7.132 -22.058  1.00  0.00    -0.544 OA
ATOM      8  O   UNL     1      20.921  -6.098 -20.143  1.00  0.00    -0.544 OA
ENDBRANCH   1   6
TORSDOF 2
ENDMDL
MODEL 4
REMARK VINA RESULT:    -2.960     16.370     16.921
REMARK INTER + INTRA:          -3.220
REMARK INTER:                  -3.220
REMARK INTRA:                   0.000
REMARK UNBOUND:                 0.000
REMARK SMILES [NH3+]CC(=O)[O-]
REMARK SMILES IDX 2 1 1 2 3 6 4 7 5 8
REMARK H PARENT 1 3 1 4 1 5
REMARK Flexibility Score: inf
ROOT
ATOM      1  C   UNL     1      20.684  -7.052 -20.764  1.00  0.00     0.312 C 
ENDROOT
BRANCH   1   2
ATOM      2  N   UNL     1      20.842  -5.782 -20.057  1.00  0.00    -0.353 N 
ATOM      3  H   UNL     1      21.754  -5.338 -20.316  1.00  0.00     0.344 HD
ATOM      4  H   UNL     1      20.053  -5.139 -20.296  1.00  0.00     0.344 HD
ATOM      5  H   UNL     1      20.834  -5.962 -19.027  1.00  0.00     0.344 HD
ENDBRANCH   1   2
BRANCH   1   6
ATOM      6  C   UNL     1      21.336  -8.166 -20.004  1.00  0.00     0.096 C 
ATOM      7  O   UNL     1      20.648  -9.137 -19.591  1.00  0.00    -0.544 OA
ATOM      8  O   UNL     1      22.709  -8.156 -19.798  1.00  0.00    -0.544 OA
ENDBRANCH   1   6
TORSDOF 2
ENDMDL
MODEL 5
REMARK VINA RESULT:    -2.957     16.983     17.430
REMARK INTER + INTRA:          -3.216
REMARK INTER:                  -3.216
REMARK INTRA:                   0.000
REMARK UNBOUND:                 0.000
REMARK SMILES [NH3+]CC(=O)[O-]
REMARK SMILES IDX 2 1 1 2 3 6 4 7 5 8
REMARK H PARENT 1 3 1 4 1 5
REMARK Flexibility Score: inf
ROOT
ATOM      1  C   UNL     1      21.054  -8.656 -21.256  1.00  0.00     0.312 C 
ENDROOT
BRANCH   1   2
ATOM      2  N   UNL     1      22.035  -8.952 -22.298  1.00  0.00    -0.353 N 
ATOM      3  H   UNL     1      22.920  -9.309 -21.868  1.00  0.00     0.344 HD
ATOM      4  H   UNL     1      21.650  -9.664 -22.960  1.00  0.00     0.344 HD
ATOM      5  H   UNL     1      22.246  -8.075 -22.828  1.00  0.00     0.344 HD
ENDBRANCH   1   2
BRANCH   1   6
ATOM      6  C   UNL     1      21.502  -7.498 -20.420  1.00  0.00     0.096 C 
ATOM      7  O   UNL     1      20.789  -6.464 -20.337  1.00  0.00    -0.544 OA
ATOM      8  O   UNL     1      22.682  -7.580 -19.692  1.00  0.00    -0.544 OA
ENDBRANCH   1   6
TORSDOF 2
ENDMDL
MODEL 6
REMARK VINA RESULT:    -2.933     16.934     17.156
REMARK INTER + INTRA:          -3.190
REMARK INTER:                  -3.190
REMARK INTRA:                   0.000
REMARK UNBOUND:                 0.000
REMARK SMILES [NH3+]CC(=O)[O-]
REMARK SMILES IDX 2 1 1 2 3 6 4 7 5 8
REMARK H PARENT 1 3 1 4 1 5
REMARK Flexibility Score: inf
ROOT
ATOM      1  C   UNL     1      21.764  -8.391 -20.180  1.00  0.00     0.312 C 
ENDROOT
BRANCH   1   2
ATOM      2  N   UNL     1      23.124  -7.950 -19.874  1.00  0.00    -0.353 N 
ATOM      3  H   UNL     1      23.619  -8.678 -19.310  1.00  0.00     0.344 HD
ATOM      4  H   UNL     1      23.649  -7.769 -20.761  1.00  0.00     0.344 HD
ATOM      5  H   UNL     1      23.079  -7.064 -19.320  1.00  0.00     0.344 HD
ENDBRANCH   1   2
BRANCH   1   6
ATOM      6  C   UNL     1      20.961  -7.266 -20.758  1.00  0.00     0.096 C 
ATOM      7  O   UNL     1      20.894  -6.162 -20.156  1.00  0.00    -0.544 OA
ATOM      8  O   UNL     1      20.330  -7.421 -21.985  1.00  0.00    -0.544 OA
ENDBRANCH   1   6
TORSDOF 2
ENDMDL
MODEL 7
REMARK VINA RESULT:    -2.876     16.566     17.057
REMARK INTER + INTRA:          -3.129
REMARK INTER:                  -3.129
REMARK INTRA:                   0.000
REMARK UNBOUND:                 0.000
REMARK SMILES [NH3+]CC(=O)[O-]
REMARK SMILES IDX 2 1 1 2 3 6 4 7 5 8
REMARK H PARENT 1 3 1 4 1 5
REMARK Flexibility Score: inf
ROOT
ATOM      1  C   UNL     1      20.833  -9.011 -19.818  1.00  0.00     0.312 C 
ENDROOT
BRANCH   1   2
ATOM      2  N   UNL     1      20.238  -9.039 -18.483  1.00  0.00    -0.353 N 
ATOM      3  H   UNL     1      19.330  -9.558 -18.506  1.00  0.00     0.344 HD
ATOM      4  H   UNL     1      20.893  -9.499 -17.809  1.00  0.00     0.344 HD
ATOM      5  H   UNL     1      20.060  -8.058 -18.167  1.00  0.00     0.344 HD
ENDBRANCH   1   2
BRANCH   1   6
ATOM      6  C   UNL     1      21.587  -7.735 -20.034  1.00  0.00     0.096 C 
ATOM      7  O   UNL     1      22.837  -7.706 -19.885  1.00  0.00    -0.544 OA
ATOM      8  O   UNL     1      20.916  -6.592 -20.448  1.00  0.00    -0.544 OA
ENDBRANCH   1   6
TORSDOF 2
ENDMDL
MODEL 8
REMARK VINA RESULT:    -2.800     16.619     16.948
REMARK INTER + INTRA:          -3.046
REMARK INTER:                  -3.046
REMARK INTRA:                   0.000
REMARK UNBOUND:                 0.000
REMARK SMILES [NH3+]CC(=O)[O-]
REMARK SMILES IDX 2 1 1 2 3 6 4 7 5 8
REMARK H PARENT 1 3 1 4 1 5
REMARK Flexibility Score: inf
ROOT
ATOM      1  C   UNL     1      21.973  -9.218 -20.853  1.00  0.00     0.312 C 
ENDROOT
BRANCH   1   2
ATOM      2  N   UNL     1      21.977  -8.811 -22.257  1.00  0.00    -0.353 N 
ATOM      3  H   UNL     1      22.604  -9.439 -22.811  1.00  0.00     0.344 HD
ATOM      4  H   UNL     1      21.005  -8.849 -22.643  1.00  0.00     0.344 HD
ATOM      5  H   UNL     1      22.332  -7.830 -22.327  1.00  0.00     0.344 HD
ENDBRANCH   1   2
BRANCH   1   6
ATOM      6  C   UNL     1      20.891  -8.507 -20.099  1.00  0.00     0.096 C 
ATOM      7  O   UNL     1      20.551  -7.341 -20.430  1.00  0.00    -0.544 OA
ATOM      8  O   UNL     1      20.224  -9.152 -19.066  1.00  0.00    -0.544 OA
ENDBRANCH   1   6
TORSDOF 2
ENDMDL
MODEL 9
REMARK VINA RESULT:    -2.708      2.187      2.566
REMARK INTER + INTRA:          -2.945
REMARK INTER:                  -2.945
REMARK INTRA:                   0.000
REMARK UNBOUND:                 0.000
REMARK SMILES [NH3+]CC(=O)[O-]
REMARK SMILES IDX 2 1 1 2 3 6 4 7 5 8
REMARK H PARENT 1 3 1 4 1 5
REMARK Flexibility Score: inf
ROOT
ATOM      1  C   UNL     1       4.331  -7.344 -17.495  1.00  0.00     0.312 C 
ENDROOT
BRANCH   1   2
ATOM      2  N   UNL     1       5.556  -8.044 -17.877  1.00  0.00    -0.353 N 
ATOM      3  H   UNL     1       5.322  -8.905 -18.423  1.00  0.00     0.344 HD
ATOM      4  H   UNL     1       6.163  -7.414 -18.451  1.00  0.00     0.344 HD
ATOM      5  H   UNL     1       6.076  -8.320 -17.013  1.00  0.00     0.344 HD
ENDBRANCH   1   2
BRANCH   1   6
ATOM      6  C   UNL     1       4.266  -5.996 -18.146  1.00  0.00     0.096 C 
ATOM      7  O   UNL     1       3.774  -5.017 -17.525  1.00  0.00    -0.544 OA
ATOM      8  O   UNL     1       4.796  -5.811 -19.415  1.00  0.00    -0.544 OA
ENDBRANCH   1   6
TORSDOF 2
ENDMDL
