MODEL 1
REMARK VINA RESULT:    -3.738      0.000      0.000
REMARK INTER + INTRA:          -4.182
REMARK INTER:                  -4.175
REMARK INTRA:                  -0.008
REMARK UNBOUND:                -0.008
REMARK SMILES CCCC(=O)[O-]
REMARK SMILES IDX 3 1 4 2 5 3 6 4 2 5 1 6
REMARK H PARENT
REMARK Flexibility Score: inf
ROOT
ATOM      1  C   UNL     1       4.088  13.229   1.783  1.00  0.00     0.052 C 
ENDROOT
BRANCH   1   2
ATOM      2  C   UNL     1       2.811  13.990   1.597  1.00  0.00     0.041 C 
ATOM      3  O   UNL     1       2.164  13.890   0.521  1.00  0.00    -0.550 OA
ATOM      4  O   UNL     1       2.318  14.784   2.625  1.00  0.00    -0.550 OA
ENDBRANCH   1   2
BRANCH   1   5
ATOM      5  C   UNL     1       5.028  13.397   0.584  1.00  0.00     0.003 C 
ATOM      6  C   UNL     1       6.484  13.592   1.008  1.00  0.00     0.004 C 
ENDBRANCH   1   5
TORSDOF 2
ENDMDL
MODEL 2
REMARK VINA RESULT:    -3.590      0.983      1.263
REMARK INTER + INTRA:          -4.018
REMARK INTER:                  -4.006
REMARK INTRA:                  -0.011
REMARK UNBOUND:                -0.008
REMARK SMILES CCCC(=O)[O-]
REMARK SMILES IDX 3 1 4 2 5 3 6 4 2 5 1 6
REMARK H PARENT
REMARK Flexibility Score: inf
ROOT
ATOM      1  C   UNL     1       3.123  13.898   1.097  1.00  0.00     0.052 C 
ENDROOT
BRANCH   1   2
ATOM      2  C   UNL     1       2.038  14.257   2.066  1.00  0.00     0.041 C 
ATOM      3  O   UNL     1       0.859  13.861   1.874  1.00  0.00    -0.550 OA
ATOM      4  O   UNL     1       2.339  15.001   3.201  1.00  0.00    -0.550 OA
ENDBRANCH   1   2
BRANCH   1   5
ATOM      5  C   UNL     1       4.259  13.125   1.777  1.00  0.00     0.003 C 
ATOM      6  C   UNL     1       5.609  13.358   1.099  1.00  0.00     0.004 C 
ENDBRANCH   1   5
TORSDOF 2
ENDMDL
MODEL 3
REMARK VINA RESULT:    -3.586      1.298      1.634
REMARK INTER + INTRA:          -4.013
REMARK INTER:                  -3.963
REMARK INTRA:                  -0.050
REMARK UNBOUND:                -0.008
REMARK SMILES CCCC(=O)[O-]
REMARK SMILES IDX 3 1 4 2 5 3 6 4 2 5 1 6
REMARK H PARENT
REMARK Flexibility Score: inf
ROOT
ATOM      1  C   UNL     1       4.235  13.055   1.966  1.00  0.00     0.052 C 
ENDROOT
BRANCH   1   2
ATOM      2  C   UNL     1       3.938  14.276   2.783  1.00  0.00     0.041 C 
ATOM      3  O   UNL     1       2.966  15.018   2.482  1.00  0.00    -0.550 OA
ATOM      4  O   UNL     1       4.713  14.573   3.897  1.00  0.00    -0.550 OA
ENDBRANCH   1   2
BRANCH   1   5
ATOM      5  C   UNL     1       5.008  13.402   0.688  1.00  0.00     0.003 C 
ATOM      6  C   UNL     1       6.496  13.631   0.952  1.00  0.00     0.004 C 
ENDBRANCH   1   5
TORSDOF 2
ENDMDL
MODEL 4
REMARK VINA RESULT:    -3.533      2.690      3.559
REMARK INTER + INTRA:          -3.953
REMARK INTER:                  -3.916
REMARK INTRA:                  -0.038
REMARK UNBOUND:                -0.008
REMARK SMILES CCCC(=O)[O-]
REMARK SMILES IDX 3 1 4 2 5 3 6 4 2 5 1 6
REMARK H PARENT
REMARK Flexibility Score: inf
ROOT
ATOM      1  C   UNL     1       5.044  13.086   0.996  1.00  0.00     0.052 C 
ENDROOT
BRANCH   1   2
ATOM      2  C   UNL     1       6.097  14.139   0.830  1.00  0.00     0.041 C 
ATOM      3  O   UNL     1       7.255  13.955   1.288  1.00  0.00    -0.550 OA
ATOM      4  O   UNL     1       5.807  15.309   0.139  1.00  0.00    -0.550 OA
ENDBRANCH   1   2
BRANCH   1   5
ATOM      5  C   UNL     1       3.843  13.605   1.795  1.00  0.00     0.003 C 
ATOM      6  C   UNL     1       2.627  13.874   0.909  1.00  0.00     0.004 C 
ENDBRANCH   1   5
TORSDOF 2
ENDMDL
MODEL 5
REMARK VINA RESULT:    -3.431      2.931      3.431
REMARK INTER + INTRA:          -3.840
REMARK INTER:                  -3.807
REMARK INTRA:                  -0.033
REMARK UNBOUND:                -0.008
REMARK SMILES CCCC(=O)[O-]
REMARK SMILES IDX 3 1 4 2 5 3 6 4 2 5 1 6
REMARK H PARENT
REMARK Flexibility Score: inf
ROOT
ATOM      1  C   UNL     1       4.258  14.325   3.342  1.00  0.00     0.052 C 
ENDROOT
BRANCH   1   2
ATOM      2  C   UNL     1       5.573  15.025   3.504  1.00  0.00     0.041 C 
ATOM      3  O   UNL     1       6.572  14.663   2.829  1.00  0.00    -0.550 OA
ATOM      4  O   UNL     1       5.685  16.100   4.377  1.00  0.00    -0.550 OA
ENDBRANCH   1   2
BRANCH   1   5
ATOM      5  C   UNL     1       4.273  13.362   2.149  1.00  0.00     0.003 C 
ATOM      6  C   UNL     1       3.310  13.792   1.042  1.00  0.00     0.004 C 
ENDBRANCH   1   5
TORSDOF 2
ENDMDL
MODEL 6
REMARK VINA RESULT:    -3.426      2.238      2.725
REMARK INTER + INTRA:          -3.834
REMARK INTER:                  -3.786
REMARK INTRA:                  -0.048
REMARK UNBOUND:                -0.008
REMARK SMILES CCCC(=O)[O-]
REMARK SMILES IDX 3 1 4 2 5 3 6 4 2 5 1 6
REMARK H PARENT
REMARK Flexibility Score: inf
ROOT
ATOM      1  C   UNL     1       6.078  14.478   1.514  1.00  0.00     0.052 C 
ENDROOT
BRANCH   1   2
ATOM      2  C   UNL     1       5.269  15.729   1.678  1.00  0.00     0.041 C 
ATOM      3  O   UNL     1       4.553  16.150   0.732  1.00  0.00    -0.550 OA
ATOM      4  O   UNL     1       5.281  16.409   2.890  1.00  0.00    -0.550 OA
ENDBRANCH   1   2
BRANCH   1   5
ATOM      5  C   UNL     1       5.207  13.293   1.078  1.00  0.00     0.003 C 
ATOM      6  C   UNL     1       4.080  13.005   2.068  1.00  0.00     0.004 C 
ENDBRANCH   1   5
TORSDOF 2
ENDMDL
MODEL 7
REMARK VINA RESULT:    -3.365      2.341      3.376
REMARK INTER + INTRA:          -3.765
REMARK INTER:                  -3.730
REMARK INTRA:                  -0.036
REMARK UNBOUND:                -0.008
REMARK SMILES CCCC(=O)[O-]
REMARK SMILES IDX 3 1 4 2 5 3 6 4 2 5 1 6
REMARK H PARENT
REMARK Flexibility Score: inf
ROOT
ATOM      1  C   UNL     1       4.130  13.662   1.218  1.00  0.00     0.052 C 
ENDROOT
BRANCH   1   2
ATOM      2  C   UNL     1       5.054  14.747   0.757  1.00  0.00     0.041 C 
ATOM      3  O   UNL     1       4.667  15.945   0.741  1.00  0.00    -0.550 OA
ATOM      4  O   UNL     1       6.355  14.438   0.379  1.00  0.00    -0.550 OA
ENDBRANCH   1   2
BRANCH   1   5
ATOM      5  C   UNL     1       2.707  13.865   0.684  1.00  0.00     0.003 C 
ATOM      6  C   UNL     1       1.671  13.942   1.805  1.00  0.00     0.004 C 
ENDBRANCH   1   5
TORSDOF 2
ENDMDL
MODEL 8
REMARK VINA RESULT:    -3.159      3.361      4.265
REMARK INTER + INTRA:          -3.536
REMARK INTER:                  -3.498
REMARK INTRA:                  -0.038
REMARK UNBOUND:                -0.008
REMARK SMILES CCCC(=O)[O-]
REMARK SMILES IDX 3 1 4 2 5 3 6 4 2 5 1 6
REMARK H PARENT
REMARK Flexibility Score: inf
ROOT
ATOM      1  C   UNL     1       6.581  13.832   1.489  1.00  0.00     0.052 C 
ENDROOT
BRANCH   1   2
ATOM      2  C   UNL     1       7.348  14.487   2.598  1.00  0.00     0.041 C 
ATOM      3  O   UNL     1       6.740  15.097   3.515  1.00  0.00    -0.550 OA
ATOM      4  O   UNL     1       8.734  14.391   2.635  1.00  0.00    -0.550 OA
ENDBRANCH   1   2
BRANCH   1   5
ATOM      5  C   UNL     1       5.099  14.222   1.518  1.00  0.00     0.003 C 
ATOM      6  C   UNL     1       4.204  13.073   1.980  1.00  0.00     0.004 C 
ENDBRANCH   1   5
TORSDOF 2
ENDMDL
MODEL 9
REMARK VINA RESULT:    -3.155      2.633      3.196
REMARK INTER + INTRA:          -3.531
REMARK INTER:                  -3.521
REMARK INTRA:                  -0.010
REMARK UNBOUND:                -0.008
REMARK SMILES CCCC(=O)[O-]
REMARK SMILES IDX 3 1 4 2 5 3 6 4 2 5 1 6
REMARK H PARENT
REMARK Flexibility Score: inf
ROOT
ATOM      1  C   UNL     1       2.953  15.038   3.417  1.00  0.00     0.052 C 
ENDROOT
BRANCH   1   2
ATOM      2  C   UNL     1       3.173  14.655   1.985  1.00  0.00     0.041 C 
ATOM      3  O   UNL     1       2.665  13.598   1.526  1.00  0.00    -0.550 OA
ATOM      4  O   UNL     1       3.912  15.484   1.149  1.00  0.00    -0.550 OA
ENDBRANCH   1   2
BRANCH   1   5
ATOM      5  C   UNL     1       4.271  15.098   4.197  1.00  0.00     0.003 C 
ATOM      6  C   UNL     1       4.222  16.105   5.345  1.00  0.00     0.004 C 
ENDBRANCH   1   5
TORSDOF 2
ENDMDL
