MODEL 1
REMARK VINA RESULT:    -3.768      0.000      0.000
REMARK INTER + INTRA:          -4.344
REMARK INTER:                  -4.209
REMARK INTRA:                  -0.135
REMARK UNBOUND:                -0.135
REMARK SMILES O=C([O-])C=Cc1ccccc1
REMARK SMILES IDX 4 1 5 2 2 3 1 4 3 5 6 6 7 7 11 8 8 9 10 10 9 11
REMARK H PARENT
REMARK Flexibility Score: inf
ROOT
ATOM      1  C   UNL     1      -0.422  -0.082  -7.589  1.00  0.00     0.025 C 
ATOM      2  C   UNL     1      -0.590   0.678  -8.682  1.00  0.00     0.010 C 
ENDROOT
BRANCH   1   3
ATOM      3  C   UNL     1      -1.315  -1.211  -7.285  1.00  0.00     0.064 C 
ATOM      4  O   UNL     1      -1.374  -2.187  -8.078  1.00  0.00    -0.545 OA
ATOM      5  O   UNL     1      -2.096  -1.219  -6.134  1.00  0.00    -0.545 OA
ENDBRANCH   1   3
BRANCH   2   6
ATOM      6  C   UNL     1       0.270   1.833  -9.055  1.00  0.00    -0.026 A 
ATOM      7  C   UNL     1       1.655   1.617  -9.177  1.00  0.00     0.008 A 
ATOM      8  C   UNL     1      -0.233   3.132  -9.292  1.00  0.00     0.008 A 
ATOM      9  C   UNL     1       2.514   2.664  -9.525  1.00  0.00     0.001 A 
ATOM     10  C   UNL     1       0.632   4.174  -9.640  1.00  0.00     0.001 A 
ATOM     11  C   UNL     1       2.003   3.941  -9.757  1.00  0.00     0.000 A 
ENDBRANCH   2   6
TORSDOF 2
ENDMDL
MODEL 2
REMARK VINA RESULT:    -3.748      0.446      1.522
REMARK INTER + INTRA:          -4.321
REMARK INTER:                  -4.192
REMARK INTRA:                  -0.129
REMARK UNBOUND:                -0.135
REMARK SMILES O=C([O-])C=Cc1ccccc1
REMARK SMILES IDX 4 1 5 2 2 3 1 4 3 5 6 6 7 7 11 8 8 9 10 10 9 11
REMARK H PARENT
REMARK Flexibility Score: inf
ROOT
ATOM      1  C   UNL     1      -0.349   0.239  -7.754  1.00  0.00     0.025 C 
ATOM      2  C   UNL     1      -0.452   0.993  -8.859  1.00  0.00     0.010 C 
ENDROOT
BRANCH   1   3
ATOM      3  C   UNL     1      -1.233  -0.912  -7.515  1.00  0.00     0.064 C 
ATOM      4  O   UNL     1      -1.475  -1.716  -8.453  1.00  0.00    -0.545 OA
ATOM      5  O   UNL     1      -1.810  -1.128  -6.267  1.00  0.00    -0.545 OA
ENDBRANCH   1   3
BRANCH   2   6
ATOM      6  C   UNL     1       0.405   2.169  -9.169  1.00  0.00    -0.026 A 
ATOM      7  C   UNL     1      -0.221   3.416  -9.353  1.00  0.00     0.008 A 
ATOM      8  C   UNL     1       1.810   2.096  -9.289  1.00  0.00     0.008 A 
ATOM      9  C   UNL     1       0.531   4.557  -9.646  1.00  0.00     0.001 A 
ATOM     10  C   UNL     1       2.556   3.242  -9.582  1.00  0.00     0.001 A 
ATOM     11  C   UNL     1       1.919   4.470  -9.760  1.00  0.00     0.000 A 
ENDBRANCH   2   6
TORSDOF 2
ENDMDL
MODEL 3
REMARK VINA RESULT:    -3.684     10.765     11.077
REMARK INTER + INTRA:          -4.250
REMARK INTER:                  -4.112
REMARK INTRA:                  -0.138
REMARK UNBOUND:                -0.135
REMARK SMILES O=C([O-])C=Cc1ccccc1
REMARK SMILES IDX 4 1 5 2 2 3 1 4 3 5 6 6 7 7 11 8 8 9 10 10 9 11
REMARK H PARENT
REMARK Flexibility Score: inf
ROOT
ATOM      1  C   UNL     1      -2.655   5.584   0.846  1.00  0.00     0.025 C 
ATOM      2  C   UNL     1      -2.397   6.899   0.778  1.00  0.00     0.010 C 
ENDROOT
BRANCH   1   3
ATOM      3  C   UNL     1      -4.020   5.070   1.040  1.00  0.00     0.064 C 
ATOM      4  O   UNL     1      -4.397   4.731   2.192  1.00  0.00    -0.545 OA
ATOM      5  O   UNL     1      -4.902   4.952  -0.029  1.00  0.00    -0.545 OA
ENDBRANCH   1   3
BRANCH   2   6
ATOM      6  C   UNL     1      -1.046   7.491   0.584  1.00  0.00    -0.026 A 
ATOM      7  C   UNL     1       0.036   6.917   1.277  1.00  0.00     0.008 A 
ATOM      8  C   UNL     1      -0.797   8.598  -0.258  1.00  0.00     0.008 A 
ATOM      9  C   UNL     1       1.329   7.430   1.134  1.00  0.00     0.001 A 
ATOM     10  C   UNL     1       0.499   9.106  -0.396  1.00  0.00     0.001 A 
ATOM     11  C   UNL     1       1.560   8.523   0.298  1.00  0.00     0.000 A 
ENDBRANCH   2   6
TORSDOF 2
ENDMDL
MODEL 4
REMARK VINA RESULT:    -3.675      4.901      8.155
REMARK INTER + INTRA:          -4.240
REMARK INTER:                  -4.106
REMARK INTRA:                  -0.134
REMARK UNBOUND:                -0.135
REMARK SMILES O=C([O-])C=Cc1ccccc1
REMARK SMILES IDX 4 1 5 2 2 3 1 4 3 5 6 6 7 7 11 8 8 9 10 10 9 11
REMARK H PARENT
REMARK Flexibility Score: inf
ROOT
ATOM      1  C   UNL     1      -3.315  -1.692  -6.025  1.00  0.00     0.025 C 
ATOM      2  C   UNL     1      -4.494  -1.052  -6.015  1.00  0.00     0.010 C 
ENDROOT
BRANCH   1   3
ATOM      3  C   UNL     1      -2.190  -1.230  -6.853  1.00  0.00     0.064 C 
ATOM      4  O   UNL     1      -2.265  -1.314  -8.106  1.00  0.00    -0.545 OA
ATOM      5  O   UNL     1      -1.041  -0.702  -6.273  1.00  0.00    -0.545 OA
ENDBRANCH   1   3
BRANCH   2   6
ATOM      6  C   UNL     1      -5.675  -1.459  -5.206  1.00  0.00    -0.026 A 
ATOM      7  C   UNL     1      -5.527  -1.538  -3.809  1.00  0.00     0.008 A 
ATOM      8  C   UNL     1      -6.933  -1.769  -5.770  1.00  0.00     0.008 A 
ATOM      9  C   UNL     1      -6.601  -1.914  -2.996  1.00  0.00     0.001 A 
ATOM     10  C   UNL     1      -8.003  -2.145  -4.950  1.00  0.00     0.001 A 
ATOM     11  C   UNL     1      -7.837  -2.216  -3.567  1.00  0.00     0.000 A 
ENDBRANCH   2   6
TORSDOF 2
ENDMDL
MODEL 5
REMARK VINA RESULT:    -3.642     10.766     11.175
REMARK INTER + INTRA:          -4.202
REMARK INTER:                  -4.076
REMARK INTRA:                  -0.126
REMARK UNBOUND:                -0.135
REMARK SMILES O=C([O-])C=Cc1ccccc1
REMARK SMILES IDX 4 1 5 2 2 3 1 4 3 5 6 6 7 7 11 8 8 9 10 10 9 11
REMARK H PARENT
REMARK Flexibility Score: inf
ROOT
ATOM      1  C   UNL     1      -3.039   5.463   0.705  1.00  0.00     0.025 C 
ATOM      2  C   UNL     1      -2.572   6.613   1.215  1.00  0.00     0.010 C 
ENDROOT
BRANCH   1   3
ATOM      3  C   UNL     1      -4.354   4.923   1.087  1.00  0.00     0.064 C 
ATOM      4  O   UNL     1      -5.248   4.789   0.211  1.00  0.00    -0.545 OA
ATOM      5  O   UNL     1      -4.628   4.559   2.401  1.00  0.00    -0.545 OA
ENDBRANCH   1   3
BRANCH   2   6
ATOM      6  C   UNL     1      -1.256   7.219   0.878  1.00  0.00    -0.026 A 
ATOM      7  C   UNL     1      -1.236   8.308  -0.014  1.00  0.00     0.008 A 
ATOM      8  C   UNL     1      -0.030   6.758   1.406  1.00  0.00     0.008 A 
ATOM      9  C   UNL     1      -0.030   8.920  -0.368  1.00  0.00     0.001 A 
ATOM     10  C   UNL     1       1.173   7.375   1.047  1.00  0.00     0.001 A 
ATOM     11  C   UNL     1       1.173   8.454   0.162  1.00  0.00     0.000 A 
ENDBRANCH   2   6
TORSDOF 2
ENDMDL
MODEL 6
REMARK VINA RESULT:    -3.494      5.766      6.457
REMARK INTER + INTRA:          -4.038
REMARK INTER:                  -3.893
REMARK INTRA:                  -0.144
REMARK UNBOUND:                -0.135
REMARK SMILES O=C([O-])C=Cc1ccccc1
REMARK SMILES IDX 4 1 5 2 2 3 1 4 3 5 6 6 7 7 11 8 8 9 10 10 9 11
REMARK H PARENT
REMARK Flexibility Score: inf
ROOT
ATOM      1  C   UNL     1       4.141  -1.619  -5.129  1.00  0.00     0.025 C 
ATOM      2  C   UNL     1       4.965  -0.778  -4.486  1.00  0.00     0.010 C 
ENDROOT
BRANCH   1   3
ATOM      3  C   UNL     1       3.479  -2.737  -4.437  1.00  0.00     0.064 C 
ATOM      4  O   UNL     1       2.277  -2.621  -4.081  1.00  0.00    -0.545 OA
ATOM      5  O   UNL     1       4.158  -3.920  -4.169  1.00  0.00    -0.545 OA
ENDBRANCH   1   3
BRANCH   2   6
ATOM      6  C   UNL     1       5.668   0.371  -5.117  1.00  0.00    -0.026 A 
ATOM      7  C   UNL     1       5.616   0.492  -6.518  1.00  0.00     0.008 A 
ATOM      8  C   UNL     1       6.384   1.342  -4.381  1.00  0.00     0.008 A 
ATOM      9  C   UNL     1       6.257   1.552  -7.168  1.00  0.00     0.001 A 
ATOM     10  C   UNL     1       7.023   2.399  -5.039  1.00  0.00     0.001 A 
ATOM     11  C   UNL     1       6.960   2.504  -6.428  1.00  0.00     0.000 A 
ENDBRANCH   2   6
TORSDOF 2
ENDMDL
MODEL 7
REMARK VINA RESULT:    -3.487      6.831      7.603
REMARK INTER + INTRA:          -4.029
REMARK INTER:                  -3.903
REMARK INTRA:                  -0.126
REMARK UNBOUND:                -0.135
REMARK SMILES O=C([O-])C=Cc1ccccc1
REMARK SMILES IDX 4 1 5 2 2 3 1 4 3 5 6 6 7 7 11 8 8 9 10 10 9 11
REMARK H PARENT
REMARK Flexibility Score: inf
ROOT
ATOM      1  C   UNL     1       4.480  -1.667  -3.700  1.00  0.00     0.025 C 
ATOM      2  C   UNL     1       5.150  -1.048  -4.684  1.00  0.00     0.010 C 
ENDROOT
BRANCH   1   3
ATOM      3  C   UNL     1       3.374  -2.596  -3.979  1.00  0.00     0.064 C 
ATOM      4  O   UNL     1       2.186  -2.212  -3.823  1.00  0.00    -0.545 OA
ATOM      5  O   UNL     1       3.618  -3.894  -4.414  1.00  0.00    -0.545 OA
ENDBRANCH   1   3
BRANCH   2   6
ATOM      6  C   UNL     1       6.276  -0.098  -4.479  1.00  0.00    -0.026 A 
ATOM      7  C   UNL     1       6.021   1.277  -4.634  1.00  0.00     0.008 A 
ATOM      8  C   UNL     1       7.585  -0.507  -4.139  1.00  0.00     0.008 A 
ATOM      9  C   UNL     1       7.039   2.218  -4.454  1.00  0.00     0.001 A 
ATOM     10  C   UNL     1       8.599   0.441  -3.960  1.00  0.00     0.001 A 
ATOM     11  C   UNL     1       8.326   1.800  -4.117  1.00  0.00     0.000 A 
ENDBRANCH   2   6
TORSDOF 2
ENDMDL
MODEL 8
REMARK VINA RESULT:    -3.465      5.768      6.429
REMARK INTER + INTRA:          -4.006
REMARK INTER:                  -3.874
REMARK INTRA:                  -0.131
REMARK UNBOUND:                -0.135
REMARK SMILES O=C([O-])C=Cc1ccccc1
REMARK SMILES IDX 4 1 5 2 2 3 1 4 3 5 6 6 7 7 11 8 8 9 10 10 9 11
REMARK H PARENT
REMARK Flexibility Score: inf
ROOT
ATOM      1  C   UNL     1       4.070  -1.509  -5.071  1.00  0.00     0.025 C 
ATOM      2  C   UNL     1       4.936  -0.662  -4.495  1.00  0.00     0.010 C 
ENDROOT
BRANCH   1   3
ATOM      3  C   UNL     1       3.394  -2.567  -4.304  1.00  0.00     0.064 C 
ATOM      4  O   UNL     1       2.282  -2.328  -3.764  1.00  0.00    -0.545 OA
ATOM      5  O   UNL     1       3.962  -3.829  -4.164  1.00  0.00    -0.545 OA
ENDBRANCH   1   3
BRANCH   2   6
ATOM      6  C   UNL     1       5.657   0.429  -5.204  1.00  0.00    -0.026 A 
ATOM      7  C   UNL     1       6.357   1.374  -4.431  1.00  0.00     0.008 A 
ATOM      8  C   UNL     1       5.672   0.564  -6.610  1.00  0.00     0.008 A 
ATOM      9  C   UNL     1       7.054   2.421  -5.041  1.00  0.00     0.001 A 
ATOM     10  C   UNL     1       6.372   1.615  -7.213  1.00  0.00     0.001 A 
ATOM     11  C   UNL     1       7.061   2.541  -6.430  1.00  0.00     0.000 A 
ENDBRANCH   2   6
TORSDOF 2
ENDMDL
MODEL 9
REMARK VINA RESULT:    -3.209      6.109      7.597
REMARK INTER + INTRA:          -3.719
REMARK INTER:                  -3.583
REMARK INTRA:                  -0.136
REMARK UNBOUND:                -0.135
REMARK SMILES O=C([O-])C=Cc1ccccc1
REMARK SMILES IDX 4 1 5 2 2 3 1 4 3 5 6 6 7 7 11 8 8 9 10 10 9 11
REMARK H PARENT
REMARK Flexibility Score: inf
ROOT
ATOM      1  C   UNL     1      -3.971  -3.802  -3.895  1.00  0.00     0.025 C 
ATOM      2  C   UNL     1      -4.790  -2.741  -3.929  1.00  0.00     0.010 C 
ENDROOT
BRANCH   1   3
ATOM      3  C   UNL     1      -3.701  -4.534  -2.647  1.00  0.00     0.064 C 
ATOM      4  O   UNL     1      -4.652  -4.806  -1.869  1.00  0.00    -0.545 OA
ATOM      5  O   UNL     1      -2.411  -4.932  -2.312  1.00  0.00    -0.545 OA
ENDBRANCH   1   3
BRANCH   2   6
ATOM      6  C   UNL     1      -5.110  -1.953  -5.149  1.00  0.00    -0.026 A 
ATOM      7  C   UNL     1      -4.042  -1.409  -5.887  1.00  0.00     0.008 A 
ATOM      8  C   UNL     1      -6.429  -1.723  -5.602  1.00  0.00     0.008 A 
ATOM      9  C   UNL     1      -4.281  -0.660  -7.044  1.00  0.00     0.001 A 
ATOM     10  C   UNL     1      -6.659  -0.972  -6.760  1.00  0.00     0.001 A 
ATOM     11  C   UNL     1      -5.588  -0.442  -7.479  1.00  0.00     0.000 A 
ENDBRANCH   2   6
TORSDOF 2
ENDMDL
