MODEL 1
REMARK VINA RESULT:    -3.045      0.000      0.000
REMARK INTER + INTRA:          -3.600
REMARK INTER:                  -3.579
REMARK INTRA:                  -0.020
REMARK UNBOUND:                -0.020
REMARK SMILES CCCCC(=O)[O-]
REMARK SMILES IDX 4 1 5 2 6 3 7 4 3 5 2 6 1 7
REMARK H PARENT
REMARK Flexibility Score: inf
ROOT
ATOM      1  C   UNL     1       4.308   7.833 402.568  1.00  0.00     0.053 C 
ENDROOT
BRANCH   1   2
ATOM      2  C   UNL     1       3.498   7.889 403.826  1.00  0.00     0.041 C 
ATOM      3  O   UNL     1       4.060   7.779 404.947  1.00  0.00    -0.550 OA
ATOM      4  O   UNL     1       2.128   8.111 403.761  1.00  0.00    -0.550 OA
ENDBRANCH   1   2
BRANCH   1   5
ATOM      5  C   UNL     1       5.746   8.283 402.837  1.00  0.00     0.006 C 
BRANCH   5   6
ATOM      6  C   UNL     1       6.397   8.831 401.563  1.00  0.00    -0.003 C 
ATOM      7  C   UNL     1       7.288  10.031 401.870  1.00  0.00     0.004 C 
ENDBRANCH   5   6
ENDBRANCH   1   5
TORSDOF 3
ENDMDL
MODEL 2
REMARK VINA RESULT:    -3.005      8.480      9.385
REMARK INTER + INTRA:          -3.553
REMARK INTER:                  -3.532
REMARK INTRA:                  -0.021
REMARK UNBOUND:                -0.020
REMARK SMILES CCCCC(=O)[O-]
REMARK SMILES IDX 4 1 5 2 6 3 7 4 3 5 2 6 1 7
REMARK H PARENT
REMARK Flexibility Score: inf
ROOT
ATOM      1  C   UNL     1       3.735   0.382 400.210  1.00  0.00     0.053 C 
ENDROOT
BRANCH   1   2
ATOM      2  C   UNL     1       3.608   1.540 401.150  1.00  0.00     0.041 C 
ATOM      3  O   UNL     1       3.507   2.712 400.702  1.00  0.00    -0.550 OA
ATOM      4  O   UNL     1       3.553   1.319 402.521  1.00  0.00    -0.550 OA
ENDBRANCH   1   2
BRANCH   1   5
ATOM      5  C   UNL     1       4.078  -0.897 400.979  1.00  0.00     0.006 C 
BRANCH   5   6
ATOM      6  C   UNL     1       3.806  -2.140 400.125  1.00  0.00    -0.003 C 
ATOM      7  C   UNL     1       3.228  -3.272 400.968  1.00  0.00     0.004 C 
ENDBRANCH   5   6
ENDBRANCH   1   5
TORSDOF 3
ENDMDL
MODEL 3
REMARK VINA RESULT:    -2.996      8.476      9.341
REMARK INTER + INTRA:          -3.542
REMARK INTER:                  -3.518
REMARK INTRA:                  -0.024
REMARK UNBOUND:                -0.020
REMARK SMILES CCCCC(=O)[O-]
REMARK SMILES IDX 4 1 5 2 6 3 7 4 3 5 2 6 1 7
REMARK H PARENT
REMARK Flexibility Score: inf
ROOT
ATOM      1  C   UNL     1       3.647   0.379 400.270  1.00  0.00     0.053 C 
ENDROOT
BRANCH   1   2
ATOM      2  C   UNL     1       3.578   1.521 401.234  1.00  0.00     0.041 C 
ATOM      3  O   UNL     1       3.582   1.305 402.474  1.00  0.00    -0.550 OA
ATOM      4  O   UNL     1       3.559   2.828 400.763  1.00  0.00    -0.550 OA
ENDBRANCH   1   2
BRANCH   1   5
ATOM      5  C   UNL     1       4.053  -0.909 400.993  1.00  0.00     0.006 C 
BRANCH   5   6
ATOM      6  C   UNL     1       3.733  -2.141 400.140  1.00  0.00    -0.003 C 
ATOM      7  C   UNL     1       3.254  -3.302 401.006  1.00  0.00     0.004 C 
ENDBRANCH   5   6
ENDBRANCH   1   5
TORSDOF 3
ENDMDL
MODEL 4
REMARK VINA RESULT:    -2.920      8.384      8.997
REMARK INTER + INTRA:          -3.452
REMARK INTER:                  -3.360
REMARK INTRA:                  -0.092
REMARK UNBOUND:                -0.020
REMARK SMILES CCCCC(=O)[O-]
REMARK SMILES IDX 4 1 5 2 6 3 7 4 3 5 2 6 1 7
REMARK H PARENT
REMARK Flexibility Score: inf
ROOT
ATOM      1  C   UNL     1       4.447   0.082 400.141  1.00  0.00     0.053 C 
ENDROOT
BRANCH   1   2
ATOM      2  C   UNL     1       4.057  -1.278 400.627  1.00  0.00     0.041 C 
ATOM      3  O   UNL     1       4.030  -1.527 401.860  1.00  0.00    -0.550 OA
ATOM      4  O   UNL     1       3.675  -2.258 399.718  1.00  0.00    -0.550 OA
ENDBRANCH   1   2
BRANCH   1   5
ATOM      5  C   UNL     1       3.282   1.063 400.302  1.00  0.00     0.006 C 
BRANCH   5   6
ATOM      6  C   UNL     1       3.761   2.390 400.901  1.00  0.00    -0.003 C 
ATOM      7  C   UNL     1       4.393   2.179 402.273  1.00  0.00     0.004 C 
ENDBRANCH   5   6
ENDBRANCH   1   5
TORSDOF 3
ENDMDL
MODEL 5
REMARK VINA RESULT:    -2.910      8.341      9.001
REMARK INTER + INTRA:          -3.440
REMARK INTER:                  -3.352
REMARK INTRA:                  -0.088
REMARK UNBOUND:                -0.020
REMARK SMILES CCCCC(=O)[O-]
REMARK SMILES IDX 4 1 5 2 6 3 7 4 3 5 2 6 1 7
REMARK H PARENT
REMARK Flexibility Score: inf
ROOT
ATOM      1  C   UNL     1       4.406   0.101 400.079  1.00  0.00     0.053 C 
ENDROOT
BRANCH   1   2
ATOM      2  C   UNL     1       4.036  -1.253 400.598  1.00  0.00     0.041 C 
ATOM      3  O   UNL     1       3.743  -2.180 399.798  1.00  0.00    -0.550 OA
ATOM      4  O   UNL     1       4.064  -1.505 401.964  1.00  0.00    -0.550 OA
ENDBRANCH   1   2
BRANCH   1   5
ATOM      5  C   UNL     1       3.271   1.099 400.329  1.00  0.00     0.006 C 
BRANCH   5   6
ATOM      6  C   UNL     1       3.815   2.419 400.885  1.00  0.00    -0.003 C 
ATOM      7  C   UNL     1       4.385   2.235 402.288  1.00  0.00     0.004 C 
ENDBRANCH   5   6
ENDBRANCH   1   5
TORSDOF 3
ENDMDL
MODEL 6
REMARK VINA RESULT:    -2.841      2.836      4.227
REMARK INTER + INTRA:          -3.360
REMARK INTER:                  -3.339
REMARK INTRA:                  -0.021
REMARK UNBOUND:                -0.020
REMARK SMILES CCCCC(=O)[O-]
REMARK SMILES IDX 4 1 5 2 6 3 7 4 3 5 2 6 1 7
REMARK H PARENT
REMARK Flexibility Score: inf
ROOT
ATOM      1  C   UNL     1       6.039   8.632 401.774  1.00  0.00     0.053 C 
ENDROOT
BRANCH   1   2
ATOM      2  C   UNL     1       7.280   9.413 402.076  1.00  0.00     0.041 C 
ATOM      3  O   UNL     1       7.373  10.065 403.149  1.00  0.00    -0.550 OA
ATOM      4  O   UNL     1       8.354   9.381 401.194  1.00  0.00    -0.550 OA
ENDBRANCH   1   2
BRANCH   1   5
ATOM      5  C   UNL     1       5.317   8.252 403.069  1.00  0.00     0.006 C 
BRANCH   5   6
ATOM      6  C   UNL     1       3.968   7.589 402.771  1.00  0.00    -0.003 C 
ATOM      7  C   UNL     1       2.833   8.289 403.512  1.00  0.00     0.004 C 
ENDBRANCH   5   6
ENDBRANCH   1   5
TORSDOF 3
ENDMDL
MODEL 7
REMARK VINA RESULT:    -2.786     13.030     13.775
REMARK INTER + INTRA:          -3.295
REMARK INTER:                  -3.244
REMARK INTRA:                  -0.051
REMARK UNBOUND:                -0.020
REMARK SMILES CCCCC(=O)[O-]
REMARK SMILES IDX 4 1 5 2 6 3 7 4 3 5 2 6 1 7
REMARK H PARENT
REMARK Flexibility Score: inf
ROOT
ATOM      1  C   UNL     1      15.265   4.349 395.868  1.00  0.00     0.053 C 
ENDROOT
BRANCH   1   2
ATOM      2  C   UNL     1      15.746   3.999 397.241  1.00  0.00     0.041 C 
ATOM      3  O   UNL     1      16.896   4.347 397.618  1.00  0.00    -0.550 OA
ATOM      4  O   UNL     1      14.905   3.331 398.123  1.00  0.00    -0.550 OA
ENDBRANCH   1   2
BRANCH   1   5
ATOM      5  C   UNL     1      14.238   3.323 395.383  1.00  0.00     0.006 C 
BRANCH   5   6
ATOM      6  C   UNL     1      14.526   2.898 393.938  1.00  0.00    -0.003 C 
ATOM      7  C   UNL     1      15.662   3.721 393.338  1.00  0.00     0.004 C 
ENDBRANCH   5   6
ENDBRANCH   1   5
TORSDOF 3
ENDMDL
MODEL 8
REMARK VINA RESULT:    -2.781      7.340      7.848
REMARK INTER + INTRA:          -3.289
REMARK INTER:                  -3.162
REMARK INTRA:                  -0.127
REMARK UNBOUND:                -0.020
REMARK SMILES CCCCC(=O)[O-]
REMARK SMILES IDX 4 1 5 2 6 3 7 4 3 5 2 6 1 7
REMARK H PARENT
REMARK Flexibility Score: inf
ROOT
ATOM      1  C   UNL     1       3.576   0.613 400.252  1.00  0.00     0.053 C 
ENDROOT
BRANCH   1   2
ATOM      2  C   UNL     1       3.654   1.728 401.248  1.00  0.00     0.041 C 
ATOM      3  O   UNL     1       3.574   2.925 400.866  1.00  0.00    -0.550 OA
ATOM      4  O   UNL     1       3.765   1.443 402.603  1.00  0.00    -0.550 OA
ENDBRANCH   1   2
BRANCH   1   5
ATOM      5  C   UNL     1       4.868  -0.210 400.268  1.00  0.00     0.006 C 
BRANCH   5   6
ATOM      6  C   UNL     1       6.045   0.606 399.722  1.00  0.00    -0.003 C 
ATOM      7  C   UNL     1       7.186   0.673 400.732  1.00  0.00     0.004 C 
ENDBRANCH   5   6
ENDBRANCH   1   5
TORSDOF 3
ENDMDL
