MODEL 1
REMARK VINA RESULT:     7.276      0.000      0.000
REMARK INTER + INTRA:           8.542
REMARK INTER:                   9.191
REMARK INTRA:                  -0.648
REMARK UNBOUND:                -0.648
REMARK SMILES O=C(C=Cc1ccc(O)cc1)c1ccc(O)cc1O
REMARK SMILES IDX 4 1 3 2 5 3 6 4 7 5 8 6 11 7 10 8 9 9 2 11 1 12 12 13 18 14
REMARK SMILES IDX 13 15 17 16 14 17 15 18 19 19 16 21
REMARK H PARENT 9 10 19 20 16 22
REMARK Flexibility Score: inf
ROOT
ATOM      1  C   UNL     1     -14.915  -2.105  14.399  1.00  0.00     0.012 C 
ATOM      2  C   UNL     1     -15.695  -2.837  13.590  1.00  0.00     0.053 C 
ENDROOT
BRANCH   1   3
ATOM      3  C   UNL     1     -13.907  -2.685  15.321  1.00  0.00    -0.025 A 
ATOM      4  C   UNL     1     -13.123  -1.894  16.185  1.00  0.00     0.012 A 
ATOM      5  C   UNL     1     -12.190  -2.490  17.041  1.00  0.00     0.047 A 
ATOM      6  C   UNL     1     -12.031  -3.878  17.052  1.00  0.00     0.115 A 
ATOM      7  C   UNL     1     -13.750  -4.082  15.352  1.00  0.00     0.012 A 
ATOM      8  C   UNL     1     -12.816  -4.674  16.208  1.00  0.00     0.047 A 
BRANCH   6   9
ATOM      9  O   UNL     1     -11.095  -4.457  17.906  1.00  0.00    -0.508 OA
ATOM     10  H   UNL     1     -10.398  -3.898  18.385  1.00  0.00     0.293 HD
ENDBRANCH   6   9
ENDBRANCH   1   3
BRANCH   2  11
ATOM     11  C   UNL     1     -16.700  -2.241  12.684  1.00  0.00     0.189 C 
ATOM     12  O   UNL     1     -17.595  -1.513  13.195  1.00  0.00    -0.289 OA
BRANCH  11  13
ATOM     13  C   UNL     1     -16.682  -2.432  11.210  1.00  0.00     0.064 A 
ATOM     14  C   UNL     1     -17.881  -2.634  10.490  1.00  0.00     0.130 A 
ATOM     15  C   UNL     1     -15.467  -2.355  10.503  1.00  0.00     0.020 A 
ATOM     16  C   UNL     1     -17.844  -2.776   9.096  1.00  0.00     0.093 A 
ATOM     17  C   UNL     1     -15.441  -2.504   9.115  1.00  0.00     0.047 A 
ATOM     18  C   UNL     1     -16.626  -2.715   8.407  1.00  0.00     0.119 A 
BRANCH  14  19
ATOM     19  O   UNL     1     -19.102  -2.704  11.162  1.00  0.00    -0.507 OA
ATOM     20  H   UNL     1     -19.799  -1.973  11.073  1.00  0.00     0.293 HD
ENDBRANCH  14  19
BRANCH  18  21
ATOM     21  O   UNL     1     -16.584  -2.857   7.022  1.00  0.00    -0.508 OA
ATOM     22  H   UNL     1     -15.900  -3.454   6.570  1.00  0.00     0.293 HD
ENDBRANCH  18  21
ENDBRANCH  11  13
ENDBRANCH   2  11
TORSDOF 6
ENDMDL
MODEL 2
REMARK VINA RESULT:     9.290      0.992      1.600
REMARK INTER + INTRA:          11.085
REMARK INTER:                  11.154
REMARK INTRA:                  -0.068
REMARK UNBOUND:                -0.648
REMARK SMILES O=C(C=Cc1ccc(O)cc1)c1ccc(O)cc1O
REMARK SMILES IDX 4 1 3 2 5 3 6 4 7 5 8 6 11 7 10 8 9 9 2 11 1 12 12 13 18 14
REMARK SMILES IDX 13 15 17 16 14 17 15 18 19 19 16 21
REMARK H PARENT 9 10 19 20 16 22
REMARK Flexibility Score: inf
ROOT
ATOM      1  C   UNL     1     -15.180  -2.105  14.195  1.00  0.00     0.012 C 
ATOM      2  C   UNL     1     -15.770  -2.817  13.224  1.00  0.00     0.053 C 
ENDROOT
BRANCH   1   3
ATOM      3  C   UNL     1     -14.149  -2.652  15.112  1.00  0.00    -0.025 A 
ATOM      4  C   UNL     1     -13.389  -1.838  15.975  1.00  0.00     0.012 A 
ATOM      5  C   UNL     1     -12.433  -2.404  16.826  1.00  0.00     0.047 A 
ATOM      6  C   UNL     1     -12.228  -3.785  16.833  1.00  0.00     0.115 A 
ATOM      7  C   UNL     1     -13.945  -4.043  15.138  1.00  0.00     0.012 A 
ATOM      8  C   UNL     1     -12.988  -4.606  15.990  1.00  0.00     0.047 A 
BRANCH   6   9
ATOM      9  O   UNL     1     -11.269  -4.335  17.682  1.00  0.00    -0.508 OA
ATOM     10  H   UNL     1     -10.290  -4.081  17.610  1.00  0.00     0.293 HD
ENDBRANCH   6   9
ENDBRANCH   1   3
BRANCH   2  11
ATOM     11  C   UNL     1     -16.801  -2.257  12.325  1.00  0.00     0.189 C 
ATOM     12  O   UNL     1     -17.721  -1.566  12.844  1.00  0.00    -0.289 OA
BRANCH  11  13
ATOM     13  C   UNL     1     -16.782  -2.439  10.850  1.00  0.00     0.064 A 
ATOM     14  C   UNL     1     -15.576  -2.328  10.122  1.00  0.00     0.130 A 
ATOM     15  C   UNL     1     -17.963  -2.781  10.166  1.00  0.00     0.020 A 
ATOM     16  C   UNL     1     -15.574  -2.538   8.736  1.00  0.00     0.093 A 
ATOM     17  C   UNL     1     -17.951  -2.983   8.784  1.00  0.00     0.047 A 
ATOM     18  C   UNL     1     -16.760  -2.862   8.065  1.00  0.00     0.119 A 
BRANCH  14  19
ATOM     19  O   UNL     1     -14.387  -2.000  10.775  1.00  0.00    -0.507 OA
ATOM     20  H   UNL     1     -13.487  -2.308  10.425  1.00  0.00     0.293 HD
ENDBRANCH  14  19
BRANCH  18  21
ATOM     21  O   UNL     1     -16.764  -3.070   6.687  1.00  0.00    -0.508 OA
ATOM     22  H   UNL     1     -15.921  -2.969   6.132  1.00  0.00     0.293 HD
ENDBRANCH  18  21
ENDBRANCH  11  13
ENDBRANCH   2  11
TORSDOF 6
ENDMDL
MODEL 3
REMARK VINA RESULT:    10.096      1.309      7.708
REMARK INTER + INTRA:          12.103
REMARK INTER:                  12.721
REMARK INTRA:                  -0.617
REMARK UNBOUND:                -0.648
REMARK SMILES O=C(C=Cc1ccc(O)cc1)c1ccc(O)cc1O
REMARK SMILES IDX 4 1 3 2 5 3 6 4 7 5 8 6 11 7 10 8 9 9 2 11 1 12 12 13 18 14
REMARK SMILES IDX 13 15 17 16 14 17 15 18 19 19 16 21
REMARK H PARENT 9 10 19 20 16 22
REMARK Flexibility Score: inf
ROOT
ATOM      1  C   UNL     1     -16.556  -2.162  12.241  1.00  0.00     0.012 C 
ATOM      2  C   UNL     1     -15.448  -2.438  12.945  1.00  0.00     0.053 C 
ENDROOT
BRANCH   1   3
ATOM      3  C   UNL     1     -16.688  -2.401  10.782  1.00  0.00    -0.025 A 
ATOM      4  C   UNL     1     -17.908  -2.767  10.178  1.00  0.00     0.012 A 
ATOM      5  C   UNL     1     -17.981  -2.974   8.796  1.00  0.00     0.047 A 
ATOM      6  C   UNL     1     -16.846  -2.812   7.999  1.00  0.00     0.115 A 
ATOM      7  C   UNL     1     -15.555  -2.226   9.968  1.00  0.00     0.012 A 
ATOM      8  C   UNL     1     -15.632  -2.435   8.587  1.00  0.00     0.047 A 
BRANCH   6   9
ATOM      9  O   UNL     1     -16.933  -3.027   6.625  1.00  0.00    -0.508 OA
ATOM     10  H   UNL     1     -16.169  -3.442   6.104  1.00  0.00     0.293 HD
ENDBRANCH   6   9
ENDBRANCH   1   3
BRANCH   2  11
ATOM     11  C   UNL     1     -15.333  -2.186  14.397  1.00  0.00     0.189 C 
ATOM     12  O   UNL     1     -16.253  -1.527  14.955  1.00  0.00    -0.289 OA
BRANCH  11  13
ATOM     13  C   UNL     1     -14.212  -2.700  15.226  1.00  0.00     0.064 A 
ATOM     14  C   UNL     1     -13.407  -1.819  15.984  1.00  0.00     0.130 A 
ATOM     15  C   UNL     1     -13.973  -4.085  15.310  1.00  0.00     0.020 A 
ATOM     16  C   UNL     1     -12.377  -2.329  16.787  1.00  0.00     0.093 A 
ATOM     17  C   UNL     1     -12.941  -4.582  16.109  1.00  0.00     0.047 A 
ATOM     18  C   UNL     1     -12.140  -3.708  16.848  1.00  0.00     0.119 A 
BRANCH  14  19
ATOM     19  O   UNL     1     -13.626  -0.442  15.929  1.00  0.00    -0.507 OA
ATOM     20  H   UNL     1     -13.368   0.104  15.115  1.00  0.00     0.293 HD
ENDBRANCH  14  19
BRANCH  18  21
ATOM     21  O   UNL     1     -11.116  -4.220  17.643  1.00  0.00    -0.508 OA
ATOM     22  H   UNL     1     -11.008  -3.944  18.612  1.00  0.00     0.293 HD
ENDBRANCH  18  21
ENDBRANCH  11  13
ENDBRANCH   2  11
TORSDOF 6
ENDMDL
