MODEL 1
REMARK VINA RESULT:    -4.545      0.000      0.000
REMARK INTER + INTRA:          -5.986
REMARK INTER:                  -6.139
REMARK INTRA:                   0.153
REMARK UNBOUND:                 0.153
REMARK SMILES C=C1CCC=C(C)CC[C@H]2[C@@H]1CC2(C)C
REMARK SMILES IDX 11 1 12 2 13 3 10 4 14 5 15 6 9 7 8 8 6 9 7 10 5 11 2 13
REMARK SMILES IDX 1 14 3 15 4 16
REMARK H PARENT
REMARK Flexibility Score: 70.00
ROOT
ATOM      1  C   UNL     1     142.779 146.759 164.678  1.00  0.00     0.018 C 
ATOM      2  C   UNL     1     141.606 147.432 163.943  1.00  0.00     0.015 C 
ATOM      3  C   UNL     1     140.835 146.094 163.960  1.00  0.00    -0.031 C 
ATOM      4  C   UNL     1     142.130 145.378 164.442  1.00  0.00     0.002 C 
ATOM      5  C   UNL     1     139.757 146.081 165.065  1.00  0.00     0.011 C 
ATOM      6  C   UNL     1     140.206 145.677 162.609  1.00  0.00     0.011 C 
ENDROOT
BRANCH   4   7
ATOM      7  C   UNL     1     142.845 144.392 163.464  1.00  0.00     0.009 C 
BRANCH   7   8
ATOM      8  C   UNL     1     143.487 143.118 164.068  1.00  0.00     0.030 C 
BRANCH   8   9
ATOM      9  C   UNL     1     145.003 143.098 163.966  1.00  0.00    -0.077 C 
ATOM     10  C   UNL     1     145.651 142.078 163.067  1.00  0.00     0.039 C 
ATOM     11  C   UNL     1     145.800 143.970 164.632  1.00  0.00    -0.028 CG0
ATOM     12  G   UNL     1     145.305 145.054 165.569  1.00  0.00     0.000 G0
ENDBRANCH   8   9
ENDBRANCH   7   8
ENDBRANCH   4   7
BRANCH   1  13
ATOM     13  C   UNL     1     144.212 146.962 164.212  1.00  0.00    -0.074 C 
ATOM     14  C   UNL     1     144.402 147.416 162.959  1.00  0.00     0.008 C 
BRANCH  13  15
ATOM     15  C   UNL     1     145.421 146.503 165.006  1.00  0.00     0.035 C 
BRANCH  15  16
ATOM     16  C   UNL     1     145.317 145.070 165.577  1.00  0.00     0.032 CG0
ATOM     17  G   UNL     1     145.783 143.981 164.631  1.00  0.00     0.000 G0
ENDBRANCH  15  16
ENDBRANCH  13  15
ENDBRANCH   1  13
TORSDOF 0
ENDMDL
MODEL 2
REMARK VINA RESULT:    -4.531      2.272      4.375
REMARK INTER + INTRA:          -5.968
REMARK INTER:                  -6.055
REMARK INTRA:                   0.087
REMARK UNBOUND:                 0.153
REMARK SMILES C=C1CCC=C(C)CC[C@H]2[C@@H]1CC2(C)C
REMARK SMILES IDX 11 1 12 2 13 3 10 4 14 5 15 6 9 7 8 8 6 9 7 10 5 11 2 13
REMARK SMILES IDX 1 14 3 15 4 16
REMARK H PARENT
REMARK Flexibility Score: 70.00
ROOT
ATOM      1  C   UNL     1     144.044 142.927 164.519  1.00  0.00     0.018 C 
ATOM      2  C   UNL     1     143.413 141.788 163.699  1.00  0.00     0.015 C 
ATOM      3  C   UNL     1     144.724 140.981 163.824  1.00  0.00    -0.031 C 
ATOM      4  C   UNL     1     145.424 142.245 164.399  1.00  0.00     0.002 C 
ATOM      5  C   UNL     1     144.604 139.881 164.901  1.00  0.00     0.011 C 
ATOM      6  C   UNL     1     145.250 140.367 162.504  1.00  0.00     0.011 C 
ENDROOT
BRANCH   4   7
ATOM      7  C   UNL     1     146.515 142.953 163.535  1.00  0.00     0.009 C 
BRANCH   7   8
ATOM      8  C   UNL     1     147.670 143.670 164.279  1.00  0.00     0.030 C 
BRANCH   8   9
ATOM      9  C   UNL     1     147.672 145.177 164.080  1.00  0.00    -0.077 C 
ATOM     10  C   UNL     1     148.717 145.783 163.181  1.00  0.00     0.039 C 
ATOM     11  C   UNL     1     146.764 146.000 164.660  1.00  0.00    -0.028 CG0
ATOM     12  G   UNL     1     145.651 145.547 165.585  1.00  0.00     0.000 G0
ENDBRANCH   8   9
ENDBRANCH   7   8
ENDBRANCH   4   7
BRANCH   1  13
ATOM     13  C   UNL     1     143.922 144.375 164.068  1.00  0.00    -0.074 C 
ATOM     14  C   UNL     1     143.694 144.604 162.762  1.00  0.00     0.008 C 
BRANCH  13  15
ATOM     15  C   UNL     1     144.234 145.558 164.967  1.00  0.00     0.035 C 
BRANCH  15  16
ATOM     16  C   UNL     1     145.646 145.542 165.596  1.00  0.00     0.032 CG0
ATOM     17  G   UNL     1     146.753 146.000 164.667  1.00  0.00     0.000 G0
ENDBRANCH  15  16
ENDBRANCH  13  15
ENDBRANCH   1  13
TORSDOF 0
ENDMDL
MODEL 3
REMARK VINA RESULT:    -4.531      2.175      4.381
REMARK INTER + INTRA:          -5.968
REMARK INTER:                  -6.132
REMARK INTRA:                   0.165
REMARK UNBOUND:                 0.153
REMARK SMILES C=C1CCC=C(C)CC[C@H]2[C@@H]1CC2(C)C
REMARK SMILES IDX 11 1 12 2 13 3 10 4 14 5 15 6 9 7 8 8 6 9 7 10 5 11 2 13
REMARK SMILES IDX 1 14 3 15 4 16
REMARK H PARENT
REMARK Flexibility Score: 70.00
ROOT
ATOM      1  C   UNL     1     146.719 147.954 164.689  1.00  0.00     0.018 C 
ATOM      2  C   UNL     1     147.416 149.073 163.895  1.00  0.00     0.015 C 
ATOM      3  C   UNL     1     146.084 149.853 163.836  1.00  0.00    -0.031 C 
ATOM      4  C   UNL     1     145.348 148.597 164.385  1.00  0.00     0.002 C 
ATOM      5  C   UNL     1     146.060 151.000 164.870  1.00  0.00     0.011 C 
ATOM      6  C   UNL     1     145.698 150.397 162.439  1.00  0.00     0.011 C 
ENDROOT
BRANCH   4   7
ATOM      7  C   UNL     1     144.375 147.827 163.436  1.00  0.00     0.009 C 
BRANCH   7   8
ATOM      8  C   UNL     1     143.080 147.242 164.054  1.00  0.00     0.030 C 
BRANCH   8   9
ATOM      9  C   UNL     1     143.044 145.723 164.054  1.00  0.00    -0.077 C 
ATOM     10  C   UNL     1     142.028 145.026 163.187  1.00  0.00     0.039 C 
ATOM     11  C   UNL     1     143.898 144.963 164.784  1.00  0.00    -0.028 CG0
ATOM     12  G   UNL     1     144.976 145.509 165.700  1.00  0.00     0.000 G0
ENDBRANCH   8   9
ENDBRANCH   7   8
ENDBRANCH   4   7
BRANCH   1  13
ATOM     13  C   UNL     1     146.919 146.493 164.319  1.00  0.00    -0.074 C 
ATOM     14  C   UNL     1     147.402 146.220 163.094  1.00  0.00     0.008 C 
BRANCH  13  15
ATOM     15  C   UNL     1     146.427 145.340 165.176  1.00  0.00     0.035 C 
BRANCH  15  16
ATOM     16  C   UNL     1     144.985 145.497 165.709  1.00  0.00     0.032 CG0
ATOM     17  G   UNL     1     143.911 144.954 164.788  1.00  0.00     0.000 G0
ENDBRANCH  15  16
ENDBRANCH  13  15
ENDBRANCH   1  13
TORSDOF 0
ENDMDL
MODEL 4
REMARK VINA RESULT:    -4.497      2.658      6.076
REMARK INTER + INTRA:          -5.922
REMARK INTER:                  -6.002
REMARK INTRA:                   0.079
REMARK UNBOUND:                 0.153
REMARK SMILES C=C1CCC=C(C)CC[C@H]2[C@@H]1CC2(C)C
REMARK SMILES IDX 11 1 12 2 13 3 10 4 14 5 15 6 9 7 8 8 6 9 7 10 5 11 2 13
REMARK SMILES IDX 1 14 3 15 4 16
REMARK H PARENT
REMARK Flexibility Score: 70.00
ROOT
ATOM      1  C   UNL     1     147.672 144.129 164.454  1.00  0.00     0.018 C 
ATOM      2  C   UNL     1     148.782 143.526 163.575  1.00  0.00     0.015 C 
ATOM      3  C   UNL     1     149.637 144.793 163.795  1.00  0.00    -0.031 C 
ATOM      4  C   UNL     1     148.402 145.490 164.436  1.00  0.00     0.002 C 
ATOM      5  C   UNL     1     150.739 144.550 164.849  1.00  0.00     0.011 C 
ATOM      6  C   UNL     1     150.260 145.400 162.515  1.00  0.00     0.011 C 
ENDROOT
BRANCH   4   7
ATOM      7  C   UNL     1     147.728 146.670 163.667  1.00  0.00     0.009 C 
BRANCH   7   8
ATOM      8  C   UNL     1     147.049 147.782 164.507  1.00  0.00     0.030 C 
BRANCH   8   9
ATOM      9  C   UNL     1     145.543 147.850 164.312  1.00  0.00    -0.077 C 
ATOM     10  C   UNL     1     144.973 148.981 163.496  1.00  0.00     0.039 C 
ATOM     11  C   UNL     1     144.689 146.928 164.822  1.00  0.00    -0.028 CG0
ATOM     12  G   UNL     1     145.103 145.733 165.658  1.00  0.00     0.000 G0
ENDBRANCH   8   9
ENDBRANCH   7   8
ENDBRANCH   4   7
BRANCH   1  13
ATOM     13  C   UNL     1     146.218 144.095 164.008  1.00  0.00    -0.074 C 
ATOM     14  C   UNL     1     145.972 143.989 162.690  1.00  0.00     0.008 C 
BRANCH  13  15
ATOM     15  C   UNL     1     145.052 144.364 164.943  1.00  0.00     0.035 C 
BRANCH  15  16
ATOM     16  C   UNL     1     145.106 145.727 165.671  1.00  0.00     0.032 CG0
ATOM     17  G   UNL     1     144.691 146.911 164.821  1.00  0.00     0.000 G0
ENDBRANCH  15  16
ENDBRANCH  13  15
ENDBRANCH   1  13
TORSDOF 0
ENDMDL
MODEL 5
REMARK VINA RESULT:    -4.220      3.374      5.083
REMARK INTER + INTRA:          -5.547
REMARK INTER:                  -5.608
REMARK INTRA:                   0.062
REMARK UNBOUND:                 0.153
REMARK SMILES C=C1CCC=C(C)CC[C@H]2[C@@H]1CC2(C)C
REMARK SMILES IDX 11 1 12 2 13 3 10 4 14 5 15 6 9 7 8 8 6 9 7 10 5 11 2 13
REMARK SMILES IDX 1 14 3 15 4 16
REMARK H PARENT
REMARK Flexibility Score: 70.00
ROOT
ATOM      1  C   UNL     1     140.896 146.845 161.851  1.00  0.00     0.018 C 
ATOM      2  C   UNL     1     140.398 145.713 162.768  1.00  0.00     0.015 C 
ATOM      3  C   UNL     1     141.152 146.351 163.955  1.00  0.00    -0.031 C 
ATOM      4  C   UNL     1     141.863 147.313 162.961  1.00  0.00     0.002 C 
ATOM      5  C   UNL     1     140.188 147.130 164.878  1.00  0.00     0.011 C 
ATOM      6  C   UNL     1     142.008 145.374 164.796  1.00  0.00     0.011 C 
ENDROOT
BRANCH   4   7
ATOM      7  C   UNL     1     143.395 147.134 162.717  1.00  0.00     0.009 C 
BRANCH   7   8
ATOM      8  C   UNL     1     144.208 148.385 162.294  1.00  0.00     0.030 C 
BRANCH   8   9
ATOM      9  C   UNL     1     144.783 148.285 160.891  1.00  0.00    -0.077 C 
ATOM     10  C   UNL     1     146.247 147.970 160.733  1.00  0.00     0.039 C 
ATOM     11  C   UNL     1     144.034 148.446 159.771  1.00  0.00    -0.028 CG0
ATOM     12  G   UNL     1     142.551 148.760 159.759  1.00  0.00     0.000 G0
ENDBRANCH   8   9
ENDBRANCH   7   8
ENDBRANCH   4   7
BRANCH   1  13
ATOM     13  C   UNL     1     141.479 146.540 160.480  1.00  0.00    -0.074 C 
ATOM     14  C   UNL     1     142.042 145.332 160.296  1.00  0.00     0.008 C 
BRANCH  13  15
ATOM     15  C   UNL     1     141.628 147.582 159.386  1.00  0.00     0.035 C 
BRANCH  15  16
ATOM     16  C   UNL     1     142.548 148.771 159.743  1.00  0.00     0.032 CG0
ATOM     17  G   UNL     1     144.026 148.436 159.776  1.00  0.00     0.000 G0
ENDBRANCH  15  16
ENDBRANCH  13  15
ENDBRANCH   1  13
TORSDOF 0
ENDMDL
MODEL 6
REMARK VINA RESULT:    -4.127      1.992      4.582
REMARK INTER + INTRA:          -5.421
REMARK INTER:                  -5.496
REMARK INTRA:                   0.075
REMARK UNBOUND:                 0.153
REMARK SMILES C=C1CCC=C(C)CC[C@H]2[C@@H]1CC2(C)C
REMARK SMILES IDX 11 1 12 2 13 3 10 4 14 5 15 6 9 7 8 8 6 9 7 10 5 11 2 13
REMARK SMILES IDX 1 14 3 15 4 16
REMARK H PARENT
REMARK Flexibility Score: 70.00
ROOT
ATOM      1  C   UNL     1     142.941 142.383 163.088  1.00  0.00     0.018 C 
ATOM      2  C   UNL     1     143.350 140.905 162.964  1.00  0.00     0.015 C 
ATOM      3  C   UNL     1     143.634 140.863 164.481  1.00  0.00    -0.031 C 
ATOM      4  C   UNL     1     143.490 142.411 164.531  1.00  0.00     0.002 C 
ATOM      5  C   UNL     1     142.482 140.179 165.249  1.00  0.00     0.011 C 
ATOM      6  C   UNL     1     144.985 140.221 164.882  1.00  0.00     0.011 C 
ENDROOT
BRANCH   4   7
ATOM      7  C   UNL     1     144.764 143.270 164.810  1.00  0.00     0.009 C 
BRANCH   7   8
ATOM      8  C   UNL     1     144.566 144.659 165.468  1.00  0.00     0.030 C 
BRANCH   8   9
ATOM      9  C   UNL     1     144.958 145.817 164.565  1.00  0.00    -0.077 C 
ATOM     10  C   UNL     1     146.283 146.495 164.797  1.00  0.00     0.039 C 
ATOM     11  C   UNL     1     144.179 146.255 163.545  1.00  0.00    -0.028 CG0
ATOM     12  G   UNL     1     142.825 145.678 163.179  1.00  0.00     0.000 G0
ENDBRANCH   8   9
ENDBRANCH   7   8
ENDBRANCH   4   7
BRANCH   1  13
ATOM     13  C   UNL     1     143.462 143.422 162.107  1.00  0.00    -0.074 C 
ATOM     14  C   UNL     1     144.645 143.182 161.514  1.00  0.00     0.008 C 
BRANCH  13  15
ATOM     15  C   UNL     1     142.818 144.784 161.913  1.00  0.00     0.035 C 
BRANCH  15  16
ATOM     16  C   UNL     1     142.818 145.686 163.168  1.00  0.00     0.032 CG0
ATOM     17  G   UNL     1     144.179 146.236 163.547  1.00  0.00     0.000 G0
ENDBRANCH  15  16
ENDBRANCH  13  15
ENDBRANCH   1  13
TORSDOF 0
ENDMDL
MODEL 7
REMARK VINA RESULT:    -4.092      5.156      6.971
REMARK INTER + INTRA:          -5.375
REMARK INTER:                  -5.551
REMARK INTRA:                   0.176
REMARK UNBOUND:                 0.153
REMARK SMILES C=C1CCC=C(C)CC[C@H]2[C@@H]1CC2(C)C
REMARK SMILES IDX 11 1 12 2 13 3 10 4 14 5 15 6 9 7 8 8 6 9 7 10 5 11 2 13
REMARK SMILES IDX 1 14 3 15 4 16
REMARK H PARENT
REMARK Flexibility Score: 70.00
ROOT
ATOM      1  C   UNL     1     149.847 144.102 161.797  1.00  0.00     0.018 C 
ATOM      2  C   UNL     1     150.205 145.094 162.917  1.00  0.00     0.015 C 
ATOM      3  C   UNL     1     149.438 144.217 163.931  1.00  0.00    -0.031 C 
ATOM      4  C   UNL     1     148.858 143.391 162.746  1.00  0.00     0.002 C 
ATOM      5  C   UNL     1     150.405 143.360 164.776  1.00  0.00     0.011 C 
ATOM      6  C   UNL     1     148.464 144.981 164.860  1.00  0.00     0.011 C 
ENDROOT
BRANCH   4   7
ATOM      7  C   UNL     1     147.333 143.507 162.432  1.00  0.00     0.009 C 
BRANCH   7   8
ATOM      8  C   UNL     1     146.588 142.220 161.995  1.00  0.00     0.030 C 
BRANCH   8   9
ATOM      9  C   UNL     1     146.095 142.266 160.559  1.00  0.00    -0.077 C 
ATOM     10  C   UNL     1     144.609 142.269 160.307  1.00  0.00     0.039 C 
ATOM     11  C   UNL     1     146.930 142.324 159.492  1.00  0.00    -0.028 CG0
ATOM     12  G   UNL     1     148.443 142.332 159.576  1.00  0.00     0.000 G0
ENDBRANCH   8   9
ENDBRANCH   7   8
ENDBRANCH   4   7
BRANCH   1  13
ATOM     13  C   UNL     1     149.320 144.594 160.457  1.00  0.00    -0.074 C 
ATOM     14  C   UNL     1     148.848 145.852 160.397  1.00  0.00     0.008 C 
BRANCH  13  15
ATOM     15  C   UNL     1     149.124 143.689 159.254  1.00  0.00     0.035 C 
BRANCH  15  16
ATOM     16  C   UNL     1     148.459 142.329 159.566  1.00  0.00     0.032 CG0
ATOM     17  G   UNL     1     146.946 142.334 159.477  1.00  0.00     0.000 G0
ENDBRANCH  15  16
ENDBRANCH  13  15
ENDBRANCH   1  13
TORSDOF 0
ENDMDL
MODEL 8
REMARK VINA RESULT:    -4.085      4.773      7.020
REMARK INTER + INTRA:          -5.366
REMARK INTER:                  -5.452
REMARK INTRA:                   0.087
REMARK UNBOUND:                 0.153
REMARK SMILES C=C1CCC=C(C)CC[C@H]2[C@@H]1CC2(C)C
REMARK SMILES IDX 11 1 12 2 13 3 10 4 14 5 15 6 9 7 8 8 6 9 7 10 5 11 2 13
REMARK SMILES IDX 1 14 3 15 4 16
REMARK H PARENT
REMARK Flexibility Score: 70.00
ROOT
ATOM      1  C   UNL     1     148.966 145.933 162.961  1.00  0.00     0.018 C 
ATOM      2  C   UNL     1     148.901 145.618 164.466  1.00  0.00     0.015 C 
ATOM      3  C   UNL     1     149.962 144.512 164.274  1.00  0.00    -0.031 C 
ATOM      4  C   UNL     1     149.803 144.656 162.733  1.00  0.00     0.002 C 
ATOM      5  C   UNL     1     151.358 144.989 164.730  1.00  0.00     0.011 C 
ATOM      6  C   UNL     1     149.628 143.154 164.938  1.00  0.00     0.011 C 
ENDROOT
BRANCH   4   7
ATOM      7  C   UNL     1     149.145 143.484 161.937  1.00  0.00     0.009 C 
BRANCH   7   8
ATOM      8  C   UNL     1     149.508 143.339 160.438  1.00  0.00     0.030 C 
BRANCH   8   9
ATOM      9  C   UNL     1     148.329 143.570 159.506  1.00  0.00    -0.077 C 
ATOM     10  C   UNL     1     147.618 142.371 158.934  1.00  0.00     0.039 C 
ATOM     11  C   UNL     1     147.874 144.805 159.182  1.00  0.00    -0.028 CG0
ATOM     12  G   UNL     1     148.475 146.107 159.675  1.00  0.00     0.000 G0
ENDBRANCH   8   9
ENDBRANCH   7   8
ENDBRANCH   4   7
BRANCH   1  13
ATOM     13  C   UNL     1     147.695 146.108 162.144  1.00  0.00    -0.074 C 
ATOM     14  C   UNL     1     146.594 145.454 162.556  1.00  0.00     0.008 C 
BRANCH  13  15
ATOM     15  C   UNL     1     147.657 146.815 160.801  1.00  0.00     0.035 C 
BRANCH  15  16
ATOM     16  C   UNL     1     148.464 146.123 159.680  1.00  0.00     0.032 CG0
ATOM     17  G   UNL     1     147.873 144.813 159.197  1.00  0.00     0.000 G0
ENDBRANCH  15  16
ENDBRANCH  13  15
ENDBRANCH   1  13
TORSDOF 0
ENDMDL
MODEL 9
REMARK VINA RESULT:    -3.926      2.432      5.166
REMARK INTER + INTRA:          -5.150
REMARK INTER:                  -5.352
REMARK INTRA:                   0.202
REMARK UNBOUND:                 0.153
REMARK SMILES C=C1CCC=C(C)CC[C@H]2[C@@H]1CC2(C)C
REMARK SMILES IDX 11 1 12 2 13 3 10 4 14 5 15 6 9 7 8 8 6 9 7 10 5 11 2 13
REMARK SMILES IDX 1 14 3 15 4 16
REMARK H PARENT
REMARK Flexibility Score: 70.00
ROOT
ATOM      1  C   UNL     1     146.680 144.740 163.479  1.00  0.00     0.018 C 
ATOM      2  C   UNL     1     148.099 145.201 163.856  1.00  0.00     0.015 C 
ATOM      3  C   UNL     1     148.602 143.748 163.715  1.00  0.00    -0.031 C 
ATOM      4  C   UNL     1     147.126 143.268 163.616  1.00  0.00     0.002 C 
ATOM      5  C   UNL     1     149.340 143.537 162.375  1.00  0.00     0.011 C 
ATOM      6  C   UNL     1     149.480 143.237 164.883  1.00  0.00     0.011 C 
ENDROOT
BRANCH   4   7
ATOM      7  C   UNL     1     146.532 142.432 164.794  1.00  0.00     0.009 C 
BRANCH   7   8
ATOM      8  C   UNL     1     145.375 141.452 164.470  1.00  0.00     0.030 C 
BRANCH   8   9
ATOM      9  C   UNL     1     144.742 141.694 163.110  1.00  0.00    -0.077 C 
ATOM     10  C   UNL     1     145.092 140.765 161.977  1.00  0.00     0.039 C 
ATOM     11  C   UNL     1     143.860 142.696 162.873  1.00  0.00    -0.028 CG0
ATOM     12  G   UNL     1     143.402 143.709 163.904  1.00  0.00     0.000 G0
ENDBRANCH   8   9
ENDBRANCH   7   8
ENDBRANCH   4   7
BRANCH   1  13
ATOM     13  C   UNL     1     145.472 145.197 164.282  1.00  0.00    -0.074 C 
ATOM     14  C   UNL     1     145.669 145.533 165.570  1.00  0.00     0.008 C 
BRANCH  13  15
ATOM     15  C   UNL     1     144.046 145.109 163.767  1.00  0.00     0.035 C 
BRANCH  15  16
ATOM     16  C   UNL     1     143.392 143.715 163.904  1.00  0.00     0.032 CG0
ATOM     17  G   UNL     1     143.868 142.694 162.890  1.00  0.00     0.000 G0
ENDBRANCH  15  16
ENDBRANCH  13  15
ENDBRANCH   1  13
TORSDOF 0
ENDMDL
