MODEL 1
REMARK VINA RESULT:    -4.044      0.000      0.000
REMARK INTER + INTRA:         -11.075
REMARK INTER:                  -8.536
REMARK INTRA:                  -2.538
REMARK UNBOUND:                -2.538
REMARK SMILES CCC(=O)CCCCC[C@@H]1NC(=O)[C@H]2CCCCN2C(=O)[C@H]([C@H](C)CC)NC(=O)[C@H](Cc2cn(OC)c3ccccc23)NC1=O
REMARK SMILES IDX 9 1 10 2 44 3 43 4 45 6 30 7 28 8 27 9 29 11 22 12 23 14
REMARK SMILES IDX 24 15 25 16 26 17 31 18 32 19 33 20 42 21 34 22 37 23 41 24
REMARK SMILES IDX 38 25 40 26 39 27 35 28 36 29 11 30 12 31 13 33 14 34 19 35
REMARK SMILES IDX 15 36 18 37 16 38 17 39 20 40 21 41 8 43 7 44 6 45 5 46 3 47
REMARK SMILES IDX 4 48 2 49 1 50
REMARK H PARENT 43 5 27 10 11 32
REMARK Flexibility Score: 80.00
ROOT
ATOM      1  C   UNL     1      66.714  28.500  61.380  1.00  0.00     0.035 C 
ENDROOT
BRANCH   1   2
ATOM      2  C   UNL     1      66.042  28.127  60.040  1.00  0.00     0.171 C 
BRANCH   2   3
ATOM      3  C   UNL     1      64.820  27.268  60.238  1.00  0.00     0.243 C 
ATOM      4  N   UNL     1      63.737  27.724  61.062  1.00  0.00    -0.342 N 
ATOM      5  H   UNL     1      63.912  28.516  61.720  1.00  0.00     0.164 HD
ATOM      6  O   UNL     1      64.753  26.144  59.670  1.00  0.00    -0.273 OA
BRANCH   4   7
ATOM      7  C   UNL     1      62.344  27.410  60.745  1.00  0.00     0.175 C 
BRANCH   7   8
ATOM      8  C   UNL     1      61.883  28.335  59.650  1.00  0.00     0.243 C 
ATOM      9  N   UNL     1      62.245  29.725  59.692  1.00  0.00    -0.342 N 
ATOM     10  H   UNL     1      62.860  30.042  60.476  1.00  0.00     0.164 HD
ATOM     11  O   UNL     1      61.124  27.896  58.745  1.00  0.00    -0.273 OA
BRANCH   9  12
ATOM     12  C   UNL     1      61.814  30.747  58.727  1.00  0.00     0.174 CG0
ATOM     13  G   UNL     1      63.009  31.304  57.979  1.00  0.00     0.000 G0
BRANCH  12  14
ATOM     14  C   UNL     1      60.899  31.835  59.365  1.00  0.00     0.018 C 
ATOM     15  C   UNL     1      60.826  31.652  60.895  1.00  0.00     0.010 C 
BRANCH  14  16
ATOM     16  C   UNL     1      59.473  31.782  58.754  1.00  0.00     0.002 C 
ATOM     17  C   UNL     1      59.479  31.505  57.250  1.00  0.00     0.004 C 
ENDBRANCH  14  16
ENDBRANCH  12  14
ENDBRANCH   9  12
ENDBRANCH   7   8
BRANCH   7  18
ATOM     18  C   UNL     1      61.466  27.546  62.001  1.00  0.00     0.073 C 
BRANCH  18  19
ATOM     19  C   UNL     1      60.405  26.486  62.028  1.00  0.00    -0.016 A 
ATOM     20  C   UNL     1      59.164  26.542  61.397  1.00  0.00     0.134 A 
ATOM     21  C   UNL     1      60.393  25.327  62.784  1.00  0.00     0.006 A 
ATOM     22  N   UNL     1      58.440  25.446  61.715  1.00  0.00    -0.191 N 
ATOM     23  C   UNL     1      59.179  24.717  62.576  1.00  0.00     0.087 A 
ATOM     24  C   UNL     1      61.336  24.808  63.672  1.00  0.00     0.011 A 
ATOM     25  C   UNL     1      58.813  23.567  63.281  1.00  0.00     0.030 A 
ATOM     26  C   UNL     1      61.004  23.635  64.370  1.00  0.00     0.001 A 
ATOM     27  C   UNL     1      59.747  23.021  64.180  1.00  0.00     0.002 A 
BRANCH  22  28
ATOM     28  O   UNL     1      57.160  25.190  61.263  1.00  0.00    -0.417 OA
ATOM     29  C   UNL     1      56.044  25.947  61.715  1.00  0.00     0.313 C 
ENDBRANCH  22  28
ENDBRANCH  18  19
ENDBRANCH   7  18
ENDBRANCH   4   7
ENDBRANCH   2   3
BRANCH   2  30
ATOM     30  N   UNL     1      65.701  29.317  59.253  1.00  0.00    -0.343 N 
ATOM     31  C   UNL     1      65.216  30.519  59.873  1.00  0.00     0.243 C 
ATOM     32  H   UNL     1      65.794  29.302  58.213  1.00  0.00     0.164 HD
ATOM     33  O   UNL     1      64.692  30.460  61.019  1.00  0.00    -0.273 OA
BRANCH  31  34
ATOM     34  C   UNL     1      65.261  31.824  59.110  1.00  0.00     0.174 C 
ATOM     35  N   UNL     1      63.961  32.246  58.542  1.00  0.00    -0.329 N 
ATOM     36  C   UNL     1      66.315  31.782  57.994  1.00  0.00     0.035 C 
ATOM     37  C   UNL     1      63.983  33.585  57.940  1.00  0.00     0.120 C 
ATOM     38  C   UNL     1      66.390  33.142  57.278  1.00  0.00     0.004 C 
ATOM     39  C   UNL     1      65.008  33.614  56.797  1.00  0.00     0.022 C 
BRANCH  35  40
ATOM     40  C   UNL     1      63.047  31.290  57.974  1.00  0.00     0.246 CG0
ATOM     41  O   UNL     1      63.272  30.836  56.818  1.00  0.00    -0.272 OA
ATOM     42  G   UNL     1      61.830  30.794  58.730  1.00  0.00     0.000 G0
ENDBRANCH  35  40
ENDBRANCH  31  34
ENDBRANCH   2  30
ENDBRANCH   1   2
BRANCH   1  43
ATOM     43  C   UNL     1      68.205  28.875  61.262  1.00  0.00     0.003 C 
BRANCH  43  44
ATOM     44  C   UNL     1      68.867  28.267  60.016  1.00  0.00     0.001 C 
BRANCH  44  45
ATOM     45  C   UNL     1      70.392  28.479  59.992  1.00  0.00     0.008 C 
BRANCH  45  46
ATOM     46  C   UNL     1      70.795  29.684  59.125  1.00  0.00     0.075 C 
BRANCH  46  47
ATOM     47  C   UNL     1      71.181  30.916  59.921  1.00  0.00     0.132 C 
ATOM     48  O   UNL     1      71.081  32.023  59.409  1.00  0.00    -0.300 OA
BRANCH  47  49
ATOM     49  C   UNL     1      71.618  30.850  61.370  1.00  0.00     0.072 C 
ATOM     50  C   UNL     1      73.125  30.977  61.590  1.00  0.00     0.012 C 
ENDBRANCH  47  49
ENDBRANCH  46  47
ENDBRANCH  45  46
ENDBRANCH  44  45
ENDBRANCH  43  44
ENDBRANCH   1  43
TORSDOF 12
ENDMDL
MODEL 2
REMARK VINA RESULT:    -4.003      9.517     12.297
REMARK INTER + INTRA:         -10.987
REMARK INTER:                  -8.349
REMARK INTRA:                  -2.639
REMARK UNBOUND:                -2.538
REMARK SMILES CCC(=O)CCCCC[C@@H]1NC(=O)[C@H]2CCCCN2C(=O)[C@H]([C@H](C)CC)NC(=O)[C@H](Cc2cn(OC)c3ccccc23)NC1=O
REMARK SMILES IDX 9 1 10 2 44 3 43 4 45 6 30 7 28 8 27 9 29 11 22 12 23 14
REMARK SMILES IDX 24 15 25 16 26 17 31 18 32 19 33 20 42 21 34 22 37 23 41 24
REMARK SMILES IDX 38 25 40 26 39 27 35 28 36 29 11 30 12 31 13 33 14 34 19 35
REMARK SMILES IDX 15 36 18 37 16 38 17 39 20 40 21 41 8 43 7 44 6 45 5 46 3 47
REMARK SMILES IDX 4 48 2 49 1 50
REMARK H PARENT 43 5 27 10 11 32
REMARK Flexibility Score: 80.00
ROOT
ATOM      1  C   UNL     1      61.546  26.596  50.945  1.00  0.00     0.035 C 
ENDROOT
BRANCH   1   2
ATOM      2  C   UNL     1      61.556  27.559  49.738  1.00  0.00     0.171 C 
BRANCH   2   3
ATOM      3  C   UNL     1      60.813  28.839  50.027  1.00  0.00     0.243 C 
ATOM      4  N   UNL     1      61.192  29.663  51.139  1.00  0.00    -0.342 N 
ATOM      5  H   UNL     1      61.795  29.249  51.884  1.00  0.00     0.164 HD
ATOM      6  O   UNL     1      59.858  29.184  49.281  1.00  0.00    -0.273 OA
BRANCH   4   7
ATOM      7  C   UNL     1      61.112  31.123  51.078  1.00  0.00     0.175 C 
BRANCH   7   8
ATOM      8  C   UNL     1      62.172  31.621  50.132  1.00  0.00     0.243 C 
ATOM      9  N   UNL     1      63.490  31.050  50.174  1.00  0.00    -0.342 N 
ATOM     10  H   UNL     1      63.657  30.266  50.846  1.00  0.00     0.164 HD
ATOM     11  O   UNL     1      61.914  32.585  49.362  1.00  0.00    -0.273 OA
BRANCH   9  12
ATOM     12  C   UNL     1      64.632  31.482  49.355  1.00  0.00     0.174 CG0
ATOM     13  G   UNL     1      65.269  30.290  48.668  1.00  0.00     0.000 G0
BRANCH  12  14
ATOM     14  C   UNL     1      65.637  32.376  50.141  1.00  0.00     0.018 C 
ATOM     15  C   UNL     1      65.408  32.240  51.661  1.00  0.00     0.010 C 
BRANCH  14  16
ATOM     16  C   UNL     1      65.503  33.862  49.713  1.00  0.00     0.002 C 
ATOM     17  C   UNL     1      64.663  34.689  50.687  1.00  0.00     0.004 C 
ENDBRANCH  14  16
ENDBRANCH  12  14
ENDBRANCH   9  12
ENDBRANCH   7   8
BRANCH   7  18
ATOM     18  C   UNL     1      61.283  31.727  52.482  1.00  0.00     0.073 C 
BRANCH  18  19
ATOM     19  C   UNL     1      60.165  32.678  52.794  1.00  0.00    -0.016 A 
ATOM     20  C   UNL     1      60.295  34.016  53.158  1.00  0.00     0.134 A 
ATOM     21  C   UNL     1      58.819  32.382  52.917  1.00  0.00     0.006 A 
ATOM     22  N   UNL     1      59.079  34.532  53.447  1.00  0.00    -0.191 N 
ATOM     23  C   UNL     1      58.183  33.531  53.321  1.00  0.00     0.087 A 
ATOM     24  C   UNL     1      58.132  31.177  52.755  1.00  0.00     0.011 A 
ATOM     25  C   UNL     1      56.821  33.537  53.634  1.00  0.00     0.030 A 
ATOM     26  C   UNL     1      56.755  31.165  53.034  1.00  0.00     0.001 A 
ATOM     27  C   UNL     1      56.104  32.337  53.477  1.00  0.00     0.002 A 
BRANCH  22  28
ATOM     28  O   UNL     1      58.851  35.834  53.848  1.00  0.00    -0.417 OA
ATOM     29  C   UNL     1      59.923  36.726  54.127  1.00  0.00     0.313 C 
ENDBRANCH  22  28
ENDBRANCH  18  19
ENDBRANCH   7  18
ENDBRANCH   4   7
ENDBRANCH   2   3
BRANCH   2  30
ATOM     30  N   UNL     1      62.921  27.857  49.292  1.00  0.00    -0.343 N 
ATOM     31  C   UNL     1      63.989  28.084  50.226  1.00  0.00     0.243 C 
ATOM     32  H   UNL     1      63.135  27.924  48.271  1.00  0.00     0.164 HD
ATOM     33  O   UNL     1      63.718  28.433  51.406  1.00  0.00    -0.273 OA
BRANCH  31  34
ATOM     34  C   UNL     1      65.424  27.985  49.758  1.00  0.00     0.174 C 
ATOM     35  N   UNL     1      66.032  29.277  49.370  1.00  0.00    -0.329 N 
ATOM     36  C   UNL     1      65.565  26.987  48.599  1.00  0.00     0.035 C 
ATOM     37  C   UNL     1      67.466  29.192  49.068  1.00  0.00     0.120 C 
ATOM     38  C   UNL     1      67.042  26.852  48.188  1.00  0.00     0.004 C 
ATOM     39  C   UNL     1      67.685  28.219  47.900  1.00  0.00     0.022 C 
BRANCH  35  40
ATOM     40  C   UNL     1      65.275  30.278  48.665  1.00  0.00     0.246 CG0
ATOM     41  O   UNL     1      65.136  30.176  47.414  1.00  0.00    -0.272 OA
ATOM     42  G   UNL     1      64.622  31.444  49.380  1.00  0.00     0.000 G0
ENDBRANCH  35  40
ENDBRANCH  31  34
ENDBRANCH   2  30
ENDBRANCH   1   2
BRANCH   1  43
ATOM     43  C   UNL     1      61.516  25.102  50.568  1.00  0.00     0.003 C 
BRANCH  43  44
ATOM     44  C   UNL     1      60.098  24.605  50.248  1.00  0.00     0.001 C 
BRANCH  44  45
ATOM     45  C   UNL     1      59.014  25.352  51.047  1.00  0.00     0.008 C 
BRANCH  45  46
ATOM     46  C   UNL     1      58.080  26.164  50.133  1.00  0.00     0.075 C 
BRANCH  46  47
ATOM     47  C   UNL     1      57.295  27.242  50.855  1.00  0.00     0.132 C 
ATOM     48  O   UNL     1      57.861  27.961  51.667  1.00  0.00    -0.300 OA
BRANCH  47  49
ATOM     49  C   UNL     1      55.838  27.531  50.558  1.00  0.00     0.072 C 
ATOM     50  C   UNL     1      55.127  26.455  49.737  1.00  0.00     0.012 C 
ENDBRANCH  47  49
ENDBRANCH  46  47
ENDBRANCH  45  46
ENDBRANCH  44  45
ENDBRANCH  43  44
ENDBRANCH   1  43
TORSDOF 12
ENDMDL
MODEL 3
REMARK VINA RESULT:    -3.928      4.316      8.216
REMARK INTER + INTRA:         -10.829
REMARK INTER:                  -8.120
REMARK INTRA:                  -2.709
REMARK UNBOUND:                -2.538
REMARK SMILES CCC(=O)CCCCC[C@@H]1NC(=O)[C@H]2CCCCN2C(=O)[C@H]([C@H](C)CC)NC(=O)[C@H](Cc2cn(OC)c3ccccc23)NC1=O
REMARK SMILES IDX 9 1 10 2 44 3 43 4 45 6 30 7 28 8 27 9 29 11 22 12 23 14
REMARK SMILES IDX 24 15 25 16 26 17 31 18 32 19 33 20 42 21 34 22 37 23 41 24
REMARK SMILES IDX 38 25 40 26 39 27 35 28 36 29 11 30 12 31 13 33 14 34 19 35
REMARK SMILES IDX 15 36 18 37 16 38 17 39 20 40 21 41 8 43 7 44 6 45 5 46 3 47
REMARK SMILES IDX 4 48 2 49 1 50
REMARK H PARENT 43 5 27 10 11 32
REMARK Flexibility Score: 80.00
ROOT
ATOM      1  C   UNL     1      64.305  29.707  57.622  1.00  0.00     0.035 C 
ENDROOT
BRANCH   1   2
ATOM      2  C   UNL     1      64.574  31.060  56.928  1.00  0.00     0.171 C 
BRANCH   2   3
ATOM      3  C   UNL     1      63.937  31.135  55.565  1.00  0.00     0.243 C 
ATOM      4  N   UNL     1      62.525  30.929  55.410  1.00  0.00    -0.342 N 
ATOM      5  H   UNL     1      61.999  30.474  56.191  1.00  0.00     0.164 HD
ATOM      6  O   UNL     1      64.653  31.385  54.558  1.00  0.00    -0.273 OA
BRANCH   4   7
ATOM      7  C   UNL     1      61.743  31.663  54.415  1.00  0.00     0.175 C 
BRANCH   7   8
ATOM      8  C   UNL     1      61.256  32.944  55.041  1.00  0.00     0.243 C 
ATOM      9  N   UNL     1      61.044  33.007  56.460  1.00  0.00    -0.342 N 
ATOM     10  H   UNL     1      61.279  32.158  57.024  1.00  0.00     0.164 HD
ATOM     11  O   UNL     1      60.970  33.925  54.304  1.00  0.00    -0.273 OA
BRANCH   9  12
ATOM     12  C   UNL     1      60.515  34.168  57.191  1.00  0.00     0.174 CG0
ATOM     13  G   UNL     1      61.557  34.708  58.150  1.00  0.00     0.000 G0
BRANCH  12  14
ATOM     14  C   UNL     1      59.129  33.890  57.848  1.00  0.00     0.018 C 
ATOM     15  C   UNL     1      58.734  32.410  57.669  1.00  0.00     0.010 C 
BRANCH  14  16
ATOM     16  C   UNL     1      58.038  34.810  57.239  1.00  0.00     0.002 C 
ATOM     17  C   UNL     1      58.031  36.212  57.849  1.00  0.00     0.004 C 
ENDBRANCH  14  16
ENDBRANCH  12  14
ENDBRANCH   9  12
ENDBRANCH   7   8
BRANCH   7  18
ATOM     18  C   UNL     1      60.571  30.802  53.913  1.00  0.00     0.073 C 
BRANCH  18  19
ATOM     19  C   UNL     1      60.936  30.093  52.643  1.00  0.00    -0.016 A 
ATOM     20  C   UNL     1      62.223  29.881  52.154  1.00  0.00     0.134 A 
ATOM     21  C   UNL     1      60.078  29.643  51.655  1.00  0.00     0.006 A 
ATOM     22  N   UNL     1      62.160  29.286  50.943  1.00  0.00    -0.191 N 
ATOM     23  C   UNL     1      60.854  29.160  50.629  1.00  0.00     0.087 A 
ATOM     24  C   UNL     1      58.685  29.677  51.572  1.00  0.00     0.011 A 
ATOM     25  C   UNL     1      60.284  28.722  49.431  1.00  0.00     0.030 A 
ATOM     26  C   UNL     1      58.086  29.213  50.389  1.00  0.00     0.001 A 
ATOM     27  C   UNL     1      58.882  28.744  49.322  1.00  0.00     0.002 A 
BRANCH  22  28
ATOM     28  O   UNL     1      63.257  28.940  50.177  1.00  0.00    -0.417 OA
ATOM     29  C   UNL     1      63.701  29.757  49.101  1.00  0.00     0.313 C 
ENDBRANCH  22  28
ENDBRANCH  18  19
ENDBRANCH   7  18
ENDBRANCH   4   7
ENDBRANCH   2   3
BRANCH   2  30
ATOM     30  N   UNL     1      64.135  32.191  57.754  1.00  0.00    -0.343 N 
ATOM     31  C   UNL     1      63.001  32.092  58.630  1.00  0.00     0.243 C 
ATOM     32  H   UNL     1      64.641  33.104  57.703  1.00  0.00     0.164 HD
ATOM     33  O   UNL     1      62.129  31.205  58.420  1.00  0.00    -0.273 OA
BRANCH  31  34
ATOM     34  C   UNL     1      62.823  33.104  59.740  1.00  0.00     0.174 C 
ATOM     35  N   UNL     1      61.779  34.120  59.480  1.00  0.00    -0.329 N 
ATOM     36  C   UNL     1      64.148  33.807  60.071  1.00  0.00     0.035 C 
ATOM     37  C   UNL     1      61.508  34.999  60.623  1.00  0.00     0.120 C 
ATOM     38  C   UNL     1      63.956  34.781  61.247  1.00  0.00     0.004 C 
ATOM     39  C   UNL     1      62.791  35.754  61.003  1.00  0.00     0.022 C 
BRANCH  35  40
ATOM     40  C   UNL     1      61.592  34.681  58.167  1.00  0.00     0.246 CG0
ATOM     41  O   UNL     1      62.345  35.619  57.785  1.00  0.00    -0.272 OA
ATOM     42  G   UNL     1      60.528  34.167  57.217  1.00  0.00     0.000 G0
ENDBRANCH  35  40
ENDBRANCH  31  34
ENDBRANCH   2  30
ENDBRANCH   1   2
BRANCH   1  43
ATOM     43  C   UNL     1      65.524  29.116  58.359  1.00  0.00     0.003 C 
BRANCH  43  44
ATOM     44  C   UNL     1      65.795  29.815  59.701  1.00  0.00     0.001 C 
BRANCH  44  45
ATOM     45  C   UNL     1      65.294  28.999  60.906  1.00  0.00     0.008 C 
BRANCH  45  46
ATOM     46  C   UNL     1      64.066  28.142  60.554  1.00  0.00     0.075 C 
BRANCH  46  47
ATOM     47  C   UNL     1      62.740  28.793  60.896  1.00  0.00     0.132 C 
ATOM     48  O   UNL     1      61.696  28.269  60.531  1.00  0.00    -0.300 OA
BRANCH  47  49
ATOM     49  C   UNL     1      62.636  30.039  61.750  1.00  0.00     0.072 C 
ATOM     50  C   UNL     1      61.266  30.717  61.730  1.00  0.00     0.012 C 
ENDBRANCH  47  49
ENDBRANCH  46  47
ENDBRANCH  45  46
ENDBRANCH  44  45
ENDBRANCH  43  44
ENDBRANCH   1  43
TORSDOF 12
ENDMDL
MODEL 4
REMARK VINA RESULT:    -3.918      4.705      8.850
REMARK INTER + INTRA:         -10.808
REMARK INTER:                  -7.755
REMARK INTRA:                  -3.053
REMARK UNBOUND:                -2.538
REMARK SMILES CCC(=O)CCCCC[C@@H]1NC(=O)[C@H]2CCCCN2C(=O)[C@H]([C@H](C)CC)NC(=O)[C@H](Cc2cn(OC)c3ccccc23)NC1=O
REMARK SMILES IDX 9 1 10 2 44 3 43 4 45 6 30 7 28 8 27 9 29 11 22 12 23 14
REMARK SMILES IDX 24 15 25 16 26 17 31 18 32 19 33 20 42 21 34 22 37 23 41 24
REMARK SMILES IDX 38 25 40 26 39 27 35 28 36 29 11 30 12 31 13 33 14 34 19 35
REMARK SMILES IDX 15 36 18 37 16 38 17 39 20 40 21 41 8 43 7 44 6 45 5 46 3 47
REMARK SMILES IDX 4 48 2 49 1 50
REMARK H PARENT 43 5 27 10 11 32
REMARK Flexibility Score: 80.00
ROOT
ATOM      1  C   UNL     1      60.140  34.303  57.736  1.00  0.00     0.035 C 
ENDROOT
BRANCH   1   2
ATOM      2  C   UNL     1      59.172  33.107  57.868  1.00  0.00     0.171 C 
BRANCH   2   3
ATOM      3  C   UNL     1      58.701  32.607  56.527  1.00  0.00     0.243 C 
ATOM      4  N   UNL     1      59.650  32.218  55.523  1.00  0.00    -0.342 N 
ATOM      5  H   UNL     1      60.642  32.528  55.628  1.00  0.00     0.164 HD
ATOM      6  O   UNL     1      57.465  32.527  56.293  1.00  0.00    -0.273 OA
BRANCH   4   7
ATOM      7  C   UNL     1      59.389  31.110  54.604  1.00  0.00     0.175 C 
BRANCH   7   8
ATOM      8  C   UNL     1      59.615  29.815  55.340  1.00  0.00     0.243 C 
ATOM      9  N   UNL     1      60.752  29.679  56.208  1.00  0.00    -0.342 N 
ATOM     10  H   UNL     1      61.371  30.513  56.332  1.00  0.00     0.164 HD
ATOM     11  O   UNL     1      58.846  28.839  55.131  1.00  0.00    -0.273 OA
BRANCH   9  12
ATOM     12  C   UNL     1      61.126  28.458  56.936  1.00  0.00     0.174 CG0
ATOM     13  G   UNL     1      60.994  28.673  58.431  1.00  0.00     0.000 G0
BRANCH  12  14
ATOM     14  C   UNL     1      62.509  27.890  56.494  1.00  0.00     0.018 C 
ATOM     15  C   UNL     1      63.441  29.030  56.035  1.00  0.00     0.010 C 
BRANCH  14  16
ATOM     16  C   UNL     1      62.337  26.851  55.354  1.00  0.00     0.002 C 
ATOM     17  C   UNL     1      63.232  27.137  54.147  1.00  0.00     0.004 C 
ENDBRANCH  14  16
ENDBRANCH  12  14
ENDBRANCH   9  12
ENDBRANCH   7   8
BRANCH   7  18
ATOM     18  C   UNL     1      60.294  31.217  53.365  1.00  0.00     0.073 C 
BRANCH  18  19
ATOM     19  C   UNL     1      59.699  30.478  52.203  1.00  0.00    -0.016 A 
ATOM     20  C   UNL     1      58.345  30.387  51.887  1.00  0.00     0.134 A 
ATOM     21  C   UNL     1      60.351  29.642  51.315  1.00  0.00     0.006 A 
ATOM     22  N   UNL     1      58.177  29.569  50.825  1.00  0.00    -0.191 N 
ATOM     23  C   UNL     1      59.396  29.097  50.490  1.00  0.00     0.087 A 
ATOM     24  C   UNL     1      61.698  29.287  51.218  1.00  0.00     0.011 A 
ATOM     25  C   UNL     1      59.724  28.125  49.541  1.00  0.00     0.030 A 
ATOM     26  C   UNL     1      62.057  28.334  50.251  1.00  0.00     0.001 A 
ATOM     27  C   UNL     1      61.075  27.752  49.421  1.00  0.00     0.002 A 
BRANCH  22  28
ATOM     28  O   UNL     1      56.958  29.255  50.257  1.00  0.00    -0.417 OA
ATOM     29  C   UNL     1      56.056  28.350  50.880  1.00  0.00     0.313 C 
ENDBRANCH  22  28
ENDBRANCH  18  19
ENDBRANCH   7  18
ENDBRANCH   4   7
ENDBRANCH   2   3
BRANCH   2  30
ATOM     30  N   UNL     1      59.767  32.008  58.637  1.00  0.00    -0.343 N 
ATOM     31  C   UNL     1      61.156  31.665  58.513  1.00  0.00     0.243 C 
ATOM     32  H   UNL     1      59.174  31.442  59.285  1.00  0.00     0.164 HD
ATOM     33  O   UNL     1      61.791  32.007  57.479  1.00  0.00    -0.273 OA
BRANCH  31  34
ATOM     34  C   UNL     1      61.816  30.826  59.585  1.00  0.00     0.174 C 
ATOM     35  N   UNL     1      62.007  29.405  59.218  1.00  0.00    -0.329 N 
ATOM     36  C   UNL     1      61.050  30.911  60.912  1.00  0.00     0.035 C 
ATOM     37  C   UNL     1      62.786  28.638  60.198  1.00  0.00     0.120 C 
ATOM     38  C   UNL     1      61.778  30.106  62.002  1.00  0.00     0.004 C 
ATOM     39  C   UNL     1      62.067  28.664  61.554  1.00  0.00     0.022 C 
BRANCH  35  40
ATOM     40  C   UNL     1      61.009  28.685  58.470  1.00  0.00     0.246 CG0
ATOM     41  O   UNL     1      59.989  28.245  59.070  1.00  0.00    -0.272 OA
ATOM     42  G   UNL     1      61.134  28.455  56.977  1.00  0.00     0.000 G0
ENDBRANCH  35  40
ENDBRANCH  31  34
ENDBRANCH   2  30
ENDBRANCH   1   2
BRANCH   1  43
ATOM     43  C   UNL     1      59.939  35.406  58.794  1.00  0.00     0.003 C 
BRANCH  43  44
ATOM     44  C   UNL     1      60.745  35.145  60.076  1.00  0.00     0.001 C 
BRANCH  44  45
ATOM     45  C   UNL     1      61.513  36.390  60.557  1.00  0.00     0.008 C 
BRANCH  45  46
ATOM     46  C   UNL     1      62.822  36.019  61.275  1.00  0.00     0.075 C 
BRANCH  46  47
ATOM     47  C   UNL     1      63.959  35.658  60.339  1.00  0.00     0.132 C 
ATOM     48  O   UNL     1      64.753  36.521  59.992  1.00  0.00    -0.300 OA
BRANCH  47  49
ATOM     49  C   UNL     1      64.212  34.241  59.868  1.00  0.00     0.072 C 
ATOM     50  C   UNL     1      64.125  33.178  60.962  1.00  0.00     0.012 C 
ENDBRANCH  47  49
ENDBRANCH  46  47
ENDBRANCH  45  46
ENDBRANCH  44  45
ENDBRANCH  43  44
ENDBRANCH   1  43
TORSDOF 12
ENDMDL
MODEL 5
REMARK VINA RESULT:    -3.915      3.799      8.284
REMARK INTER + INTRA:         -10.802
REMARK INTER:                  -7.659
REMARK INTRA:                  -3.142
REMARK UNBOUND:                -2.538
REMARK SMILES CCC(=O)CCCCC[C@@H]1NC(=O)[C@H]2CCCCN2C(=O)[C@H]([C@H](C)CC)NC(=O)[C@H](Cc2cn(OC)c3ccccc23)NC1=O
REMARK SMILES IDX 9 1 10 2 44 3 43 4 45 6 30 7 28 8 27 9 29 11 22 12 23 14
REMARK SMILES IDX 24 15 25 16 26 17 31 18 32 19 33 20 42 21 34 22 37 23 41 24
REMARK SMILES IDX 38 25 40 26 39 27 35 28 36 29 11 30 12 31 13 33 14 34 19 35
REMARK SMILES IDX 15 36 18 37 16 38 17 39 20 40 21 41 8 43 7 44 6 45 5 46 3 47
REMARK SMILES IDX 4 48 2 49 1 50
REMARK H PARENT 43 5 27 10 11 32
REMARK Flexibility Score: 80.00
ROOT
ATOM      1  C   UNL     1      63.411  29.678  60.744  1.00  0.00     0.035 C 
ENDROOT
BRANCH   1   2
ATOM      2  C   UNL     1      62.126  29.645  61.600  1.00  0.00     0.171 C 
BRANCH   2   3
ATOM      3  C   UNL     1      61.009  30.443  60.979  1.00  0.00     0.243 C 
ATOM      4  N   UNL     1      60.578  30.167  59.638  1.00  0.00    -0.342 N 
ATOM      5  H   UNL     1      61.204  29.605  59.019  1.00  0.00     0.164 HD
ATOM      6  O   UNL     1      60.452  31.355  61.647  1.00  0.00    -0.273 OA
BRANCH   4   7
ATOM      7  C   UNL     1      59.175  30.287  59.239  1.00  0.00     0.175 C 
BRANCH   7   8
ATOM      8  C   UNL     1      58.481  28.985  59.540  1.00  0.00     0.243 C 
ATOM      9  N   UNL     1      59.180  27.744  59.351  1.00  0.00    -0.342 N 
ATOM     10  H   UNL     1      60.179  27.792  59.045  1.00  0.00     0.164 HD
ATOM     11  O   UNL     1      57.269  28.993  59.884  1.00  0.00    -0.273 OA
BRANCH   9  12
ATOM     12  C   UNL     1      58.606  26.404  59.545  1.00  0.00     0.174 CG0
ATOM     13  G   UNL     1      59.183  25.758  60.789  1.00  0.00     0.000 G0
BRANCH  12  14
ATOM     14  C   UNL     1      58.695  25.517  58.268  1.00  0.00     0.018 C 
ATOM     15  C   UNL     1      59.667  26.138  57.244  1.00  0.00     0.010 C 
BRANCH  14  16
ATOM     16  C   UNL     1      57.293  25.334  57.627  1.00  0.00     0.002 C 
ATOM     17  C   UNL     1      56.817  26.574  56.869  1.00  0.00     0.004 C 
ENDBRANCH  14  16
ENDBRANCH  12  14
ENDBRANCH   9  12
ENDBRANCH   7   8
BRANCH   7  18
ATOM     18  C   UNL     1      59.071  30.648  57.748  1.00  0.00     0.073 C 
BRANCH  18  19
ATOM     19  C   UNL     1      58.781  32.110  57.572  1.00  0.00    -0.016 A 
ATOM     20  C   UNL     1      57.532  32.720  57.654  1.00  0.00     0.134 A 
ATOM     21  C   UNL     1      59.659  33.098  57.163  1.00  0.00     0.006 A 
ATOM     22  N   UNL     1      57.644  34.033  57.353  1.00  0.00    -0.191 N 
ATOM     23  C   UNL     1      58.935  34.259  57.033  1.00  0.00     0.087 A 
ATOM     24  C   UNL     1      61.017  33.037  56.848  1.00  0.00     0.011 A 
ATOM     25  C   UNL     1      59.518  35.426  56.534  1.00  0.00     0.030 A 
ATOM     26  C   UNL     1      61.634  34.207  56.373  1.00  0.00     0.001 A 
ATOM     27  C   UNL     1      60.886  35.394  56.212  1.00  0.00     0.002 A 
BRANCH  22  28
ATOM     28  O   UNL     1      56.593  34.929  57.334  1.00  0.00    -0.417 OA
ATOM     29  C   UNL     1      55.287  34.555  57.756  1.00  0.00     0.313 C 
ENDBRANCH  22  28
ENDBRANCH  18  19
ENDBRANCH   7  18
ENDBRANCH   4   7
ENDBRANCH   2   3
BRANCH   2  30
ATOM     30  N   UNL     1      61.681  28.271  61.860  1.00  0.00    -0.343 N 
ATOM     31  C   UNL     1      61.782  27.243  60.862  1.00  0.00     0.243 C 
ATOM     32  H   UNL     1      61.265  28.022  62.785  1.00  0.00     0.164 HD
ATOM     33  O   UNL     1      61.865  27.563  59.646  1.00  0.00    -0.273 OA
BRANCH  31  34
ATOM     34  C   UNL     1      61.702  25.790  61.276  1.00  0.00     0.174 C 
ATOM     35  N   UNL     1      60.481  25.090  60.820  1.00  0.00    -0.329 N 
ATOM     36  C   UNL     1      61.841  25.635  62.798  1.00  0.00     0.035 C 
ATOM     37  C   UNL     1      60.486  23.647  61.092  1.00  0.00     0.120 C 
ATOM     38  C   UNL     1      61.826  24.146  63.186  1.00  0.00     0.004 C 
ATOM     39  C   UNL     1      60.605  23.414  62.605  1.00  0.00     0.022 C 
BRANCH  35  40
ATOM     40  C   UNL     1      59.200  25.748  60.814  1.00  0.00     0.246 CG0
ATOM     41  O   UNL     1      58.539  25.816  61.887  1.00  0.00    -0.272 OA
ATOM     42  G   UNL     1      58.627  26.381  59.561  1.00  0.00     0.000 G0
ENDBRANCH  35  40
ENDBRANCH  31  34
ENDBRANCH   2  30
ENDBRANCH   1   2
BRANCH   1  43
ATOM     43  C   UNL     1      64.258  30.955  60.914  1.00  0.00     0.003 C 
BRANCH  43  44
ATOM     44  C   UNL     1      64.526  31.664  59.577  1.00  0.00     0.001 C 
BRANCH  44  45
ATOM     45  C   UNL     1      64.190  33.166  59.624  1.00  0.00     0.008 C 
BRANCH  45  46
ATOM     46  C   UNL     1      63.665  33.597  61.005  1.00  0.00     0.075 C 
BRANCH  46  47
ATOM     47  C   UNL     1      63.532  35.098  61.173  1.00  0.00     0.132 C 
ATOM     48  O   UNL     1      64.412  35.723  61.749  1.00  0.00    -0.300 OA
BRANCH  47  49
ATOM     49  C   UNL     1      62.382  35.888  60.584  1.00  0.00     0.072 C 
ATOM     50  C   UNL     1      61.115  35.074  60.323  1.00  0.00     0.012 C 
ENDBRANCH  47  49
ENDBRANCH  46  47
ENDBRANCH  45  46
ENDBRANCH  44  45
ENDBRANCH  43  44
ENDBRANCH   1  43
TORSDOF 12
ENDMDL
MODEL 6
REMARK VINA RESULT:    -3.861      2.064      2.786
REMARK INTER + INTRA:         -10.689
REMARK INTER:                  -9.031
REMARK INTRA:                  -1.657
REMARK UNBOUND:                -2.538
REMARK SMILES CCC(=O)CCCCC[C@@H]1NC(=O)[C@H]2CCCCN2C(=O)[C@H]([C@H](C)CC)NC(=O)[C@H](Cc2cn(OC)c3ccccc23)NC1=O
REMARK SMILES IDX 9 1 10 2 44 3 43 4 45 6 30 7 28 8 27 9 29 11 22 12 23 14
REMARK SMILES IDX 24 15 25 16 26 17 31 18 32 19 33 20 42 21 34 22 37 23 41 24
REMARK SMILES IDX 38 25 40 26 39 27 35 28 36 29 11 30 12 31 13 33 14 34 19 35
REMARK SMILES IDX 15 36 18 37 16 38 17 39 20 40 21 41 8 43 7 44 6 45 5 46 3 47
REMARK SMILES IDX 4 48 2 49 1 50
REMARK H PARENT 43 5 27 10 11 32
REMARK Flexibility Score: 80.00
ROOT
ATOM      1  C   UNL     1      67.161  28.470  61.499  1.00  0.00     0.035 C 
ENDROOT
BRANCH   1   2
ATOM      2  C   UNL     1      66.239  29.110  60.438  1.00  0.00     0.171 C 
BRANCH   2   3
ATOM      3  C   UNL     1      65.303  28.105  59.818  1.00  0.00     0.243 C 
ATOM      4  N   UNL     1      64.713  27.071  60.619  1.00  0.00    -0.342 N 
ATOM      5  H   UNL     1      65.133  26.863  61.553  1.00  0.00     0.164 HD
ATOM      6  O   UNL     1      65.038  28.180  58.588  1.00  0.00    -0.273 OA
BRANCH   4   7
ATOM      7  C   UNL     1      63.354  26.587  60.374  1.00  0.00     0.175 C 
BRANCH   7   8
ATOM      8  C   UNL     1      62.693  27.505  59.380  1.00  0.00     0.243 C 
ATOM      9  N   UNL     1      62.277  28.818  59.790  1.00  0.00    -0.342 N 
ATOM     10  H   UNL     1      62.490  29.110  60.772  1.00  0.00     0.164 HD
ATOM     11  O   UNL     1      62.444  27.087  58.218  1.00  0.00    -0.273 OA
BRANCH   9  12
ATOM     12  C   UNL     1      61.567  29.790  58.945  1.00  0.00     0.174 CG0
ATOM     13  G   UNL     1      62.222  31.153  59.043  1.00  0.00     0.000 G0
BRANCH  12  14
ATOM     14  C   UNL     1      60.030  29.802  59.198  1.00  0.00     0.018 C 
ATOM     15  C   UNL     1      59.693  29.079  60.517  1.00  0.00     0.010 C 
BRANCH  14  16
ATOM     16  C   UNL     1      59.273  29.137  58.017  1.00  0.00     0.002 C 
ATOM     17  C   UNL     1      59.858  29.502  56.652  1.00  0.00     0.004 C 
ENDBRANCH  14  16
ENDBRANCH  12  14
ENDBRANCH   9  12
ENDBRANCH   7   8
BRANCH   7  18
ATOM     18  C   UNL     1      62.563  26.522  61.691  1.00  0.00     0.073 C 
BRANCH  18  19
ATOM     19  C   UNL     1      61.950  25.165  61.879  1.00  0.00    -0.016 A 
ATOM     20  C   UNL     1      62.602  23.940  61.764  1.00  0.00     0.134 A 
ATOM     21  C   UNL     1      60.612  24.865  62.061  1.00  0.00     0.006 A 
ATOM     22  N   UNL     1      61.714  22.933  61.913  1.00  0.00    -0.191 N 
ATOM     23  C   UNL     1      60.498  23.496  62.073  1.00  0.00     0.087 A 
ATOM     24  C   UNL     1      59.496  25.698  62.159  1.00  0.00     0.011 A 
ATOM     25  C   UNL     1      59.250  22.871  62.139  1.00  0.00     0.030 A 
ATOM     26  C   UNL     1      58.232  25.093  62.258  1.00  0.00     0.001 A 
ATOM     27  C   UNL     1      58.109  23.687  62.242  1.00  0.00     0.002 A 
BRANCH  22  28
ATOM     28  O   UNL     1      62.028  21.589  61.850  1.00  0.00    -0.417 OA
ATOM     29  C   UNL     1      62.018  20.879  60.618  1.00  0.00     0.313 C 
ENDBRANCH  22  28
ENDBRANCH  18  19
ENDBRANCH   7  18
ENDBRANCH   4   7
ENDBRANCH   2   3
BRANCH   2  30
ATOM     30  N   UNL     1      65.477  30.237  60.989  1.00  0.00    -0.343 N 
ATOM     31  C   UNL     1      65.023  31.319  60.159  1.00  0.00     0.243 C 
ATOM     32  H   UNL     1      65.263  30.275  62.011  1.00  0.00     0.164 HD
ATOM     33  O   UNL     1      65.595  31.539  59.058  1.00  0.00    -0.273 OA
BRANCH  31  34
ATOM     34  C   UNL     1      63.923  32.230  60.657  1.00  0.00     0.174 C 
ATOM     35  N   UNL     1      62.555  31.773  60.329  1.00  0.00    -0.329 N 
ATOM     36  C   UNL     1      64.116  33.667  60.150  1.00  0.00     0.035 C 
ATOM     37  C   UNL     1      61.495  32.578  60.947  1.00  0.00     0.120 C 
ATOM     38  C   UNL     1      63.025  34.587  60.725  1.00  0.00     0.004 C 
ATOM     39  C   UNL     1      61.614  34.033  60.470  1.00  0.00     0.022 C 
BRANCH  35  40
ATOM     40  C   UNL     1      62.254  31.164  59.059  1.00  0.00     0.246 CG0
ATOM     41  O   UNL     1      62.565  31.771  57.997  1.00  0.00    -0.272 OA
ATOM     42  G   UNL     1      61.592  29.804  58.956  1.00  0.00     0.000 G0
ENDBRANCH  35  40
ENDBRANCH  31  34
ENDBRANCH   2  30
ENDBRANCH   1   2
BRANCH   1  43
ATOM     43  C   UNL     1      68.500  29.204  61.706  1.00  0.00     0.003 C 
BRANCH  43  44
ATOM     44  C   UNL     1      69.490  28.956  60.557  1.00  0.00     0.001 C 
BRANCH  44  45
ATOM     45  C   UNL     1      70.856  29.626  60.795  1.00  0.00     0.008 C 
BRANCH  45  46
ATOM     46  C   UNL     1      71.665  29.767  59.494  1.00  0.00     0.075 C 
BRANCH  46  47
ATOM     47  C   UNL     1      71.388  31.049  58.731  1.00  0.00     0.132 C 
ATOM     48  O   UNL     1      71.346  31.027  57.509  1.00  0.00    -0.300 OA
BRANCH  47  49
ATOM     49  C   UNL     1      71.078  32.361  59.421  1.00  0.00     0.072 C 
ATOM     50  C   UNL     1      70.588  33.471  58.491  1.00  0.00     0.012 C 
ENDBRANCH  47  49
ENDBRANCH  46  47
ENDBRANCH  45  46
ENDBRANCH  44  45
ENDBRANCH  43  44
ENDBRANCH   1  43
TORSDOF 12
ENDMDL
MODEL 7
REMARK VINA RESULT:    -3.822      8.749     13.750
REMARK INTER + INTRA:         -10.606
REMARK INTER:                  -8.038
REMARK INTRA:                  -2.568
REMARK UNBOUND:                -2.538
REMARK SMILES CCC(=O)CCCCC[C@@H]1NC(=O)[C@H]2CCCCN2C(=O)[C@H]([C@H](C)CC)NC(=O)[C@H](Cc2cn(OC)c3ccccc23)NC1=O
REMARK SMILES IDX 9 1 10 2 44 3 43 4 45 6 30 7 28 8 27 9 29 11 22 12 23 14
REMARK SMILES IDX 24 15 25 16 26 17 31 18 32 19 33 20 42 21 34 22 37 23 41 24
REMARK SMILES IDX 38 25 40 26 39 27 35 28 36 29 11 30 12 31 13 33 14 34 19 35
REMARK SMILES IDX 15 36 18 37 16 38 17 39 20 40 21 41 8 43 7 44 6 45 5 46 3 47
REMARK SMILES IDX 4 48 2 49 1 50
REMARK H PARENT 43 5 27 10 11 32
REMARK Flexibility Score: 80.00
ROOT
ATOM      1  C   UNL     1      59.795  27.596  49.758  1.00  0.00     0.035 C 
ENDROOT
BRANCH   1   2
ATOM      2  C   UNL     1      60.997  27.520  50.725  1.00  0.00     0.171 C 
BRANCH   2   3
ATOM      3  C   UNL     1      62.308  27.395  49.993  1.00  0.00     0.243 C 
ATOM      4  N   UNL     1      62.679  28.360  48.997  1.00  0.00    -0.342 N 
ATOM      5  H   UNL     1      61.936  28.981  48.604  1.00  0.00     0.164 HD
ATOM      6  O   UNL     1      63.081  26.437  50.264  1.00  0.00    -0.273 OA
BRANCH   4   7
ATOM      7  C   UNL     1      64.069  28.775  48.807  1.00  0.00     0.175 C 
BRANCH   7   8
ATOM      8  C   UNL     1      64.385  29.857  49.806  1.00  0.00     0.243 C 
ATOM      9  N   UNL     1      63.355  30.769  50.219  1.00  0.00    -0.342 N 
ATOM     10  H   UNL     1      62.394  30.622  49.833  1.00  0.00     0.164 HD
ATOM     11  O   UNL     1      65.569  29.996  50.216  1.00  0.00    -0.273 OA
BRANCH   9  12
ATOM     12  C   UNL     1      63.539  31.904  51.135  1.00  0.00     0.174 CG0
ATOM     13  G   UNL     1      62.719  31.704  52.394  1.00  0.00     0.000 G0
BRANCH  12  14
ATOM     14  C   UNL     1      63.318  33.283  50.443  1.00  0.00     0.018 C 
ATOM     15  C   UNL     1      62.339  33.143  49.259  1.00  0.00     0.010 C 
BRANCH  14  16
ATOM     16  C   UNL     1      64.666  33.874  49.952  1.00  0.00     0.002 C 
ATOM     17  C   UNL     1      64.908  35.300  50.450  1.00  0.00     0.004 C 
ENDBRANCH  14  16
ENDBRANCH  12  14
ENDBRANCH   9  12
ENDBRANCH   7   8
BRANCH   7  18
ATOM     18  C   UNL     1      64.290  29.261  47.364  1.00  0.00     0.073 C 
BRANCH  18  19
ATOM     19  C   UNL     1      65.621  28.804  46.845  1.00  0.00    -0.016 A 
ATOM     20  C   UNL     1      66.000  27.489  46.587  1.00  0.00     0.134 A 
ATOM     21  C   UNL     1      66.757  29.569  46.656  1.00  0.00     0.006 A 
ATOM     22  N   UNL     1      67.298  27.452  46.213  1.00  0.00    -0.191 N 
ATOM     23  C   UNL     1      67.766  28.716  46.276  1.00  0.00     0.087 A 
ATOM     24  C   UNL     1      66.980  30.935  46.846  1.00  0.00     0.011 A 
ATOM     25  C   UNL     1      69.076  29.170  46.106  1.00  0.00     0.030 A 
ATOM     26  C   UNL     1      68.283  31.421  46.651  1.00  0.00     0.001 A 
ATOM     27  C   UNL     1      69.327  30.542  46.288  1.00  0.00     0.002 A 
BRANCH  22  28
ATOM     28  O   UNL     1      67.993  26.302  45.891  1.00  0.00    -0.417 OA
ATOM     29  C   UNL     1      67.425  25.012  46.076  1.00  0.00     0.313 C 
ENDBRANCH  22  28
ENDBRANCH  18  19
ENDBRANCH   7  18
ENDBRANCH   4   7
ENDBRANCH   2   3
BRANCH   2  30
ATOM     30  N   UNL     1      61.034  28.670  51.636  1.00  0.00    -0.343 N 
ATOM     31  C   UNL     1      60.589  29.973  51.226  1.00  0.00     0.243 C 
ATOM     32  H   UNL     1      61.405  28.558  52.606  1.00  0.00     0.164 HD
ATOM     33  O   UNL     1      60.543  30.257  49.999  1.00  0.00    -0.273 OA
BRANCH  31  34
ATOM     34  C   UNL     1      60.262  31.014  52.274  1.00  0.00     0.174 C 
ATOM     35  N   UNL     1      61.306  32.048  52.456  1.00  0.00    -0.329 N 
ATOM     36  C   UNL     1      59.948  30.363  53.629  1.00  0.00     0.035 C 
ATOM     37  C   UNL     1      60.913  33.136  53.359  1.00  0.00     0.120 C 
ATOM     38  C   UNL     1      59.552  31.436  54.658  1.00  0.00     0.004 C 
ATOM     39  C   UNL     1      60.599  32.559  54.747  1.00  0.00     0.022 C 
BRANCH  35  40
ATOM     40  C   UNL     1      62.706  31.714  52.407  1.00  0.00     0.246 CG0
ATOM     41  O   UNL     1      63.261  31.237  53.435  1.00  0.00    -0.272 OA
ATOM     42  G   UNL     1      63.533  31.898  51.150  1.00  0.00     0.000 G0
ENDBRANCH  35  40
ENDBRANCH  31  34
ENDBRANCH   2  30
ENDBRANCH   1   2
BRANCH   1  43
ATOM     43  C   UNL     1      59.004  26.280  49.620  1.00  0.00     0.003 C 
BRANCH  43  44
ATOM     44  C   UNL     1      57.484  26.500  49.668  1.00  0.00     0.001 C 
BRANCH  44  45
ATOM     45  C   UNL     1      57.088  27.704  50.542  1.00  0.00     0.008 C 
BRANCH  45  46
ATOM     46  C   UNL     1      55.568  27.941  50.543  1.00  0.00     0.075 C 
BRANCH  46  47
ATOM     47  C   UNL     1      55.114  29.035  51.491  1.00  0.00     0.132 C 
ATOM     48  O   UNL     1      53.920  29.195  51.702  1.00  0.00    -0.300 OA
BRANCH  47  49
ATOM     49  C   UNL     1      56.086  29.902  52.265  1.00  0.00     0.072 C 
ATOM     50  C   UNL     1      56.444  29.377  53.655  1.00  0.00     0.012 C 
ENDBRANCH  47  49
ENDBRANCH  46  47
ENDBRANCH  45  46
ENDBRANCH  44  45
ENDBRANCH  43  44
ENDBRANCH   1  43
TORSDOF 12
ENDMDL
MODEL 8
REMARK VINA RESULT:    -3.734      2.578      7.670
REMARK INTER + INTRA:         -10.420
REMARK INTER:                  -7.298
REMARK INTRA:                  -3.123
REMARK UNBOUND:                -2.538
REMARK SMILES CCC(=O)CCCCC[C@@H]1NC(=O)[C@H]2CCCCN2C(=O)[C@H]([C@H](C)CC)NC(=O)[C@H](Cc2cn(OC)c3ccccc23)NC1=O
REMARK SMILES IDX 9 1 10 2 44 3 43 4 45 6 30 7 28 8 27 9 29 11 22 12 23 14
REMARK SMILES IDX 24 15 25 16 26 17 31 18 32 19 33 20 42 21 34 22 37 23 41 24
REMARK SMILES IDX 38 25 40 26 39 27 35 28 36 29 11 30 12 31 13 33 14 34 19 35
REMARK SMILES IDX 15 36 18 37 16 38 17 39 20 40 21 41 8 43 7 44 6 45 5 46 3 47
REMARK SMILES IDX 4 48 2 49 1 50
REMARK H PARENT 43 5 27 10 11 32
REMARK Flexibility Score: 80.00
ROOT
ATOM      1  C   UNL     1      63.402  29.780  61.339  1.00  0.00     0.035 C 
ENDROOT
BRANCH   1   2
ATOM      2  C   UNL     1      62.004  29.756  61.995  1.00  0.00     0.171 C 
BRANCH   2   3
ATOM      3  C   UNL     1      61.016  30.624  61.260  1.00  0.00     0.243 C 
ATOM      4  N   UNL     1      60.781  30.430  59.857  1.00  0.00    -0.342 N 
ATOM      5  H   UNL     1      61.476  29.876  59.308  1.00  0.00     0.164 HD
ATOM      6  O   UNL     1      60.392  31.522  61.887  1.00  0.00    -0.273 OA
BRANCH   4   7
ATOM      7  C   UNL     1      59.458  30.621  59.263  1.00  0.00     0.175 C 
BRANCH   7   8
ATOM      8  C   UNL     1      58.730  29.302  59.285  1.00  0.00     0.243 C 
ATOM      9  N   UNL     1      59.473  28.080  59.424  1.00  0.00    -0.342 N 
ATOM     10  H   UNL     1      60.509  28.155  59.549  1.00  0.00     0.164 HD
ATOM     11  O   UNL     1      57.482  29.279  59.108  1.00  0.00    -0.273 OA
BRANCH   9  12
ATOM     12  C   UNL     1      58.899  26.727  59.398  1.00  0.00     0.174 CG0
ATOM     13  G   UNL     1      59.209  25.998  60.690  1.00  0.00     0.000 G0
BRANCH  12  14
ATOM     14  C   UNL     1      59.280  25.933  58.112  1.00  0.00     0.018 C 
ATOM     15  C   UNL     1      60.295  26.728  57.266  1.00  0.00     0.010 C 
BRANCH  14  16
ATOM     16  C   UNL     1      58.017  25.616  57.268  1.00  0.00     0.002 C 
ATOM     17  C   UNL     1      57.148  24.518  57.884  1.00  0.00     0.004 C 
ENDBRANCH  14  16
ENDBRANCH  12  14
ENDBRANCH   9  12
ENDBRANCH   7   8
BRANCH   7  18
ATOM     18  C   UNL     1      59.587  31.168  57.832  1.00  0.00     0.073 C 
BRANCH  18  19
ATOM     19  C   UNL     1      60.845  31.972  57.680  1.00  0.00    -0.016 A 
ATOM     20  C   UNL     1      61.955  31.632  56.912  1.00  0.00     0.134 A 
ATOM     21  C   UNL     1      61.198  33.118  58.369  1.00  0.00     0.006 A 
ATOM     22  N   UNL     1      62.931  32.551  57.085  1.00  0.00    -0.191 N 
ATOM     23  C   UNL     1      62.478  33.445  57.989  1.00  0.00     0.087 A 
ATOM     24  C   UNL     1      60.506  33.853  59.334  1.00  0.00     0.011 A 
ATOM     25  C   UNL     1      63.165  34.504  58.587  1.00  0.00     0.030 A 
ATOM     26  C   UNL     1      61.165  34.942  59.928  1.00  0.00     0.001 A 
ATOM     27  C   UNL     1      62.490  35.262  59.560  1.00  0.00     0.002 A 
BRANCH  22  28
ATOM     28  O   UNL     1      64.169  32.512  56.473  1.00  0.00    -0.417 OA
ATOM     29  C   UNL     1      64.299  32.497  55.057  1.00  0.00     0.313 C 
ENDBRANCH  22  28
ENDBRANCH  18  19
ENDBRANCH   7  18
ENDBRANCH   4   7
ENDBRANCH   2   3
BRANCH   2  30
ATOM     30  N   UNL     1      61.483  28.389  62.115  1.00  0.00    -0.343 N 
ATOM     31  C   UNL     1      61.838  27.361  61.177  1.00  0.00     0.243 C 
ATOM     32  H   UNL     1      60.826  28.145  62.890  1.00  0.00     0.164 HD
ATOM     33  O   UNL     1      62.255  27.681  60.031  1.00  0.00    -0.273 OA
BRANCH  31  34
ATOM     34  C   UNL     1      61.625  25.909  61.545  1.00  0.00     0.174 C 
ATOM     35  N   UNL     1      60.453  25.279  60.898  1.00  0.00    -0.329 N 
ATOM     36  C   UNL     1      61.528  25.727  63.066  1.00  0.00     0.035 C 
ATOM     37  C   UNL     1      60.346  23.835  61.138  1.00  0.00     0.120 C 
ATOM     38  C   UNL     1      61.381  24.236  63.417  1.00  0.00     0.004 C 
ATOM     39  C   UNL     1      60.226  23.575  62.647  1.00  0.00     0.022 C 
BRANCH  35  40
ATOM     40  C   UNL     1      59.221  26.003  60.715  1.00  0.00     0.246 CG0
ATOM     41  O   UNL     1      58.393  26.058  61.667  1.00  0.00    -0.272 OA
ATOM     42  G   UNL     1      58.894  26.720  59.421  1.00  0.00     0.000 G0
ENDBRANCH  35  40
ENDBRANCH  31  34
ENDBRANCH   2  30
ENDBRANCH   1   2
BRANCH   1  43
ATOM     43  C   UNL     1      63.983  31.193  61.130  1.00  0.00     0.003 C 
BRANCH  43  44
ATOM     44  C   UNL     1      64.802  31.305  59.835  1.00  0.00     0.001 C 
BRANCH  44  45
ATOM     45  C   UNL     1      64.557  30.127  58.874  1.00  0.00     0.008 C 
BRANCH  45  46
ATOM     46  C   UNL     1      65.852  29.662  58.188  1.00  0.00     0.075 C 
BRANCH  46  47
ATOM     47  C   UNL     1      67.024  29.484  59.135  1.00  0.00     0.132 C 
ATOM     48  O   UNL     1      68.042  30.141  58.967  1.00  0.00    -0.300 OA
BRANCH  47  49
ATOM     49  C   UNL     1      66.966  28.576  60.345  1.00  0.00     0.072 C 
ATOM     50  C   UNL     1      68.023  28.864  61.411  1.00  0.00     0.012 C 
ENDBRANCH  47  49
ENDBRANCH  46  47
ENDBRANCH  45  46
ENDBRANCH  44  45
ENDBRANCH  43  44
ENDBRANCH   1  43
TORSDOF 12
ENDMDL
MODEL 9
REMARK VINA RESULT:    -3.594      8.866     12.008
REMARK INTER + INTRA:         -10.124
REMARK INTER:                  -7.255
REMARK INTRA:                  -2.869
REMARK UNBOUND:                -2.538
REMARK SMILES CCC(=O)CCCCC[C@@H]1NC(=O)[C@H]2CCCCN2C(=O)[C@H]([C@H](C)CC)NC(=O)[C@H](Cc2cn(OC)c3ccccc23)NC1=O
REMARK SMILES IDX 9 1 10 2 44 3 43 4 45 6 30 7 28 8 27 9 29 11 22 12 23 14
REMARK SMILES IDX 24 15 25 16 26 17 31 18 32 19 33 20 42 21 34 22 37 23 41 24
REMARK SMILES IDX 38 25 40 26 39 27 35 28 36 29 11 30 12 31 13 33 14 34 19 35
REMARK SMILES IDX 15 36 18 37 16 38 17 39 20 40 21 41 8 43 7 44 6 45 5 46 3 47
REMARK SMILES IDX 4 48 2 49 1 50
REMARK H PARENT 43 5 27 10 11 32
REMARK Flexibility Score: 80.00
ROOT
ATOM      1  C   UNL     1      56.980  25.888  50.343  1.00  0.00     0.035 C 
ENDROOT
BRANCH   1   2
ATOM      2  C   UNL     1      57.355  26.285  51.787  1.00  0.00     0.171 C 
BRANCH   2   3
ATOM      3  C   UNL     1      57.526  25.083  52.680  1.00  0.00     0.243 C 
ATOM      4  N   UNL     1      58.434  24.033  52.319  1.00  0.00    -0.342 N 
ATOM      5  H   UNL     1      58.767  23.980  51.330  1.00  0.00     0.164 HD
ATOM      6  O   UNL     1      56.866  25.008  53.752  1.00  0.00    -0.273 OA
BRANCH   4   7
ATOM      7  C   UNL     1      59.204  23.299  53.324  1.00  0.00     0.175 C 
BRANCH   7   8
ATOM      8  C   UNL     1      60.429  24.104  53.667  1.00  0.00     0.243 C 
ATOM      9  N   UNL     1      61.069  24.895  52.653  1.00  0.00    -0.342 N 
ATOM     10  H   UNL     1      60.628  24.917  51.705  1.00  0.00     0.164 HD
ATOM     11  O   UNL     1      60.925  24.018  54.823  1.00  0.00    -0.273 OA
BRANCH   9  12
ATOM     12  C   UNL     1      62.302  25.676  52.833  1.00  0.00     0.174 CG0
ATOM     13  G   UNL     1      62.023  27.154  52.646  1.00  0.00     0.000 G0
BRANCH  12  14
ATOM     14  C   UNL     1      63.489  25.139  51.978  1.00  0.00     0.018 C 
ATOM     15  C   UNL     1      62.986  24.121  50.934  1.00  0.00     0.010 C 
BRANCH  14  16
ATOM     16  C   UNL     1      64.567  24.485  52.883  1.00  0.00     0.002 C 
ATOM     17  C   UNL     1      64.345  24.762  54.371  1.00  0.00     0.004 C 
ENDBRANCH  14  16
ENDBRANCH  12  14
ENDBRANCH   9  12
ENDBRANCH   7   8
BRANCH   7  18
ATOM     18  C   UNL     1      59.577  21.903  52.799  1.00  0.00     0.073 C 
BRANCH  18  19
ATOM     19  C   UNL     1      58.348  21.074  52.566  1.00  0.00    -0.016 A 
ATOM     20  C   UNL     1      57.200  21.059  53.354  1.00  0.00     0.134 A 
ATOM     21  C   UNL     1      58.172  20.078  51.622  1.00  0.00     0.006 A 
ATOM     22  N   UNL     1      56.338  20.128  52.889  1.00  0.00    -0.191 N 
ATOM     23  C   UNL     1      56.939  19.516  51.847  1.00  0.00     0.087 A 
ATOM     24  C   UNL     1      59.030  19.601  50.629  1.00  0.00     0.011 A 
ATOM     25  C   UNL     1      56.503  18.406  51.119  1.00  0.00     0.030 A 
ATOM     26  C   UNL     1      58.601  18.505  49.863  1.00  0.00     0.001 A 
ATOM     27  C   UNL     1      57.346  17.907  50.110  1.00  0.00     0.002 A 
BRANCH  22  28
ATOM     28  O   UNL     1      55.104  19.849  53.444  1.00  0.00    -0.417 OA
ATOM     29  C   UNL     1      54.964  18.941  54.530  1.00  0.00     0.313 C 
ENDBRANCH  22  28
ENDBRANCH  18  19
ENDBRANCH   7  18
ENDBRANCH   4   7
ENDBRANCH   2   3
BRANCH   2  30
ATOM     30  N   UNL     1      58.563  27.118  51.826  1.00  0.00    -0.343 N 
ATOM     31  C   UNL     1      59.636  26.936  50.889  1.00  0.00     0.243 C 
ATOM     32  H   UNL     1      58.665  27.858  52.557  1.00  0.00     0.164 HD
ATOM     33  O   UNL     1      59.760  25.833  50.292  1.00  0.00    -0.273 OA
BRANCH  31  34
ATOM     34  C   UNL     1      60.653  28.039  50.695  1.00  0.00     0.174 C 
ATOM     35  N   UNL     1      61.955  27.794  51.354  1.00  0.00    -0.329 N 
ATOM     36  C   UNL     1      60.098  29.396  51.151  1.00  0.00     0.035 C 
ATOM     37  C   UNL     1      62.982  28.792  51.032  1.00  0.00     0.120 C 
ATOM     38  C   UNL     1      61.124  30.511  50.881  1.00  0.00     0.004 C 
ATOM     39  C   UNL     1      62.502  30.181  51.478  1.00  0.00     0.022 C 
BRANCH  35  40
ATOM     40  C   UNL     1      62.031  27.176  52.653  1.00  0.00     0.246 CG0
ATOM     41  O   UNL     1      61.861  27.885  53.683  1.00  0.00    -0.272 OA
ATOM     42  G   UNL     1      62.291  25.692  52.823  1.00  0.00     0.000 G0
ENDBRANCH  35  40
ENDBRANCH  31  34
ENDBRANCH   2  30
ENDBRANCH   1   2
BRANCH   1  43
ATOM     43  C   UNL     1      55.678  26.531  49.823  1.00  0.00     0.003 C 
BRANCH  43  44
ATOM     44  C   UNL     1      54.725  26.929  50.961  1.00  0.00     0.001 C 
BRANCH  44  45
ATOM     45  C   UNL     1      54.238  28.385  50.844  1.00  0.00     0.008 C 
BRANCH  45  46
ATOM     46  C   UNL     1      54.124  29.069  52.217  1.00  0.00     0.075 C 
BRANCH  46  47
ATOM     47  C   UNL     1      55.413  29.064  53.017  1.00  0.00     0.132 C 
ATOM     48  O   UNL     1      55.590  28.205  53.871  1.00  0.00    -0.300 OA
BRANCH  47  49
ATOM     49  C   UNL     1      56.543  30.036  52.754  1.00  0.00     0.072 C 
ATOM     50  C   UNL     1      56.621  31.206  53.735  1.00  0.00     0.012 C 
ENDBRANCH  47  49
ENDBRANCH  46  47
ENDBRANCH  45  46
ENDBRANCH  44  45
ENDBRANCH  43  44
ENDBRANCH   1  43
TORSDOF 12
ENDMDL
