MODEL 1
REMARK VINA RESULT:    -3.297      0.000      0.000
REMARK INTER + INTRA:          -3.976
REMARK INTER:                  -3.875
REMARK INTRA:                  -0.101
REMARK UNBOUND:                -0.101
REMARK SMILES O=C([O-])CCC(=O)[O-]
REMARK SMILES IDX 4 1 2 2 1 3 3 4 5 5 6 6 7 7 8 8
REMARK H PARENT
REMARK Flexibility Score: inf
ROOT
ATOM      1  C   UNL     1      29.251  -6.304 -30.176  1.00  0.00     0.059 C 
ENDROOT
BRANCH   1   2
ATOM      2  C   UNL     1      28.702  -5.313 -31.156  1.00  0.00     0.042 C 
ATOM      3  O   UNL     1      27.568  -4.798 -30.972  1.00  0.00    -0.550 OA
ATOM      4  O   UNL     1      29.428  -4.988 -32.296  1.00  0.00    -0.550 OA
ENDBRANCH   1   2
BRANCH   1   5
ATOM      5  C   UNL     1      30.720  -6.628 -30.465  1.00  0.00     0.059 C 
BRANCH   5   6
ATOM      6  C   UNL     1      30.867  -7.930 -31.191  1.00  0.00     0.042 C 
ATOM      7  O   UNL     1      31.125  -7.943 -32.423  1.00  0.00    -0.550 OA
ATOM      8  O   UNL     1      30.758  -9.129 -30.498  1.00  0.00    -0.550 OA
ENDBRANCH   5   6
ENDBRANCH   1   5
TORSDOF 3
ENDMDL
MODEL 2
REMARK VINA RESULT:    -3.226     13.799     15.203
REMARK INTER + INTRA:          -3.892
REMARK INTER:                  -3.860
REMARK INTRA:                  -0.032
REMARK UNBOUND:                -0.101
REMARK SMILES O=C([O-])CCC(=O)[O-]
REMARK SMILES IDX 4 1 2 2 1 3 3 4 5 5 6 6 7 7 8 8
REMARK H PARENT
REMARK Flexibility Score: inf
ROOT
ATOM      1  C   UNL     1      15.400  -9.849 -29.047  1.00  0.00     0.059 C 
ENDROOT
BRANCH   1   2
ATOM      2  C   UNL     1      14.621 -10.136 -27.800  1.00  0.00     0.042 C 
ATOM      3  O   UNL     1      13.423  -9.759 -27.698  1.00  0.00    -0.550 OA
ATOM      4  O   UNL     1      15.232 -10.784 -26.733  1.00  0.00    -0.550 OA
ENDBRANCH   1   2
BRANCH   1   5
ATOM      5  C   UNL     1      14.886  -8.593 -29.756  1.00  0.00     0.059 C 
BRANCH   5   6
ATOM      6  C   UNL     1      15.891  -8.059 -30.730  1.00  0.00     0.042 C 
ATOM      7  O   UNL     1      15.632  -8.039 -31.962  1.00  0.00    -0.550 OA
ATOM      8  O   UNL     1      17.098  -7.544 -30.274  1.00  0.00    -0.550 OA
ENDBRANCH   5   6
ENDBRANCH   1   5
TORSDOF 3
ENDMDL
MODEL 3
REMARK VINA RESULT:    -3.217     13.755     15.180
REMARK INTER + INTRA:          -3.882
REMARK INTER:                  -3.847
REMARK INTRA:                  -0.034
REMARK UNBOUND:                -0.101
REMARK SMILES O=C([O-])CCC(=O)[O-]
REMARK SMILES IDX 4 1 2 2 1 3 3 4 5 5 6 6 7 7 8 8
REMARK H PARENT
REMARK Flexibility Score: inf
ROOT
ATOM      1  C   UNL     1      15.392  -9.844 -29.130  1.00  0.00     0.059 C 
ENDROOT
BRANCH   1   2
ATOM      2  C   UNL     1      14.625 -10.124 -27.874  1.00  0.00     0.042 C 
ATOM      3  O   UNL     1      13.430  -9.744 -27.761  1.00  0.00    -0.550 OA
ATOM      4  O   UNL     1      15.245 -10.770 -26.811  1.00  0.00    -0.550 OA
ENDBRANCH   1   2
BRANCH   1   5
ATOM      5  C   UNL     1      14.933  -8.542 -29.792  1.00  0.00     0.059 C 
BRANCH   5   6
ATOM      6  C   UNL     1      15.980  -7.990 -30.711  1.00  0.00     0.042 C 
ATOM      7  O   UNL     1      17.077  -7.581 -30.250  1.00  0.00    -0.550 OA
ATOM      8  O   UNL     1      15.758  -7.965 -32.082  1.00  0.00    -0.550 OA
ENDBRANCH   5   6
ENDBRANCH   1   5
TORSDOF 3
ENDMDL
MODEL 4
REMARK VINA RESULT:    -3.176     13.687     15.005
REMARK INTER + INTRA:          -3.834
REMARK INTER:                  -3.806
REMARK INTRA:                  -0.028
REMARK UNBOUND:                -0.101
REMARK SMILES O=C([O-])CCC(=O)[O-]
REMARK SMILES IDX 4 1 2 2 1 3 3 4 5 5 6 6 7 7 8 8
REMARK H PARENT
REMARK Flexibility Score: inf
ROOT
ATOM      1  C   UNL     1      15.083  -8.340 -29.670  1.00  0.00     0.059 C 
ENDROOT
BRANCH   1   2
ATOM      2  C   UNL     1      16.089  -7.942 -30.707  1.00  0.00     0.042 C 
ATOM      3  O   UNL     1      15.825  -8.074 -31.932  1.00  0.00    -0.550 OA
ATOM      4  O   UNL     1      17.334  -7.463 -30.319  1.00  0.00    -0.550 OA
ENDBRANCH   1   2
BRANCH   1   5
ATOM      5  C   UNL     1      15.286  -9.787 -29.213  1.00  0.00     0.059 C 
BRANCH   5   6
ATOM      6  C   UNL     1      14.602 -10.056 -27.908  1.00  0.00     0.042 C 
ATOM      7  O   UNL     1      13.403  -9.711 -27.737  1.00  0.00    -0.550 OA
ATOM      8  O   UNL     1      15.276 -10.724 -26.894  1.00  0.00    -0.550 OA
ENDBRANCH   5   6
ENDBRANCH   1   5
TORSDOF 3
ENDMDL
MODEL 5
REMARK VINA RESULT:    -3.150      1.733      3.506
REMARK INTER + INTRA:          -3.803
REMARK INTER:                  -3.693
REMARK INTRA:                  -0.110
REMARK UNBOUND:                -0.101
REMARK SMILES O=C([O-])CCC(=O)[O-]
REMARK SMILES IDX 4 1 2 2 1 3 3 4 5 5 6 6 7 7 8 8
REMARK H PARENT
REMARK Flexibility Score: inf
ROOT
ATOM      1  C   UNL     1      30.922  -5.827 -30.858  1.00  0.00     0.059 C 
ENDROOT
BRANCH   1   2
ATOM      2  C   UNL     1      30.181  -7.009 -30.311  1.00  0.00     0.042 C 
ATOM      3  O   UNL     1      30.791  -8.084 -30.067  1.00  0.00    -0.550 OA
ATOM      4  O   UNL     1      28.808  -6.935 -30.108  1.00  0.00    -0.550 OA
ENDBRANCH   1   2
BRANCH   1   5
ATOM      5  C   UNL     1      31.062  -5.906 -32.381  1.00  0.00     0.059 C 
BRANCH   5   6
ATOM      6  C   UNL     1      29.995  -5.118 -33.076  1.00  0.00     0.042 C 
ATOM      7  O   UNL     1      29.925  -5.115 -34.333  1.00  0.00    -0.550 OA
ATOM      8  O   UNL     1      29.052  -4.417 -32.334  1.00  0.00    -0.550 OA
ENDBRANCH   5   6
ENDBRANCH   1   5
TORSDOF 3
ENDMDL
MODEL 6
REMARK VINA RESULT:    -3.037      1.897      2.572
REMARK INTER + INTRA:          -3.670
REMARK INTER:                  -3.636
REMARK INTRA:                  -0.034
REMARK UNBOUND:                -0.101
REMARK SMILES O=C([O-])CCC(=O)[O-]
REMARK SMILES IDX 4 1 2 2 1 3 3 4 5 5 6 6 7 7 8 8
REMARK H PARENT
REMARK Flexibility Score: inf
ROOT
ATOM      1  C   UNL     1      29.234  -5.004 -32.119  1.00  0.00     0.059 C 
ENDROOT
BRANCH   1   2
ATOM      2  C   UNL     1      29.725  -4.302 -33.348  1.00  0.00     0.042 C 
ATOM      3  O   UNL     1      29.606  -4.844 -34.479  1.00  0.00    -0.550 OA
ATOM      4  O   UNL     1      30.351  -3.067 -33.239  1.00  0.00    -0.550 OA
ENDBRANCH   1   2
BRANCH   1   5
ATOM      5  C   UNL     1      30.358  -5.779 -31.425  1.00  0.00     0.059 C 
BRANCH   5   6
ATOM      6  C   UNL     1      29.819  -6.846 -30.524  1.00  0.00     0.042 C 
ATOM      7  O   UNL     1      28.591  -6.884 -30.249  1.00  0.00    -0.550 OA
ATOM      8  O   UNL     1      30.666  -7.824 -30.019  1.00  0.00    -0.550 OA
ENDBRANCH   5   6
ENDBRANCH   1   5
TORSDOF 3
ENDMDL
MODEL 7
REMARK VINA RESULT:    -3.028     14.418     15.750
REMARK INTER + INTRA:          -3.660
REMARK INTER:                  -3.565
REMARK INTRA:                  -0.095
REMARK UNBOUND:                -0.101
REMARK SMILES O=C([O-])CCC(=O)[O-]
REMARK SMILES IDX 4 1 2 2 1 3 3 4 5 5 6 6 7 7 8 8
REMARK H PARENT
REMARK Flexibility Score: inf
ROOT
ATOM      1  C   UNL     1      15.434  -9.884 -28.958  1.00  0.00     0.059 C 
ENDROOT
BRANCH   1   2
ATOM      2  C   UNL     1      14.626 -10.151 -27.725  1.00  0.00     0.042 C 
ATOM      3  O   UNL     1      13.415  -9.807 -27.672  1.00  0.00    -0.550 OA
ATOM      4  O   UNL     1      15.222 -10.744 -26.618  1.00  0.00    -0.550 OA
ENDBRANCH   1   2
BRANCH   1   5
ATOM      5  C   UNL     1      14.602  -9.186 -30.037  1.00  0.00     0.059 C 
BRANCH   5   6
ATOM      6  C   UNL     1      14.875  -7.713 -30.079  1.00  0.00     0.042 C 
ATOM      7  O   UNL     1      13.931  -6.889 -29.960  1.00  0.00    -0.550 OA
ATOM      8  O   UNL     1      16.179  -7.251 -30.208  1.00  0.00    -0.550 OA
ENDBRANCH   5   6
ENDBRANCH   1   5
TORSDOF 3
ENDMDL
MODEL 8
REMARK VINA RESULT:    -3.008      1.912      4.146
REMARK INTER + INTRA:          -3.636
REMARK INTER:                  -3.602
REMARK INTRA:                  -0.034
REMARK UNBOUND:                -0.101
REMARK SMILES O=C([O-])CCC(=O)[O-]
REMARK SMILES IDX 4 1 2 2 1 3 3 4 5 5 6 6 7 7 8 8
REMARK H PARENT
REMARK Flexibility Score: inf
ROOT
ATOM      1  C   UNL     1      28.841  -5.616 -31.155  1.00  0.00     0.059 C 
ENDROOT
BRANCH   1   2
ATOM      2  C   UNL     1      29.814  -6.501 -30.438  1.00  0.00     0.042 C 
ATOM      3  O   UNL     1      30.795  -6.002 -29.825  1.00  0.00    -0.550 OA
ATOM      4  O   UNL     1      29.660  -7.881 -30.480  1.00  0.00    -0.550 OA
ENDBRANCH   1   2
BRANCH   1   5
ATOM      5  C   UNL     1      29.485  -4.937 -32.367  1.00  0.00     0.059 C 
BRANCH   5   6
ATOM      6  C   UNL     1      28.626  -3.833 -32.903  1.00  0.00     0.042 C 
ATOM      7  O   UNL     1      28.901  -3.295 -34.008  1.00  0.00    -0.550 OA
ATOM      8  O   UNL     1      27.498  -3.426 -32.202  1.00  0.00    -0.550 OA
ENDBRANCH   5   6
ENDBRANCH   1   5
TORSDOF 3
ENDMDL
MODEL 9
REMARK VINA RESULT:    -2.954      2.381      3.882
REMARK INTER + INTRA:          -3.573
REMARK INTER:                  -3.541
REMARK INTRA:                  -0.031
REMARK UNBOUND:                -0.101
REMARK SMILES O=C([O-])CCC(=O)[O-]
REMARK SMILES IDX 4 1 2 2 1 3 3 4 5 5 6 6 7 7 8 8
REMARK H PARENT
REMARK Flexibility Score: inf
ROOT
ATOM      1  C   UNL     1      29.064  -5.127 -31.817  1.00  0.00     0.059 C 
ENDROOT
BRANCH   1   2
ATOM      2  C   UNL     1      29.417  -6.067 -30.706  1.00  0.00     0.042 C 
ATOM      3  O   UNL     1      28.560  -6.879 -30.264  1.00  0.00    -0.550 OA
ATOM      4  O   UNL     1      30.680  -6.020 -30.130  1.00  0.00    -0.550 OA
ENDBRANCH   1   2
BRANCH   1   5
ATOM      5  C   UNL     1      30.083  -5.195 -32.958  1.00  0.00     0.059 C 
BRANCH   5   6
ATOM      6  C   UNL     1      29.723  -4.268 -34.078  1.00  0.00     0.042 C 
ATOM      7  O   UNL     1      30.514  -4.101 -35.043  1.00  0.00    -0.550 OA
ATOM      8  O   UNL     1      28.495  -3.618 -34.076  1.00  0.00    -0.550 OA
ENDBRANCH   5   6
ENDBRANCH   1   5
TORSDOF 3
ENDMDL
