MODEL 1
REMARK VINA RESULT:    -5.234      0.000      0.000
REMARK INTER + INTRA:          -5.637
REMARK INTER:                  -5.540
REMARK INTRA:                  -0.097
REMARK UNBOUND:                -0.097
REMARK SMILES C=C(C)[C@H]1CC=C(C)C(=O)C1
REMARK SMILES IDX 8 1 7 2 6 3 5 4 4 5 11 6 9 7 10 8 2 9 1 10 3 11
REMARK H PARENT
REMARK Flexibility Score: inf
ROOT
ATOM      1  C   UNL     1     -29.003 -53.406  25.831  1.00  0.00     0.048 C 
ATOM      2  C   UNL     1     -27.538 -53.740  25.788  1.00  0.00    -0.012 C 
ATOM      3  C   UNL     1     -26.949 -54.303  26.857  1.00  0.00    -0.019 C 
ATOM      4  C   UNL     1     -25.481 -54.641  26.875  1.00  0.00     0.036 C 
ATOM      5  C   UNL     1     -24.988 -55.039  25.471  1.00  0.00     0.025 C 
ATOM      6  C   UNL     1     -25.318 -53.932  24.455  1.00  0.00     0.089 C 
ATOM      7  C   UNL     1     -26.775 -53.566  24.527  1.00  0.00     0.158 C 
ATOM      8  O   UNL     1     -27.335 -53.073  23.511  1.00  0.00    -0.295 OA
ENDROOT
BRANCH   5   9
ATOM      9  C   UNL     1     -23.500 -55.365  25.475  1.00  0.00    -0.077 C 
ATOM     10  C   UNL     1     -22.647 -54.608  26.184  1.00  0.00     0.008 C 
ATOM     11  C   UNL     1     -22.950 -56.534  24.695  1.00  0.00     0.039 C 
ENDBRANCH   5   9
TORSDOF 1
ENDMDL
MODEL 2
REMARK VINA RESULT:    -5.112      3.480      5.717
REMARK INTER + INTRA:          -5.508
REMARK INTER:                  -5.418
REMARK INTRA:                  -0.089
REMARK UNBOUND:                -0.097
REMARK SMILES C=C(C)[C@H]1CC=C(C)C(=O)C1
REMARK SMILES IDX 8 1 7 2 6 3 5 4 4 5 11 6 9 7 10 8 2 9 1 10 3 11
REMARK H PARENT
REMARK Flexibility Score: inf
ROOT
ATOM      1  C   UNL     1     -19.299 -51.258  23.789  1.00  0.00     0.048 C 
ATOM      2  C   UNL     1     -20.410 -52.251  23.989  1.00  0.00    -0.012 C 
ATOM      3  C   UNL     1     -20.620 -53.212  23.074  1.00  0.00    -0.019 C 
ATOM      4  C   UNL     1     -21.730 -54.221  23.215  1.00  0.00     0.036 C 
ATOM      5  C   UNL     1     -21.996 -54.547  24.697  1.00  0.00     0.025 C 
ATOM      6  C   UNL     1     -22.277 -53.256  25.486  1.00  0.00     0.089 C 
ATOM      7  C   UNL     1     -21.189 -52.245  25.253  1.00  0.00     0.158 C 
ATOM      8  O   UNL     1     -20.968 -51.367  26.129  1.00  0.00    -0.295 OA
ENDROOT
BRANCH   5   9
ATOM      9  C   UNL     1     -23.129 -55.552  24.851  1.00  0.00    -0.077 C 
ATOM     10  C   UNL     1     -22.899 -56.861  24.660  1.00  0.00     0.008 C 
ATOM     11  C   UNL     1     -24.525 -55.113  25.221  1.00  0.00     0.039 C 
ENDBRANCH   5   9
TORSDOF 1
ENDMDL
MODEL 3
REMARK VINA RESULT:    -5.105      5.462      7.108
REMARK INTER + INTRA:          -5.501
REMARK INTER:                  -5.404
REMARK INTRA:                  -0.098
REMARK UNBOUND:                -0.097
REMARK SMILES C=C(C)[C@H]1CC=C(C)C(=O)C1
REMARK SMILES IDX 8 1 7 2 6 3 5 4 4 5 11 6 9 7 10 8 2 9 1 10 3 11
REMARK H PARENT
REMARK Flexibility Score: inf
ROOT
ATOM      1  C   UNL     1     -21.304 -53.935  22.443  1.00  0.00     0.048 C 
ATOM      2  C   UNL     1     -20.607 -53.107  23.486  1.00  0.00    -0.012 C 
ATOM      3  C   UNL     1     -19.878 -52.040  23.116  1.00  0.00    -0.019 C 
ATOM      4  C   UNL     1     -19.144 -51.188  24.118  1.00  0.00     0.036 C 
ATOM      5  C   UNL     1     -19.903 -51.130  25.457  1.00  0.00     0.025 C 
ATOM      6  C   UNL     1     -20.167 -52.551  25.984  1.00  0.00     0.089 C 
ATOM      7  C   UNL     1     -20.825 -53.394  24.926  1.00  0.00     0.158 C 
ATOM      8  O   UNL     1     -21.538 -54.372  25.276  1.00  0.00    -0.295 OA
ENDROOT
BRANCH   5   9
ATOM      9  C   UNL     1     -19.159 -50.285  26.483  1.00  0.00    -0.077 C 
ATOM     10  C   UNL     1     -18.347 -50.872  27.376  1.00  0.00     0.008 C 
ATOM     11  C   UNL     1     -19.309 -48.784  26.523  1.00  0.00     0.039 C 
ENDBRANCH   5   9
TORSDOF 1
ENDMDL
MODEL 4
REMARK VINA RESULT:    -5.105      7.696      9.932
REMARK INTER + INTRA:          -5.500
REMARK INTER:                  -5.402
REMARK INTRA:                  -0.098
REMARK UNBOUND:                -0.097
REMARK SMILES C=C(C)[C@H]1CC=C(C)C(=O)C1
REMARK SMILES IDX 8 1 7 2 6 3 5 4 4 5 11 6 9 7 10 8 2 9 1 10 3 11
REMARK H PARENT
REMARK Flexibility Score: inf
ROOT
ATOM      1  C   UNL     1     -16.881 -51.609  32.249  1.00  0.00     0.048 C 
ATOM      2  C   UNL     1     -17.680 -51.254  31.025  1.00  0.00    -0.012 C 
ATOM      3  C   UNL     1     -18.895 -50.696  31.158  1.00  0.00    -0.019 C 
ATOM      4  C   UNL     1     -19.744 -50.337  29.967  1.00  0.00     0.036 C 
ATOM      5  C   UNL     1     -18.871 -49.917  28.771  1.00  0.00     0.025 C 
ATOM      6  C   UNL     1     -17.845 -51.017  28.445  1.00  0.00     0.089 C 
ATOM      7  C   UNL     1     -17.075 -51.404  29.677  1.00  0.00     0.158 C 
ATOM      8  O   UNL     1     -15.921 -51.894  29.552  1.00  0.00    -0.295 OA
ENDROOT
BRANCH   5   9
ATOM      9  C   UNL     1     -19.720 -49.571  27.555  1.00  0.00    -0.077 C 
ATOM     10  C   UNL     1     -20.873 -50.221  27.332  1.00  0.00     0.008 C 
ATOM     11  C   UNL     1     -19.297 -48.500  26.580  1.00  0.00     0.039 C 
ENDBRANCH   5   9
TORSDOF 1
ENDMDL
MODEL 5
REMARK VINA RESULT:    -4.899      2.051      2.953
REMARK INTER + INTRA:          -5.282
REMARK INTER:                  -5.189
REMARK INTRA:                  -0.094
REMARK UNBOUND:                -0.097
REMARK SMILES C=C(C)[C@H]1CC=C(C)C(=O)C1
REMARK SMILES IDX 8 1 7 2 6 3 5 4 4 5 11 6 9 7 10 8 2 9 1 10 3 11
REMARK H PARENT
REMARK Flexibility Score: inf
ROOT
ATOM      1  C   UNL     1     -26.307 -54.989  26.671  1.00  0.00     0.048 C 
ATOM      2  C   UNL     1     -25.087 -54.569  25.899  1.00  0.00    -0.012 C 
ATOM      3  C   UNL     1     -23.873 -55.003  26.280  1.00  0.00    -0.019 C 
ATOM      4  C   UNL     1     -22.617 -54.598  25.555  1.00  0.00     0.036 C 
ATOM      5  C   UNL     1     -22.886 -54.398  24.052  1.00  0.00     0.025 C 
ATOM      6  C   UNL     1     -24.029 -53.388  23.843  1.00  0.00     0.089 C 
ATOM      7  C   UNL     1     -25.236 -53.783  24.649  1.00  0.00     0.158 C 
ATOM      8  O   UNL     1     -26.377 -53.407  24.270  1.00  0.00    -0.295 OA
ENDROOT
BRANCH   5   9
ATOM      9  C   UNL     1     -21.625 -53.970  23.312  1.00  0.00    -0.077 C 
ATOM     10  C   UNL     1     -21.603 -53.959  21.970  1.00  0.00     0.008 C 
ATOM     11  C   UNL     1     -20.381 -53.552  24.057  1.00  0.00     0.039 C 
ENDBRANCH   5   9
TORSDOF 1
ENDMDL
MODEL 6
REMARK VINA RESULT:    -4.895      1.460      1.931
REMARK INTER + INTRA:          -5.279
REMARK INTER:                  -5.182
REMARK INTRA:                  -0.096
REMARK UNBOUND:                -0.097
REMARK SMILES C=C(C)[C@H]1CC=C(C)C(=O)C1
REMARK SMILES IDX 8 1 7 2 6 3 5 4 4 5 11 6 9 7 10 8 2 9 1 10 3 11
REMARK H PARENT
REMARK Flexibility Score: inf
ROOT
ATOM      1  C   UNL     1     -28.877 -53.349  25.754  1.00  0.00     0.048 C 
ATOM      2  C   UNL     1     -27.518 -53.991  25.775  1.00  0.00    -0.012 C 
ATOM      3  C   UNL     1     -27.123 -54.755  24.742  1.00  0.00    -0.019 C 
ATOM      4  C   UNL     1     -25.780 -55.437  24.720  1.00  0.00     0.036 C 
ATOM      5  C   UNL     1     -24.721 -54.596  25.458  1.00  0.00     0.025 C 
ATOM      6  C   UNL     1     -25.191 -54.281  26.889  1.00  0.00     0.089 C 
ATOM      7  C   UNL     1     -26.569 -53.679  26.873  1.00  0.00     0.158 C 
ATOM      8  O   UNL     1     -26.924 -52.932  27.823  1.00  0.00    -0.295 OA
ENDROOT
BRANCH   5   9
ATOM      9  C   UNL     1     -23.363 -55.286  25.457  1.00  0.00    -0.077 C 
ATOM     10  C   UNL     1     -22.351 -54.781  26.180  1.00  0.00     0.008 C 
ATOM     11  C   UNL     1     -23.119 -56.540  24.655  1.00  0.00     0.039 C 
ENDBRANCH   5   9
TORSDOF 1
ENDMDL
MODEL 7
REMARK VINA RESULT:    -4.874      5.461      7.115
REMARK INTER + INTRA:          -5.256
REMARK INTER:                  -5.158
REMARK INTRA:                  -0.098
REMARK UNBOUND:                -0.097
REMARK SMILES C=C(C)[C@H]1CC=C(C)C(=O)C1
REMARK SMILES IDX 8 1 7 2 6 3 5 4 4 5 11 6 9 7 10 8 2 9 1 10 3 11
REMARK H PARENT
REMARK Flexibility Score: inf
ROOT
ATOM      1  C   UNL     1     -19.129 -49.234  27.288  1.00  0.00     0.048 C 
ATOM      2  C   UNL     1     -19.544 -50.038  26.088  1.00  0.00    -0.012 C 
ATOM      3  C   UNL     1     -18.623 -50.413  25.183  1.00  0.00    -0.019 C 
ATOM      4  C   UNL     1     -18.986 -51.203  23.953  1.00  0.00     0.036 C 
ATOM      5  C   UNL     1     -20.167 -52.151  24.233  1.00  0.00     0.025 C 
ATOM      6  C   UNL     1     -21.364 -51.362  24.793  1.00  0.00     0.089 C 
ATOM      7  C   UNL     1     -20.942 -50.523  25.968  1.00  0.00     0.158 C 
ATOM      8  O   UNL     1     -21.799 -50.204  26.835  1.00  0.00    -0.295 OA
ENDROOT
BRANCH   5   9
ATOM      9  C   UNL     1     -20.554 -52.941  22.990  1.00  0.00    -0.077 C 
ATOM     10  C   UNL     1     -19.993 -52.650  21.806  1.00  0.00     0.008 C 
ATOM     11  C   UNL     1     -21.563 -54.061  23.054  1.00  0.00     0.039 C 
ENDBRANCH   5   9
TORSDOF 1
ENDMDL
MODEL 8
REMARK VINA RESULT:    -4.871      7.600      9.920
REMARK INTER + INTRA:          -5.254
REMARK INTER:                  -5.157
REMARK INTRA:                  -0.096
REMARK UNBOUND:                -0.097
REMARK SMILES C=C(C)[C@H]1CC=C(C)C(=O)C1
REMARK SMILES IDX 8 1 7 2 6 3 5 4 4 5 11 6 9 7 10 8 2 9 1 10 3 11
REMARK H PARENT
REMARK Flexibility Score: inf
ROOT
ATOM      1  C   UNL     1     -16.919 -51.583  32.439  1.00  0.00     0.048 C 
ATOM      2  C   UNL     1     -17.662 -50.963  31.289  1.00  0.00    -0.012 C 
ATOM      3  C   UNL     1     -16.983 -50.501  30.225  1.00  0.00    -0.019 C 
ATOM      4  C   UNL     1     -17.676 -49.855  29.054  1.00  0.00     0.036 C 
ATOM      5  C   UNL     1     -19.068 -50.473  28.824  1.00  0.00     0.025 C 
ATOM      6  C   UNL     1     -19.906 -50.395  30.113  1.00  0.00     0.089 C 
ATOM      7  C   UNL     1     -19.147 -50.975  31.274  1.00  0.00     0.158 C 
ATOM      8  O   UNL     1     -19.786 -51.442  32.254  1.00  0.00    -0.295 OA
ENDROOT
BRANCH   5   9
ATOM      9  C   UNL     1     -19.784 -49.812  27.654  1.00  0.00    -0.077 C 
ATOM     10  C   UNL     1     -21.050 -50.151  27.361  1.00  0.00     0.008 C 
ATOM     11  C   UNL     1     -19.102 -48.770  26.802  1.00  0.00     0.039 C 
ENDBRANCH   5   9
TORSDOF 1
ENDMDL
MODEL 9
REMARK VINA RESULT:    -4.828      2.671      4.972
REMARK INTER + INTRA:          -5.208
REMARK INTER:                  -5.118
REMARK INTRA:                  -0.089
REMARK UNBOUND:                -0.097
REMARK SMILES C=C(C)[C@H]1CC=C(C)C(=O)C1
REMARK SMILES IDX 8 1 7 2 6 3 5 4 4 5 11 6 9 7 10 8 2 9 1 10 3 11
REMARK H PARENT
REMARK Flexibility Score: inf
ROOT
ATOM      1  C   UNL     1     -20.543 -53.586  23.971  1.00  0.00     0.048 C 
ATOM      2  C   UNL     1     -21.936 -53.834  24.479  1.00  0.00    -0.012 C 
ATOM      3  C   UNL     1     -22.986 -53.270  23.857  1.00  0.00    -0.019 C 
ATOM      4  C   UNL     1     -24.400 -53.470  24.335  1.00  0.00     0.036 C 
ATOM      5  C   UNL     1     -24.581 -54.867  24.960  1.00  0.00     0.025 C 
ATOM      6  C   UNL     1     -23.550 -55.088  26.081  1.00  0.00     0.089 C 
ATOM      7  C   UNL     1     -22.160 -54.798  25.586  1.00  0.00     0.158 C 
ATOM      8  O   UNL     1     -21.179 -55.357  26.147  1.00  0.00    -0.295 OA
ENDROOT
BRANCH   5   9
ATOM      9  C   UNL     1     -26.003 -55.071  25.463  1.00  0.00    -0.077 C 
ATOM     10  C   UNL     1     -26.981 -55.399  24.604  1.00  0.00     0.008 C 
ATOM     11  C   UNL     1     -26.350 -54.916  26.924  1.00  0.00     0.039 C 
ENDBRANCH   5   9
TORSDOF 1
ENDMDL
