MODEL 1
REMARK VINA RESULT:    -5.324      0.000      0.000
REMARK INTER + INTRA:          -6.524
REMARK INTER:                  -6.257
REMARK INTRA:                  -0.267
REMARK UNBOUND:                -0.267
REMARK SMILES COc1cc2ccc(=O)oc2c(OC)c1OC
REMARK SMILES IDX 3 1 15 2 12 3 11 4 5 5 4 6 6 7 7 8 8 9 9 10 10 11 2 12 1 13
REMARK SMILES IDX 16 14 17 15 13 16 14 17
REMARK H PARENT
REMARK Flexibility Score: inf
ROOT
ATOM      1  C   UNL     1       7.415 -23.616 -13.586  1.00  0.00     0.165 A 
ATOM      2  C   UNL     1       8.647 -23.553 -14.258  1.00  0.00     0.207 A 
ATOM      3  C   UNL     1       9.838 -23.983 -13.609  1.00  0.00     0.208 A 
ATOM      4  C   UNL     1       9.759 -24.473 -12.279  1.00  0.00     0.184 A 
ATOM      5  C   UNL     1       8.511 -24.528 -11.621  1.00  0.00     0.025 A 
ATOM      6  C   UNL     1       7.352 -24.103 -12.272  1.00  0.00     0.062 A 
ATOM      7  C   UNL     1       8.458 -25.016 -10.311  1.00  0.00     0.020 A 
ATOM      8  C   UNL     1       9.630 -25.433  -9.686  1.00  0.00     0.094 A 
ATOM      9  C   UNL     1      10.831 -25.353 -10.391  1.00  0.00     0.336 A 
ATOM     10  O   UNL     1      11.904 -25.724  -9.849  1.00  0.00    -0.246 OA
ATOM     11  O   UNL     1      10.850 -24.885 -11.636  1.00  0.00    -0.419 OA
ENDROOT
BRANCH   1  12
ATOM     12  O   UNL     1       6.266 -23.181 -14.268  1.00  0.00    -0.493 OA
ATOM     13  C   UNL     1       5.623 -21.928 -14.056  1.00  0.00     0.278 C 
ENDBRANCH   1  12
BRANCH   2  14
ATOM     14  O   UNL     1       8.610 -23.050 -15.574  1.00  0.00    -0.490 OA
ATOM     15  C   UNL     1       8.589 -23.806 -16.780  1.00  0.00     0.278 C 
ENDBRANCH   2  14
BRANCH   3  16
ATOM     16  O   UNL     1      11.055 -23.905 -14.313  1.00  0.00    -0.490 OA
ATOM     17  C   UNL     1      11.916 -22.777 -14.419  1.00  0.00     0.278 C 
ENDBRANCH   3  16
TORSDOF 3
ENDMDL
MODEL 2
REMARK VINA RESULT:    -5.282      9.965     11.827
REMARK INTER + INTRA:          -6.475
REMARK INTER:                  -6.164
REMARK INTRA:                  -0.311
REMARK UNBOUND:                -0.267
REMARK SMILES COc1cc2ccc(=O)oc2c(OC)c1OC
REMARK SMILES IDX 3 1 15 2 12 3 11 4 5 5 4 6 6 7 7 8 8 9 9 10 10 11 2 12 1 13
REMARK SMILES IDX 16 14 17 15 13 16 14 17
REMARK H PARENT
REMARK Flexibility Score: inf
ROOT
ATOM      1  C   UNL     1      11.251 -34.390 -18.954  1.00  0.00     0.165 A 
ATOM      2  C   UNL     1      12.086 -33.292 -19.219  1.00  0.00     0.207 A 
ATOM      3  C   UNL     1      11.528 -32.058 -19.656  1.00  0.00     0.208 A 
ATOM      4  C   UNL     1      10.121 -31.959 -19.818  1.00  0.00     0.184 A 
ATOM      5  C   UNL     1       9.299 -33.074 -19.547  1.00  0.00     0.025 A 
ATOM      6  C   UNL     1       9.862 -34.276 -19.119  1.00  0.00     0.062 A 
ATOM      7  C   UNL     1       7.916 -32.950 -19.714  1.00  0.00     0.020 A 
ATOM      8  C   UNL     1       7.380 -31.739 -20.142  1.00  0.00     0.094 A 
ATOM      9  C   UNL     1       8.248 -30.675 -20.393  1.00  0.00     0.336 A 
ATOM     10  O   UNL     1       7.789 -29.569 -20.780  1.00  0.00    -0.246 OA
ATOM     11  O   UNL     1       9.558 -30.822 -20.225  1.00  0.00    -0.419 OA
ENDROOT
BRANCH   1  12
ATOM     12  O   UNL     1      11.848 -35.588 -18.525  1.00  0.00    -0.493 OA
ATOM     13  C   UNL     1      11.819 -36.074 -17.187  1.00  0.00     0.278 C 
ENDBRANCH   1  12
BRANCH   2  14
ATOM     14  O   UNL     1      13.466 -33.502 -19.025  1.00  0.00    -0.490 OA
ATOM     15  C   UNL     1      14.225 -33.190 -17.863  1.00  0.00     0.278 C 
ENDBRANCH   2  14
BRANCH   3  16
ATOM     16  O   UNL     1      12.395 -30.979 -19.912  1.00  0.00    -0.490 OA
ATOM     17  C   UNL     1      12.754 -29.934 -19.015  1.00  0.00     0.278 C 
ENDBRANCH   3  16
TORSDOF 3
ENDMDL
MODEL 3
REMARK VINA RESULT:    -5.216     12.442     14.650
REMARK INTER + INTRA:          -6.397
REMARK INTER:                  -6.099
REMARK INTRA:                  -0.298
REMARK UNBOUND:                -0.267
REMARK SMILES COc1cc2ccc(=O)oc2c(OC)c1OC
REMARK SMILES IDX 3 1 15 2 12 3 11 4 5 5 4 6 6 7 7 8 8 9 9 10 10 11 2 12 1 13
REMARK SMILES IDX 16 14 17 15 13 16 14 17
REMARK H PARENT
REMARK Flexibility Score: inf
ROOT
ATOM      1  C   UNL     1      19.260 -28.505 -22.882  1.00  0.00     0.165 A 
ATOM      2  C   UNL     1      17.992 -28.243 -22.337  1.00  0.00     0.207 A 
ATOM      3  C   UNL     1      17.219 -29.302 -21.782  1.00  0.00     0.208 A 
ATOM      4  C   UNL     1      17.751 -30.618 -21.789  1.00  0.00     0.184 A 
ATOM      5  C   UNL     1      19.027 -30.860 -22.342  1.00  0.00     0.025 A 
ATOM      6  C   UNL     1      19.771 -29.811 -22.882  1.00  0.00     0.062 A 
ATOM      7  C   UNL     1      19.529 -32.166 -22.337  1.00  0.00     0.020 A 
ATOM      8  C   UNL     1      18.765 -33.194 -21.791  1.00  0.00     0.094 A 
ATOM      9  C   UNL     1      17.512 -32.888 -21.261  1.00  0.00     0.336 A 
ATOM     10  O   UNL     1      16.802 -33.799 -20.761  1.00  0.00    -0.246 OA
ATOM     11  O   UNL     1      17.061 -31.637 -21.279  1.00  0.00    -0.419 OA
ENDROOT
BRANCH   1  12
ATOM     12  O   UNL     1      19.984 -27.427 -23.419  1.00  0.00    -0.493 OA
ATOM     13  C   UNL     1      20.175 -27.191 -24.810  1.00  0.00     0.278 C 
ENDBRANCH   1  12
BRANCH   2  14
ATOM     14  O   UNL     1      17.562 -26.901 -22.382  1.00  0.00    -0.490 OA
ATOM     15  C   UNL     1      16.666 -26.319 -23.322  1.00  0.00     0.278 C 
ENDBRANCH   2  14
BRANCH   3  16
ATOM     16  O   UNL     1      15.953 -29.003 -21.244  1.00  0.00    -0.490 OA
ATOM     17  C   UNL     1      14.688 -29.190 -21.869  1.00  0.00     0.278 C 
ENDBRANCH   3  16
TORSDOF 3
ENDMDL
MODEL 4
REMARK VINA RESULT:    -5.196     12.189     15.004
REMARK INTER + INTRA:          -6.374
REMARK INTER:                  -6.107
REMARK INTRA:                  -0.267
REMARK UNBOUND:                -0.267
REMARK SMILES COc1cc2ccc(=O)oc2c(OC)c1OC
REMARK SMILES IDX 3 1 15 2 12 3 11 4 5 5 4 6 6 7 7 8 8 9 9 10 10 11 2 12 1 13
REMARK SMILES IDX 16 14 17 15 13 16 14 17
REMARK H PARENT
REMARK Flexibility Score: inf
ROOT
ATOM      1  C   UNL     1      18.611 -29.922 -22.098  1.00  0.00     0.165 A 
ATOM      2  C   UNL     1      17.386 -29.250 -21.952  1.00  0.00     0.207 A 
ATOM      3  C   UNL     1      17.195 -27.973 -22.551  1.00  0.00     0.208 A 
ATOM      4  C   UNL     1      18.258 -27.396 -23.295  1.00  0.00     0.184 A 
ATOM      5  C   UNL     1      19.481 -28.088 -23.430  1.00  0.00     0.025 A 
ATOM      6  C   UNL     1      19.652 -29.339 -22.835  1.00  0.00     0.062 A 
ATOM      7  C   UNL     1      20.514 -27.499 -24.167  1.00  0.00     0.020 A 
ATOM      8  C   UNL     1      20.316 -26.250 -24.749  1.00  0.00     0.094 A 
ATOM      9  C   UNL     1      19.083 -25.619 -24.578  1.00  0.00     0.336 A 
ATOM     10  O   UNL     1      18.878 -24.490 -25.095  1.00  0.00    -0.246 OA
ATOM     11  O   UNL     1      18.121 -26.204 -23.872  1.00  0.00    -0.419 OA
ENDROOT
BRANCH   1  12
ATOM     12  O   UNL     1      18.752 -31.180 -21.488  1.00  0.00    -0.493 OA
ATOM     13  C   UNL     1      19.373 -32.310 -22.093  1.00  0.00     0.278 C 
ENDBRANCH   1  12
BRANCH   2  14
ATOM     14  O   UNL     1      16.401 -29.914 -21.195  1.00  0.00    -0.490 OA
ATOM     15  C   UNL     1      15.304 -30.673 -21.692  1.00  0.00     0.278 C 
ENDBRANCH   2  14
BRANCH   3  16
ATOM     16  O   UNL     1      15.955 -27.329 -22.385  1.00  0.00    -0.490 OA
ATOM     17  C   UNL     1      15.580 -26.445 -21.334  1.00  0.00     0.278 C 
ENDBRANCH   3  16
TORSDOF 3
ENDMDL
MODEL 5
REMARK VINA RESULT:    -5.175      8.736     10.784
REMARK INTER + INTRA:          -6.349
REMARK INTER:                  -6.111
REMARK INTRA:                  -0.239
REMARK UNBOUND:                -0.267
REMARK SMILES COc1cc2ccc(=O)oc2c(OC)c1OC
REMARK SMILES IDX 3 1 15 2 12 3 11 4 5 5 4 6 6 7 7 8 8 9 9 10 10 11 2 12 1 13
REMARK SMILES IDX 16 14 17 15 13 16 14 17
REMARK H PARENT
REMARK Flexibility Score: inf
ROOT
ATOM      1  C   UNL     1       9.759 -33.626 -18.382  1.00  0.00     0.165 A 
ATOM      2  C   UNL     1       9.882 -32.782 -17.266  1.00  0.00     0.207 A 
ATOM      3  C   UNL     1       9.354 -31.461 -17.305  1.00  0.00     0.208 A 
ATOM      4  C   UNL     1       8.705 -31.016 -18.486  1.00  0.00     0.184 A 
ATOM      5  C   UNL     1       8.592 -31.879 -19.598  1.00  0.00     0.025 A 
ATOM      6  C   UNL     1       9.115 -33.171 -19.542  1.00  0.00     0.062 A 
ATOM      7  C   UNL     1       7.947 -31.416 -20.750  1.00  0.00     0.020 A 
ATOM      8  C   UNL     1       7.435 -30.123 -20.779  1.00  0.00     0.094 A 
ATOM      9  C   UNL     1       7.579 -29.320 -19.646  1.00  0.00     0.336 A 
ATOM     10  O   UNL     1       7.123 -28.147 -19.646  1.00  0.00    -0.246 OA
ATOM     11  O   UNL     1       8.196 -29.787 -18.565  1.00  0.00    -0.419 OA
ENDROOT
BRANCH   1  12
ATOM     12  O   UNL     1      10.297 -34.921 -18.295  1.00  0.00    -0.493 OA
ATOM     13  C   UNL     1      11.599 -35.290 -18.737  1.00  0.00     0.278 C 
ENDBRANCH   1  12
BRANCH   2  14
ATOM     14  O   UNL     1      10.544 -33.327 -16.147  1.00  0.00    -0.490 OA
ATOM     15  C   UNL     1       9.946 -33.949 -15.015  1.00  0.00     0.278 C 
ENDBRANCH   2  14
BRANCH   3  16
ATOM     16  O   UNL     1       9.495 -30.644 -16.168  1.00  0.00    -0.490 OA
ATOM     17  C   UNL     1      10.609 -29.824 -15.832  1.00  0.00     0.278 C 
ENDBRANCH   3  16
TORSDOF 3
ENDMDL
MODEL 6
REMARK VINA RESULT:    -5.159      1.817      2.060
REMARK INTER + INTRA:          -6.331
REMARK INTER:                  -6.034
REMARK INTRA:                  -0.297
REMARK UNBOUND:                -0.267
REMARK SMILES COc1cc2ccc(=O)oc2c(OC)c1OC
REMARK SMILES IDX 3 1 15 2 12 3 11 4 5 5 4 6 6 7 7 8 8 9 9 10 10 11 2 12 1 13
REMARK SMILES IDX 16 14 17 15 13 16 14 17
REMARK H PARENT
REMARK Flexibility Score: inf
ROOT
ATOM      1  C   UNL     1       7.423 -24.041 -13.866  1.00  0.00     0.165 A 
ATOM      2  C   UNL     1       8.176 -24.983 -14.588  1.00  0.00     0.207 A 
ATOM      3  C   UNL     1       9.042 -25.881 -13.904  1.00  0.00     0.208 A 
ATOM      4  C   UNL     1       9.131 -25.807 -12.489  1.00  0.00     0.184 A 
ATOM      5  C   UNL     1       8.366 -24.853 -11.782  1.00  0.00     0.025 A 
ATOM      6  C   UNL     1       7.522 -23.980 -12.469  1.00  0.00     0.062 A 
ATOM      7  C   UNL     1       8.471 -24.801 -10.388  1.00  0.00     0.020 A 
ATOM      8  C   UNL     1       9.322 -25.684  -9.730  1.00  0.00     0.094 A 
ATOM      9  C   UNL     1      10.050 -26.603 -10.486  1.00  0.00     0.336 A 
ATOM     10  O   UNL     1      10.826 -27.413  -9.915  1.00  0.00    -0.246 OA
ATOM     11  O   UNL     1       9.930 -26.629 -11.810  1.00  0.00    -0.419 OA
ENDROOT
BRANCH   1  12
ATOM     12  O   UNL     1       6.581 -23.176 -14.586  1.00  0.00    -0.493 OA
ATOM     13  C   UNL     1       6.844 -21.796 -14.817  1.00  0.00     0.278 C 
ENDBRANCH   1  12
BRANCH   2  14
ATOM     14  O   UNL     1       8.010 -24.968 -15.987  1.00  0.00    -0.490 OA
ATOM     15  C   UNL     1       8.829 -24.300 -16.940  1.00  0.00     0.278 C 
ENDBRANCH   2  14
BRANCH   3  16
ATOM     16  O   UNL     1       9.781 -26.812 -14.658  1.00  0.00    -0.490 OA
ATOM     17  C   UNL     1       9.373 -28.119 -15.048  1.00  0.00     0.278 C 
ENDBRANCH   3  16
TORSDOF 3
ENDMDL
MODEL 7
REMARK VINA RESULT:    -5.134      9.876     11.630
REMARK INTER + INTRA:          -6.301
REMARK INTER:                  -6.007
REMARK INTRA:                  -0.294
REMARK UNBOUND:                -0.267
REMARK SMILES COc1cc2ccc(=O)oc2c(OC)c1OC
REMARK SMILES IDX 3 1 15 2 12 3 11 4 5 5 4 6 6 7 7 8 8 9 9 10 10 11 2 12 1 13
REMARK SMILES IDX 16 14 17 15 13 16 14 17
REMARK H PARENT
REMARK Flexibility Score: inf
ROOT
ATOM      1  C   UNL     1      12.045 -33.623 -19.292  1.00  0.00     0.165 A 
ATOM      2  C   UNL     1      12.022 -33.446 -17.898  1.00  0.00     0.207 A 
ATOM      3  C   UNL     1      10.843 -32.977 -17.255  1.00  0.00     0.208 A 
ATOM      4  C   UNL     1       9.697 -32.692 -18.044  1.00  0.00     0.184 A 
ATOM      5  C   UNL     1       9.740 -32.876 -19.443  1.00  0.00     0.025 A 
ATOM      6  C   UNL     1      10.905 -33.337 -20.057  1.00  0.00     0.062 A 
ATOM      7  C   UNL     1       8.598 -32.588 -20.198  1.00  0.00     0.020 A 
ATOM      8  C   UNL     1       7.450 -32.129 -19.560  1.00  0.00     0.094 A 
ATOM      9  C   UNL     1       7.472 -31.969 -18.174  1.00  0.00     0.336 A 
ATOM     10  O   UNL     1       6.447 -31.557 -17.572  1.00  0.00    -0.246 OA
ATOM     11  O   UNL     1       8.572 -32.251 -17.483  1.00  0.00    -0.419 OA
ENDROOT
BRANCH   1  12
ATOM     12  O   UNL     1      13.233 -34.089 -19.880  1.00  0.00    -0.493 OA
ATOM     13  C   UNL     1      14.107 -33.297 -20.678  1.00  0.00     0.278 C 
ENDBRANCH   1  12
BRANCH   2  14
ATOM     14  O   UNL     1      13.214 -33.760 -17.214  1.00  0.00    -0.490 OA
ATOM     15  C   UNL     1      14.219 -32.850 -16.782  1.00  0.00     0.278 C 
ENDBRANCH   2  14
BRANCH   3  16
ATOM     16  O   UNL     1      10.856 -32.812 -15.857  1.00  0.00    -0.490 OA
ATOM     17  C   UNL     1      10.428 -33.752 -14.878  1.00  0.00     0.278 C 
ENDBRANCH   3  16
TORSDOF 3
ENDMDL
MODEL 8
REMARK VINA RESULT:    -5.101     11.411     13.434
REMARK INTER + INTRA:          -6.262
REMARK INTER:                  -6.008
REMARK INTRA:                  -0.254
REMARK UNBOUND:                -0.267
REMARK SMILES COc1cc2ccc(=O)oc2c(OC)c1OC
REMARK SMILES IDX 3 1 15 2 12 3 11 4 5 5 4 6 6 7 7 8 8 9 9 10 10 11 2 12 1 13
REMARK SMILES IDX 16 14 17 15 13 16 14 17
REMARK H PARENT
REMARK Flexibility Score: inf
ROOT
ATOM      1  C   UNL     1      17.857 -31.774 -21.342  1.00  0.00     0.165 A 
ATOM      2  C   UNL     1      17.595 -30.577 -20.655  1.00  0.00     0.207 A 
ATOM      3  C   UNL     1      16.328 -30.367 -20.041  1.00  0.00     0.208 A 
ATOM      4  C   UNL     1      15.342 -31.383 -20.136  1.00  0.00     0.184 A 
ATOM      5  C   UNL     1      15.625 -32.579 -20.832  1.00  0.00     0.025 A 
ATOM      6  C   UNL     1      16.872 -32.768 -21.428  1.00  0.00     0.062 A 
ATOM      7  C   UNL     1      14.636 -33.565 -20.911  1.00  0.00     0.020 A 
ATOM      8  C   UNL     1      13.400 -33.350 -20.307  1.00  0.00     0.094 A 
ATOM      9  C   UNL     1      13.184 -32.147 -19.634  1.00  0.00     0.336 A 
ATOM     10  O   UNL     1      12.076 -31.927 -19.079  1.00  0.00    -0.246 OA
ATOM     11  O   UNL     1      14.143 -31.228 -19.576  1.00  0.00    -0.419 OA
ENDROOT
BRANCH   1  12
ATOM     12  O   UNL     1      19.123 -31.935 -21.932  1.00  0.00    -0.493 OA
ATOM     13  C   UNL     1      19.596 -33.142 -22.518  1.00  0.00     0.278 C 
ENDBRANCH   1  12
BRANCH   2  14
ATOM     14  O   UNL     1      18.645 -29.638 -20.622  1.00  0.00    -0.490 OA
ATOM     15  C   UNL     1      18.791 -28.486 -21.445  1.00  0.00     0.278 C 
ENDBRANCH   2  14
BRANCH   3  16
ATOM     16  O   UNL     1      16.101 -29.157 -19.360  1.00  0.00    -0.490 OA
ATOM     17  C   UNL     1      16.382 -28.873 -17.994  1.00  0.00     0.278 C 
ENDBRANCH   3  16
TORSDOF 3
ENDMDL
MODEL 9
REMARK VINA RESULT:    -5.042     11.888     14.098
REMARK INTER + INTRA:          -6.193
REMARK INTER:                  -5.918
REMARK INTRA:                  -0.275
REMARK UNBOUND:                -0.267
REMARK SMILES COc1cc2ccc(=O)oc2c(OC)c1OC
REMARK SMILES IDX 3 1 15 2 12 3 11 4 5 5 4 6 6 7 7 8 8 9 9 10 10 11 2 12 1 13
REMARK SMILES IDX 16 14 17 15 13 16 14 17
REMARK H PARENT
REMARK Flexibility Score: inf
ROOT
ATOM      1  C   UNL     1      15.701 -30.020 -21.054  1.00  0.00     0.165 A 
ATOM      2  C   UNL     1      16.749 -30.951 -20.968  1.00  0.00     0.207 A 
ATOM      3  C   UNL     1      18.017 -30.655 -21.540  1.00  0.00     0.208 A 
ATOM      4  C   UNL     1      18.203 -29.410 -22.195  1.00  0.00     0.184 A 
ATOM      5  C   UNL     1      17.137 -28.487 -22.270  1.00  0.00     0.025 A 
ATOM      6  C   UNL     1      15.899 -28.793 -21.704  1.00  0.00     0.062 A 
ATOM      7  C   UNL     1      17.344 -27.265 -22.920  1.00  0.00     0.020 A 
ATOM      8  C   UNL     1      18.589 -26.986 -23.477  1.00  0.00     0.094 A 
ATOM      9  C   UNL     1      19.601 -27.941 -23.368  1.00  0.00     0.336 A 
ATOM     10  O   UNL     1      20.736 -27.712 -23.862  1.00  0.00    -0.246 OA
ATOM     11  O   UNL     1      19.374 -29.092 -22.744  1.00  0.00    -0.419 OA
ENDROOT
BRANCH   1  12
ATOM     12  O   UNL     1      14.466 -30.357 -20.473  1.00  0.00    -0.493 OA
ATOM     13  C   UNL     1      13.763 -29.549 -19.536  1.00  0.00     0.278 C 
ENDBRANCH   1  12
BRANCH   2  14
ATOM     14  O   UNL     1      16.455 -32.155 -20.296  1.00  0.00    -0.490 OA
ATOM     15  C   UNL     1      16.020 -33.378 -20.879  1.00  0.00     0.278 C 
ENDBRANCH   2  14
BRANCH   3  16
ATOM     16  O   UNL     1      19.045 -31.612 -21.436  1.00  0.00    -0.490 OA
ATOM     17  C   UNL     1      19.371 -32.629 -22.376  1.00  0.00     0.278 C 
ENDBRANCH   3  16
TORSDOF 3
ENDMDL
