MODEL 1
REMARK VINA RESULT:    13.271      0.000      0.000
REMARK INTER + INTRA:          22.131
REMARK INTER:                  20.254
REMARK INTRA:                   1.878
REMARK UNBOUND:                 1.878
REMARK SMILES COc1cc(C=CC(=O)CC(=O)C=Cc2ccc(O)c(OC)c2)ccc1O
REMARK SMILES IDX 10 1 8 2 9 3 7 4 6 5 5 6 3 7 26 8 4 9 25 10 24 11 2 12 1 13
REMARK SMILES IDX 27 14 11 16 12 17 13 18 14 19 15 20 23 21 16 22 20 23 17 24
REMARK SMILES IDX 18 25 21 26 22 27 19 28
REMARK H PARENT 27 15 19 29
REMARK Flexibility Score: inf
ROOT
ATOM      1  C   UNL     1      12.510  31.077  37.990  1.00  0.00     0.160 C 
ENDROOT
BRANCH   1   2
ATOM      2  C   UNL     1      12.770  29.597  38.037  1.00  0.00     0.163 C 
ATOM      3  O   UNL     1      13.088  29.064  39.134  1.00  0.00    -0.294 OA
BRANCH   2   4
ATOM      4  C   UNL     1      12.672  28.794  36.797  1.00  0.00     0.048 C 
ATOM      5  C   UNL     1      13.698  28.191  36.175  1.00  0.00     0.012 C 
BRANCH   5   6
ATOM      6  C   UNL     1      15.071  28.069  36.708  1.00  0.00    -0.022 A 
ATOM      7  C   UNL     1      16.569  27.949  38.632  1.00  0.00     0.161 A 
ATOM      8  C   UNL     1      17.671  27.956  37.765  1.00  0.00     0.157 A 
ATOM      9  C   UNL     1      15.267  28.017  38.096  1.00  0.00     0.058 A 
ATOM     10  C   UNL     1      17.476  28.038  36.381  1.00  0.00     0.051 A 
ATOM     11  C   UNL     1      16.185  28.105  35.855  1.00  0.00     0.012 A 
BRANCH   7  12
ATOM     12  O   UNL     1      16.806  27.876  40.015  1.00  0.00    -0.493 OA
ATOM     13  C   UNL     1      15.804  28.034  41.013  1.00  0.00     0.278 C 
ENDBRANCH   7  12
BRANCH   8  14
ATOM     14  O   UNL     1      18.961  27.886  38.290  1.00  0.00    -0.504 OA
ATOM     15  H   UNL     1      19.412  26.996  38.470  1.00  0.00     0.293 HD
ENDBRANCH   8  14
ENDBRANCH   5   6
ENDBRANCH   2   4
ENDBRANCH   1   2
BRANCH   1  16
ATOM     16  C   UNL     1      13.119  31.732  36.773  1.00  0.00     0.163 C 
ATOM     17  O   UNL     1      13.542  31.022  35.819  1.00  0.00    -0.294 OA
BRANCH  16  18
ATOM     18  C   UNL     1      13.250  33.200  36.656  1.00  0.00     0.048 C 
ATOM     19  C   UNL     1      13.875  33.807  35.635  1.00  0.00     0.012 C 
BRANCH  19  20
ATOM     20  C   UNL     1      13.996  35.280  35.508  1.00  0.00    -0.022 A 
ATOM     21  C   UNL     1      12.914  36.083  35.909  1.00  0.00     0.058 A 
ATOM     22  C   UNL     1      15.138  35.898  34.967  1.00  0.00     0.012 A 
ATOM     23  C   UNL     1      12.976  37.487  35.799  1.00  0.00     0.161 A 
ATOM     24  C   UNL     1      15.204  37.288  34.855  1.00  0.00     0.051 A 
ATOM     25  C   UNL     1      14.134  38.084  35.270  1.00  0.00     0.157 A 
BRANCH  23  26
ATOM     26  O   UNL     1      11.914  38.310  36.205  1.00  0.00    -0.493 OA
ATOM     27  C   UNL     1      10.674  37.838  36.722  1.00  0.00     0.278 C 
ENDBRANCH  23  26
BRANCH  25  28
ATOM     28  O   UNL     1      14.237  39.469  35.146  1.00  0.00    -0.504 OA
ATOM     29  H   UNL     1      14.317  39.926  34.246  1.00  0.00     0.293 HD
ENDBRANCH  25  28
ENDBRANCH  19  20
ENDBRANCH  16  18
ENDBRANCH   1  16
TORSDOF 10
ENDMDL
MODEL 2
REMARK VINA RESULT:    13.585     17.994     22.602
REMARK INTER + INTRA:          22.610
REMARK INTER:                  22.364
REMARK INTRA:                   0.246
REMARK UNBOUND:                 1.878
REMARK SMILES COc1cc(C=CC(=O)CC(=O)C=Cc2ccc(O)c(OC)c2)ccc1O
REMARK SMILES IDX 10 1 8 2 9 3 7 4 6 5 5 6 3 7 26 8 4 9 25 10 24 11 2 12 1 13
REMARK SMILES IDX 27 14 11 16 12 17 13 18 14 19 15 20 23 21 16 22 20 23 17 24
REMARK SMILES IDX 18 25 21 26 22 27 19 28
REMARK H PARENT 27 15 19 29
REMARK Flexibility Score: inf
ROOT
ATOM      1  C   UNL     1      -1.060  44.072  49.749  1.00  0.00     0.160 C 
ENDROOT
BRANCH   1   2
ATOM      2  C   UNL     1      -1.048  45.574  49.688  1.00  0.00     0.163 C 
ATOM      3  O   UNL     1      -0.995  46.230  50.763  1.00  0.00    -0.294 OA
BRANCH   2   4
ATOM      4  C   UNL     1      -1.123  46.258  48.378  1.00  0.00     0.048 C 
ATOM      5  C   UNL     1      -0.155  47.014  47.836  1.00  0.00     0.012 C 
BRANCH   5   6
ATOM      6  C   UNL     1       1.220  47.151  48.361  1.00  0.00    -0.022 A 
ATOM      7  C   UNL     1       3.574  47.658  47.961  1.00  0.00     0.161 A 
ATOM      8  C   UNL     1       3.866  47.312  49.289  1.00  0.00     0.157 A 
ATOM      9  C   UNL     1       2.246  47.565  47.499  1.00  0.00     0.058 A 
ATOM     10  C   UNL     1       2.846  46.871  50.141  1.00  0.00     0.051 A 
ATOM     11  C   UNL     1       1.532  46.780  49.678  1.00  0.00     0.012 A 
BRANCH   7  12
ATOM     12  O   UNL     1       4.625  48.087  47.135  1.00  0.00    -0.493 OA
ATOM     13  C   UNL     1       5.501  47.215  46.428  1.00  0.00     0.278 C 
ENDBRANCH   7  12
BRANCH   8  14
ATOM     14  O   UNL     1       5.177  47.406  49.752  1.00  0.00    -0.504 OA
ATOM     15  H   UNL     1       5.528  46.791  50.478  1.00  0.00     0.293 HD
ENDBRANCH   8  14
ENDBRANCH   5   6
ENDBRANCH   2   4
ENDBRANCH   1   2
BRANCH   1  16
ATOM     16  C   UNL     1      -0.330  43.537  50.959  1.00  0.00     0.163 C 
ATOM     17  O   UNL     1      -0.778  43.765  52.117  1.00  0.00    -0.294 OA
BRANCH  16  18
ATOM     18  C   UNL     1       0.915  42.750  50.838  1.00  0.00     0.048 C 
ATOM     19  C   UNL     1       1.786  42.896  49.828  1.00  0.00     0.012 C 
BRANCH  19  20
ATOM     20  C   UNL     1       3.044  42.118  49.712  1.00  0.00    -0.022 A 
ATOM     21  C   UNL     1       3.991  42.209  50.746  1.00  0.00     0.058 A 
ATOM     22  C   UNL     1       3.337  41.325  48.588  1.00  0.00     0.012 A 
ATOM     23  C   UNL     1       5.206  41.497  50.678  1.00  0.00     0.161 A 
ATOM     24  C   UNL     1       4.539  40.618  48.515  1.00  0.00     0.051 A 
ATOM     25  C   UNL     1       5.471  40.697  49.553  1.00  0.00     0.157 A 
BRANCH  23  26
ATOM     26  O   UNL     1       6.163  41.562  51.704  1.00  0.00    -0.493 OA
ATOM     27  C   UNL     1       7.448  42.161  51.577  1.00  0.00     0.278 C 
ENDBRANCH  23  26
BRANCH  25  28
ATOM     28  O   UNL     1       6.660  39.975  49.446  1.00  0.00    -0.504 OA
ATOM     29  H   UNL     1       7.564  40.427  49.396  1.00  0.00     0.293 HD
ENDBRANCH  25  28
ENDBRANCH  19  20
ENDBRANCH  16  18
ENDBRANCH   1  16
TORSDOF 10
ENDMDL
MODEL 3
REMARK VINA RESULT:    14.284     17.211     22.399
REMARK INTER + INTRA:          23.678
REMARK INTER:                  22.478
REMARK INTRA:                   1.199
REMARK UNBOUND:                 1.878
REMARK SMILES COc1cc(C=CC(=O)CC(=O)C=Cc2ccc(O)c(OC)c2)ccc1O
REMARK SMILES IDX 10 1 8 2 9 3 7 4 6 5 5 6 3 7 26 8 4 9 25 10 24 11 2 12 1 13
REMARK SMILES IDX 27 14 11 16 12 17 13 18 14 19 15 20 23 21 16 22 20 23 17 24
REMARK SMILES IDX 18 25 21 26 22 27 19 28
REMARK H PARENT 27 15 19 29
REMARK Flexibility Score: inf
ROOT
ATOM      1  C   UNL     1      -1.069  43.721  49.770  1.00  0.00     0.160 C 
ENDROOT
BRANCH   1   2
ATOM      2  C   UNL     1      -1.001  45.205  49.545  1.00  0.00     0.163 C 
ATOM      3  O   UNL     1      -0.859  45.970  50.538  1.00  0.00    -0.294 OA
BRANCH   2   4
ATOM      4  C   UNL     1      -1.125  45.749  48.174  1.00  0.00     0.048 C 
ATOM      5  C   UNL     1      -0.235  46.552  47.570  1.00  0.00     0.012 C 
BRANCH   5   6
ATOM      6  C   UNL     1       1.107  46.889  48.091  1.00  0.00    -0.022 A 
ATOM      7  C   UNL     1       3.438  47.466  47.657  1.00  0.00     0.161 A 
ATOM      8  C   UNL     1       3.698  47.422  49.035  1.00  0.00     0.157 A 
ATOM      9  C   UNL     1       2.139  47.187  47.190  1.00  0.00     0.058 A 
ATOM     10  C   UNL     1       2.674  47.095  49.933  1.00  0.00     0.051 A 
ATOM     11  C   UNL     1       1.388  46.820  49.464  1.00  0.00     0.012 A 
BRANCH   7  12
ATOM     12  O   UNL     1       4.494  47.787  46.788  1.00  0.00    -0.493 OA
ATOM     13  C   UNL     1       5.870  47.571  47.077  1.00  0.00     0.278 C 
ENDBRANCH   7  12
BRANCH   8  14
ATOM     14  O   UNL     1       4.981  47.700  49.503  1.00  0.00    -0.504 OA
ATOM     15  H   UNL     1       5.408  47.147  50.239  1.00  0.00     0.293 HD
ENDBRANCH   8  14
ENDBRANCH   5   6
ENDBRANCH   2   4
ENDBRANCH   1   2
BRANCH   1  16
ATOM     16  C   UNL     1      -0.236  43.276  50.949  1.00  0.00     0.163 C 
ATOM     17  O   UNL     1      -0.610  43.548  52.123  1.00  0.00    -0.294 OA
BRANCH  16  18
ATOM     18  C   UNL     1       1.028  42.530  50.779  1.00  0.00     0.048 C 
ATOM     19  C   UNL     1       2.181  43.105  50.402  1.00  0.00     0.012 C 
BRANCH  19  20
ATOM     20  C   UNL     1       3.454  42.361  50.243  1.00  0.00    -0.022 A 
ATOM     21  C   UNL     1       3.516  41.325  49.295  1.00  0.00     0.058 A 
ATOM     22  C   UNL     1       4.587  42.629  51.033  1.00  0.00     0.012 A 
ATOM     23  C   UNL     1       4.700  40.581  49.113  1.00  0.00     0.161 A 
ATOM     24  C   UNL     1       5.762  41.895  50.857  1.00  0.00     0.051 A 
ATOM     25  C   UNL     1       5.825  40.878  49.902  1.00  0.00     0.157 A 
BRANCH  23  26
ATOM     26  O   UNL     1       4.791  39.551  48.164  1.00  0.00    -0.493 OA
ATOM     27  C   UNL     1       3.739  39.163  47.286  1.00  0.00     0.278 C 
ENDBRANCH  23  26
BRANCH  25  28
ATOM     28  O   UNL     1       7.017  40.169  49.753  1.00  0.00    -0.504 OA
ATOM     29  H   UNL     1       7.449  39.672  50.522  1.00  0.00     0.293 HD
ENDBRANCH  25  28
ENDBRANCH  19  20
ENDBRANCH  16  18
ENDBRANCH   1  16
TORSDOF 10
ENDMDL
MODEL 4
REMARK VINA RESULT:    15.105     17.229     22.868
REMARK INTER + INTRA:          24.931
REMARK INTER:                  24.508
REMARK INTRA:                   0.423
REMARK UNBOUND:                 1.878
REMARK SMILES COc1cc(C=CC(=O)CC(=O)C=Cc2ccc(O)c(OC)c2)ccc1O
REMARK SMILES IDX 10 1 8 2 9 3 7 4 6 5 5 6 3 7 26 8 4 9 25 10 24 11 2 12 1 13
REMARK SMILES IDX 27 14 11 16 12 17 13 18 14 19 15 20 23 21 16 22 20 23 17 24
REMARK SMILES IDX 18 25 21 26 22 27 19 28
REMARK H PARENT 27 15 19 29
REMARK Flexibility Score: inf
ROOT
ATOM      1  C   UNL     1      -0.659  45.050  49.572  1.00  0.00     0.160 C 
ENDROOT
BRANCH   1   2
ATOM      2  C   UNL     1      -0.687  45.611  50.966  1.00  0.00     0.163 C 
ATOM      3  O   UNL     1      -0.394  44.860  51.936  1.00  0.00    -0.294 OA
BRANCH   2   4
ATOM      4  C   UNL     1      -1.079  47.021  51.185  1.00  0.00     0.048 C 
ATOM      5  C   UNL     1      -0.537  48.086  50.572  1.00  0.00     0.012 C 
BRANCH   5   6
ATOM      6  C   UNL     1       0.417  48.031  49.444  1.00  0.00    -0.022 A 
ATOM      7  C   UNL     1       2.726  47.982  48.654  1.00  0.00     0.161 A 
ATOM      8  C   UNL     1       2.266  48.045  47.330  1.00  0.00     0.157 A 
ATOM      9  C   UNL     1       1.793  47.986  49.710  1.00  0.00     0.058 A 
ATOM     10  C   UNL     1       0.893  48.120  47.066  1.00  0.00     0.051 A 
ATOM     11  C   UNL     1      -0.027  48.125  48.116  1.00  0.00     0.012 A 
BRANCH   7  12
ATOM     12  O   UNL     1       4.111  47.918  48.878  1.00  0.00    -0.493 OA
ATOM     13  C   UNL     1       5.087  47.762  47.854  1.00  0.00     0.278 C 
ENDBRANCH   7  12
BRANCH   8  14
ATOM     14  O   UNL     1       3.184  48.038  46.281  1.00  0.00    -0.504 OA
ATOM     15  H   UNL     1       4.177  47.912  46.446  1.00  0.00     0.293 HD
ENDBRANCH   8  14
ENDBRANCH   5   6
ENDBRANCH   2   4
ENDBRANCH   1   2
BRANCH   1  16
ATOM     16  C   UNL     1      -0.118  43.639  49.528  1.00  0.00     0.163 C 
ATOM     17  O   UNL     1      -0.913  42.662  49.453  1.00  0.00    -0.294 OA
BRANCH  16  18
ATOM     18  C   UNL     1       1.331  43.354  49.580  1.00  0.00     0.048 C 
ATOM     19  C   UNL     1       1.846  42.239  50.120  1.00  0.00     0.012 C 
BRANCH  19  20
ATOM     20  C   UNL     1       3.298  41.943  50.160  1.00  0.00    -0.022 A 
ATOM     21  C   UNL     1       3.895  41.336  49.042  1.00  0.00     0.058 A 
ATOM     22  C   UNL     1       4.091  42.214  51.291  1.00  0.00     0.012 A 
ATOM     23  C   UNL     1       5.270  41.025  49.035  1.00  0.00     0.161 A 
ATOM     24  C   UNL     1       5.453  41.907  51.289  1.00  0.00     0.051 A 
ATOM     25  C   UNL     1       6.046  41.319  50.169  1.00  0.00     0.157 A 
BRANCH  23  26
ATOM     26  O   UNL     1       5.891  40.430  47.925  1.00  0.00    -0.493 OA
ATOM     27  C   UNL     1       6.793  41.096  47.048  1.00  0.00     0.278 C 
ENDBRANCH  23  26
BRANCH  25  28
ATOM     28  O   UNL     1       7.410  41.030  50.204  1.00  0.00    -0.504 OA
ATOM     29  H   UNL     1       7.920  40.731  49.382  1.00  0.00     0.293 HD
ENDBRANCH  25  28
ENDBRANCH  19  20
ENDBRANCH  16  18
ENDBRANCH   1  16
TORSDOF 10
ENDMDL
MODEL 5
REMARK VINA RESULT:    16.054      1.382      2.134
REMARK INTER + INTRA:          26.378
REMARK INTER:                  26.452
REMARK INTRA:                  -0.074
REMARK UNBOUND:                 1.878
REMARK SMILES COc1cc(C=CC(=O)CC(=O)C=Cc2ccc(O)c(OC)c2)ccc1O
REMARK SMILES IDX 10 1 8 2 9 3 7 4 6 5 5 6 3 7 26 8 4 9 25 10 24 11 2 12 1 13
REMARK SMILES IDX 27 14 11 16 12 17 13 18 14 19 15 20 23 21 16 22 20 23 17 24
REMARK SMILES IDX 18 25 21 26 22 27 19 28
REMARK H PARENT 27 15 19 29
REMARK Flexibility Score: inf
ROOT
ATOM      1  C   UNL     1      12.725  31.345  38.294  1.00  0.00     0.160 C 
ENDROOT
BRANCH   1   2
ATOM      2  C   UNL     1      12.447  29.869  38.341  1.00  0.00     0.163 C 
ATOM      3  O   UNL     1      11.648  29.369  37.504  1.00  0.00    -0.294 OA
BRANCH   2   4
ATOM      4  C   UNL     1      13.090  29.032  39.379  1.00  0.00     0.048 C 
ATOM      5  C   UNL     1      14.125  28.200  39.179  1.00  0.00     0.012 C 
BRANCH   5   6
ATOM      6  C   UNL     1      14.921  28.106  37.937  1.00  0.00    -0.022 A 
ATOM      7  C   UNL     1      17.083  28.274  36.817  1.00  0.00     0.161 A 
ATOM      8  C   UNL     1      16.453  28.051  35.583  1.00  0.00     0.157 A 
ATOM      9  C   UNL     1      16.307  28.311  37.992  1.00  0.00     0.058 A 
ATOM     10  C   UNL     1      15.065  27.875  35.525  1.00  0.00     0.051 A 
ATOM     11  C   UNL     1      14.300  27.913  36.693  1.00  0.00     0.012 A 
BRANCH   7  12
ATOM     12  O   UNL     1      18.475  28.455  36.833  1.00  0.00    -0.493 OA
ATOM     13  C   UNL     1      19.124  29.719  36.745  1.00  0.00     0.278 C 
ENDBRANCH   7  12
BRANCH   8  14
ATOM     14  O   UNL     1      17.216  28.010  34.418  1.00  0.00    -0.504 OA
ATOM     15  H   UNL     1      18.229  27.996  34.448  1.00  0.00     0.293 HD
ENDBRANCH   8  14
ENDBRANCH   5   6
ENDBRANCH   2   4
ENDBRANCH   1   2
BRANCH   1  16
ATOM     16  C   UNL     1      13.118  31.815  36.912  1.00  0.00     0.163 C 
ATOM     17  O   UNL     1      13.103  31.006  35.944  1.00  0.00    -0.294 OA
BRANCH  16  18
ATOM     18  C   UNL     1      13.537  33.207  36.647  1.00  0.00     0.048 C 
ATOM     19  C   UNL     1      14.202  33.581  35.543  1.00  0.00     0.012 C 
BRANCH  19  20
ATOM     20  C   UNL     1      14.612  34.980  35.268  1.00  0.00    -0.022 A 
ATOM     21  C   UNL     1      13.807  36.026  35.751  1.00  0.00     0.058 A 
ATOM     22  C   UNL     1      15.754  35.295  34.510  1.00  0.00     0.012 A 
ATOM     23  C   UNL     1      14.147  37.372  35.508  1.00  0.00     0.161 A 
ATOM     24  C   UNL     1      16.095  36.627  34.265  1.00  0.00     0.051 A 
ATOM     25  C   UNL     1      15.302  37.664  34.761  1.00  0.00     0.157 A 
BRANCH  23  26
ATOM     26  O   UNL     1      13.366  38.434  35.991  1.00  0.00    -0.493 OA
ATOM     27  C   UNL     1      11.994  38.330  36.357  1.00  0.00     0.278 C 
ENDBRANCH  23  26
BRANCH  25  28
ATOM     28  O   UNL     1      15.676  38.982  34.499  1.00  0.00    -0.504 OA
ATOM     29  H   UNL     1      16.329  39.222  33.763  1.00  0.00     0.293 HD
ENDBRANCH  25  28
ENDBRANCH  19  20
ENDBRANCH  16  18
ENDBRANCH   1  16
TORSDOF 10
ENDMDL
