MODEL 1
REMARK VINA RESULT:    -6.096      0.000      0.000
REMARK INTER + INTRA:          -8.318
REMARK INTER:                  -7.700
REMARK INTRA:                  -0.619
REMARK UNBOUND:                -0.619
REMARK SMILES O=C(C=Cc1ccc(O)cc1)c1ccc(O)cc1O
REMARK SMILES IDX 4 1 3 2 5 3 6 4 7 5 8 6 11 7 10 8 9 9 2 11 1 12 12 13 18 14
REMARK SMILES IDX 13 15 17 16 14 17 15 18 19 19 16 21
REMARK H PARENT 9 10 19 20 16 22
REMARK Flexibility Score: inf
ROOT
ATOM      1  C   UNL     1     174.747 170.442 170.750  1.00  0.00     0.012 C 
ATOM      2  C   UNL     1     174.028 171.049 169.795  1.00  0.00     0.053 C 
ENDROOT
BRANCH   1   3
ATOM      3  C   UNL     1     175.793 171.126 171.550  1.00  0.00    -0.025 A 
ATOM      4  C   UNL     1     176.445 170.402 172.564  1.00  0.00     0.012 A 
ATOM      5  C   UNL     1     177.443 171.002 173.336  1.00  0.00     0.047 A 
ATOM      6  C   UNL     1     177.813 172.329 173.102  1.00  0.00     0.115 A 
ATOM      7  C   UNL     1     176.182 172.460 171.309  1.00  0.00     0.012 A 
ATOM      8  C   UNL     1     177.182 173.055 172.084  1.00  0.00     0.047 A 
BRANCH   6   9
ATOM      9  O   UNL     1     178.809 172.913 173.881  1.00  0.00    -0.508 OA
ATOM     10  H   UNL     1     179.251 172.409 174.640  1.00  0.00     0.293 HD
ENDBRANCH   6   9
ENDBRANCH   1   3
BRANCH   2  11
ATOM     11  C   UNL     1     172.982 170.338 169.026  1.00  0.00     0.189 C 
ATOM     12  O   UNL     1     172.167 169.578 169.615  1.00  0.00    -0.289 OA
BRANCH  11  13
ATOM     13  C   UNL     1     172.904 170.490 167.555  1.00  0.00     0.064 A 
ATOM     14  C   UNL     1     171.723 170.191 166.834  1.00  0.00     0.130 A 
ATOM     15  C   UNL     1     174.048 170.903 166.849  1.00  0.00     0.020 A 
ATOM     16  C   UNL     1     171.721 170.279 165.436  1.00  0.00     0.093 A 
ATOM     17  C   UNL     1     174.029 171.000 165.457  1.00  0.00     0.047 A 
ATOM     18  C   UNL     1     172.869 170.685 164.746  1.00  0.00     0.119 A 
BRANCH  14  19
ATOM     19  O   UNL     1     170.530 169.834 167.469  1.00  0.00    -0.507 OA
ATOM     20  H   UNL     1     169.616 170.062 167.102  1.00  0.00     0.293 HD
ENDBRANCH  14  19
BRANCH  18  21
ATOM     21  O   UNL     1     172.867 170.779 163.356  1.00  0.00    -0.508 OA
ATOM     22  H   UNL     1     173.310 170.076 162.776  1.00  0.00     0.293 HD
ENDBRANCH  18  21
ENDBRANCH  11  13
ENDBRANCH   2  11
TORSDOF 6
ENDMDL
MODEL 2
REMARK VINA RESULT:    -6.049      4.489      7.633
REMARK INTER + INTRA:          -8.259
REMARK INTER:                  -7.610
REMARK INTRA:                  -0.648
REMARK UNBOUND:                -0.619
REMARK SMILES O=C(C=Cc1ccc(O)cc1)c1ccc(O)cc1O
REMARK SMILES IDX 4 1 3 2 5 3 6 4 7 5 8 6 11 7 10 8 9 9 2 11 1 12 12 13 18 14
REMARK SMILES IDX 13 15 17 16 14 17 15 18 19 19 16 21
REMARK H PARENT 9 10 19 20 16 22
REMARK Flexibility Score: inf
ROOT
ATOM      1  C   UNL     1     176.602 167.940 169.474  1.00  0.00     0.012 C 
ATOM      2  C   UNL     1     176.087 168.315 170.654  1.00  0.00     0.053 C 
ENDROOT
BRANCH   1   3
ATOM      3  C   UNL     1     177.087 166.567 169.188  1.00  0.00    -0.025 A 
ATOM      4  C   UNL     1     178.473 166.333 169.169  1.00  0.00     0.012 A 
ATOM      5  C   UNL     1     178.974 165.053 168.914  1.00  0.00     0.047 A 
ATOM      6  C   UNL     1     178.101 163.987 168.686  1.00  0.00     0.115 A 
ATOM      7  C   UNL     1     176.211 165.483 168.973  1.00  0.00     0.012 A 
ATOM      8  C   UNL     1     176.718 164.204 168.719  1.00  0.00     0.047 A 
BRANCH   6   9
ATOM      9  O   UNL     1     178.616 162.718 168.432  1.00  0.00    -0.508 OA
ATOM     10  H   UNL     1     178.939 162.119 169.183  1.00  0.00     0.293 HD
ENDBRANCH   6   9
ENDBRANCH   1   3
BRANCH   2  11
ATOM     11  C   UNL     1     175.600 169.691 170.898  1.00  0.00     0.189 C 
ATOM     12  O   UNL     1     174.530 170.089 170.364  1.00  0.00    -0.289 OA
BRANCH  11  13
ATOM     13  C   UNL     1     176.380 170.619 171.748  1.00  0.00     0.064 A 
ATOM     14  C   UNL     1     175.810 171.262 172.873  1.00  0.00     0.130 A 
ATOM     15  C   UNL     1     177.714 170.903 171.403  1.00  0.00     0.020 A 
ATOM     16  C   UNL     1     176.566 172.189 173.600  1.00  0.00     0.093 A 
ATOM     17  C   UNL     1     178.462 171.817 172.146  1.00  0.00     0.047 A 
ATOM     18  C   UNL     1     177.891 172.467 173.242  1.00  0.00     0.119 A 
BRANCH  14  19
ATOM     19  O   UNL     1     174.513 170.987 173.312  1.00  0.00    -0.507 OA
ATOM     20  H   UNL     1     173.684 171.340 172.853  1.00  0.00     0.293 HD
ENDBRANCH  14  19
BRANCH  18  21
ATOM     21  O   UNL     1     178.647 173.383 173.969  1.00  0.00    -0.508 OA
ATOM     22  H   UNL     1     178.612 174.376 173.769  1.00  0.00     0.293 HD
ENDBRANCH  18  21
ENDBRANCH  11  13
ENDBRANCH   2  11
TORSDOF 6
ENDMDL
MODEL 3
REMARK VINA RESULT:    -6.025      4.631      5.529
REMARK INTER + INTRA:          -8.229
REMARK INTER:                  -7.647
REMARK INTRA:                  -0.581
REMARK UNBOUND:                -0.619
REMARK SMILES O=C(C=Cc1ccc(O)cc1)c1ccc(O)cc1O
REMARK SMILES IDX 4 1 3 2 5 3 6 4 7 5 8 6 11 7 10 8 9 9 2 11 1 12 12 13 18 14
REMARK SMILES IDX 13 15 17 16 14 17 15 18 19 19 16 21
REMARK H PARENT 9 10 19 20 16 22
REMARK Flexibility Score: inf
ROOT
ATOM      1  C   UNL     1     175.958 169.578 170.811  1.00  0.00     0.012 C 
ATOM      2  C   UNL     1     176.711 168.719 170.108  1.00  0.00     0.053 C 
ENDROOT
BRANCH   1   3
ATOM      3  C   UNL     1     176.519 170.626 171.698  1.00  0.00    -0.025 A 
ATOM      4  C   UNL     1     175.685 171.198 172.675  1.00  0.00     0.012 A 
ATOM      5  C   UNL     1     176.174 172.182 173.539  1.00  0.00     0.047 A 
ATOM      6  C   UNL     1     177.503 172.602 173.449  1.00  0.00     0.115 A 
ATOM      7  C   UNL     1     177.864 171.043 171.623  1.00  0.00     0.012 A 
ATOM      8  C   UNL     1     178.348 172.028 172.491  1.00  0.00     0.047 A 
BRANCH   6   9
ATOM      9  O   UNL     1     177.975 173.584 174.316  1.00  0.00    -0.508 OA
ATOM     10  H   UNL     1     178.966 173.706 174.489  1.00  0.00     0.293 HD
ENDBRANCH   6   9
ENDBRANCH   1   3
BRANCH   2  11
ATOM     11  C   UNL     1     176.116 167.694 169.222  1.00  0.00     0.189 C 
ATOM     12  O   UNL     1     174.985 167.886 168.700  1.00  0.00    -0.289 OA
BRANCH  11  13
ATOM     13  C   UNL     1     176.831 166.423 168.965  1.00  0.00     0.064 A 
ATOM     14  C   UNL     1     176.144 165.240 168.598  1.00  0.00     0.130 A 
ATOM     15  C   UNL     1     178.227 166.378 169.130  1.00  0.00     0.020 A 
ATOM     16  C   UNL     1     176.856 164.045 168.439  1.00  0.00     0.093 A 
ATOM     17  C   UNL     1     178.926 165.184 168.954  1.00  0.00     0.047 A 
ATOM     18  C   UNL     1     178.245 164.014 168.613  1.00  0.00     0.119 A 
BRANCH  14  19
ATOM     19  O   UNL     1     174.768 165.219 168.357  1.00  0.00    -0.507 OA
ATOM     20  H   UNL     1     174.106 164.748 168.959  1.00  0.00     0.293 HD
ENDBRANCH  14  19
BRANCH  18  21
ATOM     21  O   UNL     1     178.955 162.827 168.449  1.00  0.00    -0.508 OA
ATOM     22  H   UNL     1     179.412 162.369 169.229  1.00  0.00     0.293 HD
ENDBRANCH  18  21
ENDBRANCH  11  13
ENDBRANCH   2  11
TORSDOF 6
ENDMDL
MODEL 4
REMARK VINA RESULT:    -5.982      1.326      1.801
REMARK INTER + INTRA:          -8.174
REMARK INTER:                  -7.504
REMARK INTRA:                  -0.670
REMARK UNBOUND:                -0.619
REMARK SMILES O=C(C=Cc1ccc(O)cc1)c1ccc(O)cc1O
REMARK SMILES IDX 4 1 3 2 5 3 6 4 7 5 8 6 11 7 10 8 9 9 2 11 1 12 12 13 18 14
REMARK SMILES IDX 13 15 17 16 14 17 15 18 19 19 16 21
REMARK H PARENT 9 10 19 20 16 22
REMARK Flexibility Score: inf
ROOT
ATOM      1  C   UNL     1     174.917 170.653 170.987  1.00  0.00     0.012 C 
ATOM      2  C   UNL     1     175.105 169.823 169.951  1.00  0.00     0.053 C 
ENDROOT
BRANCH   1   3
ATOM      3  C   UNL     1     176.024 171.240 171.781  1.00  0.00    -0.025 A 
ATOM      4  C   UNL     1     176.419 172.563 171.511  1.00  0.00     0.012 A 
ATOM      5  C   UNL     1     177.450 173.159 172.242  1.00  0.00     0.047 A 
ATOM      6  C   UNL     1     178.096 172.451 173.258  1.00  0.00     0.115 A 
ATOM      7  C   UNL     1     176.669 170.537 172.819  1.00  0.00     0.012 A 
ATOM      8  C   UNL     1     177.700 171.139 173.547  1.00  0.00     0.047 A 
BRANCH   6   9
ATOM      9  O   UNL     1     179.122 173.059 173.976  1.00  0.00    -0.508 OA
ATOM     10  H   UNL     1     179.928 172.533 174.297  1.00  0.00     0.293 HD
ENDBRANCH   6   9
ENDBRANCH   1   3
BRANCH   2  11
ATOM     11  C   UNL     1     173.976 169.268 169.173  1.00  0.00     0.189 C 
ATOM     12  O   UNL     1     173.224 168.394 169.682  1.00  0.00    -0.289 OA
BRANCH  11  13
ATOM     13  C   UNL     1     173.739 169.710 167.780  1.00  0.00     0.064 A 
ATOM     14  C   UNL     1     173.639 168.789 166.709  1.00  0.00     0.130 A 
ATOM     15  C   UNL     1     173.651 171.087 167.506  1.00  0.00     0.020 A 
ATOM     16  C   UNL     1     173.489 169.261 165.399  1.00  0.00     0.093 A 
ATOM     17  C   UNL     1     173.487 171.544 166.198  1.00  0.00     0.047 A 
ATOM     18  C   UNL     1     173.411 170.635 165.141  1.00  0.00     0.119 A 
BRANCH  14  19
ATOM     19  O   UNL     1     173.656 167.407 166.909  1.00  0.00    -0.507 OA
ATOM     20  H   UNL     1     174.270 166.780 166.406  1.00  0.00     0.293 HD
ENDBRANCH  14  19
BRANCH  18  21
ATOM     21  O   UNL     1     173.255 171.105 163.839  1.00  0.00    -0.508 OA
ATOM     22  H   UNL     1     174.034 171.149 163.194  1.00  0.00     0.293 HD
ENDBRANCH  18  21
ENDBRANCH  11  13
ENDBRANCH   2  11
TORSDOF 6
ENDMDL
MODEL 5
REMARK VINA RESULT:    -5.971      1.540      7.597
REMARK INTER + INTRA:          -8.160
REMARK INTER:                  -7.498
REMARK INTRA:                  -0.662
REMARK UNBOUND:                -0.619
REMARK SMILES O=C(C=Cc1ccc(O)cc1)c1ccc(O)cc1O
REMARK SMILES IDX 4 1 3 2 5 3 6 4 7 5 8 6 11 7 10 8 9 9 2 11 1 12 12 13 18 14
REMARK SMILES IDX 13 15 17 16 14 17 15 18 19 19 16 21
REMARK H PARENT 9 10 19 20 16 22
REMARK Flexibility Score: inf
ROOT
ATOM      1  C   UNL     1     174.220 169.850 169.040  1.00  0.00     0.012 C 
ATOM      2  C   UNL     1     174.210 170.803 169.982  1.00  0.00     0.053 C 
ENDROOT
BRANCH   1   3
ATOM      3  C   UNL     1     173.875 170.095 167.618  1.00  0.00    -0.025 A 
ATOM      4  C   UNL     1     173.665 171.420 167.195  1.00  0.00     0.012 A 
ATOM      5  C   UNL     1     173.348 171.699 165.863  1.00  0.00     0.047 A 
ATOM      6  C   UNL     1     173.248 170.663 164.931  1.00  0.00     0.115 A 
ATOM      7  C   UNL     1     173.788 169.057 166.668  1.00  0.00     0.012 A 
ATOM      8  C   UNL     1     173.472 169.341 165.336  1.00  0.00     0.047 A 
BRANCH   6   9
ATOM      9  O   UNL     1     172.931 170.957 163.607  1.00  0.00    -0.508 OA
ATOM     10  H   UNL     1     172.799 171.912 163.294  1.00  0.00     0.293 HD
ENDBRANCH   6   9
ENDBRANCH   1   3
BRANCH   2  11
ATOM     11  C   UNL     1     174.572 170.524 171.389  1.00  0.00     0.189 C 
ATOM     12  O   UNL     1     173.814 169.823 172.112  1.00  0.00    -0.289 OA
BRANCH  11  13
ATOM     13  C   UNL     1     175.812 171.091 171.968  1.00  0.00     0.064 A 
ATOM     14  C   UNL     1     176.623 170.354 172.865  1.00  0.00     0.130 A 
ATOM     15  C   UNL     1     176.173 172.412 171.649  1.00  0.00     0.020 A 
ATOM     16  C   UNL     1     177.745 170.960 173.444  1.00  0.00     0.093 A 
ATOM     17  C   UNL     1     177.302 172.999 172.222  1.00  0.00     0.047 A 
ATOM     18  C   UNL     1     178.088 172.279 173.123  1.00  0.00     0.119 A 
BRANCH  14  19
ATOM     19  O   UNL     1     176.364 169.018 173.182  1.00  0.00    -0.507 OA
ATOM     20  H   UNL     1     175.469 168.692 173.521  1.00  0.00     0.293 HD
ENDBRANCH  14  19
BRANCH  18  21
ATOM     21  O   UNL     1     179.208 172.880 173.692  1.00  0.00    -0.508 OA
ATOM     22  H   UNL     1     179.777 173.540 173.174  1.00  0.00     0.293 HD
ENDBRANCH  18  21
ENDBRANCH  11  13
ENDBRANCH   2  11
TORSDOF 6
ENDMDL
MODEL 6
REMARK VINA RESULT:    -5.872      3.566      7.439
REMARK INTER + INTRA:          -8.036
REMARK INTER:                  -7.321
REMARK INTRA:                  -0.714
REMARK UNBOUND:                -0.619
REMARK SMILES O=C(C=Cc1ccc(O)cc1)c1ccc(O)cc1O
REMARK SMILES IDX 4 1 3 2 5 3 6 4 7 5 8 6 11 7 10 8 9 9 2 11 1 12 12 13 18 14
REMARK SMILES IDX 13 15 17 16 14 17 15 18 19 19 16 21
REMARK H PARENT 9 10 19 20 16 22
REMARK Flexibility Score: inf
ROOT
ATOM      1  C   UNL     1     172.769 170.242 172.045  1.00  0.00     0.012 C 
ATOM      2  C   UNL     1     173.412 170.408 170.880  1.00  0.00     0.053 C 
ENDROOT
BRANCH   1   3
ATOM      3  C   UNL     1     171.321 170.510 172.229  1.00  0.00    -0.025 A 
ATOM      4  C   UNL     1     170.893 171.094 173.434  1.00  0.00     0.012 A 
ATOM      5  C   UNL     1     169.540 171.373 173.647  1.00  0.00     0.047 A 
ATOM      6  C   UNL     1     168.596 171.083 172.658  1.00  0.00     0.115 A 
ATOM      7  C   UNL     1     170.366 170.234 171.229  1.00  0.00     0.012 A 
ATOM      8  C   UNL     1     169.013 170.515 171.447  1.00  0.00     0.047 A 
BRANCH   6   9
ATOM      9  O   UNL     1     167.252 171.365 172.886  1.00  0.00    -0.508 OA
ATOM     10  H   UNL     1     166.684 170.783 173.491  1.00  0.00     0.293 HD
ENDBRANCH   6   9
ENDBRANCH   1   3
BRANCH   2  11
ATOM     11  C   UNL     1     174.856 170.118 170.730  1.00  0.00     0.189 C 
ATOM     12  O   UNL     1     175.247 169.268 169.884  1.00  0.00    -0.289 OA
BRANCH  11  13
ATOM     13  C   UNL     1     175.848 170.800 171.591  1.00  0.00     0.064 A 
ATOM     14  C   UNL     1     176.506 170.129 172.650  1.00  0.00     0.130 A 
ATOM     15  C   UNL     1     176.116 172.164 171.376  1.00  0.00     0.020 A 
ATOM     16  C   UNL     1     177.381 170.837 173.483  1.00  0.00     0.093 A 
ATOM     17  C   UNL     1     177.002 172.854 172.205  1.00  0.00     0.047 A 
ATOM     18  C   UNL     1     177.633 172.196 173.263  1.00  0.00     0.119 A 
BRANCH  14  19
ATOM     19  O   UNL     1     176.338 168.762 172.887  1.00  0.00    -0.507 OA
ATOM     20  H   UNL     1     175.494 168.258 172.651  1.00  0.00     0.293 HD
ENDBRANCH  14  19
BRANCH  18  21
ATOM     21  O   UNL     1     178.508 172.900 174.086  1.00  0.00    -0.508 OA
ATOM     22  H   UNL     1     178.170 173.507 174.823  1.00  0.00     0.293 HD
ENDBRANCH  18  21
ENDBRANCH  11  13
ENDBRANCH   2  11
TORSDOF 6
ENDMDL
MODEL 7
REMARK VINA RESULT:    -5.860      4.785      5.519
REMARK INTER + INTRA:          -8.020
REMARK INTER:                  -7.409
REMARK INTRA:                  -0.611
REMARK UNBOUND:                -0.619
REMARK SMILES O=C(C=Cc1ccc(O)cc1)c1ccc(O)cc1O
REMARK SMILES IDX 4 1 3 2 5 3 6 4 7 5 8 6 11 7 10 8 9 9 2 11 1 12 12 13 18 14
REMARK SMILES IDX 13 15 17 16 14 17 15 18 19 19 16 21
REMARK H PARENT 9 10 19 20 16 22
REMARK Flexibility Score: inf
ROOT
ATOM      1  C   UNL     1     174.594 170.054 172.424  1.00  0.00     0.012 C 
ATOM      2  C   UNL     1     173.435 170.207 173.080  1.00  0.00     0.053 C 
ENDROOT
BRANCH   1   3
ATOM      3  C   UNL     1     175.784 170.912 172.645  1.00  0.00    -0.025 A 
ATOM      4  C   UNL     1     176.946 170.658 171.895  1.00  0.00     0.012 A 
ATOM      5  C   UNL     1     178.087 171.448 172.064  1.00  0.00     0.047 A 
ATOM      6  C   UNL     1     178.082 172.508 172.974  1.00  0.00     0.115 A 
ATOM      7  C   UNL     1     175.781 171.993 173.551  1.00  0.00     0.012 A 
ATOM      8  C   UNL     1     176.925 172.781 173.715  1.00  0.00     0.047 A 
BRANCH   6   9
ATOM      9  O   UNL     1     179.227 173.285 173.131  1.00  0.00    -0.508 OA
ATOM     10  H   UNL     1     179.548 173.909 172.399  1.00  0.00     0.293 HD
ENDBRANCH   6   9
ENDBRANCH   1   3
BRANCH   2  11
ATOM     11  C   UNL     1     172.273 169.322 172.843  1.00  0.00     0.189 C 
ATOM     12  O   UNL     1     172.449 168.109 172.548  1.00  0.00    -0.289 OA
BRANCH  11  13
ATOM     13  C   UNL     1     170.896 169.861 172.919  1.00  0.00     0.064 A 
ATOM     14  C   UNL     1     169.775 169.021 173.128  1.00  0.00     0.130 A 
ATOM     15  C   UNL     1     170.691 171.240 172.738  1.00  0.00     0.020 A 
ATOM     16  C   UNL     1     168.486 169.569 173.118  1.00  0.00     0.093 A 
ATOM     17  C   UNL     1     169.402 171.775 172.745  1.00  0.00     0.047 A 
ATOM     18  C   UNL     1     168.297 170.943 172.930  1.00  0.00     0.119 A 
BRANCH  14  19
ATOM     19  O   UNL     1     169.903 167.652 173.376  1.00  0.00    -0.507 OA
ATOM     20  H   UNL     1     169.395 167.170 174.105  1.00  0.00     0.293 HD
ENDBRANCH  14  19
BRANCH  18  21
ATOM     21  O   UNL     1     167.015 171.490 172.926  1.00  0.00    -0.508 OA
ATOM     22  H   UNL     1     166.707 172.123 173.654  1.00  0.00     0.293 HD
ENDBRANCH  18  21
ENDBRANCH  11  13
ENDBRANCH   2  11
TORSDOF 6
ENDMDL
MODEL 8
REMARK VINA RESULT:    -5.756      4.534      7.705
REMARK INTER + INTRA:          -7.889
REMARK INTER:                  -7.276
REMARK INTRA:                  -0.612
REMARK UNBOUND:                -0.619
REMARK SMILES O=C(C=Cc1ccc(O)cc1)c1ccc(O)cc1O
REMARK SMILES IDX 4 1 3 2 5 3 6 4 7 5 8 6 11 7 10 8 9 9 2 11 1 12 12 13 18 14
REMARK SMILES IDX 13 15 17 16 14 17 15 18 19 19 16 21
REMARK H PARENT 9 10 19 20 16 22
REMARK Flexibility Score: inf
ROOT
ATOM      1  C   UNL     1     175.514 167.011 173.489  1.00  0.00     0.012 C 
ATOM      2  C   UNL     1     175.039 168.082 172.838  1.00  0.00     0.053 C 
ENDROOT
BRANCH   1   3
ATOM      3  C   UNL     1     174.713 166.205 174.442  1.00  0.00    -0.025 A 
ATOM      4  C   UNL     1     173.563 165.549 173.968  1.00  0.00     0.012 A 
ATOM      5  C   UNL     1     172.784 164.771 174.829  1.00  0.00     0.047 A 
ATOM      6  C   UNL     1     173.144 164.627 176.171  1.00  0.00     0.115 A 
ATOM      7  C   UNL     1     175.080 166.043 175.794  1.00  0.00     0.012 A 
ATOM      8  C   UNL     1     174.296 165.263 176.650  1.00  0.00     0.047 A 
BRANCH   6   9
ATOM      9  O   UNL     1     172.357 163.850 177.016  1.00  0.00    -0.508 OA
ATOM     10  H   UNL     1     171.379 163.675 176.815  1.00  0.00     0.293 HD
ENDBRANCH   6   9
ENDBRANCH   1   3
BRANCH   2  11
ATOM     11  C   UNL     1     175.864 168.854 171.882  1.00  0.00     0.189 C 
ATOM     12  O   UNL     1     176.138 168.374 170.749  1.00  0.00    -0.289 OA
BRANCH  11  13
ATOM     13  C   UNL     1     176.399 170.181 172.260  1.00  0.00     0.064 A 
ATOM     14  C   UNL     1     176.002 171.366 171.594  1.00  0.00     0.130 A 
ATOM     15  C   UNL     1     177.361 170.264 173.283  1.00  0.00     0.020 A 
ATOM     16  C   UNL     1     176.593 172.588 171.937  1.00  0.00     0.093 A 
ATOM     17  C   UNL     1     177.931 171.491 173.626  1.00  0.00     0.047 A 
ATOM     18  C   UNL     1     177.554 172.654 172.953  1.00  0.00     0.119 A 
BRANCH  14  19
ATOM     19  O   UNL     1     175.009 171.372 170.610  1.00  0.00    -0.507 OA
ATOM     20  H   UNL     1     174.110 170.926 170.727  1.00  0.00     0.293 HD
ENDBRANCH  14  19
BRANCH  18  21
ATOM     21  O   UNL     1     178.137 173.870 173.301  1.00  0.00    -0.508 OA
ATOM     22  H   UNL     1     178.769 174.354 172.674  1.00  0.00     0.293 HD
ENDBRANCH  18  21
ENDBRANCH  11  13
ENDBRANCH   2  11
TORSDOF 6
ENDMDL
MODEL 9
REMARK VINA RESULT:    -5.471      4.810      7.484
REMARK INTER + INTRA:          -7.529
REMARK INTER:                  -6.906
REMARK INTRA:                  -0.623
REMARK UNBOUND:                -0.619
REMARK SMILES O=C(C=Cc1ccc(O)cc1)c1ccc(O)cc1O
REMARK SMILES IDX 4 1 3 2 5 3 6 4 7 5 8 6 11 7 10 8 9 9 2 11 1 12 12 13 18 14
REMARK SMILES IDX 13 15 17 16 14 17 15 18 19 19 16 21
REMARK H PARENT 9 10 19 20 16 22
REMARK Flexibility Score: inf
ROOT
ATOM      1  C   UNL     1     175.091 169.462 172.501  1.00  0.00     0.012 C 
ATOM      2  C   UNL     1     175.197 168.314 173.185  1.00  0.00     0.053 C 
ENDROOT
BRANCH   1   3
ATOM      3  C   UNL     1     176.084 170.562 172.579  1.00  0.00    -0.025 A 
ATOM      4  C   UNL     1     177.160 170.434 173.475  1.00  0.00     0.012 A 
ATOM      5  C   UNL     1     178.125 171.440 173.575  1.00  0.00     0.047 A 
ATOM      6  C   UNL     1     178.037 172.583 172.777  1.00  0.00     0.115 A 
ATOM      7  C   UNL     1     176.010 171.711 171.765  1.00  0.00     0.012 A 
ATOM      8  C   UNL     1     176.978 172.714 171.868  1.00  0.00     0.047 A 
BRANCH   6   9
ATOM      9  O   UNL     1     179.005 173.577 172.889  1.00  0.00    -0.508 OA
ATOM     10  H   UNL     1     179.916 173.386 173.290  1.00  0.00     0.293 HD
ENDBRANCH   6   9
ENDBRANCH   1   3
BRANCH   2  11
ATOM     11  C   UNL     1     174.193 167.234 173.071  1.00  0.00     0.189 C 
ATOM     12  O   UNL     1     173.545 167.081 172.000  1.00  0.00    -0.289 OA
BRANCH  11  13
ATOM     13  C   UNL     1     173.920 166.343 174.222  1.00  0.00     0.064 A 
ATOM     14  C   UNL     1     172.629 165.815 174.469  1.00  0.00     0.130 A 
ATOM     15  C   UNL     1     174.962 166.045 175.117  1.00  0.00     0.020 A 
ATOM     16  C   UNL     1     172.404 165.038 175.612  1.00  0.00     0.093 A 
ATOM     17  C   UNL     1     174.728 165.257 176.245  1.00  0.00     0.047 A 
ATOM     18  C   UNL     1     173.450 164.755 176.499  1.00  0.00     0.119 A 
BRANCH  14  19
ATOM     19  O   UNL     1     171.559 166.016 173.594  1.00  0.00    -0.507 OA
ATOM     20  H   UNL     1     171.257 166.931 173.288  1.00  0.00     0.293 HD
ENDBRANCH  14  19
BRANCH  18  21
ATOM     21  O   UNL     1     173.230 163.977 177.633  1.00  0.00    -0.508 OA
ATOM     22  H   UNL     1     173.933 163.882 178.356  1.00  0.00     0.293 HD
ENDBRANCH  18  21
ENDBRANCH  11  13
ENDBRANCH   2  11
TORSDOF 6
ENDMDL
