MODEL 1
REMARK VINA RESULT:    -3.439      0.000      0.000
REMARK INTER + INTRA:          -3.849
REMARK INTER:                  -3.841
REMARK INTRA:                  -0.008
REMARK UNBOUND:                -0.008
REMARK SMILES CCCC(=O)[O-]
REMARK SMILES IDX 3 1 4 2 5 3 6 4 2 5 1 6
REMARK H PARENT
REMARK Flexibility Score: inf
ROOT
ATOM      1  C   UNL     1      52.796 -41.775  -1.872  1.00  0.00     0.052 C 
ENDROOT
BRANCH   1   2
ATOM      2  C   UNL     1      54.156 -41.145  -1.882  1.00  0.00     0.041 C 
ATOM      3  O   UNL     1      55.185 -41.858  -1.746  1.00  0.00    -0.550 OA
ATOM      4  O   UNL     1      54.282 -39.768  -2.007  1.00  0.00    -0.550 OA
ENDBRANCH   1   2
BRANCH   1   5
ATOM      5  C   UNL     1      51.785 -40.955  -2.684  1.00  0.00     0.003 C 
ATOM      6  C   UNL     1      50.721 -41.831  -3.344  1.00  0.00     0.004 C 
ENDBRANCH   1   5
TORSDOF 2
ENDMDL
MODEL 2
REMARK VINA RESULT:    -3.232      2.207      3.144
REMARK INTER + INTRA:          -3.618
REMARK INTER:                  -3.649
REMARK INTRA:                   0.031
REMARK UNBOUND:                -0.008
REMARK SMILES CCCC(=O)[O-]
REMARK SMILES IDX 3 1 4 2 5 3 6 4 2 5 1 6
REMARK H PARENT
REMARK Flexibility Score: inf
ROOT
ATOM      1  C   UNL     1      52.889 -41.442  -1.510  1.00  0.00     0.052 C 
ENDROOT
BRANCH   1   2
ATOM      2  C   UNL     1      51.898 -41.464  -2.634  1.00  0.00     0.041 C 
ATOM      3  O   UNL     1      51.567 -42.556  -3.166  1.00  0.00    -0.550 OA
ATOM      4  O   UNL     1      51.367 -40.273  -3.113  1.00  0.00    -0.550 OA
ENDBRANCH   1   2
BRANCH   1   5
ATOM      5  C   UNL     1      54.261 -40.936  -1.972  1.00  0.00     0.003 C 
ATOM      6  C   UNL     1      54.361 -39.411  -1.939  1.00  0.00     0.004 C 
ENDBRANCH   1   5
TORSDOF 2
ENDMDL
MODEL 3
REMARK VINA RESULT:    -3.026      3.047      3.855
REMARK INTER + INTRA:          -3.387
REMARK INTER:                  -3.378
REMARK INTRA:                  -0.009
REMARK UNBOUND:                -0.008
REMARK SMILES CCCC(=O)[O-]
REMARK SMILES IDX 3 1 4 2 5 3 6 4 2 5 1 6
REMARK H PARENT
REMARK Flexibility Score: inf
ROOT
ATOM      1  C   UNL     1      51.650 -40.572  -2.899  1.00  0.00     0.052 C 
ENDROOT
BRANCH   1   2
ATOM      2  C   UNL     1      50.580 -41.242  -3.705  1.00  0.00     0.041 C 
ATOM      3  O   UNL     1      50.073 -42.325  -3.311  1.00  0.00    -0.550 OA
ATOM      4  O   UNL     1      50.166 -40.685  -4.909  1.00  0.00    -0.550 OA
ENDBRANCH   1   2
BRANCH   1   5
ATOM      5  C   UNL     1      52.522 -41.591  -2.155  1.00  0.00     0.003 C 
ATOM      6  C   UNL     1      53.940 -41.076  -1.911  1.00  0.00     0.004 C 
ENDBRANCH   1   5
TORSDOF 2
ENDMDL
MODEL 4
REMARK VINA RESULT:    -3.015      2.803      3.642
REMARK INTER + INTRA:          -3.375
REMARK INTER:                  -3.347
REMARK INTRA:                  -0.028
REMARK UNBOUND:                -0.008
REMARK SMILES CCCC(=O)[O-]
REMARK SMILES IDX 3 1 4 2 5 3 6 4 2 5 1 6
REMARK H PARENT
REMARK Flexibility Score: inf
ROOT
ATOM      1  C   UNL     1      49.420 -41.805  -3.697  1.00  0.00     0.052 C 
ENDROOT
BRANCH   1   2
ATOM      2  C   UNL     1      50.853 -41.553  -3.339  1.00  0.00     0.041 C 
ATOM      3  O   UNL     1      51.626 -42.518  -3.098  1.00  0.00    -0.550 OA
ATOM      4  O   UNL     1      51.325 -40.250  -3.240  1.00  0.00    -0.550 OA
ENDBRANCH   1   2
BRANCH   1   5
ATOM      5  C   UNL     1      48.953 -40.899  -4.843  1.00  0.00     0.003 C 
ATOM      6  C   UNL     1      47.645 -40.178  -4.519  1.00  0.00     0.004 C 
ENDBRANCH   1   5
TORSDOF 2
ENDMDL
MODEL 5
REMARK VINA RESULT:    -3.007      2.778      3.834
REMARK INTER + INTRA:          -3.366
REMARK INTER:                  -3.339
REMARK INTRA:                  -0.027
REMARK UNBOUND:                -0.008
REMARK SMILES CCCC(=O)[O-]
REMARK SMILES IDX 3 1 4 2 5 3 6 4 2 5 1 6
REMARK H PARENT
REMARK Flexibility Score: inf
ROOT
ATOM      1  C   UNL     1      49.404 -41.731  -3.521  1.00  0.00     0.052 C 
ENDROOT
BRANCH   1   2
ATOM      2  C   UNL     1      50.859 -41.501  -3.247  1.00  0.00     0.041 C 
ATOM      3  O   UNL     1      51.323 -40.331  -3.223  1.00  0.00    -0.550 OA
ATOM      4  O   UNL     1      51.709 -42.583  -3.054  1.00  0.00    -0.550 OA
ENDBRANCH   1   2
BRANCH   1   5
ATOM      5  C   UNL     1      48.937 -40.982  -4.775  1.00  0.00     0.003 C 
ATOM      6  C   UNL     1      47.638 -40.212  -4.543  1.00  0.00     0.004 C 
ENDBRANCH   1   5
TORSDOF 2
ENDMDL
MODEL 6
REMARK VINA RESULT:    -2.949     14.398     14.768
REMARK INTER + INTRA:          -3.302
REMARK INTER:                  -3.263
REMARK INTRA:                  -0.039
REMARK UNBOUND:                -0.008
REMARK SMILES CCCC(=O)[O-]
REMARK SMILES IDX 3 1 4 2 5 3 6 4 2 5 1 6
REMARK H PARENT
REMARK Flexibility Score: inf
ROOT
ATOM      1  C   UNL     1      51.291 -34.031  10.627  1.00  0.00     0.052 C 
ENDROOT
BRANCH   1   2
ATOM      2  C   UNL     1      51.070 -35.275   9.821  1.00  0.00     0.041 C 
ATOM      3  O   UNL     1      51.258 -36.407  10.338  1.00  0.00    -0.550 OA
ATOM      4  O   UNL     1      50.688 -35.180   8.489  1.00  0.00    -0.550 OA
ENDBRANCH   1   2
BRANCH   1   5
ATOM      5  C   UNL     1      50.006 -33.572  11.327  1.00  0.00     0.003 C 
ATOM      6  C   UNL     1      49.906 -34.093  12.761  1.00  0.00     0.004 C 
ENDBRANCH   1   5
TORSDOF 2
ENDMDL
MODEL 7
REMARK VINA RESULT:    -2.869     12.526     12.957
REMARK INTER + INTRA:          -3.212
REMARK INTER:                  -3.187
REMARK INTRA:                  -0.025
REMARK UNBOUND:                -0.008
REMARK SMILES CCCC(=O)[O-]
REMARK SMILES IDX 3 1 4 2 5 3 6 4 2 5 1 6
REMARK H PARENT
REMARK Flexibility Score: inf
ROOT
ATOM      1  C   UNL     1      51.035 -36.884  10.051  1.00  0.00     0.052 C 
ENDROOT
BRANCH   1   2
ATOM      2  C   UNL     1      51.048 -35.415   9.753  1.00  0.00     0.041 C 
ATOM      3  O   UNL     1      50.632 -34.990   8.643  1.00  0.00    -0.550 OA
ATOM      4  O   UNL     1      51.552 -34.521  10.690  1.00  0.00    -0.550 OA
ENDBRANCH   1   2
BRANCH   1   5
ATOM      5  C   UNL     1      51.828 -37.682   9.008  1.00  0.00     0.003 C 
ATOM      6  C   UNL     1      50.920 -38.405   8.015  1.00  0.00     0.004 C 
ENDBRANCH   1   5
TORSDOF 2
ENDMDL
MODEL 8
REMARK VINA RESULT:    -2.789      3.589      4.544
REMARK INTER + INTRA:          -3.124
REMARK INTER:                  -3.118
REMARK INTRA:                  -0.005
REMARK UNBOUND:                -0.008
REMARK SMILES CCCC(=O)[O-]
REMARK SMILES IDX 3 1 4 2 5 3 6 4 2 5 1 6
REMARK H PARENT
REMARK Flexibility Score: inf
ROOT
ATOM      1  C   UNL     1      48.991 -40.835  -4.789  1.00  0.00     0.052 C 
ENDROOT
BRANCH   1   2
ATOM      2  C   UNL     1      50.186 -41.138  -3.936  1.00  0.00     0.041 C 
ATOM      3  O   UNL     1      50.297 -42.260  -3.377  1.00  0.00    -0.550 OA
ATOM      4  O   UNL     1      51.158 -40.167  -3.733  1.00  0.00    -0.550 OA
ENDBRANCH   1   2
BRANCH   1   5
ATOM      5  C   UNL     1      47.745 -40.554  -3.940  1.00  0.00     0.003 C 
ATOM      6  C   UNL     1      46.695 -39.743  -4.698  1.00  0.00     0.004 C 
ENDBRANCH   1   5
TORSDOF 2
ENDMDL
MODEL 9
REMARK VINA RESULT:    -2.754     13.838     14.261
REMARK INTER + INTRA:          -3.084
REMARK INTER:                  -3.059
REMARK INTRA:                  -0.026
REMARK UNBOUND:                -0.008
REMARK SMILES CCCC(=O)[O-]
REMARK SMILES IDX 3 1 4 2 5 3 6 4 2 5 1 6
REMARK H PARENT
REMARK Flexibility Score: inf
ROOT
ATOM      1  C   UNL     1      50.638 -35.020   9.408  1.00  0.00     0.052 C 
ENDROOT
BRANCH   1   2
ATOM      2  C   UNL     1      50.858 -33.981  10.465  1.00  0.00     0.041 C 
ATOM      3  O   UNL     1      52.002 -33.817  10.965  1.00  0.00    -0.550 OA
ATOM      4  O   UNL     1      49.791 -33.218  10.921  1.00  0.00    -0.550 OA
ENDBRANCH   1   2
BRANCH   1   5
ATOM      5  C   UNL     1      50.687 -36.439   9.988  1.00  0.00     0.003 C 
ATOM      6  C   UNL     1      51.667 -37.341   9.239  1.00  0.00     0.004 C 
ENDBRANCH   1   5
TORSDOF 2
ENDMDL
