MODEL 1
REMARK VINA RESULT:    -4.474      0.000      0.000
REMARK INTER + INTRA:          -4.893
REMARK INTER:                  -4.736
REMARK INTRA:                  -0.157
REMARK UNBOUND:                -0.157
REMARK SMILES Cc1ccc(C(C)C)cc1
REMARK SMILES IDX 1 1 2 2 3 3 4 4 5 5 9 6 10 7 6 8 7 9 8 10
REMARK H PARENT
REMARK Flexibility Score: inf
ROOT
ATOM      1  C   UNL     1    -117.788  12.304  20.969  1.00  0.00     0.044 C 
ATOM      2  C   UNL     1    -116.822  12.083  22.096  1.00  0.00    -0.051 A 
ATOM      3  C   UNL     1    -116.766  12.987  23.166  1.00  0.00     0.004 A 
ATOM      4  C   UNL     1    -115.840  12.803  24.198  1.00  0.00     0.004 A 
ATOM      5  C   UNL     1    -114.946  11.719  24.170  1.00  0.00    -0.045 A 
ATOM      6  C   UNL     1    -114.994  10.825  23.083  1.00  0.00     0.004 A 
ATOM      7  C   UNL     1    -115.920  11.011  22.052  1.00  0.00     0.004 A 
ENDROOT
BRANCH   5   8
ATOM      8  C   UNL     1    -113.945  11.531  25.295  1.00  0.00     0.013 C 
ATOM      9  C   UNL     1    -113.669  10.044  25.547  1.00  0.00     0.012 C 
ATOM     10  C   UNL     1    -112.645  12.294  25.011  1.00  0.00     0.012 C 
ENDBRANCH   5   8
TORSDOF 1
ENDMDL
MODEL 2
REMARK VINA RESULT:    -4.434      1.560      2.837
REMARK INTER + INTRA:          -4.850
REMARK INTER:                  -4.684
REMARK INTRA:                  -0.167
REMARK UNBOUND:                -0.157
REMARK SMILES Cc1ccc(C(C)C)cc1
REMARK SMILES IDX 1 1 2 2 3 3 4 4 5 5 9 6 10 7 6 8 7 9 8 10
REMARK H PARENT
REMARK Flexibility Score: inf
ROOT
ATOM      1  C   UNL     1    -119.319  15.259  21.537  1.00  0.00     0.044 C 
ATOM      2  C   UNL     1    -118.321  14.318  22.146  1.00  0.00    -0.051 A 
ATOM      3  C   UNL     1    -117.862  13.209  21.422  1.00  0.00     0.004 A 
ATOM      4  C   UNL     1    -116.960  12.312  22.002  1.00  0.00     0.004 A 
ATOM      5  C   UNL     1    -116.511  12.502  23.319  1.00  0.00    -0.045 A 
ATOM      6  C   UNL     1    -116.989  13.608  24.049  1.00  0.00     0.004 A 
ATOM      7  C   UNL     1    -117.891  14.503  23.467  1.00  0.00     0.004 A 
ENDROOT
BRANCH   5   8
ATOM      8  C   UNL     1    -115.533  11.520  23.938  1.00  0.00     0.013 C 
ATOM      9  C   UNL     1    -114.914  10.609  22.871  1.00  0.00     0.012 C 
ATOM     10  C   UNL     1    -114.447  12.251  24.737  1.00  0.00     0.012 C 
ENDBRANCH   5   8
TORSDOF 1
ENDMDL
MODEL 3
REMARK VINA RESULT:    -4.389      1.512      2.404
REMARK INTER + INTRA:          -4.802
REMARK INTER:                  -4.636
REMARK INTRA:                  -0.167
REMARK UNBOUND:                -0.157
REMARK SMILES Cc1ccc(C(C)C)cc1
REMARK SMILES IDX 1 1 2 2 3 3 4 4 5 5 9 6 10 7 6 8 7 9 8 10
REMARK H PARENT
REMARK Flexibility Score: inf
ROOT
ATOM      1  C   UNL     1    -119.256  15.193  21.522  1.00  0.00     0.044 C 
ATOM      2  C   UNL     1    -118.312  14.210  22.149  1.00  0.00    -0.051 A 
ATOM      3  C   UNL     1    -117.867  14.398  23.466  1.00  0.00     0.004 A 
ATOM      4  C   UNL     1    -116.959  13.503  24.038  1.00  0.00     0.004 A 
ATOM      5  C   UNL     1    -116.470  12.412  23.300  1.00  0.00    -0.045 A 
ATOM      6  C   UNL     1    -116.905  12.238  21.972  1.00  0.00     0.004 A 
ATOM      7  C   UNL     1    -117.813  13.134  21.402  1.00  0.00     0.004 A 
ENDROOT
BRANCH   5   8
ATOM      8  C   UNL     1    -115.483  11.448  23.933  1.00  0.00     0.013 C 
ATOM      9  C   UNL     1    -114.830  10.551  22.875  1.00  0.00     0.012 C 
ATOM     10  C   UNL     1    -114.424  12.198  24.750  1.00  0.00     0.012 C 
ENDBRANCH   5   8
TORSDOF 1
ENDMDL
MODEL 4
REMARK VINA RESULT:    -4.334      0.822      4.322
REMARK INTER + INTRA:          -4.744
REMARK INTER:                  -4.577
REMARK INTRA:                  -0.167
REMARK UNBOUND:                -0.157
REMARK SMILES Cc1ccc(C(C)C)cc1
REMARK SMILES IDX 1 1 2 2 3 3 4 4 5 5 9 6 10 7 6 8 7 9 8 10
REMARK H PARENT
REMARK Flexibility Score: inf
ROOT
ATOM      1  C   UNL     1    -113.575  11.472  25.626  1.00  0.00     0.044 C 
ATOM      2  C   UNL     1    -114.520  11.609  24.468  1.00  0.00    -0.051 A 
ATOM      3  C   UNL     1    -115.455  12.653  24.439  1.00  0.00     0.004 A 
ATOM      4  C   UNL     1    -116.360  12.761  23.379  1.00  0.00     0.004 A 
ATOM      5  C   UNL     1    -116.354  11.819  22.336  1.00  0.00    -0.045 A 
ATOM      6  C   UNL     1    -115.424  10.762  22.380  1.00  0.00     0.004 A 
ATOM      7  C   UNL     1    -114.521  10.656  23.441  1.00  0.00     0.004 A 
ENDROOT
BRANCH   5   8
ATOM      8  C   UNL     1    -117.342  11.946  21.191  1.00  0.00     0.013 C 
ATOM      9  C   UNL     1    -117.868  13.381  21.071  1.00  0.00     0.012 C 
ATOM     10  C   UNL     1    -116.722  11.472  19.871  1.00  0.00     0.012 C 
ENDBRANCH   5   8
TORSDOF 1
ENDMDL
MODEL 5
REMARK VINA RESULT:    -4.305      1.773      5.233
REMARK INTER + INTRA:          -4.714
REMARK INTER:                  -4.551
REMARK INTRA:                  -0.162
REMARK UNBOUND:                -0.157
REMARK SMILES Cc1ccc(C(C)C)cc1
REMARK SMILES IDX 1 1 2 2 3 3 4 4 5 5 9 6 10 7 6 8 7 9 8 10
REMARK H PARENT
REMARK Flexibility Score: inf
ROOT
ATOM      1  C   UNL     1    -114.931  11.826  24.648  1.00  0.00     0.044 C 
ATOM      2  C   UNL     1    -115.977  12.394  23.735  1.00  0.00    -0.051 A 
ATOM      3  C   UNL     1    -116.209  11.814  22.480  1.00  0.00     0.004 A 
ATOM      4  C   UNL     1    -117.158  12.365  21.612  1.00  0.00     0.004 A 
ATOM      5  C   UNL     1    -117.881  13.512  21.980  1.00  0.00    -0.045 A 
ATOM      6  C   UNL     1    -117.630  14.102  23.235  1.00  0.00     0.004 A 
ATOM      7  C   UNL     1    -116.681  13.550  24.100  1.00  0.00     0.004 A 
ENDROOT
BRANCH   5   8
ATOM      8  C   UNL     1    -118.907  14.101  21.030  1.00  0.00     0.013 C 
ATOM      9  C   UNL     1    -119.671  15.256  21.687  1.00  0.00     0.012 C 
ATOM     10  C   UNL     1    -118.251  14.549  19.717  1.00  0.00     0.012 C 
ENDBRANCH   5   8
TORSDOF 1
ENDMDL
MODEL 6
REMARK VINA RESULT:    -4.278      1.089      4.334
REMARK INTER + INTRA:          -4.685
REMARK INTER:                  -4.518
REMARK INTRA:                  -0.166
REMARK UNBOUND:                -0.157
REMARK SMILES Cc1ccc(C(C)C)cc1
REMARK SMILES IDX 1 1 2 2 3 3 4 4 5 5 9 6 10 7 6 8 7 9 8 10
REMARK H PARENT
REMARK Flexibility Score: inf
ROOT
ATOM      1  C   UNL     1    -112.301  10.196  24.413  1.00  0.00     0.044 C 
ATOM      2  C   UNL     1    -113.616  10.847  24.098  1.00  0.00    -0.051 A 
ATOM      3  C   UNL     1    -114.414  10.360  23.054  1.00  0.00     0.004 A 
ATOM      4  C   UNL     1    -115.622  10.989  22.736  1.00  0.00     0.004 A 
ATOM      5  C   UNL     1    -116.045  12.123  23.449  1.00  0.00    -0.045 A 
ATOM      6  C   UNL     1    -115.231  12.620  24.485  1.00  0.00     0.004 A 
ATOM      7  C   UNL     1    -114.024  11.990  24.801  1.00  0.00     0.004 A 
ENDROOT
BRANCH   5   8
ATOM      8  C   UNL     1    -117.358  12.797  23.093  1.00  0.00     0.013 C 
ATOM      9  C   UNL     1    -117.498  14.147  23.807  1.00  0.00     0.012 C 
ATOM     10  C   UNL     1    -117.503  12.958  21.575  1.00  0.00     0.012 C 
ENDBRANCH   5   8
TORSDOF 1
ENDMDL
MODEL 7
REMARK VINA RESULT:    -4.242      2.088      4.063
REMARK INTER + INTRA:          -4.646
REMARK INTER:                  -4.488
REMARK INTRA:                  -0.158
REMARK UNBOUND:                -0.157
REMARK SMILES Cc1ccc(C(C)C)cc1
REMARK SMILES IDX 1 1 2 2 3 3 4 4 5 5 9 6 10 7 6 8 7 9 8 10
REMARK H PARENT
REMARK Flexibility Score: inf
ROOT
ATOM      1  C   UNL     1    -115.250   9.993  21.203  1.00  0.00     0.044 C 
ATOM      2  C   UNL     1    -115.989  11.188  21.730  1.00  0.00    -0.051 A 
ATOM      3  C   UNL     1    -115.878  11.549  23.080  1.00  0.00     0.004 A 
ATOM      4  C   UNL     1    -116.594  12.640  23.581  1.00  0.00     0.004 A 
ATOM      5  C   UNL     1    -117.445  13.380  22.743  1.00  0.00    -0.045 A 
ATOM      6  C   UNL     1    -117.568  13.002  21.392  1.00  0.00     0.004 A 
ATOM      7  C   UNL     1    -116.851  11.911  20.893  1.00  0.00     0.004 A 
ENDROOT
BRANCH   5   8
ATOM      8  C   UNL     1    -118.219  14.562  23.298  1.00  0.00     0.013 C 
ATOM      9  C   UNL     1    -119.640  14.152  23.702  1.00  0.00     0.012 C 
ATOM     10  C   UNL     1    -117.475  15.206  24.475  1.00  0.00     0.012 C 
ENDBRANCH   5   8
TORSDOF 1
ENDMDL
MODEL 8
REMARK VINA RESULT:    -4.239      1.989      4.093
REMARK INTER + INTRA:          -4.643
REMARK INTER:                  -4.486
REMARK INTRA:                  -0.157
REMARK UNBOUND:                -0.157
REMARK SMILES Cc1ccc(C(C)C)cc1
REMARK SMILES IDX 1 1 2 2 3 3 4 4 5 5 9 6 10 7 6 8 7 9 8 10
REMARK H PARENT
REMARK Flexibility Score: inf
ROOT
ATOM      1  C   UNL     1    -115.113   9.999  21.372  1.00  0.00     0.044 C 
ATOM      2  C   UNL     1    -115.924  11.151  21.887  1.00  0.00    -0.051 A 
ATOM      3  C   UNL     1    -116.778  11.855  21.026  1.00  0.00     0.004 A 
ATOM      4  C   UNL     1    -117.507  12.952  21.497  1.00  0.00     0.004 A 
ATOM      5  C   UNL     1    -117.384  13.372  22.832  1.00  0.00    -0.045 A 
ATOM      6  C   UNL     1    -116.511  12.673  23.688  1.00  0.00     0.004 A 
ATOM      7  C   UNL     1    -115.783  11.577  23.216  1.00  0.00     0.004 A 
ENDROOT
BRANCH   5   8
ATOM      8  C   UNL     1    -118.179  14.565  23.330  1.00  0.00     0.013 C 
ATOM      9  C   UNL     1    -119.613  14.161  23.695  1.00  0.00     0.012 C 
ATOM     10  C   UNL     1    -117.478  15.241  24.514  1.00  0.00     0.012 C 
ENDBRANCH   5   8
TORSDOF 1
ENDMDL
MODEL 9
REMARK VINA RESULT:    -4.213     19.303     20.153
REMARK INTER + INTRA:          -4.616
REMARK INTER:                  -4.458
REMARK INTRA:                  -0.157
REMARK UNBOUND:                -0.157
REMARK SMILES Cc1ccc(C(C)C)cc1
REMARK SMILES IDX 1 1 2 2 3 3 4 4 5 5 9 6 10 7 6 8 7 9 8 10
REMARK H PARENT
REMARK Flexibility Score: inf
ROOT
ATOM      1  C   UNL     1    -100.285  18.623  34.989  1.00  0.00     0.044 C 
ATOM      2  C   UNL     1    -100.566  19.769  34.062  1.00  0.00    -0.051 A 
ATOM      3  C   UNL     1     -99.876  19.881  32.847  1.00  0.00     0.004 A 
ATOM      4  C   UNL     1    -100.111  20.969  32.000  1.00  0.00     0.004 A 
ATOM      5  C   UNL     1    -101.030  21.969  32.360  1.00  0.00    -0.045 A 
ATOM      6  C   UNL     1    -101.706  21.861  33.590  1.00  0.00     0.004 A 
ATOM      7  C   UNL     1    -101.470  20.774  34.436  1.00  0.00     0.004 A 
ENDROOT
BRANCH   5   8
ATOM      8  C   UNL     1    -101.275  23.145  31.432  1.00  0.00     0.013 C 
ATOM      9  C   UNL     1    -102.685  23.716  31.623  1.00  0.00     0.012 C 
ATOM     10  C   UNL     1    -100.209  24.231  31.623  1.00  0.00     0.012 C 
ENDBRANCH   5   8
TORSDOF 1
ENDMDL
