MODEL 1
REMARK VINA RESULT:    -4.390      0.000      0.000
REMARK INTER + INTRA:          -8.305
REMARK INTER:                  -7.469
REMARK INTRA:                  -0.836
REMARK UNBOUND:                -0.836
REMARK SMILES CCCCCCCCCCCCCC(=O)[O-]
REMARK SMILES IDX 8 1 9 2 10 3 11 4 12 5 13 6 14 7 15 8 16 9 7 10 6 11 5 12
REMARK SMILES IDX 4 13 3 14 2 15 1 16
REMARK H PARENT
REMARK Flexibility Score: inf
ROOT
ATOM      1  C   UNL     1       1.662   2.349   6.753  1.00  0.00     0.000 C 
ENDROOT
BRANCH   1   2
ATOM      2  C   UNL     1       1.033   3.727   7.034  1.00  0.00     0.000 C 
BRANCH   2   3
ATOM      3  C   UNL     1       0.248   3.831   8.354  1.00  0.00     0.000 C 
BRANCH   3   4
ATOM      4  C   UNL     1      -0.556   5.138   8.474  1.00  0.00     0.000 C 
BRANCH   4   5
ATOM      5  C   UNL     1      -0.220   6.140   7.358  1.00  0.00     0.006 C 
BRANCH   5   6
ATOM      6  C   UNL     1      -1.425   6.443   6.459  1.00  0.00     0.053 C 
BRANCH   6   7
ATOM      7  C   UNL     1      -1.000   6.517   5.026  1.00  0.00     0.041 C 
ATOM      8  O   UNL     1      -1.230   7.554   4.349  1.00  0.00    -0.550 OA
ATOM      9  O   UNL     1      -0.394   5.423   4.422  1.00  0.00    -0.550 OA
ENDBRANCH   6   7
ENDBRANCH   5   6
ENDBRANCH   4   5
ENDBRANCH   3   4
ENDBRANCH   2   3
ENDBRANCH   1   2
BRANCH   1  10
ATOM     10  C   UNL     1       1.471   1.356   7.912  1.00  0.00     0.000 C 
BRANCH  10  11
ATOM     11  C   UNL     1       1.320  -0.100   7.436  1.00  0.00    -0.000 C 
BRANCH  11  12
ATOM     12  C   UNL     1       1.255  -0.293   5.906  1.00  0.00    -0.000 C 
BRANCH  12  13
ATOM     13  C   UNL     1       1.371  -1.751   5.426  1.00  0.00    -0.000 C 
BRANCH  13  14
ATOM     14  C   UNL     1       2.804  -2.218   5.108  1.00  0.00    -0.000 C 
BRANCH  14  15
ATOM     15  C   UNL     1       3.581  -2.721   6.343  1.00  0.00    -0.003 C 
ATOM     16  C   UNL     1       4.683  -1.757   6.781  1.00  0.00     0.004 C 
ENDBRANCH  14  15
ENDBRANCH  13  14
ENDBRANCH  12  13
ENDBRANCH  11  12
ENDBRANCH  10  11
ENDBRANCH   1  10
TORSDOF 12
ENDMDL
MODEL 2
REMARK VINA RESULT:    -4.290      5.653      7.803
REMARK INTER + INTRA:          -8.136
REMARK INTER:                  -6.242
REMARK INTRA:                  -1.894
REMARK UNBOUND:                -0.836
REMARK SMILES CCCCCCCCCCCCCC(=O)[O-]
REMARK SMILES IDX 8 1 9 2 10 3 11 4 12 5 13 6 14 7 15 8 16 9 7 10 6 11 5 12
REMARK SMILES IDX 4 13 3 14 2 15 1 16
REMARK H PARENT
REMARK Flexibility Score: inf
ROOT
ATOM      1  C   UNL     1      -3.214  -2.605   7.272  1.00  0.00     0.000 C 
ENDROOT
BRANCH   1   2
ATOM      2  C   UNL     1      -2.484  -3.923   6.950  1.00  0.00     0.000 C 
BRANCH   2   3
ATOM      3  C   UNL     1      -1.044  -3.762   6.430  1.00  0.00     0.000 C 
BRANCH   3   4
ATOM      4  C   UNL     1      -0.567  -2.299   6.429  1.00  0.00     0.000 C 
BRANCH   4   5
ATOM      5  C   UNL     1       0.478  -2.020   5.336  1.00  0.00     0.006 C 
BRANCH   5   6
ATOM      6  C   UNL     1       1.579  -1.062   5.807  1.00  0.00     0.053 C 
BRANCH   6   7
ATOM      7  C   UNL     1       2.929  -1.622   5.489  1.00  0.00     0.041 C 
ATOM      8  O   UNL     1       3.093  -2.341   4.468  1.00  0.00    -0.550 OA
ATOM      9  O   UNL     1       3.997  -1.392   6.347  1.00  0.00    -0.550 OA
ENDBRANCH   6   7
ENDBRANCH   5   6
ENDBRANCH   4   5
ENDBRANCH   3   4
ENDBRANCH   2   3
ENDBRANCH   1   2
BRANCH   1  10
ATOM     10  C   UNL     1      -4.540  -2.453   6.507  1.00  0.00     0.000 C 
BRANCH  10  11
ATOM     11  C   UNL     1      -4.551  -1.238   5.561  1.00  0.00    -0.000 C 
BRANCH  11  12
ATOM     12  C   UNL     1      -4.329  -1.559   4.068  1.00  0.00    -0.000 C 
BRANCH  12  13
ATOM     13  C   UNL     1      -2.855  -1.670   3.635  1.00  0.00    -0.000 C 
BRANCH  13  14
ATOM     14  C   UNL     1      -2.424  -3.069   3.158  1.00  0.00    -0.000 C 
BRANCH  14  15
ATOM     15  C   UNL     1      -3.551  -4.121   3.217  1.00  0.00    -0.003 C 
ATOM     16  C   UNL     1      -3.049  -5.504   3.633  1.00  0.00     0.004 C 
ENDBRANCH  14  15
ENDBRANCH  13  14
ENDBRANCH  12  13
ENDBRANCH  11  12
ENDBRANCH  10  11
ENDBRANCH   1  10
TORSDOF 12
ENDMDL
MODEL 3
REMARK VINA RESULT:    -4.279      2.331      3.748
REMARK INTER + INTRA:          -8.117
REMARK INTER:                  -7.580
REMARK INTRA:                  -0.537
REMARK UNBOUND:                -0.836
REMARK SMILES CCCCCCCCCCCCCC(=O)[O-]
REMARK SMILES IDX 8 1 9 2 10 3 11 4 12 5 13 6 14 7 15 8 16 9 7 10 6 11 5 12
REMARK SMILES IDX 4 13 3 14 2 15 1 16
REMARK H PARENT
REMARK Flexibility Score: inf
ROOT
ATOM      1  C   UNL     1       1.576   0.220   7.435  1.00  0.00     0.000 C 
ENDROOT
BRANCH   1   2
ATOM      2  C   UNL     1       2.183   1.608   7.712  1.00  0.00     0.000 C 
BRANCH   2   3
ATOM      3  C   UNL     1       1.187   2.781   7.653  1.00  0.00     0.000 C 
BRANCH   3   4
ATOM      4  C   UNL     1       1.297   3.597   6.353  1.00  0.00     0.000 C 
BRANCH   4   5
ATOM      5  C   UNL     1       0.383   4.833   6.354  1.00  0.00     0.006 C 
BRANCH   5   6
ATOM      6  C   UNL     1       0.081   5.341   4.939  1.00  0.00     0.053 C 
BRANCH   6   7
ATOM      7  C   UNL     1      -0.951   6.424   4.983  1.00  0.00     0.041 C 
ATOM      8  O   UNL     1      -2.071   6.211   5.518  1.00  0.00    -0.550 OA
ATOM      9  O   UNL     1      -0.695   7.653   4.388  1.00  0.00    -0.550 OA
ENDBRANCH   6   7
ENDBRANCH   5   6
ENDBRANCH   4   5
ENDBRANCH   3   4
ENDBRANCH   2   3
ENDBRANCH   1   2
BRANCH   1  10
ATOM     10  C   UNL     1       1.390  -0.064   5.934  1.00  0.00     0.000 C 
BRANCH  10  11
ATOM     11  C   UNL     1       1.305  -1.568   5.614  1.00  0.00    -0.000 C 
BRANCH  11  12
ATOM     12  C   UNL     1      -0.027  -2.038   4.993  1.00  0.00    -0.000 C 
BRANCH  12  13
ATOM     13  C   UNL     1      -1.063  -2.576   5.998  1.00  0.00    -0.000 C 
BRANCH  13  14
ATOM     14  C   UNL     1      -2.525  -2.512   5.518  1.00  0.00    -0.000 C 
BRANCH  14  15
ATOM     15  C   UNL     1      -2.709  -1.756   4.185  1.00  0.00    -0.003 C 
ATOM     16  C   UNL     1      -4.106  -1.155   4.034  1.00  0.00     0.004 C 
ENDBRANCH  14  15
ENDBRANCH  13  14
ENDBRANCH  12  13
ENDBRANCH  11  12
ENDBRANCH  10  11
ENDBRANCH   1  10
TORSDOF 12
ENDMDL
MODEL 4
REMARK VINA RESULT:    -4.221      5.851      8.318
REMARK INTER + INTRA:          -8.018
REMARK INTER:                  -6.451
REMARK INTRA:                  -1.566
REMARK UNBOUND:                -0.836
REMARK SMILES CCCCCCCCCCCCCC(=O)[O-]
REMARK SMILES IDX 8 1 9 2 10 3 11 4 12 5 13 6 14 7 15 8 16 9 7 10 6 11 5 12
REMARK SMILES IDX 4 13 3 14 2 15 1 16
REMARK H PARENT
REMARK Flexibility Score: inf
ROOT
ATOM      1  C   UNL     1      -2.339  -3.735   6.000  1.00  0.00     0.000 C 
ENDROOT
BRANCH   1   2
ATOM      2  C   UNL     1      -1.176  -4.526   6.628  1.00  0.00     0.000 C 
BRANCH   2   3
ATOM      3  C   UNL     1       0.090  -3.701   6.923  1.00  0.00     0.000 C 
BRANCH   3   4
ATOM      4  C   UNL     1      -0.063  -2.214   6.556  1.00  0.00     0.000 C 
BRANCH   4   5
ATOM      5  C   UNL     1       0.760  -1.825   5.318  1.00  0.00     0.006 C 
BRANCH   5   6
ATOM      6  C   UNL     1       2.074  -1.124   5.682  1.00  0.00     0.053 C 
BRANCH   6   7
ATOM      7  C   UNL     1       3.230  -2.060   5.507  1.00  0.00     0.041 C 
ATOM      8  O   UNL     1       3.795  -2.565   6.514  1.00  0.00    -0.550 OA
ATOM      9  O   UNL     1       3.715  -2.335   4.236  1.00  0.00    -0.550 OA
ENDBRANCH   6   7
ENDBRANCH   5   6
ENDBRANCH   4   5
ENDBRANCH   3   4
ENDBRANCH   2   3
ENDBRANCH   1   2
BRANCH   1  10
ATOM     10  C   UNL     1      -2.691  -4.214   4.580  1.00  0.00     0.000 C 
BRANCH  10  11
ATOM     11  C   UNL     1      -2.466  -3.130   3.510  1.00  0.00    -0.000 C 
BRANCH  11  12
ATOM     12  C   UNL     1      -2.637  -1.675   3.994  1.00  0.00    -0.000 C 
BRANCH  12  13
ATOM     13  C   UNL     1      -4.080  -1.139   3.959  1.00  0.00    -0.000 C 
BRANCH  13  14
ATOM     14  C   UNL     1      -4.739  -0.962   5.339  1.00  0.00    -0.000 C 
BRANCH  14  15
ATOM     15  C   UNL     1      -5.752  -2.073   5.691  1.00  0.00    -0.003 C 
ATOM     16  C   UNL     1      -6.248  -2.831   4.460  1.00  0.00     0.004 C 
ENDBRANCH  14  15
ENDBRANCH  13  14
ENDBRANCH  12  13
ENDBRANCH  11  12
ENDBRANCH  10  11
ENDBRANCH   1  10
TORSDOF 12
ENDMDL
MODEL 5
REMARK VINA RESULT:    -4.164      5.548      8.268
REMARK INTER + INTRA:          -7.922
REMARK INTER:                  -6.906
REMARK INTRA:                  -1.016
REMARK UNBOUND:                -0.836
REMARK SMILES CCCCCCCCCCCCCC(=O)[O-]
REMARK SMILES IDX 8 1 9 2 10 3 11 4 12 5 13 6 14 7 15 8 16 9 7 10 6 11 5 12
REMARK SMILES IDX 4 13 3 14 2 15 1 16
REMARK H PARENT
REMARK Flexibility Score: inf
ROOT
ATOM      1  C   UNL     1      -2.664  -4.118   4.653  1.00  0.00     0.000 C 
ENDROOT
BRANCH   1   2
ATOM      2  C   UNL     1      -1.693  -4.142   5.848  1.00  0.00     0.000 C 
BRANCH   2   3
ATOM      3  C   UNL     1      -1.532  -2.800   6.586  1.00  0.00     0.000 C 
BRANCH   3   4
ATOM      4  C   UNL     1      -0.116  -2.594   7.152  1.00  0.00     0.000 C 
BRANCH   4   5
ATOM      5  C   UNL     1       0.630  -1.437   6.468  1.00  0.00     0.006 C 
BRANCH   5   6
ATOM      6  C   UNL     1       1.314  -1.868   5.165  1.00  0.00     0.053 C 
BRANCH   6   7
ATOM      7  C   UNL     1       2.802  -1.799   5.309  1.00  0.00     0.041 C 
ATOM      8  O   UNL     1       3.317  -1.224   6.305  1.00  0.00    -0.550 OA
ATOM      9  O   UNL     1       3.622  -2.325   4.319  1.00  0.00    -0.550 OA
ENDBRANCH   6   7
ENDBRANCH   5   6
ENDBRANCH   4   5
ENDBRANCH   3   4
ENDBRANCH   2   3
ENDBRANCH   1   2
BRANCH   1  10
ATOM     10  C   UNL     1      -2.173  -3.225   3.500  1.00  0.00     0.000 C 
BRANCH  10  11
ATOM     11  C   UNL     1      -2.622  -1.759   3.643  1.00  0.00    -0.000 C 
BRANCH  11  12
ATOM     12  C   UNL     1      -4.134  -1.548   3.870  1.00  0.00    -0.000 C 
BRANCH  12  13
ATOM     13  C   UNL     1      -4.500  -0.737   5.126  1.00  0.00    -0.000 C 
BRANCH  13  14
ATOM     14  C   UNL     1      -5.490  -1.432   6.081  1.00  0.00    -0.000 C 
BRANCH  14  15
ATOM     15  C   UNL     1      -5.708  -0.675   7.408  1.00  0.00    -0.003 C 
ATOM     16  C   UNL     1      -6.396   0.675   7.212  1.00  0.00     0.004 C 
ENDBRANCH  14  15
ENDBRANCH  13  14
ENDBRANCH  12  13
ENDBRANCH  11  12
ENDBRANCH  10  11
ENDBRANCH   1  10
TORSDOF 12
ENDMDL
MODEL 6
REMARK VINA RESULT:    -4.141      8.205     11.451
REMARK INTER + INTRA:          -7.882
REMARK INTER:                  -7.024
REMARK INTRA:                  -0.858
REMARK UNBOUND:                -0.836
REMARK SMILES CCCCCCCCCCCCCC(=O)[O-]
REMARK SMILES IDX 8 1 9 2 10 3 11 4 12 5 13 6 14 7 15 8 16 9 7 10 6 11 5 12
REMARK SMILES IDX 4 13 3 14 2 15 1 16
REMARK H PARENT
REMARK Flexibility Score: inf
ROOT
ATOM      1  C   UNL     1      -3.154  -5.046   0.921  1.00  0.00     0.000 C 
ENDROOT
BRANCH   1   2
ATOM      2  C   UNL     1      -3.699  -5.409  -0.473  1.00  0.00     0.000 C 
BRANCH   2   3
ATOM      3  C   UNL     1      -2.779  -5.040  -1.651  1.00  0.00     0.000 C 
BRANCH   3   4
ATOM      4  C   UNL     1      -1.472  -4.362  -1.201  1.00  0.00     0.000 C 
BRANCH   4   5
ATOM      5  C   UNL     1      -0.685  -3.760  -2.376  1.00  0.00     0.006 C 
BRANCH   5   6
ATOM      6  C   UNL     1       0.007  -4.830  -3.229  1.00  0.00     0.053 C 
BRANCH   6   7
ATOM      7  C   UNL     1       0.825  -5.738  -2.364  1.00  0.00     0.041 C 
ATOM      8  O   UNL     1       1.816  -5.287  -1.731  1.00  0.00    -0.550 OA
ATOM      9  O   UNL     1       0.524  -7.092  -2.297  1.00  0.00    -0.550 OA
ENDBRANCH   6   7
ENDBRANCH   5   6
ENDBRANCH   4   5
ENDBRANCH   3   4
ENDBRANCH   2   3
ENDBRANCH   1   2
BRANCH   1  10
ATOM     10  C   UNL     1      -4.257  -4.610   1.901  1.00  0.00     0.000 C 
BRANCH  10  11
ATOM     11  C   UNL     1      -3.700  -4.109   3.246  1.00  0.00    -0.000 C 
BRANCH  11  12
ATOM     12  C   UNL     1      -2.484  -3.165   3.150  1.00  0.00    -0.000 C 
BRANCH  12  13
ATOM     13  C   UNL     1      -2.669  -1.789   3.815  1.00  0.00    -0.000 C 
BRANCH  13  14
ATOM     14  C   UNL     1      -4.122  -1.279   3.857  1.00  0.00    -0.000 C 
BRANCH  14  15
ATOM     15  C   UNL     1      -4.616  -0.926   5.276  1.00  0.00    -0.003 C 
ATOM     16  C   UNL     1      -4.206  -1.964   6.320  1.00  0.00     0.004 C 
ENDBRANCH  14  15
ENDBRANCH  13  14
ENDBRANCH  12  13
ENDBRANCH  11  12
ENDBRANCH  10  11
ENDBRANCH   1  10
TORSDOF 12
ENDMDL
MODEL 7
REMARK VINA RESULT:    -4.140      7.935     11.091
REMARK INTER + INTRA:          -7.881
REMARK INTER:                  -7.325
REMARK INTRA:                  -0.556
REMARK UNBOUND:                -0.836
REMARK SMILES CCCCCCCCCCCCCC(=O)[O-]
REMARK SMILES IDX 8 1 9 2 10 3 11 4 12 5 13 6 14 7 15 8 16 9 7 10 6 11 5 12
REMARK SMILES IDX 4 13 3 14 2 15 1 16
REMARK H PARENT
REMARK Flexibility Score: inf
ROOT
ATOM      1  C   UNL     1      -3.326  -3.667   2.689  1.00  0.00     0.000 C 
ENDROOT
BRANCH   1   2
ATOM      2  C   UNL     1      -2.718  -4.734   1.758  1.00  0.00     0.000 C 
BRANCH   2   3
ATOM      3  C   UNL     1      -3.588  -5.116   0.547  1.00  0.00     0.000 C 
BRANCH   3   4
ATOM      4  C   UNL     1      -2.830  -5.022  -0.789  1.00  0.00     0.000 C 
BRANCH   4   5
ATOM      5  C   UNL     1      -1.430  -4.408  -0.631  1.00  0.00     0.006 C 
BRANCH   5   6
ATOM      6  C   UNL     1      -0.762  -4.112  -1.980  1.00  0.00     0.053 C 
BRANCH   6   7
ATOM      7  C   UNL     1       0.210  -5.195  -2.329  1.00  0.00     0.041 C 
ATOM      8  O   UNL     1      -0.177  -6.216  -2.958  1.00  0.00    -0.550 OA
ATOM      9  O   UNL     1       1.532  -5.103  -1.915  1.00  0.00    -0.550 OA
ENDBRANCH   6   7
ENDBRANCH   5   6
ENDBRANCH   4   5
ENDBRANCH   3   4
ENDBRANCH   2   3
ENDBRANCH   1   2
BRANCH   1  10
ATOM     10  C   UNL     1      -2.261  -2.831   3.418  1.00  0.00     0.000 C 
BRANCH  10  11
ATOM     11  C   UNL     1      -2.834  -1.553   4.057  1.00  0.00    -0.000 C 
BRANCH  11  12
ATOM     12  C   UNL     1      -4.353  -1.347   3.877  1.00  0.00    -0.000 C 
BRANCH  12  13
ATOM     13  C   UNL     1      -5.197  -1.564   5.147  1.00  0.00    -0.000 C 
BRANCH  13  14
ATOM     14  C   UNL     1      -5.261  -0.353   6.097  1.00  0.00    -0.000 C 
BRANCH  14  15
ATOM     15  C   UNL     1      -6.589  -0.245   6.876  1.00  0.00    -0.003 C 
ATOM     16  C   UNL     1      -6.548   0.823   7.970  1.00  0.00     0.004 C 
ENDBRANCH  14  15
ENDBRANCH  13  14
ENDBRANCH  12  13
ENDBRANCH  11  12
ENDBRANCH  10  11
ENDBRANCH   1  10
TORSDOF 12
ENDMDL
MODEL 8
REMARK VINA RESULT:    -4.010      3.195      4.975
REMARK INTER + INTRA:          -7.659
REMARK INTER:                  -6.994
REMARK INTRA:                  -0.665
REMARK UNBOUND:                -0.836
REMARK SMILES CCCCCCCCCCCCCC(=O)[O-]
REMARK SMILES IDX 8 1 9 2 10 3 11 4 12 5 13 6 14 7 15 8 16 9 7 10 6 11 5 12
REMARK SMILES IDX 4 13 3 14 2 15 1 16
REMARK H PARENT
REMARK Flexibility Score: inf
ROOT
ATOM      1  C   UNL     1       0.988  -1.769   6.045  1.00  0.00     0.000 C 
ENDROOT
BRANCH   1   2
ATOM      2  C   UNL     1       1.515  -0.624   6.930  1.00  0.00     0.000 C 
BRANCH   2   3
ATOM      3  C   UNL     1       1.460   0.775   6.289  1.00  0.00     0.000 C 
BRANCH   3   4
ATOM      4  C   UNL     1       1.886   1.895   7.255  1.00  0.00     0.000 C 
BRANCH   4   5
ATOM      5  C   UNL     1       1.077   3.186   7.055  1.00  0.00     0.006 C 
BRANCH   5   6
ATOM      6  C   UNL     1       1.461   3.927   5.768  1.00  0.00     0.053 C 
BRANCH   6   7
ATOM      7  C   UNL     1       0.404   4.921   5.404  1.00  0.00     0.041 C 
ATOM      8  O   UNL     1      -0.274   5.485   6.304  1.00  0.00    -0.550 OA
ATOM      9  O   UNL     1       0.131   5.189   4.068  1.00  0.00    -0.550 OA
ENDBRANCH   6   7
ENDBRANCH   5   6
ENDBRANCH   4   5
ENDBRANCH   3   4
ENDBRANCH   2   3
ENDBRANCH   1   2
BRANCH   1  10
ATOM     10  C   UNL     1       0.008  -2.696   6.785  1.00  0.00     0.000 C 
BRANCH  10  11
ATOM     11  C   UNL     1      -1.336  -2.856   6.051  1.00  0.00    -0.000 C 
BRANCH  11  12
ATOM     12  C   UNL     1      -1.335  -2.431   4.568  1.00  0.00    -0.000 C 
BRANCH  12  13
ATOM     13  C   UNL     1      -2.516  -1.539   4.142  1.00  0.00    -0.000 C 
BRANCH  13  14
ATOM     14  C   UNL     1      -3.801  -2.301   3.766  1.00  0.00    -0.000 C 
BRANCH  14  15
ATOM     15  C   UNL     1      -5.094  -1.629   4.276  1.00  0.00    -0.003 C 
ATOM     16  C   UNL     1      -4.879  -0.839   5.566  1.00  0.00     0.004 C 
ENDBRANCH  14  15
ENDBRANCH  13  14
ENDBRANCH  12  13
ENDBRANCH  11  12
ENDBRANCH  10  11
ENDBRANCH   1  10
TORSDOF 12
ENDMDL
MODEL 9
REMARK VINA RESULT:    -3.906      6.569      8.314
REMARK INTER + INTRA:          -7.482
REMARK INTER:                  -5.683
REMARK INTRA:                  -1.799
REMARK UNBOUND:                -0.836
REMARK SMILES CCCCCCCCCCCCCC(=O)[O-]
REMARK SMILES IDX 8 1 9 2 10 3 11 4 12 5 13 6 14 7 15 8 16 9 7 10 6 11 5 12
REMARK SMILES IDX 4 13 3 14 2 15 1 16
REMARK H PARENT
REMARK Flexibility Score: inf
ROOT
ATOM      1  C   UNL     1      -5.740  -1.799   6.171  1.00  0.00     0.000 C 
ENDROOT
BRANCH   1   2
ATOM      2  C   UNL     1      -4.826  -0.774   5.473  1.00  0.00     0.000 C 
BRANCH   2   3
ATOM      3  C   UNL     1      -4.346  -1.177   4.067  1.00  0.00     0.000 C 
BRANCH   3   4
ATOM      4  C   UNL     1      -2.847  -1.522   4.022  1.00  0.00     0.000 C 
BRANCH   4   5
ATOM      5  C   UNL     1      -2.576  -2.893   3.381  1.00  0.00     0.006 C 
BRANCH   5   6
ATOM      6  C   UNL     1      -3.840  -3.757   3.286  1.00  0.00     0.053 C 
BRANCH   6   7
ATOM      7  C   UNL     1      -3.552  -5.154   3.736  1.00  0.00     0.041 C 
ATOM      8  O   UNL     1      -4.405  -6.065   3.561  1.00  0.00    -0.550 OA
ATOM      9  O   UNL     1      -2.363  -5.442   4.394  1.00  0.00    -0.550 OA
ENDBRANCH   6   7
ENDBRANCH   5   6
ENDBRANCH   4   5
ENDBRANCH   3   4
ENDBRANCH   2   3
ENDBRANCH   1   2
BRANCH   1  10
ATOM     10  C   UNL     1      -4.962  -2.978   6.780  1.00  0.00     0.000 C 
BRANCH  10  11
ATOM     11  C   UNL     1      -3.691  -2.536   7.528  1.00  0.00    -0.000 C 
BRANCH  11  12
ATOM     12  C   UNL     1      -2.416  -3.340   7.199  1.00  0.00    -0.000 C 
BRANCH  12  13
ATOM     13  C   UNL     1      -1.104  -2.536   7.249  1.00  0.00    -0.000 C 
BRANCH  13  14
ATOM     14  C   UNL     1      -0.026  -2.991   6.247  1.00  0.00    -0.000 C 
BRANCH  14  15
ATOM     15  C   UNL     1       0.510  -1.853   5.352  1.00  0.00    -0.003 C 
ATOM     16  C   UNL     1       2.037  -1.790   5.327  1.00  0.00     0.004 C 
ENDBRANCH  14  15
ENDBRANCH  13  14
ENDBRANCH  12  13
ENDBRANCH  11  12
ENDBRANCH  10  11
ENDBRANCH   1  10
TORSDOF 12
ENDMDL
