MODEL 1
REMARK VINA RESULT:    -4.632      0.000      0.000
REMARK INTER + INTRA:          -7.026
REMARK INTER:                  -6.528
REMARK INTRA:                  -0.498
REMARK UNBOUND:                -0.498
REMARK SMILES CCCCCCCCC(=O)[O-]
REMARK SMILES IDX 6 1 7 2 8 3 9 4 10 5 11 6 5 7 4 8 3 9 2 10 1 11
REMARK H PARENT
REMARK Flexibility Score: inf
ROOT
ATOM      1  C   UNL     1       2.376  44.001  12.114  1.00  0.00     0.000 C 
ENDROOT
BRANCH   1   2
ATOM      2  C   UNL     1       3.907  44.097  12.226  1.00  0.00     0.006 C 
BRANCH   2   3
ATOM      3  C   UNL     1       4.516  44.965  11.116  1.00  0.00     0.053 C 
BRANCH   3   4
ATOM      4  C   UNL     1       3.872  44.706   9.788  1.00  0.00     0.041 C 
ATOM      5  O   UNL     1       3.141  45.583   9.256  1.00  0.00    -0.550 OA
ATOM      6  O   UNL     1       4.103  43.507   9.124  1.00  0.00    -0.550 OA
ENDBRANCH   3   4
ENDBRANCH   2   3
ENDBRANCH   1   2
BRANCH   1   7
ATOM      7  C   UNL     1       1.871  42.549  12.121  1.00  0.00     0.000 C 
BRANCH   7   8
ATOM      8  C   UNL     1       3.008  41.526  11.985  1.00  0.00    -0.000 C 
BRANCH   8   9
ATOM      9  C   UNL     1       2.639  40.202  12.663  1.00  0.00    -0.000 C 
BRANCH   9  10
ATOM     10  C   UNL     1       3.891  39.371  12.968  1.00  0.00    -0.003 C 
ATOM     11  C   UNL     1       5.095  40.267  13.243  1.00  0.00     0.004 C 
ENDBRANCH   9  10
ENDBRANCH   8   9
ENDBRANCH   7   8
ENDBRANCH   1   7
TORSDOF 7
ENDMDL
MODEL 2
REMARK VINA RESULT:    -4.527      2.710      5.589
REMARK INTER + INTRA:          -6.877
REMARK INTER:                  -6.524
REMARK INTRA:                  -0.353
REMARK UNBOUND:                -0.498
REMARK SMILES CCCCCCCCC(=O)[O-]
REMARK SMILES IDX 6 1 7 2 8 3 9 4 10 5 11 6 5 7 4 8 3 9 2 10 1 11
REMARK H PARENT
REMARK Flexibility Score: inf
ROOT
ATOM      1  C   UNL     1       3.959  44.441  11.715  1.00  0.00     0.000 C 
ENDROOT
BRANCH   1   2
ATOM      2  C   UNL     1       2.852  43.545  12.295  1.00  0.00     0.006 C 
BRANCH   2   3
ATOM      3  C   UNL     1       2.715  42.223  11.527  1.00  0.00     0.053 C 
BRANCH   3   4
ATOM      4  C   UNL     1       3.299  41.072  12.287  1.00  0.00     0.041 C 
ATOM      5  O   UNL     1       2.562  40.128  12.673  1.00  0.00    -0.550 OA
ATOM      6  O   UNL     1       4.664  41.029  12.544  1.00  0.00    -0.550 OA
ENDBRANCH   3   4
ENDBRANCH   2   3
ENDBRANCH   1   2
BRANCH   1   7
ATOM      7  C   UNL     1       4.247  44.143  10.235  1.00  0.00     0.000 C 
BRANCH   7   8
ATOM      8  C   UNL     1       4.234  45.407   9.362  1.00  0.00    -0.000 C 
BRANCH   8   9
ATOM      9  C   UNL     1       4.932  46.572  10.071  1.00  0.00    -0.000 C 
BRANCH   9  10
ATOM     10  C   UNL     1       5.518  47.562   9.058  1.00  0.00    -0.003 C 
ATOM     11  C   UNL     1       7.001  47.811   9.323  1.00  0.00     0.004 C 
ENDBRANCH   9  10
ENDBRANCH   8   9
ENDBRANCH   7   8
ENDBRANCH   1   7
TORSDOF 7
ENDMDL
MODEL 3
REMARK VINA RESULT:    -4.524      1.630      2.213
REMARK INTER + INTRA:          -6.873
REMARK INTER:                  -6.418
REMARK INTRA:                  -0.455
REMARK UNBOUND:                -0.498
REMARK SMILES CCCCCCCCC(=O)[O-]
REMARK SMILES IDX 6 1 7 2 8 3 9 4 10 5 11 6 5 7 4 8 3 9 2 10 1 11
REMARK H PARENT
REMARK Flexibility Score: inf
ROOT
ATOM      1  C   UNL     1       4.044  43.782   9.770  1.00  0.00     0.000 C 
ENDROOT
BRANCH   1   2
ATOM      2  C   UNL     1       4.305  44.737  10.947  1.00  0.00     0.006 C 
BRANCH   2   3
ATOM      3  C   UNL     1       3.798  46.158  10.663  1.00  0.00     0.053 C 
BRANCH   3   4
ATOM      4  C   UNL     1       4.570  46.817   9.562  1.00  0.00     0.041 C 
ATOM      5  O   UNL     1       5.821  46.932   9.645  1.00  0.00    -0.550 OA
ATOM      6  O   UNL     1       3.911  47.276   8.428  1.00  0.00    -0.550 OA
ENDBRANCH   3   4
ENDBRANCH   2   3
ENDBRANCH   1   2
BRANCH   1   7
ATOM      7  C   UNL     1       2.961  42.738  10.083  1.00  0.00     0.000 C 
BRANCH   7   8
ATOM      8  C   UNL     1       2.661  42.628  11.585  1.00  0.00    -0.000 C 
BRANCH   8   9
ATOM      9  C   UNL     1       2.998  41.228  12.110  1.00  0.00    -0.000 C 
BRANCH   9  10
ATOM     10  C   UNL     1       4.473  41.133  12.518  1.00  0.00    -0.003 C 
ATOM     11  C   UNL     1       4.768  39.809  13.217  1.00  0.00     0.004 C 
ENDBRANCH   9  10
ENDBRANCH   8   9
ENDBRANCH   7   8
ENDBRANCH   1   7
TORSDOF 7
ENDMDL
MODEL 4
REMARK VINA RESULT:    -4.498      2.800      5.331
REMARK INTER + INTRA:          -6.836
REMARK INTER:                  -6.444
REMARK INTRA:                  -0.392
REMARK UNBOUND:                -0.498
REMARK SMILES CCCCCCCCC(=O)[O-]
REMARK SMILES IDX 6 1 7 2 8 3 9 4 10 5 11 6 5 7 4 8 3 9 2 10 1 11
REMARK H PARENT
REMARK Flexibility Score: inf
ROOT
ATOM      1  C   UNL     1       2.576  43.459  11.615  1.00  0.00     0.000 C 
ENDROOT
BRANCH   1   2
ATOM      2  C   UNL     1       2.817  41.950  11.447  1.00  0.00     0.006 C 
BRANCH   2   3
ATOM      3  C   UNL     1       4.039  41.466  12.241  1.00  0.00     0.053 C 
BRANCH   3   4
ATOM      4  C   UNL     1       3.798  40.133  12.879  1.00  0.00     0.041 C 
ATOM      5  O   UNL     1       2.673  39.575  12.778  1.00  0.00    -0.550 OA
ATOM      6  O   UNL     1       4.825  39.491  13.560  1.00  0.00    -0.550 OA
ENDBRANCH   3   4
ENDBRANCH   2   3
ENDBRANCH   1   2
BRANCH   1   7
ATOM      7  C   UNL     1       3.764  44.179  12.273  1.00  0.00     0.000 C 
BRANCH   7   8
ATOM      8  C   UNL     1       4.494  45.124  11.307  1.00  0.00    -0.000 C 
BRANCH   8   9
ATOM      9  C   UNL     1       3.948  44.982   9.882  1.00  0.00    -0.000 C 
BRANCH   9  10
ATOM     10  C   UNL     1       4.153  46.273   9.081  1.00  0.00    -0.003 C 
ATOM     11  C   UNL     1       5.377  47.039   9.575  1.00  0.00     0.004 C 
ENDBRANCH   9  10
ENDBRANCH   8   9
ENDBRANCH   7   8
ENDBRANCH   1   7
TORSDOF 7
ENDMDL
MODEL 5
REMARK VINA RESULT:    -4.470      1.400      1.966
REMARK INTER + INTRA:          -6.798
REMARK INTER:                  -6.437
REMARK INTRA:                  -0.361
REMARK UNBOUND:                -0.498
REMARK SMILES CCCCCCCCC(=O)[O-]
REMARK SMILES IDX 6 1 7 2 8 3 9 4 10 5 11 6 5 7 4 8 3 9 2 10 1 11
REMARK H PARENT
REMARK Flexibility Score: inf
ROOT
ATOM      1  C   UNL     1       3.836  44.124  12.422  1.00  0.00     0.000 C 
ENDROOT
BRANCH   1   2
ATOM      2  C   UNL     1       4.574  44.900  11.318  1.00  0.00     0.006 C 
BRANCH   2   3
ATOM      3  C   UNL     1       3.691  45.981  10.679  1.00  0.00     0.053 C 
BRANCH   3   4
ATOM      4  C   UNL     1       4.414  46.728   9.601  1.00  0.00     0.041 C 
ATOM      5  O   UNL     1       5.664  46.870   9.657  1.00  0.00    -0.550 OA
ATOM      6  O   UNL     1       3.711  47.241   8.518  1.00  0.00    -0.550 OA
ENDBRANCH   3   4
ENDBRANCH   2   3
ENDBRANCH   1   2
BRANCH   1   7
ATOM      7  C   UNL     1       2.342  43.934  12.114  1.00  0.00     0.000 C 
BRANCH   7   8
ATOM      8  C   UNL     1       1.909  42.461  12.162  1.00  0.00    -0.000 C 
BRANCH   8   9
ATOM      9  C   UNL     1       3.093  41.531  11.872  1.00  0.00    -0.000 C 
BRANCH   9  10
ATOM     10  C   UNL     1       2.972  40.223  12.663  1.00  0.00    -0.003 C 
ATOM     11  C   UNL     1       4.341  39.725  13.119  1.00  0.00     0.004 C 
ENDBRANCH   9  10
ENDBRANCH   8   9
ENDBRANCH   7   8
ENDBRANCH   1   7
TORSDOF 7
ENDMDL
MODEL 6
REMARK VINA RESULT:    -4.365      2.781      4.029
REMARK INTER + INTRA:          -6.649
REMARK INTER:                  -5.911
REMARK INTRA:                  -0.738
REMARK UNBOUND:                -0.498
REMARK SMILES CCCCCCCCC(=O)[O-]
REMARK SMILES IDX 6 1 7 2 8 3 9 4 10 5 11 6 5 7 4 8 3 9 2 10 1 11
REMARK H PARENT
REMARK Flexibility Score: inf
ROOT
ATOM      1  C   UNL     1       4.522  44.939  11.020  1.00  0.00     0.000 C 
ENDROOT
BRANCH   1   2
ATOM      2  C   UNL     1       4.140  46.376  10.626  1.00  0.00     0.006 C 
BRANCH   2   3
ATOM      3  C   UNL     1       4.420  46.664   9.144  1.00  0.00     0.053 C 
BRANCH   3   4
ATOM      4  C   UNL     1       3.371  47.545   8.538  1.00  0.00     0.041 C 
ATOM      5  O   UNL     1       2.297  47.768   9.156  1.00  0.00    -0.550 OA
ATOM      6  O   UNL     1       3.592  48.144   7.304  1.00  0.00    -0.550 OA
ENDBRANCH   3   4
ENDBRANCH   2   3
ENDBRANCH   1   2
BRANCH   1   7
ATOM      7  C   UNL     1       3.610  44.364  12.114  1.00  0.00     0.000 C 
BRANCH   7   8
ATOM      8  C   UNL     1       2.569  43.378  11.562  1.00  0.00    -0.000 C 
BRANCH   8   9
ATOM      9  C   UNL     1       1.164  43.990  11.591  1.00  0.00    -0.000 C 
BRANCH   9  10
ATOM     10  C   UNL     1       0.848  44.708  10.274  1.00  0.00    -0.003 C 
ATOM     11  C   UNL     1       1.513  44.009   9.091  1.00  0.00     0.004 C 
ENDBRANCH   9  10
ENDBRANCH   8   9
ENDBRANCH   7   8
ENDBRANCH   1   7
TORSDOF 7
ENDMDL
MODEL 7
REMARK VINA RESULT:    -4.362      2.461      3.556
REMARK INTER + INTRA:          -6.646
REMARK INTER:                  -5.994
REMARK INTRA:                  -0.652
REMARK UNBOUND:                -0.498
REMARK SMILES CCCCCCCCC(=O)[O-]
REMARK SMILES IDX 6 1 7 2 8 3 9 4 10 5 11 6 5 7 4 8 3 9 2 10 1 11
REMARK H PARENT
REMARK Flexibility Score: inf
ROOT
ATOM      1  C   UNL     1       4.458  44.778  10.750  1.00  0.00     0.000 C 
ENDROOT
BRANCH   1   2
ATOM      2  C   UNL     1       3.829  46.178  10.647  1.00  0.00     0.006 C 
BRANCH   2   3
ATOM      3  C   UNL     1       3.327  46.484   9.229  1.00  0.00     0.053 C 
BRANCH   3   4
ATOM      4  C   UNL     1       4.221  47.454   8.519  1.00  0.00     0.041 C 
ATOM      5  O   UNL     1       5.426  47.576   8.863  1.00  0.00    -0.550 OA
ATOM      6  O   UNL     1       3.730  48.202   7.455  1.00  0.00    -0.550 OA
ENDBRANCH   3   4
ENDBRANCH   2   3
ENDBRANCH   1   2
BRANCH   1   7
ATOM      7  C   UNL     1       4.030  43.850   9.601  1.00  0.00     0.000 C 
BRANCH   7   8
ATOM      8  C   UNL     1       2.847  42.947   9.978  1.00  0.00    -0.000 C 
BRANCH   8   9
ATOM      9  C   UNL     1       2.989  42.427  11.413  1.00  0.00    -0.000 C 
BRANCH   9  10
ATOM     10  C   UNL     1       1.720  42.706  12.228  1.00  0.00    -0.003 C 
ATOM     11  C   UNL     1       0.975  43.924  11.689  1.00  0.00     0.004 C 
ENDBRANCH   9  10
ENDBRANCH   8   9
ENDBRANCH   7   8
ENDBRANCH   1   7
TORSDOF 7
ENDMDL
MODEL 8
REMARK VINA RESULT:    -4.298      2.717      5.567
REMARK INTER + INTRA:          -6.555
REMARK INTER:                  -6.088
REMARK INTRA:                  -0.467
REMARK UNBOUND:                -0.498
REMARK SMILES CCCCCCCCC(=O)[O-]
REMARK SMILES IDX 6 1 7 2 8 3 9 4 10 5 11 6 5 7 4 8 3 9 2 10 1 11
REMARK H PARENT
REMARK Flexibility Score: inf
ROOT
ATOM      1  C   UNL     1       4.122  44.850  11.320  1.00  0.00     0.000 C 
ENDROOT
BRANCH   1   2
ATOM      2  C   UNL     1       4.106  43.716  10.281  1.00  0.00     0.006 C 
BRANCH   2   3
ATOM      3  C   UNL     1       2.801  42.909  10.324  1.00  0.00     0.053 C 
BRANCH   3   4
ATOM      4  C   UNL     1       2.593  42.254  11.655  1.00  0.00     0.041 C 
ATOM      5  O   UNL     1       1.607  42.573  12.371  1.00  0.00    -0.550 OA
ATOM      6  O   UNL     1       3.470  41.270  12.091  1.00  0.00    -0.550 OA
ENDBRANCH   3   4
ENDBRANCH   2   3
ENDBRANCH   1   2
BRANCH   1   7
ATOM      7  C   UNL     1       3.763  46.215  10.712  1.00  0.00     0.000 C 
BRANCH   7   8
ATOM      8  C   UNL     1       3.893  46.236   9.182  1.00  0.00    -0.000 C 
BRANCH   8   9
ATOM      9  C   UNL     1       4.861  47.334   8.728  1.00  0.00    -0.000 C 
BRANCH   9  10
ATOM     10  C   UNL     1       5.850  47.692   9.844  1.00  0.00    -0.003 C 
ATOM     11  C   UNL     1       7.290  47.639   9.342  1.00  0.00     0.004 C 
ENDBRANCH   9  10
ENDBRANCH   8   9
ENDBRANCH   7   8
ENDBRANCH   1   7
TORSDOF 7
ENDMDL
MODEL 9
REMARK VINA RESULT:    -4.185      2.545      3.328
REMARK INTER + INTRA:          -6.396
REMARK INTER:                  -5.691
REMARK INTRA:                  -0.705
REMARK UNBOUND:                -0.498
REMARK SMILES CCCCCCCCC(=O)[O-]
REMARK SMILES IDX 6 1 7 2 8 3 9 4 10 5 11 6 5 7 4 8 3 9 2 10 1 11
REMARK H PARENT
REMARK Flexibility Score: inf
ROOT
ATOM      1  C   UNL     1       1.755  45.214   9.672  1.00  0.00     0.000 C 
ENDROOT
BRANCH   1   2
ATOM      2  C   UNL     1       2.510  46.527   9.943  1.00  0.00     0.006 C 
BRANCH   2   3
ATOM      3  C   UNL     1       4.022  46.381   9.724  1.00  0.00     0.053 C 
BRANCH   3   4
ATOM      4  C   UNL     1       4.544  47.384   8.741  1.00  0.00     0.041 C 
ATOM      5  O   UNL     1       5.754  47.730   8.770  1.00  0.00    -0.550 OA
ATOM      6  O   UNL     1       3.699  47.913   7.772  1.00  0.00    -0.550 OA
ENDBRANCH   3   4
ENDBRANCH   2   3
ENDBRANCH   1   2
BRANCH   1   7
ATOM      7  C   UNL     1       0.801  44.834  10.814  1.00  0.00     0.000 C 
BRANCH   7   8
ATOM      8  C   UNL     1       1.387  43.762  11.745  1.00  0.00    -0.000 C 
BRANCH   8   9
ATOM      9  C   UNL     1       2.412  42.894  11.006  1.00  0.00    -0.000 C 
BRANCH   9  10
ATOM     10  C   UNL     1       3.714  42.776  11.807  1.00  0.00    -0.003 C 
ATOM     11  C   UNL     1       4.035  44.080  12.533  1.00  0.00     0.004 C 
ENDBRANCH   9  10
ENDBRANCH   8   9
ENDBRANCH   7   8
ENDBRANCH   1   7
TORSDOF 7
ENDMDL
