MODEL 1
REMARK VINA RESULT:    -5.861      0.000      0.000
REMARK INTER + INTRA:          -7.394
REMARK INTER:                  -7.060
REMARK INTRA:                  -0.334
REMARK UNBOUND:                -0.334
REMARK SMILES O=c1c(O)c(-c2ccc(O)c(O)c2)oc2cc(O)cc(O)c12
REMARK SMILES IDX 5 1 3 2 2 3 1 4 22 5 20 6 19 7 17 8 16 9 15 10 14 11 6 12
REMARK SMILES IDX 7 13 8 14 9 15 13 16 11 17 10 18 12 20 4 22 21 24 18 26
REMARK H PARENT 10 19 12 21 4 23 21 25 18 27
REMARK Flexibility Score: inf
ROOT
ATOM      1  C   UNL     1       9.364  19.730  23.918  1.00  0.00     0.180 A 
ATOM      2  C   UNL     1      10.328  20.313  23.077  1.00  0.00     0.208 A 
ATOM      3  C   UNL     1      11.629  20.512  23.567  1.00  0.00     0.238 A 
ATOM      4  O   UNL     1      12.472  21.085  22.829  1.00  0.00    -0.285 OA
ATOM      5  C   UNL     1      11.954  20.109  24.885  1.00  0.00     0.111 A 
ATOM      6  C   UNL     1      13.250  20.225  25.471  1.00  0.00     0.134 A 
ATOM      7  C   UNL     1      13.427  19.914  26.825  1.00  0.00     0.093 A 
ATOM      8  C   UNL     1      12.370  19.432  27.596  1.00  0.00     0.123 A 
ATOM      9  C   UNL     1      11.112  19.258  27.018  1.00  0.00     0.094 A 
ATOM     10  C   UNL     1      10.897  19.593  25.678  1.00  0.00     0.146 A 
ATOM     11  O   UNL     1       9.682  19.422  25.170  1.00  0.00    -0.452 OA
ENDROOT
BRANCH   1  12
ATOM     12  C   UNL     1       7.979  19.465  23.465  1.00  0.00     0.025 A 
ATOM     13  C   UNL     1       7.635  18.259  22.829  1.00  0.00     0.016 A 
ATOM     14  C   UNL     1       6.316  18.023  22.431  1.00  0.00     0.051 A 
ATOM     15  C   UNL     1       5.321  18.978  22.674  1.00  0.00     0.157 A 
ATOM     16  C   UNL     1       6.974  20.412  23.725  1.00  0.00     0.062 A 
ATOM     17  C   UNL     1       5.653  20.177  23.326  1.00  0.00     0.158 A 
BRANCH  15  18
ATOM     18  O   UNL     1       4.007  18.740  22.274  1.00  0.00    -0.504 OA
ATOM     19  H   UNL     1       3.436  18.033  22.723  1.00  0.00     0.293 HD
ENDBRANCH  15  18
BRANCH  17  20
ATOM     20  O   UNL     1       4.685  21.146  23.589  1.00  0.00    -0.504 OA
ATOM     21  H   UNL     1       4.684  22.047  23.123  1.00  0.00     0.293 HD
ENDBRANCH  17  20
ENDBRANCH   1  12
BRANCH   2  22
ATOM     22  O   UNL     1       9.979  20.724  21.788  1.00  0.00    -0.502 OA
ATOM     23  H   UNL     1      10.243  20.201  20.961  1.00  0.00     0.293 HD
ENDBRANCH   2  22
BRANCH   6  24
ATOM     24  O   UNL     1      14.394  20.611  24.765  1.00  0.00    -0.507 OA
ATOM     25  H   UNL     1      14.389  21.155  23.915  1.00  0.00     0.293 HD
ENDBRANCH   6  24
BRANCH   8  26
ATOM     26  O   UNL     1      12.585  19.118  28.936  1.00  0.00    -0.508 OA
ATOM     27  H   UNL     1      13.058  19.759  29.562  1.00  0.00     0.293 HD
ENDBRANCH   8  26
TORSDOF 6
ENDMDL
MODEL 2
REMARK VINA RESULT:    -5.677      2.142      7.559
REMARK INTER + INTRA:          -7.173
REMARK INTER:                  -6.841
REMARK INTRA:                  -0.332
REMARK UNBOUND:                -0.334
REMARK SMILES O=c1c(O)c(-c2ccc(O)c(O)c2)oc2cc(O)cc(O)c12
REMARK SMILES IDX 5 1 3 2 2 3 1 4 22 5 20 6 19 7 17 8 16 9 15 10 14 11 6 12
REMARK SMILES IDX 7 13 8 14 9 15 13 16 11 17 10 18 12 20 4 22 21 24 18 26
REMARK H PARENT 10 19 12 21 4 23 21 25 18 27
REMARK Flexibility Score: inf
ROOT
ATOM      1  C   UNL     1       6.965  20.130  24.696  1.00  0.00     0.180 A 
ATOM      2  C   UNL     1       6.251  21.317  24.932  1.00  0.00     0.208 A 
ATOM      3  C   UNL     1       5.144  21.619  24.122  1.00  0.00     0.238 A 
ATOM      4  O   UNL     1       4.542  22.710  24.303  1.00  0.00    -0.285 OA
ATOM      5  C   UNL     1       4.756  20.722  23.098  1.00  0.00     0.111 A 
ATOM      6  C   UNL     1       3.627  20.907  22.244  1.00  0.00     0.134 A 
ATOM      7  C   UNL     1       3.414  20.021  21.181  1.00  0.00     0.093 A 
ATOM      8  C   UNL     1       4.249  18.923  20.979  1.00  0.00     0.123 A 
ATOM      9  C   UNL     1       5.320  18.699  21.844  1.00  0.00     0.094 A 
ATOM     10  C   UNL     1       5.580  19.586  22.893  1.00  0.00     0.146 A 
ATOM     11  O   UNL     1       6.616  19.342  23.687  1.00  0.00    -0.452 OA
ENDROOT
BRANCH   1  12
ATOM     12  C   UNL     1       8.127  19.732  25.524  1.00  0.00     0.025 A 
ATOM     13  C   UNL     1       7.961  19.005  26.716  1.00  0.00     0.016 A 
ATOM     14  C   UNL     1       9.074  18.619  27.468  1.00  0.00     0.051 A 
ATOM     15  C   UNL     1      10.367  18.942  27.036  1.00  0.00     0.157 A 
ATOM     16  C   UNL     1       9.426  20.035  25.084  1.00  0.00     0.062 A 
ATOM     17  C   UNL     1      10.542  19.651  25.836  1.00  0.00     0.158 A 
BRANCH  15  18
ATOM     18  O   UNL     1      11.475  18.558  27.789  1.00  0.00    -0.504 OA
ATOM     19  H   UNL     1      11.855  19.154  28.515  1.00  0.00     0.293 HD
ENDBRANCH  15  18
BRANCH  17  20
ATOM     20  O   UNL     1      11.816  19.982  25.374  1.00  0.00    -0.504 OA
ATOM     21  H   UNL     1      12.520  19.277  25.184  1.00  0.00     0.293 HD
ENDBRANCH  17  20
ENDBRANCH   1  12
BRANCH   2  22
ATOM     22  O   UNL     1       6.665  22.200  25.934  1.00  0.00    -0.502 OA
ATOM     23  H   UNL     1       7.641  22.405  26.109  1.00  0.00     0.293 HD
ENDBRANCH   2  22
BRANCH   6  24
ATOM     24  O   UNL     1       2.678  21.920  22.413  1.00  0.00    -0.507 OA
ATOM     25  H   UNL     1       2.500  22.401  23.282  1.00  0.00     0.293 HD
ENDBRANCH   6  24
BRANCH   8  26
ATOM     26  O   UNL     1       3.997  18.053  19.920  1.00  0.00    -0.508 OA
ATOM     27  H   UNL     1       3.052  17.809  19.648  1.00  0.00     0.293 HD
ENDBRANCH   8  26
TORSDOF 6
ENDMDL
MODEL 3
REMARK VINA RESULT:    -5.482      0.644      1.428
REMARK INTER + INTRA:          -6.938
REMARK INTER:                  -6.624
REMARK INTRA:                  -0.314
REMARK UNBOUND:                -0.334
REMARK SMILES O=c1c(O)c(-c2ccc(O)c(O)c2)oc2cc(O)cc(O)c12
REMARK SMILES IDX 5 1 3 2 2 3 1 4 22 5 20 6 19 7 17 8 16 9 15 10 14 11 6 12
REMARK SMILES IDX 7 13 8 14 9 15 13 16 11 17 10 18 12 20 4 22 21 24 18 26
REMARK H PARENT 10 19 12 21 4 23 21 25 18 27
REMARK Flexibility Score: inf
ROOT
ATOM      1  C   UNL     1       9.135  19.967  24.069  1.00  0.00     0.180 A 
ATOM      2  C   UNL     1      10.134  20.361  23.162  1.00  0.00     0.208 A 
ATOM      3  C   UNL     1      11.468  20.415  23.600  1.00  0.00     0.238 A 
ATOM      4  O   UNL     1      12.350  20.821  22.799  1.00  0.00    -0.285 OA
ATOM      5  C   UNL     1      11.786  20.059  24.932  1.00  0.00     0.111 A 
ATOM      6  C   UNL     1      13.108  20.037  25.471  1.00  0.00     0.134 A 
ATOM      7  C   UNL     1      13.293  19.794  26.837  1.00  0.00     0.093 A 
ATOM      8  C   UNL     1      12.212  19.509  27.671  1.00  0.00     0.123 A 
ATOM      9  C   UNL     1      10.921  19.467  27.143  1.00  0.00     0.094 A 
ATOM     10  C   UNL     1      10.701  19.741  25.790  1.00  0.00     0.146 A 
ATOM     11  O   UNL     1       9.457  19.702  25.329  1.00  0.00    -0.452 OA
ENDROOT
BRANCH   1  12
ATOM     12  C   UNL     1       7.711  19.861  23.675  1.00  0.00     0.025 A 
ATOM     13  C   UNL     1       6.815  20.927  23.873  1.00  0.00     0.016 A 
ATOM     14  C   UNL     1       5.482  20.812  23.471  1.00  0.00     0.051 A 
ATOM     15  C   UNL     1       5.026  19.640  22.856  1.00  0.00     0.157 A 
ATOM     16  C   UNL     1       7.255  18.695  23.039  1.00  0.00     0.062 A 
ATOM     17  C   UNL     1       5.919  18.577  22.637  1.00  0.00     0.158 A 
BRANCH  15  18
ATOM     18  O   UNL     1       3.695  19.527  22.459  1.00  0.00    -0.504 OA
ATOM     19  H   UNL     1       2.935  19.827  23.059  1.00  0.00     0.293 HD
ENDBRANCH  15  18
BRANCH  17  20
ATOM     20  O   UNL     1       5.499  17.399  22.021  1.00  0.00    -0.504 OA
ATOM     21  H   UNL     1       5.949  17.038  21.187  1.00  0.00     0.293 HD
ENDBRANCH  17  20
ENDBRANCH   1  12
BRANCH   2  22
ATOM     22  O   UNL     1       9.794  20.730  21.858  1.00  0.00    -0.502 OA
ATOM     23  H   UNL     1       8.850  20.982  21.593  1.00  0.00     0.293 HD
ENDBRANCH   2  22
BRANCH   6  24
ATOM     24  O   UNL     1      14.265  20.220  24.708  1.00  0.00    -0.507 OA
ATOM     25  H   UNL     1      14.469  19.733  23.848  1.00  0.00     0.293 HD
ENDBRANCH   6  24
BRANCH   8  26
ATOM     26  O   UNL     1      12.435  19.256  29.023  1.00  0.00    -0.508 OA
ATOM     27  H   UNL     1      11.912  19.737  29.745  1.00  0.00     0.293 HD
ENDBRANCH   8  26
TORSDOF 6
ENDMDL
MODEL 4
REMARK VINA RESULT:    -5.440      1.592      3.379
REMARK INTER + INTRA:          -6.888
REMARK INTER:                  -6.672
REMARK INTRA:                  -0.216
REMARK UNBOUND:                -0.334
REMARK SMILES O=c1c(O)c(-c2ccc(O)c(O)c2)oc2cc(O)cc(O)c12
REMARK SMILES IDX 5 1 3 2 2 3 1 4 22 5 20 6 19 7 17 8 16 9 15 10 14 11 6 12
REMARK SMILES IDX 7 13 8 14 9 15 13 16 11 17 10 18 12 20 4 22 21 24 18 26
REMARK H PARENT 10 19 12 21 4 23 21 25 18 27
REMARK Flexibility Score: inf
ROOT
ATOM      1  C   UNL     1       8.206  19.798  24.011  1.00  0.00     0.180 A 
ATOM      2  C   UNL     1       8.495  19.542  25.362  1.00  0.00     0.208 A 
ATOM      3  C   UNL     1       9.835  19.541  25.784  1.00  0.00     0.238 A 
ATOM      4  O   UNL     1      10.090  19.257  26.984  1.00  0.00    -0.285 OA
ATOM      5  C   UNL     1      10.866  19.813  24.854  1.00  0.00     0.111 A 
ATOM      6  C   UNL     1      12.254  19.879  25.179  1.00  0.00     0.134 A 
ATOM      7  C   UNL     1      13.197  20.026  24.155  1.00  0.00     0.093 A 
ATOM      8  C   UNL     1      12.800  20.175  22.826  1.00  0.00     0.123 A 
ATOM      9  C   UNL     1      11.443  20.173  22.504  1.00  0.00     0.094 A 
ATOM     10  C   UNL     1      10.479  19.991  23.500  1.00  0.00     0.146 A 
ATOM     11  O   UNL     1       9.199  19.985  23.150  1.00  0.00    -0.452 OA
ENDROOT
BRANCH   1  12
ATOM     12  C   UNL     1       6.818  19.840  23.496  1.00  0.00     0.025 A 
ATOM     13  C   UNL     1       5.923  20.852  23.886  1.00  0.00     0.016 A 
ATOM     14  C   UNL     1       4.625  20.885  23.369  1.00  0.00     0.051 A 
ATOM     15  C   UNL     1       4.206  19.918  22.446  1.00  0.00     0.157 A 
ATOM     16  C   UNL     1       6.400  18.885  22.555  1.00  0.00     0.062 A 
ATOM     17  C   UNL     1       5.101  18.915  22.035  1.00  0.00     0.158 A 
BRANCH  15  18
ATOM     18  O   UNL     1       2.911  19.952  21.933  1.00  0.00    -0.504 OA
ATOM     19  H   UNL     1       2.468  19.122  21.555  1.00  0.00     0.293 HD
ENDBRANCH  15  18
BRANCH  17  20
ATOM     20  O   UNL     1       4.718  17.942  21.113  1.00  0.00    -0.504 OA
ATOM     21  H   UNL     1       4.514  18.167  20.146  1.00  0.00     0.293 HD
ENDBRANCH  17  20
ENDBRANCH   1  12
BRANCH   2  22
ATOM     22  O   UNL     1       7.463  19.254  26.260  1.00  0.00    -0.502 OA
ATOM     23  H   UNL     1       6.501  19.517  26.084  1.00  0.00     0.293 HD
ENDBRANCH   2  22
BRANCH   6  24
ATOM     24  O   UNL     1      12.753  19.832  26.484  1.00  0.00    -0.507 OA
ATOM     25  H   UNL     1      13.220  19.037  26.893  1.00  0.00     0.293 HD
ENDBRANCH   6  24
BRANCH   8  26
ATOM     26  O   UNL     1      13.766  20.336  21.835  1.00  0.00    -0.508 OA
ATOM     27  H   UNL     1      13.820  19.708  21.041  1.00  0.00     0.293 HD
ENDBRANCH   8  26
TORSDOF 6
ENDMDL
MODEL 5
REMARK VINA RESULT:    -5.359      1.442      3.294
REMARK INTER + INTRA:          -6.790
REMARK INTER:                  -6.500
REMARK INTRA:                  -0.290
REMARK UNBOUND:                -0.334
REMARK SMILES O=c1c(O)c(-c2ccc(O)c(O)c2)oc2cc(O)cc(O)c12
REMARK SMILES IDX 5 1 3 2 2 3 1 4 22 5 20 6 19 7 17 8 16 9 15 10 14 11 6 12
REMARK SMILES IDX 7 13 8 14 9 15 13 16 11 17 10 18 12 20 4 22 21 24 18 26
REMARK H PARENT 10 19 12 21 4 23 21 25 18 27
REMARK Flexibility Score: inf
ROOT
ATOM      1  C   UNL     1       9.649  19.901  25.200  1.00  0.00     0.180 A 
ATOM      2  C   UNL     1       9.881  19.426  26.502  1.00  0.00     0.208 A 
ATOM      3  C   UNL     1      11.194  19.419  27.001  1.00  0.00     0.238 A 
ATOM      4  O   UNL     1      11.403  18.940  28.147  1.00  0.00    -0.285 OA
ATOM      5  C   UNL     1      12.254  19.903  26.198  1.00  0.00     0.111 A 
ATOM      6  C   UNL     1      13.617  19.981  26.617  1.00  0.00     0.134 A 
ATOM      7  C   UNL     1      14.602  20.356  25.695  1.00  0.00     0.093 A 
ATOM      8  C   UNL     1      14.268  20.717  24.390  1.00  0.00     0.123 A 
ATOM      9  C   UNL     1      12.932  20.702  23.988  1.00  0.00     0.094 A 
ATOM     10  C   UNL     1      11.930  20.298  24.875  1.00  0.00     0.146 A 
ATOM     11  O   UNL     1      10.672  20.288  24.449  1.00  0.00    -0.452 OA
ENDROOT
BRANCH   1  12
ATOM     12  C   UNL     1       8.290  19.963  24.615  1.00  0.00     0.025 A 
ATOM     13  C   UNL     1       7.382  20.973  24.978  1.00  0.00     0.016 A 
ATOM     14  C   UNL     1       6.113  21.025  24.393  1.00  0.00     0.051 A 
ATOM     15  C   UNL     1       5.737  20.079  23.431  1.00  0.00     0.157 A 
ATOM     16  C   UNL     1       7.917  19.029  23.634  1.00  0.00     0.062 A 
ATOM     17  C   UNL     1       6.646  19.079  23.048  1.00  0.00     0.158 A 
BRANCH  15  18
ATOM     18  O   UNL     1       4.471  20.132  22.852  1.00  0.00    -0.504 OA
ATOM     19  H   UNL     1       4.232  19.565  22.047  1.00  0.00     0.293 HD
ENDBRANCH  15  18
BRANCH  17  20
ATOM     20  O   UNL     1       6.307  18.126  22.088  1.00  0.00    -0.504 OA
ATOM     21  H   UNL     1       5.351  17.986  21.782  1.00  0.00     0.293 HD
ENDBRANCH  17  20
ENDBRANCH   1  12
BRANCH   2  22
ATOM     22  O   UNL     1       8.823  18.931  27.269  1.00  0.00    -0.502 OA
ATOM     23  H   UNL     1       8.024  18.464  26.857  1.00  0.00     0.293 HD
ENDBRANCH   2  22
BRANCH   6  24
ATOM     24  O   UNL     1      14.048  19.730  27.923  1.00  0.00    -0.507 OA
ATOM     25  H   UNL     1      14.907  19.258  28.164  1.00  0.00     0.293 HD
ENDBRANCH   6  24
BRANCH   8  26
ATOM     26  O   UNL     1      15.272  21.100  23.504  1.00  0.00    -0.508 OA
ATOM     27  H   UNL     1      15.087  21.729  22.732  1.00  0.00     0.293 HD
ENDBRANCH   8  26
TORSDOF 6
ENDMDL
MODEL 6
REMARK VINA RESULT:    -5.343      2.205      2.951
REMARK INTER + INTRA:          -6.771
REMARK INTER:                  -6.459
REMARK INTRA:                  -0.312
REMARK UNBOUND:                -0.334
REMARK SMILES O=c1c(O)c(-c2ccc(O)c(O)c2)oc2cc(O)cc(O)c12
REMARK SMILES IDX 5 1 3 2 2 3 1 4 22 5 20 6 19 7 17 8 16 9 15 10 14 11 6 12
REMARK SMILES IDX 7 13 8 14 9 15 13 16 11 17 10 18 12 20 4 22 21 24 18 26
REMARK H PARENT 10 19 12 21 4 23 21 25 18 27
REMARK Flexibility Score: inf
ROOT
ATOM      1  C   UNL     1       7.015  19.940  23.308  1.00  0.00     0.180 A 
ATOM      2  C   UNL     1       8.169  19.380  22.735  1.00  0.00     0.208 A 
ATOM      3  C   UNL     1       9.351  19.334  23.490  1.00  0.00     0.238 A 
ATOM      4  O   UNL     1      10.395  18.881  22.952  1.00  0.00    -0.285 OA
ATOM      5  C   UNL     1       9.360  19.833  24.815  1.00  0.00     0.111 A 
ATOM      6  C   UNL     1      10.491  19.800  25.685  1.00  0.00     0.134 A 
ATOM      7  C   UNL     1      10.424  20.440  26.929  1.00  0.00     0.093 A 
ATOM      8  C   UNL     1       9.249  21.054  27.360  1.00  0.00     0.123 A 
ATOM      9  C   UNL     1       8.119  21.040  26.542  1.00  0.00     0.094 A 
ATOM     10  C   UNL     1       8.166  20.441  25.280  1.00  0.00     0.146 A 
ATOM     11  O   UNL     1       7.072  20.459  24.529  1.00  0.00    -0.452 OA
ENDROOT
BRANCH   1  12
ATOM     12  C   UNL     1       5.724  20.001  22.584  1.00  0.00     0.025 A 
ATOM     13  C   UNL     1       4.880  18.881  22.496  1.00  0.00     0.016 A 
ATOM     14  C   UNL     1       3.656  18.969  21.828  1.00  0.00     0.051 A 
ATOM     15  C   UNL     1       3.252  20.178  21.248  1.00  0.00     0.157 A 
ATOM     16  C   UNL     1       5.305  21.218  22.019  1.00  0.00     0.062 A 
ATOM     17  C   UNL     1       4.080  21.308  21.347  1.00  0.00     0.158 A 
BRANCH  15  18
ATOM     18  O   UNL     1       2.032  20.263  20.580  1.00  0.00    -0.504 OA
ATOM     19  H   UNL     1       1.942  20.757  19.699  1.00  0.00     0.293 HD
ENDBRANCH  15  18
BRANCH  17  20
ATOM     20  O   UNL     1       3.705  22.529  20.787  1.00  0.00    -0.504 OA
ATOM     21  H   UNL     1       3.922  22.770  19.827  1.00  0.00     0.293 HD
ENDBRANCH  17  20
ENDBRANCH   1  12
BRANCH   2  22
ATOM     22  O   UNL     1       8.143  18.913  21.417  1.00  0.00    -0.502 OA
ATOM     23  H   UNL     1       8.046  19.533  20.622  1.00  0.00     0.293 HD
ENDBRANCH   2  22
BRANCH   6  24
ATOM     24  O   UNL     1      11.685  19.134  25.390  1.00  0.00    -0.507 OA
ATOM     25  H   UNL     1      11.762  18.144  25.213  1.00  0.00     0.293 HD
ENDBRANCH   6  24
BRANCH   8  26
ATOM     26  O   UNL     1       9.213  21.667  28.611  1.00  0.00    -0.508 OA
ATOM     27  H   UNL     1       8.866  21.182  29.429  1.00  0.00     0.293 HD
ENDBRANCH   8  26
TORSDOF 6
ENDMDL
MODEL 7
REMARK VINA RESULT:    -5.336      1.563      6.808
REMARK INTER + INTRA:          -6.762
REMARK INTER:                  -6.521
REMARK INTRA:                  -0.241
REMARK UNBOUND:                -0.334
REMARK SMILES O=c1c(O)c(-c2ccc(O)c(O)c2)oc2cc(O)cc(O)c12
REMARK SMILES IDX 5 1 3 2 2 3 1 4 22 5 20 6 19 7 17 8 16 9 15 10 14 11 6 12
REMARK SMILES IDX 7 13 8 14 9 15 13 16 11 17 10 18 12 20 4 22 21 24 18 26
REMARK H PARENT 10 19 12 21 4 23 21 25 18 27
REMARK Flexibility Score: inf
ROOT
ATOM      1  C   UNL     1      10.063  19.977  24.660  1.00  0.00     0.180 A 
ATOM      2  C   UNL     1       9.906  19.226  23.483  1.00  0.00     0.208 A 
ATOM      3  C   UNL     1       8.668  19.248  22.820  1.00  0.00     0.238 A 
ATOM      4  O   UNL     1       8.516  18.530  21.798  1.00  0.00    -0.285 OA
ATOM      5  C   UNL     1       7.609  20.034  23.334  1.00  0.00     0.111 A 
ATOM      6  C   UNL     1       6.325  20.164  22.723  1.00  0.00     0.134 A 
ATOM      7  C   UNL     1       5.312  20.865  23.387  1.00  0.00     0.093 A 
ATOM      8  C   UNL     1       5.553  21.495  24.607  1.00  0.00     0.123 A 
ATOM      9  C   UNL     1       6.821  21.426  25.185  1.00  0.00     0.094 A 
ATOM     10  C   UNL     1       7.843  20.703  24.563  1.00  0.00     0.146 A 
ATOM     11  O   UNL     1       9.032  20.653  25.152  1.00  0.00    -0.452 OA
ENDROOT
BRANCH   1  12
ATOM     12  C   UNL     1      11.345  20.024  25.399  1.00  0.00     0.025 A 
ATOM     13  C   UNL     1      12.469  20.687  24.876  1.00  0.00     0.016 A 
ATOM     14  C   UNL     1      13.662  20.738  25.603  1.00  0.00     0.051 A 
ATOM     15  C   UNL     1      13.746  20.140  26.867  1.00  0.00     0.157 A 
ATOM     16  C   UNL     1      11.429  19.444  26.676  1.00  0.00     0.062 A 
ATOM     17  C   UNL     1      12.622  19.493  27.406  1.00  0.00     0.158 A 
BRANCH  15  18
ATOM     18  O   UNL     1      14.937  20.191  27.589  1.00  0.00    -0.504 OA
ATOM     19  H   UNL     1      15.669  19.504  27.453  1.00  0.00     0.293 HD
ENDBRANCH  15  18
BRANCH  17  20
ATOM     20  O   UNL     1      12.670  18.894  28.665  1.00  0.00    -0.504 OA
ATOM     21  H   UNL     1      13.398  19.109  29.336  1.00  0.00     0.293 HD
ENDBRANCH  17  20
ENDBRANCH   1  12
BRANCH   2  22
ATOM     22  O   UNL     1      10.958  18.438  23.005  1.00  0.00    -0.502 OA
ATOM     23  H   UNL     1      11.743  18.829  22.499  1.00  0.00     0.293 HD
ENDBRANCH   2  22
BRANCH   6  24
ATOM     24  O   UNL     1       6.006  19.650  21.462  1.00  0.00    -0.507 OA
ATOM     25  H   UNL     1       5.598  18.742  21.299  1.00  0.00     0.293 HD
ENDBRANCH   6  24
BRANCH   8  26
ATOM     26  O   UNL     1       4.525  22.198  25.232  1.00  0.00    -0.508 OA
ATOM     27  H   UNL     1       4.351  23.176  25.029  1.00  0.00     0.293 HD
ENDBRANCH   8  26
TORSDOF 6
ENDMDL
MODEL 8
REMARK VINA RESULT:    -5.267      2.288      7.625
REMARK INTER + INTRA:          -6.679
REMARK INTER:                  -6.489
REMARK INTRA:                  -0.190
REMARK UNBOUND:                -0.334
REMARK SMILES O=c1c(O)c(-c2ccc(O)c(O)c2)oc2cc(O)cc(O)c12
REMARK SMILES IDX 5 1 3 2 2 3 1 4 22 5 20 6 19 7 17 8 16 9 15 10 14 11 6 12
REMARK SMILES IDX 7 13 8 14 9 15 13 16 11 17 10 18 12 20 4 22 21 24 18 26
REMARK H PARENT 10 19 12 21 4 23 21 25 18 27
REMARK Flexibility Score: inf
ROOT
ATOM      1  C   UNL     1       6.601  19.970  23.650  1.00  0.00     0.180 A 
ATOM      2  C   UNL     1       6.202  19.215  22.533  1.00  0.00     0.208 A 
ATOM      3  C   UNL     1       4.963  19.488  21.933  1.00  0.00     0.238 A 
ATOM      4  O   UNL     1       4.587  18.772  20.968  1.00  0.00    -0.285 OA
ATOM      5  C   UNL     1       4.145  20.524  22.447  1.00  0.00     0.111 A 
ATOM      6  C   UNL     1       2.889  20.915  21.893  1.00  0.00     0.134 A 
ATOM      7  C   UNL     1       2.106  21.864  22.559  1.00  0.00     0.093 A 
ATOM      8  C   UNL     1       2.560  22.484  23.723  1.00  0.00     0.123 A 
ATOM      9  C   UNL     1       3.813  22.154  24.240  1.00  0.00     0.094 A 
ATOM     10  C   UNL     1       4.603  21.183  23.617  1.00  0.00     0.146 A 
ATOM     11  O   UNL     1       5.784  20.890  24.148  1.00  0.00    -0.452 OA
ENDROOT
BRANCH   1  12
ATOM     12  C   UNL     1       7.904  19.757  24.321  1.00  0.00     0.025 A 
ATOM     13  C   UNL     1       9.118  20.002  23.656  1.00  0.00     0.016 A 
ATOM     14  C   UNL     1      10.335  19.818  24.317  1.00  0.00     0.051 A 
ATOM     15  C   UNL     1      10.359  19.398  25.654  1.00  0.00     0.157 A 
ATOM     16  C   UNL     1       7.931  19.357  25.667  1.00  0.00     0.062 A 
ATOM     17  C   UNL     1       9.150  19.170  26.332  1.00  0.00     0.158 A 
BRANCH  15  18
ATOM     18  O   UNL     1      11.574  19.213  26.310  1.00  0.00    -0.504 OA
ATOM     19  H   UNL     1      12.270  18.564  25.962  1.00  0.00     0.293 HD
ENDBRANCH  15  18
BRANCH  17  20
ATOM     20  O   UNL     1       9.136  18.759  27.664  1.00  0.00    -0.504 OA
ATOM     21  H   UNL     1       9.550  17.882  27.961  1.00  0.00     0.293 HD
ENDBRANCH  17  20
ENDBRANCH   1  12
BRANCH   2  22
ATOM     22  O   UNL     1       7.015  18.182  22.057  1.00  0.00    -0.502 OA
ATOM     23  H   UNL     1       7.807  17.828  22.580  1.00  0.00     0.293 HD
ENDBRANCH   2  22
BRANCH   6  24
ATOM     24  O   UNL     1       2.382  20.424  20.686  1.00  0.00    -0.507 OA
ATOM     25  H   UNL     1       2.777  20.614  19.777  1.00  0.00     0.293 HD
ENDBRANCH   6  24
BRANCH   8  26
ATOM     26  O   UNL     1       1.761  23.437  24.351  1.00  0.00    -0.508 OA
ATOM     27  H   UNL     1       1.592  23.412  25.350  1.00  0.00     0.293 HD
ENDBRANCH   8  26
TORSDOF 6
ENDMDL
MODEL 9
REMARK VINA RESULT:    -5.183      1.572      7.169
REMARK INTER + INTRA:          -6.578
REMARK INTER:                  -6.260
REMARK INTRA:                  -0.318
REMARK UNBOUND:                -0.334
REMARK SMILES O=c1c(O)c(-c2ccc(O)c(O)c2)oc2cc(O)cc(O)c12
REMARK SMILES IDX 5 1 3 2 2 3 1 4 22 5 20 6 19 7 17 8 16 9 15 10 14 11 6 12
REMARK SMILES IDX 7 13 8 14 9 15 13 16 11 17 10 18 12 20 4 22 21 24 18 26
REMARK H PARENT 10 19 12 21 4 23 21 25 18 27
REMARK Flexibility Score: inf
ROOT
ATOM      1  C   UNL     1       8.712  20.426  25.401  1.00  0.00     0.180 A 
ATOM      2  C   UNL     1       7.977  21.590  25.684  1.00  0.00     0.208 A 
ATOM      3  C   UNL     1       6.726  21.771  25.071  1.00  0.00     0.238 A 
ATOM      4  O   UNL     1       6.097  22.840  25.286  1.00  0.00    -0.285 OA
ATOM      5  C   UNL     1       6.219  20.779  24.198  1.00  0.00     0.111 A 
ATOM      6  C   UNL     1       4.946  20.839  23.555  1.00  0.00     0.134 A 
ATOM      7  C   UNL     1       4.603  19.864  22.611  1.00  0.00     0.093 A 
ATOM      8  C   UNL     1       5.457  18.797  22.334  1.00  0.00     0.123 A 
ATOM      9  C   UNL     1       6.678  18.696  23.001  1.00  0.00     0.094 A 
ATOM     10  C   UNL     1       7.065  19.673  23.922  1.00  0.00     0.146 A 
ATOM     11  O   UNL     1       8.239  19.545  24.528  1.00  0.00    -0.452 OA
ENDROOT
BRANCH   1  12
ATOM     12  C   UNL     1      10.026  20.153  26.026  1.00  0.00     0.025 A 
ATOM     13  C   UNL     1      10.137  19.351  27.177  1.00  0.00     0.016 A 
ATOM     14  C   UNL     1      11.391  19.088  27.735  1.00  0.00     0.051 A 
ATOM     15  C   UNL     1      12.551  19.608  27.149  1.00  0.00     0.157 A 
ATOM     16  C   UNL     1      11.194  20.655  25.429  1.00  0.00     0.062 A 
ATOM     17  C   UNL     1      12.451  20.393  25.988  1.00  0.00     0.158 A 
BRANCH  15  18
ATOM     18  O   UNL     1      13.799  19.345  27.709  1.00  0.00    -0.504 OA
ATOM     19  H   UNL     1      14.000  19.558  28.680  1.00  0.00     0.293 HD
ENDBRANCH  15  18
BRANCH  17  20
ATOM     20  O   UNL     1      13.587  20.921  25.375  1.00  0.00    -0.504 OA
ATOM     21  H   UNL     1      14.387  21.242  25.908  1.00  0.00     0.293 HD
ENDBRANCH  17  20
ENDBRANCH   1  12
BRANCH   2  22
ATOM     22  O   UNL     1       8.506  22.567  26.531  1.00  0.00    -0.502 OA
ATOM     23  H   UNL     1       7.973  22.975  27.290  1.00  0.00     0.293 HD
ENDBRANCH   2  22
BRANCH   6  24
ATOM     24  O   UNL     1       3.980  21.812  23.827  1.00  0.00    -0.507 OA
ATOM     25  H   UNL     1       3.170  21.670  24.412  1.00  0.00     0.293 HD
ENDBRANCH   6  24
BRANCH   8  26
ATOM     26  O   UNL     1       5.076  17.836  21.400  1.00  0.00    -0.508 OA
ATOM     27  H   UNL     1       5.751  17.207  20.981  1.00  0.00     0.293 HD
ENDBRANCH   8  26
TORSDOF 6
ENDMDL
