MODEL 1
REMARK VINA RESULT:    -3.860      0.000      0.000
REMARK INTER + INTRA:          -9.259
REMARK INTER:                  -7.245
REMARK INTRA:                  -2.013
REMARK UNBOUND:                -2.013
REMARK SMILES CCCCCCCCC=CCCCCCCCC(=O)[O-]
REMARK SMILES IDX 10 1 9 2 11 3 12 4 13 5 14 6 15 7 16 8 17 9 18 10 19 11
REMARK SMILES IDX 20 12 8 13 7 14 6 15 5 16 4 17 3 18 2 19 1 20
REMARK H PARENT
REMARK Flexibility Score: inf
ROOT
ATOM      1  C   UNL     1      21.021   9.872 -28.592  1.00  0.00    -0.031 C 
ATOM      2  C   UNL     1      21.693  10.931 -29.070  1.00  0.00    -0.031 C 
ENDROOT
BRANCH   1   3
ATOM      3  C   UNL     1      21.585   8.480 -28.673  1.00  0.00     0.027 C 
BRANCH   3   4
ATOM      4  C   UNL     1      20.867   7.657 -29.753  1.00  0.00     0.004 C 
BRANCH   4   5
ATOM      5  C   UNL     1      21.448   6.242 -29.904  1.00  0.00     0.000 C 
BRANCH   5   6
ATOM      6  C   UNL     1      20.878   5.499 -31.125  1.00  0.00     0.000 C 
BRANCH   6   7
ATOM      7  C   UNL     1      20.457   4.057 -30.794  1.00  0.00     0.000 C 
BRANCH   7   8
ATOM      8  C   UNL     1      18.944   3.830 -30.952  1.00  0.00     0.006 C 
BRANCH   8   9
ATOM      9  C   UNL     1      18.122   4.752 -30.040  1.00  0.00     0.053 C 
BRANCH   9  10
ATOM     10  C   UNL     1      18.384   4.478 -28.590  1.00  0.00     0.041 C 
ATOM     11  O   UNL     1      18.247   3.314 -28.131  1.00  0.00    -0.550 OA
ATOM     12  O   UNL     1      18.749   5.514 -27.742  1.00  0.00    -0.550 OA
ENDBRANCH   9  10
ENDBRANCH   8   9
ENDBRANCH   7   8
ENDBRANCH   6   7
ENDBRANCH   5   6
ENDBRANCH   4   5
ENDBRANCH   3   4
ENDBRANCH   1   3
BRANCH   2  13
ATOM     13  C   UNL     1      21.138  12.325 -28.973  1.00  0.00     0.027 C 
BRANCH  13  14
ATOM     14  C   UNL     1      20.757  12.864 -30.361  1.00  0.00     0.004 C 
BRANCH  14  15
ATOM     15  C   UNL     1      19.292  13.321 -30.439  1.00  0.00     0.000 C 
BRANCH  15  16
ATOM     16  C   UNL     1      18.314  12.256 -29.909  1.00  0.00     0.000 C 
BRANCH  16  17
ATOM     17  C   UNL     1      17.807  11.319 -31.018  1.00  0.00    -0.000 C 
BRANCH  17  18
ATOM     18  C   UNL     1      18.099   9.838 -30.718  1.00  0.00    -0.000 C 
BRANCH  18  19
ATOM     19  C   UNL     1      17.647   9.422 -29.310  1.00  0.00    -0.003 C 
ATOM     20  C   UNL     1      16.745   8.188 -29.317  1.00  0.00     0.004 C 
ENDBRANCH  18  19
ENDBRANCH  17  18
ENDBRANCH  16  17
ENDBRANCH  15  16
ENDBRANCH  14  15
ENDBRANCH  13  14
ENDBRANCH   2  13
TORSDOF 15
ENDMDL
MODEL 2
REMARK VINA RESULT:    -3.852     10.659     13.581
REMARK INTER + INTRA:          -9.244
REMARK INTER:                  -7.773
REMARK INTRA:                  -1.471
REMARK UNBOUND:                -2.013
REMARK SMILES CCCCCCCCC=CCCCCCCCC(=O)[O-]
REMARK SMILES IDX 10 1 9 2 11 3 12 4 13 5 14 6 15 7 16 8 17 9 18 10 19 11
REMARK SMILES IDX 20 12 8 13 7 14 6 15 5 16 4 17 3 18 2 19 1 20
REMARK H PARENT
REMARK Flexibility Score: inf
ROOT
ATOM      1  C   UNL     1      11.999   4.701 -21.780  1.00  0.00    -0.031 C 
ATOM      2  C   UNL     1      10.797   4.626 -21.186  1.00  0.00    -0.031 C 
ENDROOT
BRANCH   1   3
ATOM      3  C   UNL     1      12.307   5.758 -22.804  1.00  0.00     0.027 C 
BRANCH   3   4
ATOM      4  C   UNL     1      13.617   5.446 -23.541  1.00  0.00     0.004 C 
BRANCH   4   5
ATOM      5  C   UNL     1      14.239   4.109 -23.108  1.00  0.00     0.000 C 
BRANCH   5   6
ATOM      6  C   UNL     1      14.915   3.368 -24.276  1.00  0.00     0.000 C 
BRANCH   6   7
ATOM      7  C   UNL     1      15.962   2.348 -23.800  1.00  0.00     0.000 C 
BRANCH   7   8
ATOM      8  C   UNL     1      15.340   0.992 -23.422  1.00  0.00     0.006 C 
BRANCH   8   9
ATOM      9  C   UNL     1      15.930   0.426 -22.123  1.00  0.00     0.053 C 
BRANCH   9  10
ATOM     10  C   UNL     1      15.467   1.194 -20.921  1.00  0.00     0.041 C 
ATOM     11  O   UNL     1      16.285   1.507 -20.017  1.00  0.00    -0.550 OA
ATOM     12  O   UNL     1      14.128   1.535 -20.787  1.00  0.00    -0.550 OA
ENDBRANCH   9  10
ENDBRANCH   8   9
ENDBRANCH   7   8
ENDBRANCH   6   7
ENDBRANCH   5   6
ENDBRANCH   4   5
ENDBRANCH   3   4
ENDBRANCH   1   3
BRANCH   2  13
ATOM     13  C   UNL     1      10.495   3.580 -20.150  1.00  0.00     0.027 C 
BRANCH  13  14
ATOM     14  C   UNL     1      10.203   4.224 -18.785  1.00  0.00     0.004 C 
BRANCH  14  15
ATOM     15  C   UNL     1       9.585   3.237 -17.783  1.00  0.00     0.000 C 
BRANCH  15  16
ATOM     16  C   UNL     1      10.591   2.175 -17.305  1.00  0.00     0.000 C 
BRANCH  16  17
ATOM     17  C   UNL     1      10.178   0.749 -17.704  1.00  0.00    -0.000 C 
BRANCH  17  18
ATOM     18  C   UNL     1       8.680   0.641 -18.042  1.00  0.00    -0.000 C 
BRANCH  18  19
ATOM     19  C   UNL     1       8.434   0.247 -19.507  1.00  0.00    -0.003 C 
ATOM     20  C   UNL     1       7.477   1.200 -20.223  1.00  0.00     0.004 C 
ENDBRANCH  18  19
ENDBRANCH  17  18
ENDBRANCH  16  17
ENDBRANCH  15  16
ENDBRANCH  14  15
ENDBRANCH  13  14
ENDBRANCH   2  13
TORSDOF 15
ENDMDL
MODEL 3
REMARK VINA RESULT:    -3.814      4.388      8.060
REMARK INTER + INTRA:          -9.172
REMARK INTER:                  -6.788
REMARK INTRA:                  -2.384
REMARK UNBOUND:                -2.013
REMARK SMILES CCCCCCCCC=CCCCCCCCC(=O)[O-]
REMARK SMILES IDX 10 1 9 2 11 3 12 4 13 5 14 6 15 7 16 8 17 9 18 10 19 11
REMARK SMILES IDX 20 12 8 13 7 14 6 15 5 16 4 17 3 18 2 19 1 20
REMARK H PARENT
REMARK Flexibility Score: inf
ROOT
ATOM      1  C   UNL     1      18.398   9.930 -30.289  1.00  0.00    -0.031 C 
ATOM      2  C   UNL     1      17.754   8.941 -29.651  1.00  0.00    -0.031 C 
ENDROOT
BRANCH   1   3
ATOM      3  C   UNL     1      17.657  11.079 -30.913  1.00  0.00     0.027 C 
BRANCH   3   4
ATOM      4  C   UNL     1      18.207  12.425 -30.418  1.00  0.00     0.004 C 
BRANCH   4   5
ATOM      5  C   UNL     1      19.526  12.815 -31.102  1.00  0.00     0.000 C 
BRANCH   5   6
ATOM      6  C   UNL     1      20.748  12.604 -30.191  1.00  0.00     0.000 C 
BRANCH   6   7
ATOM      7  C   UNL     1      21.054  13.835 -29.321  1.00  0.00     0.000 C 
BRANCH   7   8
ATOM      8  C   UNL     1      20.684  15.158 -30.014  1.00  0.00     0.006 C 
BRANCH   8   9
ATOM      9  C   UNL     1      21.649  16.294 -29.646  1.00  0.00     0.053 C 
BRANCH   9  10
ATOM     10  C   UNL     1      21.085  17.179 -28.578  1.00  0.00     0.041 C 
ATOM     11  O   UNL     1      21.550  18.335 -28.401  1.00  0.00    -0.550 OA
ATOM     12  O   UNL     1      20.065  16.716 -27.757  1.00  0.00    -0.550 OA
ENDBRANCH   9  10
ENDBRANCH   8   9
ENDBRANCH   7   8
ENDBRANCH   6   7
ENDBRANCH   5   6
ENDBRANCH   4   5
ENDBRANCH   3   4
ENDBRANCH   1   3
BRANCH   2  13
ATOM     13  C   UNL     1      18.496   7.801 -29.011  1.00  0.00     0.027 C 
BRANCH  13  14
ATOM     14  C   UNL     1      19.856   7.577 -29.692  1.00  0.00     0.004 C 
BRANCH  14  15
ATOM     15  C   UNL     1      21.038   7.729 -28.722  1.00  0.00     0.000 C 
BRANCH  15  16
ATOM     16  C   UNL     1      21.747   9.087 -28.866  1.00  0.00     0.000 C 
BRANCH  16  17
ATOM     17  C   UNL     1      22.044   9.744 -27.508  1.00  0.00    -0.000 C 
BRANCH  17  18
ATOM     18  C   UNL     1      20.792   9.856 -26.619  1.00  0.00    -0.000 C 
BRANCH  18  19
ATOM     19  C   UNL     1      19.872  11.012 -27.042  1.00  0.00    -0.003 C 
ATOM     20  C   UNL     1      18.437  10.839 -26.544  1.00  0.00     0.004 C 
ENDBRANCH  18  19
ENDBRANCH  17  18
ENDBRANCH  16  17
ENDBRANCH  15  16
ENDBRANCH  14  15
ENDBRANCH  13  14
ENDBRANCH   2  13
TORSDOF 15
ENDMDL
MODEL 4
REMARK VINA RESULT:    -3.801      3.497      7.158
REMARK INTER + INTRA:          -9.147
REMARK INTER:                  -6.921
REMARK INTRA:                  -2.227
REMARK UNBOUND:                -2.013
REMARK SMILES CCCCCCCCC=CCCCCCCCC(=O)[O-]
REMARK SMILES IDX 10 1 9 2 11 3 12 4 13 5 14 6 15 7 16 8 17 9 18 10 19 11
REMARK SMILES IDX 20 12 8 13 7 14 6 15 5 16 4 17 3 18 2 19 1 20
REMARK H PARENT
REMARK Flexibility Score: inf
ROOT
ATOM      1  C   UNL     1      19.120   8.635 -29.993  1.00  0.00    -0.031 C 
ATOM      2  C   UNL     1      19.847   8.527 -28.870  1.00  0.00    -0.031 C 
ENDROOT
BRANCH   1   3
ATOM      3  C   UNL     1      17.972   9.599 -30.099  1.00  0.00     0.027 C 
BRANCH   3   4
ATOM      4  C   UNL     1      18.272  10.704 -31.124  1.00  0.00     0.004 C 
BRANCH   4   5
ATOM      5  C   UNL     1      18.489  12.078 -30.470  1.00  0.00     0.000 C 
BRANCH   5   6
ATOM      6  C   UNL     1      19.880  12.661 -30.774  1.00  0.00     0.000 C 
BRANCH   6   7
ATOM      7  C   UNL     1      20.980  12.060 -29.884  1.00  0.00     0.000 C 
BRANCH   7   8
ATOM      8  C   UNL     1      20.605  12.068 -28.392  1.00  0.00     0.006 C 
BRANCH   8   9
ATOM      9  C   UNL     1      21.757  12.569 -27.509  1.00  0.00     0.053 C 
BRANCH   9  10
ATOM     10  C   UNL     1      21.601  14.018 -27.160  1.00  0.00     0.041 C 
ATOM     11  O   UNL     1      21.288  14.358 -25.989  1.00  0.00    -0.550 OA
ATOM     12  O   UNL     1      21.771  14.990 -28.136  1.00  0.00    -0.550 OA
ENDBRANCH   9  10
ENDBRANCH   8   9
ENDBRANCH   7   8
ENDBRANCH   6   7
ENDBRANCH   5   6
ENDBRANCH   4   5
ENDBRANCH   3   4
ENDBRANCH   1   3
BRANCH   2  13
ATOM     13  C   UNL     1      21.006   7.575 -28.771  1.00  0.00     0.027 C 
BRANCH  13  14
ATOM     14  C   UNL     1      21.362   6.994 -30.148  1.00  0.00     0.004 C 
BRANCH  14  15
ATOM     15  C   UNL     1      21.636   5.482 -30.103  1.00  0.00     0.000 C 
BRANCH  15  16
ATOM     16  C   UNL     1      20.582   4.670 -30.876  1.00  0.00     0.000 C 
BRANCH  16  17
ATOM     17  C   UNL     1      19.794   3.711 -29.969  1.00  0.00    -0.000 C 
BRANCH  17  18
ATOM     18  C   UNL     1      18.272   3.828 -30.165  1.00  0.00    -0.000 C 
BRANCH  18  19
ATOM     19  C   UNL     1      17.705   5.139 -29.599  1.00  0.00    -0.003 C 
ATOM     20  C   UNL     1      18.045   5.343 -28.123  1.00  0.00     0.004 C 
ENDBRANCH  18  19
ENDBRANCH  17  18
ENDBRANCH  16  17
ENDBRANCH  15  16
ENDBRANCH  14  15
ENDBRANCH  13  14
ENDBRANCH   2  13
TORSDOF 15
ENDMDL
MODEL 5
REMARK VINA RESULT:    -3.750      1.317      3.034
REMARK INTER + INTRA:          -9.052
REMARK INTER:                  -6.380
REMARK INTRA:                  -2.672
REMARK UNBOUND:                -2.013
REMARK SMILES CCCCCCCCC=CCCCCCCCC(=O)[O-]
REMARK SMILES IDX 10 1 9 2 11 3 12 4 13 5 14 6 15 7 16 8 17 9 18 10 19 11
REMARK SMILES IDX 20 12 8 13 7 14 6 15 5 16 4 17 3 18 2 19 1 20
REMARK H PARENT
REMARK Flexibility Score: inf
ROOT
ATOM      1  C   UNL     1      18.414   9.171 -29.281  1.00  0.00    -0.031 C 
ATOM      2  C   UNL     1      17.619  10.240 -29.112  1.00  0.00    -0.031 C 
ENDROOT
BRANCH   1   3
ATOM      3  C   UNL     1      18.435   8.042 -28.289  1.00  0.00     0.027 C 
BRANCH   3   4
ATOM      4  C   UNL     1      19.843   7.438 -28.172  1.00  0.00     0.004 C 
BRANCH   4   5
ATOM      5  C   UNL     1      20.871   8.149 -29.066  1.00  0.00     0.000 C 
BRANCH   5   6
ATOM      6  C   UNL     1      21.520   7.200 -30.088  1.00  0.00     0.000 C 
BRANCH   6   7
ATOM      7  C   UNL     1      20.487   6.337 -30.830  1.00  0.00     0.000 C 
BRANCH   7   8
ATOM      8  C   UNL     1      20.816   4.835 -30.769  1.00  0.00     0.006 C 
BRANCH   8   9
ATOM      9  C   UNL     1      19.560   3.962 -30.900  1.00  0.00     0.053 C 
BRANCH   9  10
ATOM     10  C   UNL     1      18.561   4.258 -29.823  1.00  0.00     0.041 C 
ATOM     11  O   UNL     1      17.431   4.727 -30.118  1.00  0.00    -0.550 OA
ATOM     12  O   UNL     1      18.892   4.045 -28.491  1.00  0.00    -0.550 OA
ENDBRANCH   9  10
ENDBRANCH   8   9
ENDBRANCH   7   8
ENDBRANCH   6   7
ENDBRANCH   5   6
ENDBRANCH   4   5
ENDBRANCH   3   4
ENDBRANCH   1   3
BRANCH   2  13
ATOM     13  C   UNL     1      17.584  11.361 -30.113  1.00  0.00     0.027 C 
BRANCH  13  14
ATOM     14  C   UNL     1      18.878  11.402 -30.940  1.00  0.00     0.004 C 
BRANCH  14  15
ATOM     15  C   UNL     1      19.421  12.828 -31.125  1.00  0.00     0.000 C 
BRANCH  15  16
ATOM     16  C   UNL     1      20.713  13.074 -30.324  1.00  0.00     0.000 C 
BRANCH  16  17
ATOM     17  C   UNL     1      21.228  11.802 -29.631  1.00  0.00    -0.000 C 
BRANCH  17  18
ATOM     18  C   UNL     1      21.556  12.030 -28.145  1.00  0.00    -0.000 C 
BRANCH  18  19
ATOM     19  C   UNL     1      20.337  11.822 -27.235  1.00  0.00    -0.003 C 
ATOM     20  C   UNL     1      20.507  10.645 -26.274  1.00  0.00     0.004 C 
ENDBRANCH  18  19
ENDBRANCH  17  18
ENDBRANCH  16  17
ENDBRANCH  15  16
ENDBRANCH  14  15
ENDBRANCH  13  14
ENDBRANCH   2  13
TORSDOF 15
ENDMDL
MODEL 6
REMARK VINA RESULT:    -3.725      4.377      8.279
REMARK INTER + INTRA:          -9.004
REMARK INTER:                  -7.389
REMARK INTRA:                  -1.616
REMARK UNBOUND:                -2.013
REMARK SMILES CCCCCCCCC=CCCCCCCCC(=O)[O-]
REMARK SMILES IDX 10 1 9 2 11 3 12 4 13 5 14 6 15 7 16 8 17 9 18 10 19 11
REMARK SMILES IDX 20 12 8 13 7 14 6 15 5 16 4 17 3 18 2 19 1 20
REMARK H PARENT
REMARK Flexibility Score: inf
ROOT
ATOM      1  C   UNL     1      20.635   8.570 -29.048  1.00  0.00    -0.031 C 
ATOM      2  C   UNL     1      21.392   7.635 -29.643  1.00  0.00    -0.031 C 
ENDROOT
BRANCH   1   3
ATOM      3  C   UNL     1      21.232   9.598 -28.128  1.00  0.00     0.027 C 
BRANCH   3   4
ATOM      4  C   UNL     1      21.845  10.760 -28.922  1.00  0.00     0.004 C 
BRANCH   4   5
ATOM      5  C   UNL     1      20.976  12.028 -28.886  1.00  0.00     0.000 C 
BRANCH   5   6
ATOM      6  C   UNL     1      20.288  12.309 -30.233  1.00  0.00     0.000 C 
BRANCH   6   7
ATOM      7  C   UNL     1      20.499  13.754 -30.713  1.00  0.00     0.000 C 
BRANCH   7   8
ATOM      8  C   UNL     1      20.912  14.703 -29.574  1.00  0.00     0.006 C 
BRANCH   8   9
ATOM      9  C   UNL     1      21.433  16.047 -30.101  1.00  0.00     0.053 C 
BRANCH   9  10
ATOM     10  C   UNL     1      21.132  17.170 -29.156  1.00  0.00     0.041 C 
ATOM     11  O   UNL     1      20.807  18.303 -29.600  1.00  0.00    -0.550 OA
ATOM     12  O   UNL     1      21.241  16.973 -27.786  1.00  0.00    -0.550 OA
ENDBRANCH   9  10
ENDBRANCH   8   9
ENDBRANCH   7   8
ENDBRANCH   6   7
ENDBRANCH   5   6
ENDBRANCH   4   5
ENDBRANCH   3   4
ENDBRANCH   1   3
BRANCH   2  13
ATOM     13  C   UNL     1      20.798   6.618 -30.578  1.00  0.00     0.027 C 
BRANCH  13  14
ATOM     14  C   UNL     1      21.398   5.225 -30.332  1.00  0.00     0.004 C 
BRANCH  14  15
ATOM     15  C   UNL     1      20.484   4.090 -30.817  1.00  0.00     0.000 C 
BRANCH  15  16
ATOM     16  C   UNL     1      18.995   4.382 -30.561  1.00  0.00     0.000 C 
BRANCH  16  17
ATOM     17  C   UNL     1      18.611   4.226 -29.080  1.00  0.00    -0.000 C 
BRANCH  17  18
ATOM     18  C   UNL     1      18.057   5.528 -28.473  1.00  0.00    -0.000 C 
BRANCH  18  19
ATOM     19  C   UNL     1      18.677   5.848 -27.104  1.00  0.00    -0.003 C 
ATOM     20  C   UNL     1      20.092   5.292 -26.948  1.00  0.00     0.004 C 
ENDBRANCH  18  19
ENDBRANCH  17  18
ENDBRANCH  16  17
ENDBRANCH  15  16
ENDBRANCH  14  15
ENDBRANCH  13  14
ENDBRANCH   2  13
TORSDOF 15
ENDMDL
MODEL 7
REMARK VINA RESULT:    -3.723      1.150      1.802
REMARK INTER + INTRA:          -9.000
REMARK INTER:                  -6.988
REMARK INTRA:                  -2.013
REMARK UNBOUND:                -2.013
REMARK SMILES CCCCCCCCC=CCCCCCCCC(=O)[O-]
REMARK SMILES IDX 10 1 9 2 11 3 12 4 13 5 14 6 15 7 16 8 17 9 18 10 19 11
REMARK SMILES IDX 20 12 8 13 7 14 6 15 5 16 4 17 3 18 2 19 1 20
REMARK H PARENT
REMARK Flexibility Score: inf
ROOT
ATOM      1  C   UNL     1      21.026   8.500 -28.980  1.00  0.00    -0.031 C 
ATOM      2  C   UNL     1      22.026   9.254 -28.496  1.00  0.00    -0.031 C 
ENDROOT
BRANCH   1   3
ATOM      3  C   UNL     1      21.243   7.066 -29.377  1.00  0.00     0.027 C 
BRANCH   3   4
ATOM      4  C   UNL     1      20.718   6.802 -30.797  1.00  0.00     0.004 C 
BRANCH   4   5
ATOM      5  C   UNL     1      20.621   5.303 -31.124  1.00  0.00     0.000 C 
BRANCH   5   6
ATOM      6  C   UNL     1      21.122   4.415 -29.973  1.00  0.00     0.000 C 
BRANCH   6   7
ATOM      7  C   UNL     1      20.283   3.138 -29.804  1.00  0.00     0.000 C 
BRANCH   7   8
ATOM      8  C   UNL     1      18.830   3.433 -29.392  1.00  0.00     0.006 C 
BRANCH   8   9
ATOM      9  C   UNL     1      18.752   4.246 -28.092  1.00  0.00     0.053 C 
BRANCH   9  10
ATOM     10  C   UNL     1      18.049   5.554 -28.296  1.00  0.00     0.041 C 
ATOM     11  O   UNL     1      17.346   5.742 -29.322  1.00  0.00    -0.550 OA
ATOM     12  O   UNL     1      18.197   6.574 -27.366  1.00  0.00    -0.550 OA
ENDBRANCH   9  10
ENDBRANCH   8   9
ENDBRANCH   7   8
ENDBRANCH   6   7
ENDBRANCH   5   6
ENDBRANCH   4   5
ENDBRANCH   3   4
ENDBRANCH   1   3
BRANCH   2  13
ATOM     13  C   UNL     1      21.806  10.682 -28.082  1.00  0.00     0.027 C 
BRANCH  13  14
ATOM     14  C   UNL     1      21.733  11.607 -29.308  1.00  0.00     0.004 C 
BRANCH  14  15
ATOM     15  C   UNL     1      20.895  12.869 -29.051  1.00  0.00     0.000 C 
BRANCH  15  16
ATOM     16  C   UNL     1      20.248  13.417 -30.335  1.00  0.00     0.000 C 
BRANCH  16  17
ATOM     17  C   UNL     1      19.491  12.335 -31.122  1.00  0.00    -0.000 C 
BRANCH  17  18
ATOM     18  C   UNL     1      18.455  11.592 -30.260  1.00  0.00    -0.000 C 
BRANCH  18  19
ATOM     19  C   UNL     1      18.227  10.147 -30.728  1.00  0.00    -0.003 C 
ATOM     20  C   UNL     1      17.517   9.289 -29.680  1.00  0.00     0.004 C 
ENDBRANCH  18  19
ENDBRANCH  17  18
ENDBRANCH  16  17
ENDBRANCH  15  16
ENDBRANCH  14  15
ENDBRANCH  13  14
ENDBRANCH   2  13
TORSDOF 15
ENDMDL
MODEL 8
REMARK VINA RESULT:    -3.710      1.503      3.633
REMARK INTER + INTRA:          -8.977
REMARK INTER:                  -7.158
REMARK INTRA:                  -1.819
REMARK UNBOUND:                -2.013
REMARK SMILES CCCCCCCCC=CCCCCCCCC(=O)[O-]
REMARK SMILES IDX 10 1 9 2 11 3 12 4 13 5 14 6 15 7 16 8 17 9 18 10 19 11
REMARK SMILES IDX 20 12 8 13 7 14 6 15 5 16 4 17 3 18 2 19 1 20
REMARK H PARENT
REMARK Flexibility Score: inf
ROOT
ATOM      1  C   UNL     1      18.022  11.137 -30.580  1.00  0.00    -0.031 C 
ATOM      2  C   UNL     1      19.163  11.834 -30.699  1.00  0.00    -0.031 C 
ENDROOT
BRANCH   1   3
ATOM      3  C   UNL     1      18.024   9.639 -30.453  1.00  0.00     0.027 C 
BRANCH   3   4
ATOM      4  C   UNL     1      18.909   9.186 -29.282  1.00  0.00     0.004 C 
BRANCH   4   5
ATOM      5  C   UNL     1      19.250   7.688 -29.340  1.00  0.00     0.000 C 
BRANCH   5   6
ATOM      6  C   UNL     1      20.754   7.434 -29.538  1.00  0.00     0.000 C 
BRANCH   6   7
ATOM      7  C   UNL     1      21.046   6.533 -30.749  1.00  0.00     0.000 C 
BRANCH   7   8
ATOM      8  C   UNL     1      21.531   5.131 -30.342  1.00  0.00     0.006 C 
BRANCH   8   9
ATOM      9  C   UNL     1      20.642   4.021 -30.919  1.00  0.00     0.053 C 
BRANCH   9  10
ATOM     10  C   UNL     1      19.498   3.694 -30.008  1.00  0.00     0.041 C 
ATOM     11  O   UNL     1      19.522   4.060 -28.804  1.00  0.00    -0.550 OA
ATOM     12  O   UNL     1      18.420   2.958 -30.482  1.00  0.00    -0.550 OA
ENDBRANCH   9  10
ENDBRANCH   8   9
ENDBRANCH   7   8
ENDBRANCH   6   7
ENDBRANCH   5   6
ENDBRANCH   4   5
ENDBRANCH   3   4
ENDBRANCH   1   3
BRANCH   2  13
ATOM     13  C   UNL     1      19.162  13.334 -30.808  1.00  0.00     0.027 C 
BRANCH  13  14
ATOM     14  C   UNL     1      20.592  13.892 -30.747  1.00  0.00     0.004 C 
BRANCH  14  15
ATOM     15  C   UNL     1      20.707  15.132 -29.847  1.00  0.00     0.000 C 
BRANCH  15  16
ATOM     16  C   UNL     1      21.675  14.917 -28.669  1.00  0.00     0.000 C 
BRANCH  16  17
ATOM     17  C   UNL     1      20.995  14.248 -27.462  1.00  0.00    -0.000 C 
BRANCH  17  18
ATOM     18  C   UNL     1      21.693  12.944 -27.038  1.00  0.00    -0.000 C 
BRANCH  18  19
ATOM     19  C   UNL     1      21.080  11.704 -27.706  1.00  0.00    -0.003 C 
ATOM     20  C   UNL     1      22.125  10.823 -28.392  1.00  0.00     0.004 C 
ENDBRANCH  18  19
ENDBRANCH  17  18
ENDBRANCH  16  17
ENDBRANCH  15  16
ENDBRANCH  14  15
ENDBRANCH  13  14
ENDBRANCH   2  13
TORSDOF 15
ENDMDL
MODEL 9
REMARK VINA RESULT:    -3.598      1.165      2.356
REMARK INTER + INTRA:          -8.766
REMARK INTER:                  -6.629
REMARK INTRA:                  -2.137
REMARK UNBOUND:                -2.013
REMARK SMILES CCCCCCCCC=CCCCCCCCC(=O)[O-]
REMARK SMILES IDX 10 1 9 2 11 3 12 4 13 5 14 6 15 7 16 8 17 9 18 10 19 11
REMARK SMILES IDX 20 12 8 13 7 14 6 15 5 16 4 17 3 18 2 19 1 20
REMARK H PARENT
REMARK Flexibility Score: inf
ROOT
ATOM      1  C   UNL     1      20.815  11.609 -28.201  1.00  0.00    -0.031 C 
ATOM      2  C   UNL     1      20.963  11.990 -29.479  1.00  0.00    -0.031 C 
ENDROOT
BRANCH   1   3
ATOM      3  C   UNL     1      21.783  10.666 -27.542  1.00  0.00     0.027 C 
BRANCH   3   4
ATOM      4  C   UNL     1      21.231   9.233 -27.523  1.00  0.00     0.004 C 
BRANCH   4   5
ATOM      5  C   UNL     1      21.474   8.485 -28.844  1.00  0.00     0.000 C 
BRANCH   5   6
ATOM      6  C   UNL     1      20.980   7.029 -28.796  1.00  0.00     0.000 C 
BRANCH   6   7
ATOM      7  C   UNL     1      20.371   6.568 -30.130  1.00  0.00     0.000 C 
BRANCH   7   8
ATOM      8  C   UNL     1      21.116   5.367 -30.739  1.00  0.00     0.006 C 
BRANCH   8   9
ATOM      9  C   UNL     1      20.162   4.229 -31.125  1.00  0.00     0.053 C 
BRANCH   9  10
ATOM     10  C   UNL     1      19.382   3.732 -29.946  1.00  0.00     0.041 C 
ATOM     11  O   UNL     1      18.155   3.473 -30.061  1.00  0.00    -0.550 OA
ATOM     12  O   UNL     1      20.003   3.586 -28.713  1.00  0.00    -0.550 OA
ENDBRANCH   9  10
ENDBRANCH   8   9
ENDBRANCH   7   8
ENDBRANCH   6   7
ENDBRANCH   5   6
ENDBRANCH   4   5
ENDBRANCH   3   4
ENDBRANCH   1   3
BRANCH   2  13
ATOM     13  C   UNL     1      20.005  12.947 -30.132  1.00  0.00     0.027 C 
BRANCH  13  14
ATOM     14  C   UNL     1      19.087  12.216 -31.125  1.00  0.00     0.004 C 
BRANCH  14  15
ATOM     15  C   UNL     1      17.937  11.470 -30.432  1.00  0.00     0.000 C 
BRANCH  15  16
ATOM     16  C   UNL     1      18.140   9.944 -30.433  1.00  0.00     0.000 C 
BRANCH  16  17
ATOM     17  C   UNL     1      17.933   9.320 -29.043  1.00  0.00    -0.000 C 
BRANCH  17  18
ATOM     18  C   UNL     1      16.670   8.446 -28.969  1.00  0.00    -0.000 C 
BRANCH  18  19
ATOM     19  C   UNL     1      16.972   6.955 -29.187  1.00  0.00    -0.003 C 
ATOM     20  C   UNL     1      17.303   6.221 -27.888  1.00  0.00     0.004 C 
ENDBRANCH  18  19
ENDBRANCH  17  18
ENDBRANCH  16  17
ENDBRANCH  15  16
ENDBRANCH  14  15
ENDBRANCH  13  14
ENDBRANCH   2  13
TORSDOF 15
ENDMDL
