MODEL 1
REMARK VINA RESULT:    -5.254      0.000      0.000
REMARK INTER + INTRA:          -7.923
REMARK INTER:                  -7.097
REMARK INTRA:                  -0.826
REMARK UNBOUND:                -0.826
REMARK SMILES CC(=O)CCC=C(C)CCC=C(C)C
REMARK SMILES IDX 7 1 6 2 8 3 9 4 10 5 11 6 13 7 12 8 14 9 5 10 4 11 2 12 3 13
REMARK SMILES IDX 1 14
REMARK H PARENT
REMARK Flexibility Score: inf
ROOT
ATOM      1  C   UNL     1      23.287  -4.659   7.373  1.00  0.00    -0.077 C 
ATOM      2  C   UNL     1      22.964  -3.963   6.260  1.00  0.00    -0.028 C 
ATOM      3  C   UNL     1      23.256  -4.027   8.746  1.00  0.00     0.039 C 
ENDROOT
BRANCH   1   4
ATOM      4  C   UNL     1      23.683  -6.113   7.239  1.00  0.00     0.034 C 
BRANCH   4   5
ATOM      5  C   UNL     1      24.326  -6.624   8.533  1.00  0.00     0.032 C 
BRANCH   5   6
ATOM      6  C   UNL     1      23.691  -7.921   8.970  1.00  0.00    -0.028 C 
ATOM      7  C   UNL     1      22.258  -9.397  10.314  1.00  0.00     0.039 C 
ATOM      8  C   UNL     1      22.846  -8.042  10.018  1.00  0.00    -0.080 C 
ATOM      9  C   UNL     1      22.494  -6.868  10.902  1.00  0.00     0.039 C 
ENDBRANCH   5   6
ENDBRANCH   4   5
ENDBRANCH   1   4
BRANCH   2  10
ATOM     10  C   UNL     1      22.593  -2.500   6.244  1.00  0.00     0.035 C 
BRANCH  10  11
ATOM     11  C   UNL     1      21.077  -2.327   6.112  1.00  0.00     0.079 C 
BRANCH  11  12
ATOM     12  C   UNL     1      20.483  -1.835   7.405  1.00  0.00     0.130 C 
ATOM     13  O   UNL     1      19.907  -2.622   8.141  1.00  0.00    -0.300 OA
ATOM     14  C   UNL     1      20.575  -0.393   7.809  1.00  0.00     0.087 C 
ENDBRANCH  11  12
ENDBRANCH  10  11
ENDBRANCH   2  10
TORSDOF 6
ENDMDL
MODEL 2
REMARK VINA RESULT:    -4.915      2.146      6.196
REMARK INTER + INTRA:          -7.465
REMARK INTER:                  -6.722
REMARK INTRA:                  -0.743
REMARK UNBOUND:                -0.826
REMARK SMILES CC(=O)CCC=C(C)CCC=C(C)C
REMARK SMILES IDX 7 1 6 2 8 3 9 4 10 5 11 6 13 7 12 8 14 9 5 10 4 11 2 12 3 13
REMARK SMILES IDX 1 14
REMARK H PARENT
REMARK Flexibility Score: inf
ROOT
ATOM      1  C   UNL     1      23.874  -4.362   7.544  1.00  0.00    -0.077 C 
ATOM      2  C   UNL     1      23.936  -4.913   8.777  1.00  0.00    -0.028 C 
ATOM      3  C   UNL     1      23.298  -5.111   6.364  1.00  0.00     0.039 C 
ENDROOT
BRANCH   1   4
ATOM      4  C   UNL     1      24.391  -2.955   7.343  1.00  0.00     0.034 C 
BRANCH   4   5
ATOM      5  C   UNL     1      23.569  -2.219   6.279  1.00  0.00     0.032 C 
BRANCH   5   6
ATOM      6  C   UNL     1      22.704  -1.157   6.913  1.00  0.00    -0.028 C 
ATOM      7  C   UNL     1      20.644  -0.145   7.790  1.00  0.00     0.039 C 
ATOM      8  C   UNL     1      21.371  -1.275   7.110  1.00  0.00    -0.080 C 
ATOM      9  C   UNL     1      20.599  -2.491   6.653  1.00  0.00     0.039 C 
ENDBRANCH   5   6
ENDBRANCH   4   5
ENDBRANCH   1   4
BRANCH   2  10
ATOM     10  C   UNL     1      23.496  -6.318   9.108  1.00  0.00     0.035 C 
BRANCH  10  11
ATOM     11  C   UNL     1      22.547  -6.321  10.309  1.00  0.00     0.079 C 
BRANCH  11  12
ATOM     12  C   UNL     1      22.598  -7.645  11.025  1.00  0.00     0.130 C 
ATOM     13  O   UNL     1      22.600  -7.669  12.247  1.00  0.00    -0.300 OA
ATOM     14  C   UNL     1      22.655  -8.939  10.270  1.00  0.00     0.087 C 
ENDBRANCH  11  12
ENDBRANCH  10  11
ENDBRANCH   2  10
TORSDOF 6
ENDMDL
MODEL 3
REMARK VINA RESULT:    -4.889      1.365      1.503
REMARK INTER + INTRA:          -7.429
REMARK INTER:                  -6.853
REMARK INTRA:                  -0.576
REMARK UNBOUND:                -0.826
REMARK SMILES CC(=O)CCC=C(C)CCC=C(C)C
REMARK SMILES IDX 7 1 6 2 8 3 9 4 10 5 11 6 13 7 12 8 14 9 5 10 4 11 2 12 3 13
REMARK SMILES IDX 1 14
REMARK H PARENT
REMARK Flexibility Score: inf
ROOT
ATOM      1  C   UNL     1      24.098  -3.958   7.098  1.00  0.00    -0.077 C 
ATOM      2  C   UNL     1      22.750  -3.937   6.989  1.00  0.00    -0.028 C 
ATOM      3  C   UNL     1      24.960  -2.845   6.547  1.00  0.00     0.039 C 
ENDROOT
BRANCH   1   4
ATOM      4  C   UNL     1      24.758  -5.125   7.798  1.00  0.00     0.034 C 
BRANCH   4   5
ATOM      5  C   UNL     1      24.000  -5.493   9.079  1.00  0.00     0.032 C 
BRANCH   5   6
ATOM      6  C   UNL     1      23.569  -6.939   9.049  1.00  0.00    -0.028 C 
ATOM      7  C   UNL     1      22.470  -8.987   9.843  1.00  0.00     0.039 C 
ATOM      8  C   UNL     1      22.862  -7.544  10.029  1.00  0.00    -0.080 C 
ATOM      9  C   UNL     1      22.474  -6.824  11.299  1.00  0.00     0.039 C 
ENDBRANCH   5   6
ENDBRANCH   4   5
ENDBRANCH   1   4
BRANCH   2  10
ATOM     10  C   UNL     1      21.967  -2.859   6.282  1.00  0.00     0.035 C 
BRANCH  10  11
ATOM     11  C   UNL     1      20.905  -2.262   7.210  1.00  0.00     0.079 C 
BRANCH  11  12
ATOM     12  C   UNL     1      21.301  -0.877   7.650  1.00  0.00     0.130 C 
ATOM     13  O   UNL     1      22.485  -0.594   7.752  1.00  0.00    -0.300 OA
ATOM     14  C   UNL     1      20.270   0.163   7.974  1.00  0.00     0.087 C 
ENDBRANCH  11  12
ENDBRANCH  10  11
ENDBRANCH   2  10
TORSDOF 6
ENDMDL
MODEL 4
REMARK VINA RESULT:    -4.844      1.667      2.362
REMARK INTER + INTRA:          -7.369
REMARK INTER:                  -6.710
REMARK INTRA:                  -0.659
REMARK UNBOUND:                -0.826
REMARK SMILES CC(=O)CCC=C(C)CCC=C(C)C
REMARK SMILES IDX 7 1 6 2 8 3 9 4 10 5 11 6 13 7 12 8 14 9 5 10 4 11 2 12 3 13
REMARK SMILES IDX 1 14
REMARK H PARENT
REMARK Flexibility Score: inf
ROOT
ATOM      1  C   UNL     1      24.012  -4.609   8.506  1.00  0.00    -0.077 C 
ATOM      2  C   UNL     1      24.052  -3.281   8.256  1.00  0.00    -0.028 C 
ATOM      3  C   UNL     1      22.880  -5.241   9.284  1.00  0.00     0.039 C 
ENDROOT
BRANCH   1   4
ATOM      4  C   UNL     1      25.128  -5.487   7.984  1.00  0.00     0.034 C 
BRANCH   4   5
ATOM      5  C   UNL     1      24.565  -6.755   7.331  1.00  0.00     0.032 C 
BRANCH   5   6
ATOM      6  C   UNL     1      25.437  -7.947   7.638  1.00  0.00    -0.028 C 
ATOM      7  C   UNL     1      26.054 -10.092   8.666  1.00  0.00     0.039 C 
ATOM      8  C   UNL     1      25.096  -8.943   8.486  1.00  0.00    -0.080 C 
ATOM      9  C   UNL     1      23.800  -8.925   9.264  1.00  0.00     0.039 C 
ENDBRANCH   5   6
ENDBRANCH   4   5
ENDBRANCH   1   4
BRANCH   2  10
ATOM     10  C   UNL     1      23.030  -2.287   8.750  1.00  0.00     0.035 C 
BRANCH  10  11
ATOM     11  C   UNL     1      22.760  -1.214   7.693  1.00  0.00     0.079 C 
BRANCH  11  12
ATOM     12  C   UNL     1      21.327  -1.268   7.233  1.00  0.00     0.130 C 
ATOM     13  O   UNL     1      20.491  -0.572   7.789  1.00  0.00    -0.300 OA
ATOM     14  C   UNL     1      20.901  -2.165   6.110  1.00  0.00     0.087 C 
ENDBRANCH  11  12
ENDBRANCH  10  11
ENDBRANCH   2  10
TORSDOF 6
ENDMDL
MODEL 5
REMARK VINA RESULT:    -4.840      0.645      1.133
REMARK INTER + INTRA:          -7.363
REMARK INTER:                  -6.704
REMARK INTRA:                  -0.659
REMARK UNBOUND:                -0.826
REMARK SMILES CC(=O)CCC=C(C)CCC=C(C)C
REMARK SMILES IDX 7 1 6 2 8 3 9 4 10 5 11 6 13 7 12 8 14 9 5 10 4 11 2 12 3 13
REMARK SMILES IDX 1 14
REMARK H PARENT
REMARK Flexibility Score: inf
ROOT
ATOM      1  C   UNL     1      23.330  -4.728   7.529  1.00  0.00    -0.077 C 
ATOM      2  C   UNL     1      22.949  -4.121   6.382  1.00  0.00    -0.028 C 
ATOM      3  C   UNL     1      23.464  -3.967   8.828  1.00  0.00     0.039 C 
ENDROOT
BRANCH   1   4
ATOM      4  C   UNL     1      23.622  -6.212   7.510  1.00  0.00     0.034 C 
BRANCH   4   5
ATOM      5  C   UNL     1      24.138  -6.684   8.874  1.00  0.00     0.032 C 
BRANCH   5   6
ATOM      6  C   UNL     1      23.139  -7.602   9.535  1.00  0.00    -0.028 C 
ATOM      7  C   UNL     1      22.191  -9.735  10.303  1.00  0.00     0.039 C 
ATOM      8  C   UNL     1      23.249  -8.949   9.572  1.00  0.00    -0.080 C 
ATOM      9  C   UNL     1      24.383  -9.679   8.892  1.00  0.00     0.039 C 
ENDBRANCH   5   6
ENDBRANCH   4   5
ENDBRANCH   1   4
BRANCH   2  10
ATOM     10  C   UNL     1      22.668  -2.644   6.250  1.00  0.00     0.035 C 
BRANCH  10  11
ATOM     11  C   UNL     1      21.167  -2.390   6.085  1.00  0.00     0.079 C 
BRANCH  11  12
ATOM     12  C   UNL     1      20.568  -1.890   7.374  1.00  0.00     0.130 C 
ATOM     13  O   UNL     1      20.017  -2.679   8.126  1.00  0.00    -0.300 OA
ATOM     14  C   UNL     1      20.626  -0.440   7.750  1.00  0.00     0.087 C 
ENDBRANCH  11  12
ENDBRANCH  10  11
ENDBRANCH   2  10
TORSDOF 6
ENDMDL
MODEL 6
REMARK VINA RESULT:    -4.810      1.955      3.532
REMARK INTER + INTRA:          -7.323
REMARK INTER:                  -6.598
REMARK INTRA:                  -0.725
REMARK UNBOUND:                -0.826
REMARK SMILES CC(=O)CCC=C(C)CCC=C(C)C
REMARK SMILES IDX 7 1 6 2 8 3 9 4 10 5 11 6 13 7 12 8 14 9 5 10 4 11 2 12 3 13
REMARK SMILES IDX 1 14
REMARK H PARENT
REMARK Flexibility Score: inf
ROOT
ATOM      1  C   UNL     1      22.984  -7.247  10.042  1.00  0.00    -0.077 C 
ATOM      2  C   UNL     1      23.255  -6.351   9.066  1.00  0.00    -0.028 C 
ATOM      3  C   UNL     1      22.492  -6.818  11.405  1.00  0.00     0.039 C 
ENDROOT
BRANCH   1   4
ATOM      4  C   UNL     1      23.173  -8.721   9.756  1.00  0.00     0.034 C 
BRANCH   4   5
ATOM      5  C   UNL     1      23.718  -8.936   8.339  1.00  0.00     0.032 C 
BRANCH   5   6
ATOM      6  C   UNL     1      24.998  -9.733   8.375  1.00  0.00    -0.028 C 
ATOM      7  C   UNL     1      27.422 -10.125   8.269  1.00  0.00     0.039 C 
ATOM      8  C   UNL     1      26.228  -9.212   8.165  1.00  0.00    -0.080 C 
ATOM      9  C   UNL     1      26.431  -7.756   7.814  1.00  0.00     0.039 C 
ENDBRANCH   5   6
ENDBRANCH   4   5
ENDBRANCH   1   4
BRANCH   2  10
ATOM     10  C   UNL     1      23.151  -4.854   9.228  1.00  0.00     0.035 C 
BRANCH  10  11
ATOM     11  C   UNL     1      22.823  -4.185   7.890  1.00  0.00     0.079 C 
BRANCH  11  12
ATOM     12  C   UNL     1      21.836  -3.064   8.084  1.00  0.00     0.130 C 
ATOM     13  O   UNL     1      20.703  -3.319   8.463  1.00  0.00    -0.300 OA
ATOM     14  C   UNL     1      22.212  -1.638   7.811  1.00  0.00     0.087 C 
ENDBRANCH  11  12
ENDBRANCH  10  11
ENDBRANCH   2  10
TORSDOF 6
ENDMDL
MODEL 7
REMARK VINA RESULT:    -4.786      1.457      2.057
REMARK INTER + INTRA:          -7.290
REMARK INTER:                  -6.801
REMARK INTRA:                  -0.490
REMARK UNBOUND:                -0.826
REMARK SMILES CC(=O)CCC=C(C)CCC=C(C)C
REMARK SMILES IDX 7 1 6 2 8 3 9 4 10 5 11 6 13 7 12 8 14 9 5 10 4 11 2 12 3 13
REMARK SMILES IDX 1 14
REMARK H PARENT
REMARK Flexibility Score: inf
ROOT
ATOM      1  C   UNL     1      24.423  -4.057   7.481  1.00  0.00    -0.077 C 
ATOM      2  C   UNL     1      23.180  -3.526   7.428  1.00  0.00    -0.028 C 
ATOM      3  C   UNL     1      25.530  -3.589   6.564  1.00  0.00     0.039 C 
ENDROOT
BRANCH   1   4
ATOM      4  C   UNL     1      24.713  -5.142   8.494  1.00  0.00     0.034 C 
BRANCH   4   5
ATOM      5  C   UNL     1      24.155  -6.490   8.023  1.00  0.00     0.032 C 
BRANCH   5   6
ATOM      6  C   UNL     1      25.242  -7.536   7.989  1.00  0.00    -0.028 C 
ATOM      7  C   UNL     1      26.282  -9.729   8.371  1.00  0.00     0.039 C 
ATOM      8  C   UNL     1      25.124  -8.777   8.514  1.00  0.00    -0.080 C 
ATOM      9  C   UNL     1      23.880  -9.221   9.247  1.00  0.00     0.039 C 
ENDBRANCH   5   6
ENDBRANCH   4   5
ENDBRANCH   1   4
BRANCH   2  10
ATOM     10  C   UNL     1      22.744  -2.470   6.442  1.00  0.00     0.035 C 
BRANCH  10  11
ATOM     11  C   UNL     1      21.228  -2.515   6.235  1.00  0.00     0.079 C 
BRANCH  11  12
ATOM     12  C   UNL     1      20.510  -1.946   7.431  1.00  0.00     0.130 C 
ATOM     13  O   UNL     1      19.830  -2.681   8.130  1.00  0.00    -0.300 OA
ATOM     14  C   UNL     1      20.606  -0.491   7.779  1.00  0.00     0.087 C 
ENDBRANCH  11  12
ENDBRANCH  10  11
ENDBRANCH   2  10
TORSDOF 6
ENDMDL
MODEL 8
REMARK VINA RESULT:    -4.717      2.385      5.918
REMARK INTER + INTRA:          -7.197
REMARK INTER:                  -6.356
REMARK INTRA:                  -0.841
REMARK UNBOUND:                -0.826
REMARK SMILES CC(=O)CCC=C(C)CCC=C(C)C
REMARK SMILES IDX 7 1 6 2 8 3 9 4 10 5 11 6 13 7 12 8 14 9 5 10 4 11 2 12 3 13
REMARK SMILES IDX 1 14
REMARK H PARENT
REMARK Flexibility Score: inf
ROOT
ATOM      1  C   UNL     1      24.432  -5.506   7.667  1.00  0.00    -0.077 C 
ATOM      2  C   UNL     1      24.454  -6.839   7.444  1.00  0.00    -0.028 C 
ATOM      3  C   UNL     1      24.428  -4.930   9.064  1.00  0.00     0.039 C 
ENDROOT
BRANCH   1   4
ATOM      4  C   UNL     1      24.420  -4.565   6.481  1.00  0.00     0.034 C 
BRANCH   4   5
ATOM      5  C   UNL     1      24.271  -3.110   6.942  1.00  0.00     0.032 C 
BRANCH   5   6
ATOM      6  C   UNL     1      23.117  -2.442   6.235  1.00  0.00    -0.028 C 
ATOM      7  C   UNL     1      20.823  -1.613   5.936  1.00  0.00     0.039 C 
ATOM      8  C   UNL     1      21.867  -2.344   6.741  1.00  0.00    -0.080 C 
ATOM      9  C   UNL     1      21.489  -2.957   8.068  1.00  0.00     0.039 C 
ENDBRANCH   5   6
ENDBRANCH   4   5
ENDBRANCH   1   4
BRANCH   2  10
ATOM     10  C   UNL     1      24.427  -7.887   8.530  1.00  0.00     0.035 C 
BRANCH  10  11
ATOM     11  C   UNL     1      23.061  -8.575   8.585  1.00  0.00     0.079 C 
BRANCH  11  12
ATOM     12  C   UNL     1      22.556  -8.642  10.003  1.00  0.00     0.130 C 
ATOM     13  O   UNL     1      22.101  -9.692  10.430  1.00  0.00    -0.300 OA
ATOM     14  C   UNL     1      22.591  -7.442  10.901  1.00  0.00     0.087 C 
ENDBRANCH  11  12
ENDBRANCH  10  11
ENDBRANCH   2  10
TORSDOF 6
ENDMDL
MODEL 9
REMARK VINA RESULT:    -4.620      2.416      6.333
REMARK INTER + INTRA:          -7.066
REMARK INTER:                  -6.250
REMARK INTRA:                  -0.816
REMARK UNBOUND:                -0.826
REMARK SMILES CC(=O)CCC=C(C)CCC=C(C)C
REMARK SMILES IDX 7 1 6 2 8 3 9 4 10 5 11 6 13 7 12 8 14 9 5 10 4 11 2 12 3 13
REMARK SMILES IDX 1 14
REMARK H PARENT
REMARK Flexibility Score: inf
ROOT
ATOM      1  C   UNL     1      23.831  -4.943   7.908  1.00  0.00    -0.077 C 
ATOM      2  C   UNL     1      24.442  -5.921   8.614  1.00  0.00    -0.028 C 
ATOM      3  C   UNL     1      23.322  -5.171   6.503  1.00  0.00     0.039 C 
ENDROOT
BRANCH   1   4
ATOM      4  C   UNL     1      23.645  -3.584   8.548  1.00  0.00     0.034 C 
BRANCH   4   5
ATOM      5  C   UNL     1      23.617  -2.480   7.485  1.00  0.00     0.032 C 
BRANCH   5   6
ATOM      6  C   UNL     1      22.610  -1.416   7.846  1.00  0.00    -0.028 C 
ATOM      7  C   UNL     1      20.468  -0.214   7.780  1.00  0.00     0.039 C 
ATOM      8  C   UNL     1      21.382  -1.308   7.291  1.00  0.00    -0.080 C 
ATOM      9  C   UNL     1      20.915  -2.234   6.193  1.00  0.00     0.039 C 
ENDBRANCH   5   6
ENDBRANCH   4   5
ENDBRANCH   1   4
BRANCH   2  10
ATOM     10  C   UNL     1      24.729  -7.304   8.085  1.00  0.00     0.035 C 
BRANCH  10  11
ATOM     11  C   UNL     1      23.976  -8.362   8.896  1.00  0.00     0.079 C 
BRANCH  11  12
ATOM     12  C   UNL     1      22.931  -9.039   8.047  1.00  0.00     0.130 C 
ATOM     13  O   UNL     1      22.105  -9.767   8.577  1.00  0.00    -0.300 OA
ATOM     14  C   UNL     1      22.887  -8.845   6.561  1.00  0.00     0.087 C 
ENDBRANCH  11  12
ENDBRANCH  10  11
ENDBRANCH   2  10
TORSDOF 6
ENDMDL
