MODEL 1
REMARK VINA RESULT:    -4.745      0.000      0.000
REMARK INTER + INTRA:          -5.398
REMARK INTER:                  -5.161
REMARK INTRA:                  -0.237
REMARK UNBOUND:                -0.237
REMARK SMILES O=C([O-])c1ccccc1O
REMARK SMILES IDX 4 1 9 2 5 3 8 4 6 5 7 6 2 7 1 8 3 9 10 10
REMARK H PARENT 10 11
REMARK Flexibility Score: inf
ROOT
ATOM      1  C   UNL     1      -8.379  -9.548  28.964  1.00  0.00     0.039 A 
ATOM      2  C   UNL     1      -9.621  -9.041  29.414  1.00  0.00     0.124 A 
ATOM      3  C   UNL     1      -7.214  -9.239  29.694  1.00  0.00     0.014 A 
ATOM      4  C   UNL     1      -9.674  -8.247  30.570  1.00  0.00     0.047 A 
ATOM      5  C   UNL     1      -7.282  -8.447  30.842  1.00  0.00     0.001 A 
ATOM      6  C   UNL     1      -8.509  -7.951  31.280  1.00  0.00     0.004 A 
ENDROOT
BRANCH   1   7
ATOM      7  C   UNL     1      -8.269 -10.393  27.747  1.00  0.00     0.075 C 
ATOM      8  O   UNL     1      -9.010 -10.193  26.749  1.00  0.00    -0.545 OA
ATOM      9  O   UNL     1      -7.339 -11.425  27.692  1.00  0.00    -0.545 OA
ENDBRANCH   1   7
BRANCH   2  10
ATOM     10  O   UNL     1     -10.800  -9.321  28.723  1.00  0.00    -0.507 OA
ATOM     11  H   UNL     1     -11.233 -10.236  28.758  1.00  0.00     0.293 HD
ENDBRANCH   2  10
TORSDOF 2
ENDMDL
MODEL 2
REMARK VINA RESULT:    -4.654      2.310      3.538
REMARK INTER + INTRA:          -5.298
REMARK INTER:                  -5.071
REMARK INTRA:                  -0.227
REMARK UNBOUND:                -0.237
REMARK SMILES O=C([O-])c1ccccc1O
REMARK SMILES IDX 4 1 9 2 5 3 8 4 6 5 7 6 2 7 1 8 3 9 10 10
REMARK H PARENT 10 11
REMARK Flexibility Score: inf
ROOT
ATOM      1  C   UNL     1      -8.013  -8.958  29.785  1.00  0.00     0.039 A 
ATOM      2  C   UNL     1      -9.275  -8.490  29.349  1.00  0.00     0.124 A 
ATOM      3  C   UNL     1      -7.362  -9.958  29.036  1.00  0.00     0.014 A 
ATOM      4  C   UNL     1      -9.854  -9.022  28.187  1.00  0.00     0.047 A 
ATOM      5  C   UNL     1      -7.952 -10.479  27.882  1.00  0.00     0.001 A 
ATOM      6  C   UNL     1      -9.195 -10.013  27.458  1.00  0.00     0.004 A 
ENDROOT
BRANCH   1   7
ATOM      7  C   UNL     1      -7.357  -8.427  31.008  1.00  0.00     0.075 C 
ATOM      8  O   UNL     1      -6.102  -8.393  31.109  1.00  0.00    -0.545 OA
ATOM      9  O   UNL     1      -8.125  -7.954  32.067  1.00  0.00    -0.545 OA
ENDBRANCH   1   7
BRANCH   2  10
ATOM     10  O   UNL     1      -9.955  -7.502  30.060  1.00  0.00    -0.507 OA
ATOM     11  H   UNL     1      -9.712  -6.522  29.976  1.00  0.00     0.293 HD
ENDBRANCH   2  10
TORSDOF 2
ENDMDL
MODEL 3
REMARK VINA RESULT:    -4.575      1.002      1.426
REMARK INTER + INTRA:          -5.212
REMARK INTER:                  -5.002
REMARK INTRA:                  -0.210
REMARK UNBOUND:                -0.237
REMARK SMILES O=C([O-])c1ccccc1O
REMARK SMILES IDX 4 1 9 2 5 3 8 4 6 5 7 6 2 7 1 8 3 9 10 10
REMARK H PARENT 10 11
REMARK Flexibility Score: inf
ROOT
ATOM      1  C   UNL     1      -8.468  -9.011  29.513  1.00  0.00     0.039 A 
ATOM      2  C   UNL     1      -9.216  -8.448  30.575  1.00  0.00     0.124 A 
ATOM      3  C   UNL     1      -7.067  -9.095  29.638  1.00  0.00     0.014 A 
ATOM      4  C   UNL     1      -8.558  -7.990  31.727  1.00  0.00     0.047 A 
ATOM      5  C   UNL     1      -6.426  -8.633  30.790  1.00  0.00     0.001 A 
ATOM      6  C   UNL     1      -7.169  -8.081  31.832  1.00  0.00     0.004 A 
ENDROOT
BRANCH   1   7
ATOM      7  C   UNL     1      -9.117  -9.511  28.273  1.00  0.00     0.075 C 
ATOM      8  O   UNL     1     -10.249  -9.091  27.918  1.00  0.00    -0.545 OA
ATOM      9  O   UNL     1      -8.477 -10.458  27.481  1.00  0.00    -0.545 OA
ENDBRANCH   1   7
BRANCH   2  10
ATOM     10  O   UNL     1     -10.604  -8.344  30.494  1.00  0.00    -0.507 OA
ATOM     11  H   UNL     1     -11.198  -9.164  30.439  1.00  0.00     0.293 HD
ENDBRANCH   2  10
TORSDOF 2
ENDMDL
MODEL 4
REMARK VINA RESULT:    -4.511      1.710      3.402
REMARK INTER + INTRA:          -5.144
REMARK INTER:                  -4.902
REMARK INTRA:                  -0.242
REMARK UNBOUND:                -0.237
REMARK SMILES O=C([O-])c1ccccc1O
REMARK SMILES IDX 4 1 9 2 5 3 8 4 6 5 7 6 2 7 1 8 3 9 10 10
REMARK H PARENT 10 11
REMARK Flexibility Score: inf
ROOT
ATOM      1  C   UNL     1      -8.553  -9.298  29.701  1.00  0.00     0.039 A 
ATOM      2  C   UNL     1      -9.268  -9.582  28.514  1.00  0.00     0.124 A 
ATOM      3  C   UNL     1      -7.209  -9.709  29.800  1.00  0.00     0.014 A 
ATOM      4  C   UNL     1      -8.635 -10.262  27.461  1.00  0.00     0.047 A 
ATOM      5  C   UNL     1      -6.592 -10.386  28.745  1.00  0.00     0.001 A 
ATOM      6  C   UNL     1      -7.302 -10.662  27.578  1.00  0.00     0.004 A 
ENDROOT
BRANCH   1   7
ATOM      7  C   UNL     1      -9.177  -8.582  30.843  1.00  0.00     0.075 C 
ATOM      8  O   UNL     1     -10.377  -8.792  31.163  1.00  0.00    -0.545 OA
ATOM      9  O   UNL     1      -8.440  -7.662  31.581  1.00  0.00    -0.545 OA
ENDBRANCH   1   7
BRANCH   2  10
ATOM     10  O   UNL     1     -10.600  -9.194  28.372  1.00  0.00    -0.507 OA
ATOM     11  H   UNL     1     -10.884  -8.502  27.688  1.00  0.00     0.293 HD
ENDBRANCH   2  10
TORSDOF 2
ENDMDL
MODEL 5
REMARK VINA RESULT:    -4.378      1.898      2.603
REMARK INTER + INTRA:          -4.998
REMARK INTER:                  -4.746
REMARK INTRA:                  -0.253
REMARK UNBOUND:                -0.237
REMARK SMILES O=C([O-])c1ccccc1O
REMARK SMILES IDX 4 1 9 2 5 3 8 4 6 5 7 6 2 7 1 8 3 9 10 10
REMARK H PARENT 10 11
REMARK Flexibility Score: inf
ROOT
ATOM      1  C   UNL     1      -7.525  -9.841  28.793  1.00  0.00     0.039 A 
ATOM      2  C   UNL     1      -7.082  -8.994  29.836  1.00  0.00     0.124 A 
ATOM      3  C   UNL     1      -8.887  -9.823  28.433  1.00  0.00     0.014 A 
ATOM      4  C   UNL     1      -7.997  -8.155  30.491  1.00  0.00     0.047 A 
ATOM      5  C   UNL     1      -9.786  -8.983  29.095  1.00  0.00     0.001 A 
ATOM      6  C   UNL     1      -9.343  -8.151  30.121  1.00  0.00     0.004 A 
ENDROOT
BRANCH   1   7
ATOM      7  C   UNL     1      -6.596 -10.747  28.068  1.00  0.00     0.075 C 
ATOM      8  O   UNL     1      -6.547 -10.756  26.810  1.00  0.00    -0.545 OA
ATOM      9  O   UNL     1      -5.761 -11.605  28.775  1.00  0.00    -0.545 OA
ENDBRANCH   1   7
BRANCH   2  10
ATOM     10  O   UNL     1      -5.743  -8.979  30.225  1.00  0.00    -0.507 OA
ATOM     11  H   UNL     1      -5.021  -9.422  29.668  1.00  0.00     0.293 HD
ENDBRANCH   2  10
TORSDOF 2
ENDMDL
MODEL 6
REMARK VINA RESULT:    -4.140      1.859      3.256
REMARK INTER + INTRA:          -4.740
REMARK INTER:                  -4.509
REMARK INTRA:                  -0.231
REMARK UNBOUND:                -0.237
REMARK SMILES O=C([O-])c1ccccc1O
REMARK SMILES IDX 4 1 9 2 5 3 8 4 6 5 7 6 2 7 1 8 3 9 10 10
REMARK H PARENT 10 11
REMARK Flexibility Score: inf
ROOT
ATOM      1  C   UNL     1      -7.375  -9.756  29.554  1.00  0.00     0.039 A 
ATOM      2  C   UNL     1      -7.935 -10.431  28.443  1.00  0.00     0.124 A 
ATOM      3  C   UNL     1      -8.054  -8.641  30.085  1.00  0.00     0.014 A 
ATOM      4  C   UNL     1      -9.147  -9.986  27.893  1.00  0.00     0.047 A 
ATOM      5  C   UNL     1      -9.259  -8.209  29.526  1.00  0.00     0.001 A 
ATOM      6  C   UNL     1      -9.805  -8.880  28.433  1.00  0.00     0.004 A 
ENDROOT
BRANCH   1   7
ATOM      7  C   UNL     1      -6.095 -10.187  30.173  1.00  0.00     0.075 C 
ATOM      8  O   UNL     1      -5.760 -11.400  30.193  1.00  0.00    -0.545 OA
ATOM      9  O   UNL     1      -5.241  -9.249  30.742  1.00  0.00    -0.545 OA
ENDBRANCH   1   7
BRANCH   2  10
ATOM     10  O   UNL     1      -7.297 -11.538  27.885  1.00  0.00    -0.507 OA
ATOM     11  H   UNL     1      -7.719 -12.074  27.135  1.00  0.00     0.293 HD
ENDBRANCH   2  10
TORSDOF 2
ENDMDL
MODEL 7
REMARK VINA RESULT:    -4.128      2.276      4.058
REMARK INTER + INTRA:          -4.726
REMARK INTER:                  -4.479
REMARK INTRA:                  -0.247
REMARK UNBOUND:                -0.237
REMARK SMILES O=C([O-])c1ccccc1O
REMARK SMILES IDX 4 1 9 2 5 3 8 4 6 5 7 6 2 7 1 8 3 9 10 10
REMARK H PARENT 10 11
REMARK Flexibility Score: inf
ROOT
ATOM      1  C   UNL     1      -8.798  -9.471  30.176  1.00  0.00     0.039 A 
ATOM      2  C   UNL     1      -7.935 -10.367  29.501  1.00  0.00     0.124 A 
ATOM      3  C   UNL     1      -9.814  -8.825  29.444  1.00  0.00     0.014 A 
ATOM      4  C   UNL     1      -8.101 -10.597  28.127  1.00  0.00     0.047 A 
ATOM      5  C   UNL     1      -9.966  -9.063  28.076  1.00  0.00     0.001 A 
ATOM      6  C   UNL     1      -9.113  -9.947  27.418  1.00  0.00     0.004 A 
ENDROOT
BRANCH   1   7
ATOM      7  C   UNL     1      -8.664  -9.194  31.629  1.00  0.00     0.075 C 
ATOM      8  O   UNL     1      -8.651 -10.131  32.470  1.00  0.00    -0.545 OA
ATOM      9  O   UNL     1      -8.550  -7.885  32.085  1.00  0.00    -0.545 OA
ENDBRANCH   1   7
BRANCH   2  10
ATOM     10  O   UNL     1      -6.916 -11.029  30.186  1.00  0.00    -0.507 OA
ATOM     11  H   UNL     1      -6.991 -11.246  31.173  1.00  0.00     0.293 HD
ENDBRANCH   2  10
TORSDOF 2
ENDMDL
MODEL 8
REMARK VINA RESULT:    -4.091      7.675      9.856
REMARK INTER + INTRA:          -4.686
REMARK INTER:                  -4.436
REMARK INTRA:                  -0.251
REMARK UNBOUND:                -0.237
REMARK SMILES O=C([O-])c1ccccc1O
REMARK SMILES IDX 4 1 9 2 5 3 8 4 6 5 7 6 2 7 1 8 3 9 10 10
REMARK H PARENT 10 11
REMARK Flexibility Score: inf
ROOT
ATOM      1  C   UNL     1      -9.379 -12.647  20.857  1.00  0.00     0.039 A 
ATOM      2  C   UNL     1     -10.158 -12.063  19.830  1.00  0.00     0.124 A 
ATOM      3  C   UNL     1      -8.362 -13.556  20.506  1.00  0.00     0.014 A 
ATOM      4  C   UNL     1      -9.908 -12.394  18.489  1.00  0.00     0.047 A 
ATOM      5  C   UNL     1      -8.125 -13.876  19.167  1.00  0.00     0.001 A 
ATOM      6  C   UNL     1      -8.896 -13.298  18.161  1.00  0.00     0.004 A 
ENDROOT
BRANCH   1   7
ATOM      7  C   UNL     1      -9.604 -12.329  22.291  1.00  0.00     0.075 C 
ATOM      8  O   UNL     1     -10.758 -12.374  22.793  1.00  0.00    -0.545 OA
ATOM      9  O   UNL     1      -8.534 -11.976  23.107  1.00  0.00    -0.545 OA
ENDBRANCH   1   7
BRANCH   2  10
ATOM     10  O   UNL     1     -11.176 -11.158  20.132  1.00  0.00    -0.507 OA
ATOM     11  H   UNL     1     -11.202 -10.231  19.724  1.00  0.00     0.293 HD
ENDBRANCH   2  10
TORSDOF 2
ENDMDL
MODEL 9
REMARK VINA RESULT:    -3.930      5.841      7.749
REMARK INTER + INTRA:          -4.511
REMARK INTER:                  -4.262
REMARK INTRA:                  -0.250
REMARK UNBOUND:                -0.237
REMARK SMILES O=C([O-])c1ccccc1O
REMARK SMILES IDX 4 1 9 2 5 3 8 4 6 5 7 6 2 7 1 8 3 9 10 10
REMARK H PARENT 10 11
REMARK Flexibility Score: inf
ROOT
ATOM      1  C   UNL     1      -7.575 -11.964  22.928  1.00  0.00     0.039 A 
ATOM      2  C   UNL     1      -8.950 -12.221  22.716  1.00  0.00     0.124 A 
ATOM      3  C   UNL     1      -6.624 -12.748  22.245  1.00  0.00     0.014 A 
ATOM      4  C   UNL     1      -9.344 -13.242  21.838  1.00  0.00     0.047 A 
ATOM      5  C   UNL     1      -7.031 -13.762  21.374  1.00  0.00     0.001 A 
ATOM      6  C   UNL     1      -8.387 -14.009  21.171  1.00  0.00     0.004 A 
ENDROOT
BRANCH   1   7
ATOM      7  C   UNL     1      -7.106 -10.895  23.847  1.00  0.00     0.075 C 
ATOM      8  O   UNL     1      -6.295 -10.014  23.458  1.00  0.00    -0.545 OA
ATOM      9  O   UNL     1      -7.562 -10.850  25.160  1.00  0.00    -0.545 OA
ENDBRANCH   1   7
BRANCH   2  10
ATOM     10  O   UNL     1      -9.926 -11.470  23.371  1.00  0.00    -0.507 OA
ATOM     11  H   UNL     1      -9.685 -10.779  24.073  1.00  0.00     0.293 HD
ENDBRANCH   2  10
TORSDOF 2
ENDMDL
