MODEL 1
REMARK VINA RESULT:    -4.395      0.000      0.000
REMARK INTER + INTRA:          -7.023
REMARK INTER:                  -5.937
REMARK INTRA:                  -1.086
REMARK UNBOUND:                -1.086
REMARK SMILES CC(=O)CCC=C(C)CCC=C(C)C
REMARK SMILES IDX 7 1 6 2 8 3 9 4 10 5 11 6 13 7 12 8 14 9 5 10 4 11 2 12 3 13
REMARK SMILES IDX 1 14
REMARK H PARENT
REMARK Flexibility Score: inf
ROOT
ATOM      1  C   UNL     1       4.879  -2.213  -2.769  1.00  0.00    -0.077 C 
ATOM      2  C   UNL     1       5.889  -2.278  -3.667  1.00  0.00    -0.028 C 
ATOM      3  C   UNL     1       4.103  -3.439  -2.350  1.00  0.00     0.039 C 
ENDROOT
BRANCH   1   4
ATOM      4  C   UNL     1       4.504  -0.867  -2.181  1.00  0.00     0.034 C 
BRANCH   4   5
ATOM      5  C   UNL     1       5.512  -0.403  -1.120  1.00  0.00     0.032 C 
BRANCH   5   6
ATOM      6  C   UNL     1       5.043  -0.728   0.279  1.00  0.00    -0.028 C 
ATOM      7  C   UNL     1       6.377  -2.843   0.420  1.00  0.00     0.039 C 
ATOM      8  C   UNL     1       5.397  -1.834   0.970  1.00  0.00    -0.080 C 
ATOM      9  C   UNL     1       4.804  -2.044   2.339  1.00  0.00     0.039 C 
ENDBRANCH   5   6
ENDBRANCH   4   5
ENDBRANCH   1   4
BRANCH   2  10
ATOM     10  C   UNL     1       6.384  -3.553  -4.302  1.00  0.00     0.035 C 
BRANCH  10  11
ATOM     11  C   UNL     1       5.941  -3.639  -5.766  1.00  0.00     0.079 C 
BRANCH  11  12
ATOM     12  C   UNL     1       4.595  -4.305  -5.876  1.00  0.00     0.130 C 
ATOM     13  O   UNL     1       4.494  -5.500  -5.643  1.00  0.00    -0.300 OA
ATOM     14  C   UNL     1       3.370  -3.530  -6.258  1.00  0.00     0.087 C 
ENDBRANCH  11  12
ENDBRANCH  10  11
ENDBRANCH   2  10
TORSDOF 6
ENDMDL
MODEL 2
REMARK VINA RESULT:    -4.320      2.923      5.130
REMARK INTER + INTRA:          -6.921
REMARK INTER:                  -5.623
REMARK INTRA:                  -1.298
REMARK UNBOUND:                -1.086
REMARK SMILES CC(=O)CCC=C(C)CCC=C(C)C
REMARK SMILES IDX 7 1 6 2 8 3 9 4 10 5 11 6 13 7 12 8 14 9 5 10 4 11 2 12 3 13
REMARK SMILES IDX 1 14
REMARK H PARENT
REMARK Flexibility Score: inf
ROOT
ATOM      1  C   UNL     1       5.062  -2.629  -2.994  1.00  0.00    -0.077 C 
ATOM      2  C   UNL     1       5.127  -1.471  -2.296  1.00  0.00    -0.028 C 
ATOM      3  C   UNL     1       4.230  -3.799  -2.525  1.00  0.00     0.039 C 
ENDROOT
BRANCH   1   4
ATOM      4  C   UNL     1       5.864  -2.761  -4.274  1.00  0.00     0.034 C 
BRANCH   4   5
ATOM      5  C   UNL     1       7.364  -2.535  -4.037  1.00  0.00     0.032 C 
BRANCH   5   6
ATOM      6  C   UNL     1       7.894  -3.411  -2.926  1.00  0.00    -0.028 C 
ATOM      7  C   UNL     1       8.648  -1.476  -1.526  1.00  0.00     0.039 C 
ATOM      8  C   UNL     1       8.499  -2.952  -1.809  1.00  0.00    -0.080 C 
ATOM      9  C   UNL     1       9.021  -3.955  -0.813  1.00  0.00     0.039 C 
ENDBRANCH   5   6
ENDBRANCH   4   5
ENDBRANCH   1   4
BRANCH   2  10
ATOM     10  C   UNL     1       4.357  -1.196  -1.029  1.00  0.00     0.035 C 
BRANCH  10  11
ATOM     11  C   UNL     1       5.304  -0.791   0.106  1.00  0.00     0.079 C 
BRANCH  11  12
ATOM     12  C   UNL     1       5.401  -1.887   1.134  1.00  0.00     0.130 C 
ATOM     13  O   UNL     1       5.268  -1.615   2.318  1.00  0.00    -0.300 OA
ATOM     14  C   UNL     1       5.650  -3.311   0.736  1.00  0.00     0.087 C 
ENDBRANCH  11  12
ENDBRANCH  10  11
ENDBRANCH   2  10
TORSDOF 6
ENDMDL
MODEL 3
REMARK VINA RESULT:    -4.257      1.630      2.744
REMARK INTER + INTRA:          -6.836
REMARK INTER:                  -5.854
REMARK INTRA:                  -0.982
REMARK UNBOUND:                -1.086
REMARK SMILES CC(=O)CCC=C(C)CCC=C(C)C
REMARK SMILES IDX 7 1 6 2 8 3 9 4 10 5 11 6 13 7 12 8 14 9 5 10 4 11 2 12 3 13
REMARK SMILES IDX 1 14
REMARK H PARENT
REMARK Flexibility Score: inf
ROOT
ATOM      1  C   UNL     1       5.502  -4.483  -1.023  1.00  0.00    -0.077 C 
ATOM      2  C   UNL     1       4.545  -4.220  -1.943  1.00  0.00    -0.028 C 
ATOM      3  C   UNL     1       6.807  -5.146  -1.396  1.00  0.00     0.039 C 
ENDROOT
BRANCH   1   4
ATOM      4  C   UNL     1       5.248  -4.119   0.426  1.00  0.00     0.034 C 
BRANCH   4   5
ATOM      5  C   UNL     1       5.934  -2.801   0.815  1.00  0.00     0.032 C 
BRANCH   5   6
ATOM      6  C   UNL     1       5.203  -1.603   0.257  1.00  0.00    -0.028 C 
ATOM      7  C   UNL     1       6.956  -1.121  -1.466  1.00  0.00     0.039 C 
ATOM      8  C   UNL     1       5.663  -0.822  -0.745  1.00  0.00    -0.080 C 
ATOM      9  C   UNL     1       4.841   0.371  -1.159  1.00  0.00     0.039 C 
ENDBRANCH   5   6
ENDBRANCH   4   5
ENDBRANCH   1   4
BRANCH   2  10
ATOM     10  C   UNL     1       4.681  -4.500  -3.418  1.00  0.00     0.035 C 
BRANCH  10  11
ATOM     11  C   UNL     1       4.405  -3.236  -4.239  1.00  0.00     0.079 C 
BRANCH  11  12
ATOM     12  C   UNL     1       3.315  -3.485  -5.248  1.00  0.00     0.130 C 
ATOM     13  O   UNL     1       2.323  -4.118  -4.918  1.00  0.00    -0.300 OA
ATOM     14  C   UNL     1       3.415  -2.964  -6.650  1.00  0.00     0.087 C 
ENDBRANCH  11  12
ENDBRANCH  10  11
ENDBRANCH   2  10
TORSDOF 6
ENDMDL
MODEL 4
REMARK VINA RESULT:    -4.184      1.655      2.759
REMARK INTER + INTRA:          -6.738
REMARK INTER:                  -5.411
REMARK INTRA:                  -1.326
REMARK UNBOUND:                -1.086
REMARK SMILES CC(=O)CCC=C(C)CCC=C(C)C
REMARK SMILES IDX 7 1 6 2 8 3 9 4 10 5 11 6 13 7 12 8 14 9 5 10 4 11 2 12 3 13
REMARK SMILES IDX 1 14
REMARK H PARENT
REMARK Flexibility Score: inf
ROOT
ATOM      1  C   UNL     1       7.680  -3.007  -3.162  1.00  0.00    -0.077 C 
ATOM      2  C   UNL     1       6.695  -2.335  -3.804  1.00  0.00    -0.028 C 
ATOM      3  C   UNL     1       7.959  -4.466  -3.434  1.00  0.00     0.039 C 
ENDROOT
BRANCH   1   4
ATOM      4  C   UNL     1       8.513  -2.278  -2.127  1.00  0.00     0.034 C 
BRANCH   4   5
ATOM      5  C   UNL     1       7.801  -1.025  -1.596  1.00  0.00     0.032 C 
BRANCH   5   6
ATOM      6  C   UNL     1       6.934  -1.339  -0.399  1.00  0.00    -0.028 C 
ATOM      7  C   UNL     1       4.896  -0.259  -1.376  1.00  0.00     0.039 C 
ATOM      8  C   UNL     1       5.639  -0.975  -0.273  1.00  0.00    -0.080 C 
ATOM      9  C   UNL     1       4.920  -1.318   1.006  1.00  0.00     0.039 C 
ENDBRANCH   5   6
ENDBRANCH   4   5
ENDBRANCH   1   4
BRANCH   2  10
ATOM     10  C   UNL     1       5.816  -2.929  -4.876  1.00  0.00     0.035 C 
BRANCH  10  11
ATOM     11  C   UNL     1       4.373  -3.067  -4.381  1.00  0.00     0.079 C 
BRANCH  11  12
ATOM     12  C   UNL     1       4.263  -4.169  -3.361  1.00  0.00     0.130 C 
ATOM     13  O   UNL     1       4.485  -5.323  -3.696  1.00  0.00    -0.300 OA
ATOM     14  C   UNL     1       3.894  -3.880  -1.936  1.00  0.00     0.087 C 
ENDBRANCH  11  12
ENDBRANCH  10  11
ENDBRANCH   2  10
TORSDOF 6
ENDMDL
MODEL 5
REMARK VINA RESULT:    -4.179      1.607      2.041
REMARK INTER + INTRA:          -6.731
REMARK INTER:                  -5.907
REMARK INTRA:                  -0.823
REMARK UNBOUND:                -1.086
REMARK SMILES CC(=O)CCC=C(C)CCC=C(C)C
REMARK SMILES IDX 7 1 6 2 8 3 9 4 10 5 11 6 13 7 12 8 14 9 5 10 4 11 2 12 3 13
REMARK SMILES IDX 1 14
REMARK H PARENT
REMARK Flexibility Score: inf
ROOT
ATOM      1  C   UNL     1       6.918  -1.924  -1.800  1.00  0.00    -0.077 C 
ATOM      2  C   UNL     1       6.073  -2.410  -2.739  1.00  0.00    -0.028 C 
ATOM      3  C   UNL     1       8.290  -2.517  -1.577  1.00  0.00     0.039 C 
ENDROOT
BRANCH   1   4
ATOM      4  C   UNL     1       6.467  -0.765  -0.933  1.00  0.00     0.034 C 
BRANCH   4   5
ATOM      5  C   UNL     1       5.027  -0.950  -0.433  1.00  0.00     0.032 C 
BRANCH   5   6
ATOM      6  C   UNL     1       4.956  -0.968   1.076  1.00  0.00    -0.028 C 
ATOM      7  C   UNL     1       5.433  -3.422   1.239  1.00  0.00     0.039 C 
ATOM      8  C   UNL     1       5.105  -2.074   1.837  1.00  0.00    -0.080 C 
ATOM      9  C   UNL     1       4.957  -1.941   3.331  1.00  0.00     0.039 C 
ENDBRANCH   5   6
ENDBRANCH   4   5
ENDBRANCH   1   4
BRANCH   2  10
ATOM     10  C   UNL     1       6.407  -3.535  -3.686  1.00  0.00     0.035 C 
BRANCH  10  11
ATOM     11  C   UNL     1       5.448  -4.713  -3.490  1.00  0.00     0.079 C 
BRANCH  11  12
ATOM     12  C   UNL     1       4.040  -4.318  -3.849  1.00  0.00     0.130 C 
ATOM     13  O   UNL     1       3.140  -4.498  -3.042  1.00  0.00    -0.300 OA
ATOM     14  C   UNL     1       3.717  -3.699  -5.176  1.00  0.00     0.087 C 
ENDBRANCH  11  12
ENDBRANCH  10  11
ENDBRANCH   2  10
TORSDOF 6
ENDMDL
MODEL 6
REMARK VINA RESULT:    -4.157      2.707      5.727
REMARK INTER + INTRA:          -6.701
REMARK INTER:                  -5.534
REMARK INTRA:                  -1.167
REMARK UNBOUND:                -1.086
REMARK SMILES CC(=O)CCC=C(C)CCC=C(C)C
REMARK SMILES IDX 7 1 6 2 8 3 9 4 10 5 11 6 13 7 12 8 14 9 5 10 4 11 2 12 3 13
REMARK SMILES IDX 1 14
REMARK H PARENT
REMARK Flexibility Score: inf
ROOT
ATOM      1  C   UNL     1       7.117  -1.622  -2.239  1.00  0.00    -0.077 C 
ATOM      2  C   UNL     1       5.895  -1.086  -2.013  1.00  0.00    -0.028 C 
ATOM      3  C   UNL     1       8.238  -1.504  -1.233  1.00  0.00     0.039 C 
ENDROOT
BRANCH   1   4
ATOM      4  C   UNL     1       7.374  -2.344  -3.546  1.00  0.00     0.034 C 
BRANCH   4   5
ATOM      5  C   UNL     1       6.624  -3.682  -3.619  1.00  0.00     0.032 C 
BRANCH   5   6
ATOM      6  C   UNL     1       5.410  -3.595  -4.513  1.00  0.00    -0.028 C 
ATOM      7  C   UNL     1       3.795  -4.063  -2.656  1.00  0.00     0.039 C 
ATOM      8  C   UNL     1       4.138  -3.794  -4.102  1.00  0.00    -0.080 C 
ATOM      9  C   UNL     1       3.034  -3.724  -5.126  1.00  0.00     0.039 C 
ENDBRANCH   5   6
ENDBRANCH   4   5
ENDBRANCH   1   4
BRANCH   2  10
ATOM     10  C   UNL     1       5.498  -0.372  -0.746  1.00  0.00     0.035 C 
BRANCH  10  11
ATOM     11  C   UNL     1       4.544  -1.234   0.088  1.00  0.00     0.079 C 
BRANCH  11  12
ATOM     12  C   UNL     1       5.305  -2.023   1.120  1.00  0.00     0.130 C 
ATOM     13  O   UNL     1       5.574  -1.507   2.194  1.00  0.00    -0.300 OA
ATOM     14  C   UNL     1       5.735  -3.436   0.861  1.00  0.00     0.087 C 
ENDBRANCH  11  12
ENDBRANCH  10  11
ENDBRANCH   2  10
TORSDOF 6
ENDMDL
MODEL 7
REMARK VINA RESULT:    -4.124      1.594      2.628
REMARK INTER + INTRA:          -6.656
REMARK INTER:                  -5.550
REMARK INTRA:                  -1.106
REMARK UNBOUND:                -1.086
REMARK SMILES CC(=O)CCC=C(C)CCC=C(C)C
REMARK SMILES IDX 7 1 6 2 8 3 9 4 10 5 11 6 13 7 12 8 14 9 5 10 4 11 2 12 3 13
REMARK SMILES IDX 1 14
REMARK H PARENT
REMARK Flexibility Score: inf
ROOT
ATOM      1  C   UNL     1       7.172  -3.611  -2.806  1.00  0.00    -0.077 C 
ATOM      2  C   UNL     1       6.153  -4.300  -2.242  1.00  0.00    -0.028 C 
ATOM      3  C   UNL     1       7.362  -3.549  -4.304  1.00  0.00     0.039 C 
ENDROOT
BRANCH   1   4
ATOM      4  C   UNL     1       8.163  -2.897  -1.909  1.00  0.00     0.034 C 
BRANCH   4   5
ATOM      5  C   UNL     1       7.801  -1.416  -1.720  1.00  0.00     0.032 C 
BRANCH   5   6
ATOM      6  C   UNL     1       6.807  -1.221  -0.599  1.00  0.00    -0.028 C 
ATOM      7  C   UNL     1       4.894  -0.754  -2.147  1.00  0.00     0.039 C 
ATOM      8  C   UNL     1       5.508  -0.894  -0.774  1.00  0.00    -0.080 C 
ATOM      9  C   UNL     1       4.651  -0.683   0.447  1.00  0.00     0.039 C 
ENDBRANCH   5   6
ENDBRANCH   4   5
ENDBRANCH   1   4
BRANCH   2  10
ATOM     10  C   UNL     1       5.083  -5.026  -3.018  1.00  0.00     0.035 C 
BRANCH  10  11
ATOM     11  C   UNL     1       3.959  -4.066  -3.423  1.00  0.00     0.079 C 
BRANCH  11  12
ATOM     12  C   UNL     1       3.766  -4.074  -4.916  1.00  0.00     0.130 C 
ATOM     13  O   UNL     1       4.144  -5.037  -5.566  1.00  0.00    -0.300 OA
ATOM     14  C   UNL     1       3.111  -2.927  -5.625  1.00  0.00     0.087 C 
ENDBRANCH  11  12
ENDBRANCH  10  11
ENDBRANCH   2  10
TORSDOF 6
ENDMDL
MODEL 8
REMARK VINA RESULT:    -4.123      2.243      3.776
REMARK INTER + INTRA:          -6.655
REMARK INTER:                  -5.164
REMARK INTRA:                  -1.492
REMARK UNBOUND:                -1.086
REMARK SMILES CC(=O)CCC=C(C)CCC=C(C)C
REMARK SMILES IDX 7 1 6 2 8 3 9 4 10 5 11 6 13 7 12 8 14 9 5 10 4 11 2 12 3 13
REMARK SMILES IDX 1 14
REMARK H PARENT
REMARK Flexibility Score: inf
ROOT
ATOM      1  C   UNL     1       5.250  -2.712  -0.391  1.00  0.00    -0.077 C 
ATOM      2  C   UNL     1       4.570  -2.930  -1.541  1.00  0.00    -0.028 C 
ATOM      3  C   UNL     1       5.558  -3.830   0.578  1.00  0.00     0.039 C 
ENDROOT
BRANCH   1   4
ATOM      4  C   UNL     1       5.700  -1.304  -0.057  1.00  0.00     0.034 C 
BRANCH   4   5
ATOM      5  C   UNL     1       6.595  -0.712  -1.155  1.00  0.00     0.032 C 
BRANCH   5   6
ATOM      6  C   UNL     1       7.932  -1.413  -1.226  1.00  0.00    -0.028 C 
ATOM      7  C   UNL     1       7.559  -2.257  -3.555  1.00  0.00     0.039 C 
ATOM      8  C   UNL     1       8.364  -2.135  -2.283  1.00  0.00    -0.080 C 
ATOM      9  C   UNL     1       9.703  -2.819  -2.184  1.00  0.00     0.039 C 
ENDBRANCH   5   6
ENDBRANCH   4   5
ENDBRANCH   1   4
BRANCH   2  10
ATOM     10  C   UNL     1       4.095  -4.282  -2.008  1.00  0.00     0.035 C 
BRANCH  10  11
ATOM     11  C   UNL     1       4.861  -4.725  -3.259  1.00  0.00     0.079 C 
BRANCH  11  12
ATOM     12  C   UNL     1       5.755  -5.896  -2.947  1.00  0.00     0.130 C 
ATOM     13  O   UNL     1       5.440  -7.012  -3.331  1.00  0.00    -0.300 OA
ATOM     14  C   UNL     1       7.032  -5.722  -2.180  1.00  0.00     0.087 C 
ENDBRANCH  11  12
ENDBRANCH  10  11
ENDBRANCH   2  10
TORSDOF 6
ENDMDL
MODEL 9
REMARK VINA RESULT:    -4.122      1.969      3.129
REMARK INTER + INTRA:          -6.653
REMARK INTER:                  -5.517
REMARK INTRA:                  -1.136
REMARK UNBOUND:                -1.086
REMARK SMILES CC(=O)CCC=C(C)CCC=C(C)C
REMARK SMILES IDX 7 1 6 2 8 3 9 4 10 5 11 6 13 7 12 8 14 9 5 10 4 11 2 12 3 13
REMARK SMILES IDX 1 14
REMARK H PARENT
REMARK Flexibility Score: inf
ROOT
ATOM      1  C   UNL     1       5.111  -3.055  -0.760  1.00  0.00    -0.077 C 
ATOM      2  C   UNL     1       4.303  -3.129  -1.844  1.00  0.00    -0.028 C 
ATOM      3  C   UNL     1       5.720  -4.287  -0.133  1.00  0.00     0.039 C 
ENDROOT
BRANCH   1   4
ATOM      4  C   UNL     1       5.396  -1.699  -0.146  1.00  0.00     0.034 C 
BRANCH   4   5
ATOM      5  C   UNL     1       6.171  -0.786  -1.107  1.00  0.00     0.032 C 
BRANCH   5   6
ATOM      6  C   UNL     1       7.637  -1.148  -1.163  1.00  0.00    -0.028 C 
ATOM      7  C   UNL     1       7.478  -2.152  -3.453  1.00  0.00     0.039 C 
ATOM      8  C   UNL     1       8.230  -1.788  -2.194  1.00  0.00    -0.080 C 
ATOM      9  C   UNL     1       9.694  -2.127  -2.082  1.00  0.00     0.039 C 
ENDBRANCH   5   6
ENDBRANCH   4   5
ENDBRANCH   1   4
BRANCH   2  10
ATOM     10  C   UNL     1       3.965  -4.406  -2.570  1.00  0.00     0.035 C 
BRANCH  10  11
ATOM     11  C   UNL     1       4.670  -4.462  -3.929  1.00  0.00     0.079 C 
BRANCH  11  12
ATOM     12  C   UNL     1       3.765  -3.951  -5.019  1.00  0.00     0.130 C 
ATOM     13  O   UNL     1       2.556  -4.089  -4.910  1.00  0.00    -0.300 OA
ATOM     14  C   UNL     1       4.315  -3.268  -6.235  1.00  0.00     0.087 C 
ENDBRANCH  11  12
ENDBRANCH  10  11
ENDBRANCH   2  10
TORSDOF 6
ENDMDL
