MODEL 1
REMARK VINA RESULT:    30.128      0.000      0.000
REMARK INTER + INTRA:          42.259
REMARK INTER:                  43.337
REMARK INTRA:                  -1.078
REMARK UNBOUND:                -1.078
REMARK SMILES O=c1c(O[C@H]2O[C@H](CO)[C@@H](O)[C@H](O)[C@@H]2O)c(-c2ccc(O)cc2)oc2cc(O)cc(O)c12
REMARK SMILES IDX 4 1 3 2 16 3 24 4 2 5 25 6 1 7 32 8 26 9 30 10 27 11 29 12
REMARK SMILES IDX 17 13 18 14 19 15 20 16 23 17 22 18 21 19 31 21 28 23 5 25
REMARK SMILES IDX 14 26 6 27 12 28 7 29 10 30 15 31 13 33 8 35 9 36 11 38
REMARK H PARENT 21 20 31 22 28 24 15 32 13 34 9 37 11 39
REMARK Flexibility Score: inf
ROOT
ATOM      1  O   UNL     1     -17.216   4.657  16.961  1.00  0.00    -0.454 OA
ENDROOT
BRANCH   1   2
ATOM      2  C   UNL     1     -17.934   4.096  15.899  1.00  0.00     0.214 A 
ATOM      3  C   UNL     1     -17.537   2.887  15.295  1.00  0.00     0.180 A 
ATOM      4  O   UNL     1     -18.301   2.342  14.357  1.00  0.00    -0.452 OA
ATOM      5  C   UNL     1     -19.084   4.743  15.433  1.00  0.00     0.239 A 
ATOM      6  C   UNL     1     -19.412   2.908  13.899  1.00  0.00     0.146 A 
ATOM      7  O   UNL     1     -19.440   5.808  16.001  1.00  0.00    -0.285 OA
ATOM      8  C   UNL     1     -19.841   4.171  14.385  1.00  0.00     0.111 A 
ATOM      9  C   UNL     1     -20.153   2.231  12.927  1.00  0.00     0.094 A 
ATOM     10  C   UNL     1     -21.015   4.753  13.820  1.00  0.00     0.134 A 
ATOM     11  C   UNL     1     -21.328   2.783  12.423  1.00  0.00     0.123 A 
ATOM     12  C   UNL     1     -21.754   4.036  12.871  1.00  0.00     0.093 A 
BRANCH   3  13
ATOM     13  C   UNL     1     -16.289   2.185  15.670  1.00  0.00     0.021 A 
ATOM     14  C   UNL     1     -15.029   2.786  15.493  1.00  0.00     0.016 A 
ATOM     15  C   UNL     1     -13.864   2.104  15.855  1.00  0.00     0.047 A 
ATOM     16  C   UNL     1     -13.939   0.809  16.379  1.00  0.00     0.115 A 
ATOM     17  C   UNL     1     -16.355   0.874  16.176  1.00  0.00     0.016 A 
ATOM     18  C   UNL     1     -15.187   0.195  16.534  1.00  0.00     0.047 A 
BRANCH  16  19
ATOM     19  O   UNL     1     -12.769   0.144  16.740  1.00  0.00    -0.508 OA
ATOM     20  H   UNL     1     -11.914   0.649  16.936  1.00  0.00     0.293 HD
ENDBRANCH  16  19
ENDBRANCH   3  13
BRANCH  10  21
ATOM     21  O   UNL     1     -21.480   6.033  14.134  1.00  0.00    -0.507 OA
ATOM     22  H   UNL     1     -22.361   6.234  14.580  1.00  0.00     0.293 HD
ENDBRANCH  10  21
BRANCH  11  23
ATOM     23  O   UNL     1     -22.060   2.083  11.468  1.00  0.00    -0.508 OA
ATOM     24  H   UNL     1     -22.802   2.527  10.938  1.00  0.00     0.293 HD
ENDBRANCH  11  23
ENDBRANCH   1   2
BRANCH   1  25
ATOM     25  C   UNL     1     -17.108   4.029  18.243  1.00  0.00     0.339 C 
ATOM     26  C   UNL     1     -18.474   4.010  18.960  1.00  0.00     0.214 C 
ATOM     27  O   UNL     1     -16.121   4.671  19.033  1.00  0.00    -0.332 OA
ATOM     28  C   UNL     1     -18.891   5.436  19.375  1.00  0.00     0.180 C 
ATOM     29  C   UNL     1     -16.436   6.036  19.264  1.00  0.00     0.179 C 
ATOM     30  C   UNL     1     -17.739   6.168  20.089  1.00  0.00     0.177 C 
BRANCH  26  31
ATOM     31  O   UNL     1     -18.454   3.137  20.065  1.00  0.00    -0.384 OA
ATOM     32  H   UNL     1     -17.520   3.071  20.391  1.00  0.00     0.211 HD
ENDBRANCH  26  31
BRANCH  28  33
ATOM     33  O   UNL     1     -20.013   5.390  20.218  1.00  0.00    -0.387 OA
ATOM     34  H   UNL     1     -20.812   5.465  19.634  1.00  0.00     0.211 HD
ENDBRANCH  28  33
BRANCH  29  35
ATOM     35  C   UNL     1     -15.245   6.669  19.998  1.00  0.00     0.191 C 
BRANCH  35  36
ATOM     36  O   UNL     1     -15.430   8.050  20.136  1.00  0.00    -0.394 OA
ATOM     37  H   UNL     1     -14.656   8.379  20.666  1.00  0.00     0.210 HD
ENDBRANCH  35  36
ENDBRANCH  29  35
BRANCH  30  38
ATOM     38  O   UNL     1     -18.074   7.525  20.232  1.00  0.00    -0.387 OA
ATOM     39  H   UNL     1     -18.854   7.695  19.640  1.00  0.00     0.211 HD
ENDBRANCH  30  38
ENDBRANCH   1  25
TORSDOF 11
ENDMDL
MODEL 2
REMARK VINA RESULT:    30.566     11.352     14.959
REMARK INTER + INTRA:          42.889
REMARK INTER:                  37.204
REMARK INTRA:                   5.686
REMARK UNBOUND:                -1.078
REMARK SMILES O=c1c(O[C@H]2O[C@H](CO)[C@@H](O)[C@H](O)[C@@H]2O)c(-c2ccc(O)cc2)oc2cc(O)cc(O)c12
REMARK SMILES IDX 4 1 3 2 16 3 24 4 2 5 25 6 1 7 32 8 26 9 30 10 27 11 29 12
REMARK SMILES IDX 17 13 18 14 19 15 20 16 23 17 22 18 21 19 31 21 28 23 5 25
REMARK SMILES IDX 14 26 6 27 12 28 7 29 10 30 15 31 13 33 8 35 9 36 11 38
REMARK H PARENT 21 20 31 22 28 24 15 32 13 34 9 37 11 39
REMARK Flexibility Score: inf
ROOT
ATOM      1  O   UNL     1     -18.133  -9.828  10.013  1.00  0.00    -0.454 OA
ENDROOT
BRANCH   1   2
ATOM      2  C   UNL     1     -18.615  -8.538  10.262  1.00  0.00     0.214 A 
ATOM      3  C   UNL     1     -19.649  -7.972   9.492  1.00  0.00     0.180 A 
ATOM      4  O   UNL     1     -20.139  -6.785   9.824  1.00  0.00    -0.452 OA
ATOM      5  C   UNL     1     -18.065  -7.794  11.313  1.00  0.00     0.239 A 
ATOM      6  C   UNL     1     -19.666  -6.053  10.826  1.00  0.00     0.146 A 
ATOM      7  O   UNL     1     -17.159  -8.323  12.008  1.00  0.00    -0.285 OA
ATOM      8  C   UNL     1     -18.564  -6.502  11.601  1.00  0.00     0.111 A 
ATOM      9  C   UNL     1     -20.277  -4.827  11.103  1.00  0.00     0.094 A 
ATOM     10  C   UNL     1     -18.066  -5.650  12.631  1.00  0.00     0.134 A 
ATOM     11  C   UNL     1     -19.817  -4.030  12.148  1.00  0.00     0.123 A 
ATOM     12  C   UNL     1     -18.720  -4.444  12.907  1.00  0.00     0.093 A 
BRANCH   3  13
ATOM     13  C   UNL     1     -20.225  -8.657   8.312  1.00  0.00     0.021 A 
ATOM     14  C   UNL     1     -19.632  -9.815   7.776  1.00  0.00     0.016 A 
ATOM     15  C   UNL     1     -20.194 -10.444   6.661  1.00  0.00     0.047 A 
ATOM     16  C   UNL     1     -21.340  -9.918   6.058  1.00  0.00     0.115 A 
ATOM     17  C   UNL     1     -21.364  -8.120   7.686  1.00  0.00     0.016 A 
ATOM     18  C   UNL     1     -21.921  -8.752   6.571  1.00  0.00     0.047 A 
BRANCH  16  19
ATOM     19  O   UNL     1     -21.892 -10.560   4.951  1.00  0.00    -0.508 OA
ATOM     20  H   UNL     1     -22.628 -11.247   5.052  1.00  0.00     0.293 HD
ENDBRANCH  16  19
ENDBRANCH   3  13
BRANCH  10  21
ATOM     21  O   UNL     1     -16.925  -5.929  13.390  1.00  0.00    -0.507 OA
ATOM     22  H   UNL     1     -16.903  -5.995  14.395  1.00  0.00     0.293 HD
ENDBRANCH  10  21
BRANCH  11  23
ATOM     23  O   UNL     1     -20.453  -2.820  12.418  1.00  0.00    -0.508 OA
ATOM     24  H   UNL     1     -20.014  -1.931  12.205  1.00  0.00     0.293 HD
ENDBRANCH  11  23
ENDBRANCH   1   2
BRANCH   1  25
ATOM     25  C   UNL     1     -18.821 -11.009  10.440  1.00  0.00     0.339 C 
ATOM     26  C   UNL     1     -20.339 -10.878  10.194  1.00  0.00     0.214 C 
ATOM     27  O   UNL     1     -18.543 -11.285  11.802  1.00  0.00    -0.332 OA
ATOM     28  C   UNL     1     -20.955  -9.830  11.143  1.00  0.00     0.180 C 
ATOM     29  C   UNL     1     -18.964 -10.229  12.652  1.00  0.00     0.179 C 
ATOM     30  C   UNL     1     -20.502 -10.060  12.597  1.00  0.00     0.177 C 
BRANCH  26  31
ATOM     31  O   UNL     1     -20.982 -12.125  10.316  1.00  0.00    -0.384 OA
ATOM     32  H   UNL     1     -20.311 -12.837  10.151  1.00  0.00     0.211 HD
ENDBRANCH  26  31
BRANCH  28  33
ATOM     33  O   UNL     1     -22.357  -9.875  11.075  1.00  0.00    -0.387 OA
ATOM     34  H   UNL     1     -22.587 -10.343  10.229  1.00  0.00     0.211 HD
ENDBRANCH  28  33
BRANCH  29  35
ATOM     35  C   UNL     1     -18.490 -10.561  14.074  1.00  0.00     0.191 C 
BRANCH  35  36
ATOM     36  O   UNL     1     -18.666 -11.923  14.346  1.00  0.00    -0.394 OA
ATOM     37  H   UNL     1     -17.835 -12.373  14.041  1.00  0.00     0.210 HD
ENDBRANCH  35  36
ENDBRANCH  29  35
BRANCH  30  38
ATOM     38  O   UNL     1     -20.885  -8.957  13.379  1.00  0.00    -0.387 OA
ATOM     39  H   UNL     1     -20.372  -9.013  14.229  1.00  0.00     0.211 HD
ENDBRANCH  30  38
ENDBRANCH   1  25
TORSDOF 11
ENDMDL
MODEL 3
REMARK VINA RESULT:    31.597     11.294     14.734
REMARK INTER + INTRA:          44.373
REMARK INTER:                  41.322
REMARK INTRA:                   3.051
REMARK UNBOUND:                -1.078
REMARK SMILES O=c1c(O[C@H]2O[C@H](CO)[C@@H](O)[C@H](O)[C@@H]2O)c(-c2ccc(O)cc2)oc2cc(O)cc(O)c12
REMARK SMILES IDX 4 1 3 2 16 3 24 4 2 5 25 6 1 7 32 8 26 9 30 10 27 11 29 12
REMARK SMILES IDX 17 13 18 14 19 15 20 16 23 17 22 18 21 19 31 21 28 23 5 25
REMARK SMILES IDX 14 26 6 27 12 28 7 29 10 30 15 31 13 33 8 35 9 36 11 38
REMARK H PARENT 21 20 31 22 28 24 15 32 13 34 9 37 11 39
REMARK Flexibility Score: inf
ROOT
ATOM      1  O   UNL     1     -17.997  -8.018  11.991  1.00  0.00    -0.454 OA
ENDROOT
BRANCH   1   2
ATOM      2  C   UNL     1     -18.732  -8.268  10.827  1.00  0.00     0.214 A 
ATOM      3  C   UNL     1     -19.611  -7.310  10.286  1.00  0.00     0.180 A 
ATOM      4  O   UNL     1     -20.214  -7.553   9.130  1.00  0.00    -0.452 OA
ATOM      5  C   UNL     1     -18.580  -9.496  10.173  1.00  0.00     0.239 A 
ATOM      6  C   UNL     1     -20.082  -8.693   8.462  1.00  0.00     0.146 A 
ATOM      7  O   UNL     1     -17.770 -10.331  10.654  1.00  0.00    -0.285 OA
ATOM      8  C   UNL     1     -19.288  -9.752   8.976  1.00  0.00     0.111 A 
ATOM      9  C   UNL     1     -20.743  -8.829   7.239  1.00  0.00     0.094 A 
ATOM     10  C   UNL     1     -19.224 -10.972   8.240  1.00  0.00     0.134 A 
ATOM     11  C   UNL     1     -20.628 -10.005   6.502  1.00  0.00     0.123 A 
ATOM     12  C   UNL     1     -19.870 -11.067   7.001  1.00  0.00     0.093 A 
BRANCH   3  13
ATOM     13  C   UNL     1     -19.893  -6.023  10.961  1.00  0.00     0.021 A 
ATOM     14  C   UNL     1     -20.384  -5.978  12.279  1.00  0.00     0.016 A 
ATOM     15  C   UNL     1     -20.644  -4.751  12.896  1.00  0.00     0.047 A 
ATOM     16  C   UNL     1     -20.434  -3.555  12.201  1.00  0.00     0.115 A 
ATOM     17  C   UNL     1     -19.708  -4.817  10.261  1.00  0.00     0.016 A 
ATOM     18  C   UNL     1     -19.970  -3.592  10.881  1.00  0.00     0.047 A 
BRANCH  16  19
ATOM     19  O   UNL     1     -20.692  -2.339  12.831  1.00  0.00    -0.508 OA
ATOM     20  H   UNL     1     -21.303  -2.281  13.636  1.00  0.00     0.293 HD
ENDBRANCH  16  19
ENDBRANCH   3  13
BRANCH  10  21
ATOM     21  O   UNL     1     -18.567 -12.121   8.689  1.00  0.00    -0.507 OA
ATOM     22  H   UNL     1     -17.845 -12.609   8.182  1.00  0.00     0.293 HD
ENDBRANCH  10  21
BRANCH  11  23
ATOM     23  O   UNL     1     -21.281 -10.113   5.276  1.00  0.00    -0.508 OA
ATOM     24  H   UNL     1     -21.372  -9.319   4.652  1.00  0.00     0.293 HD
ENDBRANCH  11  23
ENDBRANCH   1   2
BRANCH   1  25
ATOM     25  C   UNL     1     -18.530  -8.225  13.304  1.00  0.00     0.339 C 
ATOM     26  C   UNL     1     -17.859  -9.437  13.983  1.00  0.00     0.214 C 
ATOM     27  O   UNL     1     -19.938  -8.378  13.254  1.00  0.00    -0.332 OA
ATOM     28  C   UNL     1     -18.282 -10.750  13.292  1.00  0.00     0.180 C 
ATOM     29  C   UNL     1     -20.320  -9.498  12.470  1.00  0.00     0.179 C 
ATOM     30  C   UNL     1     -19.809 -10.814  13.105  1.00  0.00     0.177 C 
BRANCH  26  31
ATOM     31  O   UNL     1     -18.140  -9.466  15.362  1.00  0.00    -0.384 OA
ATOM     32  H   UNL     1     -19.074  -9.163  15.494  1.00  0.00     0.211 HD
ENDBRANCH  26  31
BRANCH  28  33
ATOM     33  O   UNL     1     -17.854 -11.856  14.045  1.00  0.00    -0.387 OA
ATOM     34  H   UNL     1     -17.479 -12.512  13.400  1.00  0.00     0.211 HD
ENDBRANCH  28  33
BRANCH  29  35
ATOM     35  C   UNL     1     -21.851  -9.488  12.362  1.00  0.00     0.191 C 
BRANCH  35  36
ATOM     36  O   UNL     1     -22.255  -9.792  11.056  1.00  0.00    -0.394 OA
ATOM     37  H   UNL     1     -23.217 -10.031  11.115  1.00  0.00     0.210 HD
ENDBRANCH  35  36
ENDBRANCH  29  35
BRANCH  30  38
ATOM     38  O   UNL     1     -20.126 -11.897  12.269  1.00  0.00    -0.387 OA
ATOM     39  H   UNL     1     -21.026 -12.220  12.542  1.00  0.00     0.211 HD
ENDBRANCH  30  38
ENDBRANCH   1  25
TORSDOF 11
ENDMDL
MODEL 4
REMARK VINA RESULT:    31.663      1.324      2.419
REMARK INTER + INTRA:          44.467
REMARK INTER:                  44.069
REMARK INTRA:                   0.398
REMARK UNBOUND:                -1.078
REMARK SMILES O=c1c(O[C@H]2O[C@H](CO)[C@@H](O)[C@H](O)[C@@H]2O)c(-c2ccc(O)cc2)oc2cc(O)cc(O)c12
REMARK SMILES IDX 4 1 3 2 16 3 24 4 2 5 25 6 1 7 32 8 26 9 30 10 27 11 29 12
REMARK SMILES IDX 17 13 18 14 19 15 20 16 23 17 22 18 21 19 31 21 28 23 5 25
REMARK SMILES IDX 14 26 6 27 12 28 7 29 10 30 15 31 13 33 8 35 9 36 11 38
REMARK H PARENT 21 20 31 22 28 24 15 32 13 34 9 37 11 39
REMARK Flexibility Score: inf
ROOT
ATOM      1  O   UNL     1     -17.421   3.910  17.351  1.00  0.00    -0.454 OA
ENDROOT
BRANCH   1   2
ATOM      2  C   UNL     1     -17.762   3.417  16.087  1.00  0.00     0.214 A 
ATOM      3  C   UNL     1     -16.960   2.470  15.421  1.00  0.00     0.180 A 
ATOM      4  O   UNL     1     -17.371   1.959  14.267  1.00  0.00    -0.452 OA
ATOM      5  C   UNL     1     -18.936   3.866  15.472  1.00  0.00     0.239 A 
ATOM      6  C   UNL     1     -18.489   2.336  13.658  1.00  0.00     0.146 A 
ATOM      7  O   UNL     1     -19.655   4.692  16.092  1.00  0.00    -0.285 OA
ATOM      8  C   UNL     1     -19.314   3.351  14.210  1.00  0.00     0.111 A 
ATOM      9  C   UNL     1     -18.837   1.711  12.458  1.00  0.00     0.094 A 
ATOM     10  C   UNL     1     -20.476   3.751  13.485  1.00  0.00     0.134 A 
ATOM     11  C   UNL     1     -20.003   2.071  11.788  1.00  0.00     0.123 A 
ATOM     12  C   UNL     1     -20.817   3.083  12.303  1.00  0.00     0.093 A 
BRANCH   3  13
ATOM     13  C   UNL     1     -15.661   2.009  15.962  1.00  0.00     0.021 A 
ATOM     14  C   UNL     1     -14.841   2.862  16.724  1.00  0.00     0.016 A 
ATOM     15  C   UNL     1     -13.619   2.405  17.225  1.00  0.00     0.047 A 
ATOM     16  C   UNL     1     -13.191   1.101  16.958  1.00  0.00     0.115 A 
ATOM     17  C   UNL     1     -15.214   0.707  15.678  1.00  0.00     0.016 A 
ATOM     18  C   UNL     1     -13.990   0.254  16.179  1.00  0.00     0.047 A 
BRANCH  16  19
ATOM     19  O   UNL     1     -11.973   0.657  17.469  1.00  0.00    -0.508 OA
ATOM     20  H   UNL     1     -11.450  -0.083  17.017  1.00  0.00     0.293 HD
ENDBRANCH  16  19
ENDBRANCH   3  13
BRANCH  10  21
ATOM     21  O   UNL     1     -21.308   4.807  13.866  1.00  0.00    -0.507 OA
ATOM     22  H   UNL     1     -21.698   4.932  14.787  1.00  0.00     0.293 HD
ENDBRANCH  10  21
BRANCH  11  23
ATOM     23  O   UNL     1     -20.341   1.422  10.603  1.00  0.00    -0.508 OA
ATOM     24  H   UNL     1     -19.877   0.567  10.315  1.00  0.00     0.293 HD
ENDBRANCH  11  23
ENDBRANCH   1   2
BRANCH   1  25
ATOM     25  C   UNL     1     -18.021   5.081  17.916  1.00  0.00     0.339 C 
ATOM     26  C   UNL     1     -16.949   6.000  18.538  1.00  0.00     0.214 C 
ATOM     27  O   UNL     1     -19.010   4.727  18.867  1.00  0.00    -0.332 OA
ATOM     28  C   UNL     1     -16.344   5.353  19.801  1.00  0.00     0.180 C 
ATOM     29  C   UNL     1     -18.464   3.980  19.944  1.00  0.00     0.179 C 
ATOM     30  C   UNL     1     -17.445   4.831  20.742  1.00  0.00     0.177 C 
BRANCH  26  31
ATOM     31  O   UNL     1     -17.475   7.277  18.815  1.00  0.00    -0.384 OA
ATOM     32  H   UNL     1     -16.726   7.870  19.081  1.00  0.00     0.211 HD
ENDBRANCH  26  31
BRANCH  28  33
ATOM     33  O   UNL     1     -15.541   6.279  20.486  1.00  0.00    -0.387 OA
ATOM     34  H   UNL     1     -15.002   5.761  21.140  1.00  0.00     0.211 HD
ENDBRANCH  28  33
BRANCH  29  35
ATOM     35  C   UNL     1     -19.630   3.528  20.833  1.00  0.00     0.191 C 
BRANCH  35  36
ATOM     36  O   UNL     1     -19.844   4.445  21.869  1.00  0.00    -0.394 OA
ATOM     37  H   UNL     1     -19.717   3.940  22.715  1.00  0.00     0.210 HD
ENDBRANCH  35  36
ENDBRANCH  29  35
BRANCH  30  38
ATOM     38  O   UNL     1     -16.858   4.045  21.748  1.00  0.00    -0.387 OA
ATOM     39  H   UNL     1     -17.547   3.916  22.453  1.00  0.00     0.211 HD
ENDBRANCH  30  38
ENDBRANCH   1  25
TORSDOF 11
ENDMDL
MODEL 5
REMARK VINA RESULT:    31.691     11.333     15.108
REMARK INTER + INTRA:          44.507
REMARK INTER:                  38.224
REMARK INTRA:                   6.283
REMARK UNBOUND:                -1.078
REMARK SMILES O=c1c(O[C@H]2O[C@H](CO)[C@@H](O)[C@H](O)[C@@H]2O)c(-c2ccc(O)cc2)oc2cc(O)cc(O)c12
REMARK SMILES IDX 4 1 3 2 16 3 24 4 2 5 25 6 1 7 32 8 26 9 30 10 27 11 29 12
REMARK SMILES IDX 17 13 18 14 19 15 20 16 23 17 22 18 21 19 31 21 28 23 5 25
REMARK SMILES IDX 14 26 6 27 12 28 7 29 10 30 15 31 13 33 8 35 9 36 11 38
REMARK H PARENT 21 20 31 22 28 24 15 32 13 34 9 37 11 39
REMARK Flexibility Score: inf
ROOT
ATOM      1  O   UNL     1     -21.135  -9.277  11.943  1.00  0.00    -0.454 OA
ENDROOT
BRANCH   1   2
ATOM      2  C   UNL     1     -20.098  -8.337  11.976  1.00  0.00     0.214 A 
ATOM      3  C   UNL     1     -19.540  -7.809  10.796  1.00  0.00     0.180 A 
ATOM      4  O   UNL     1     -18.625  -6.851  10.876  1.00  0.00    -0.452 OA
ATOM      5  C   UNL     1     -19.611  -7.900  13.213  1.00  0.00     0.239 A 
ATOM      6  C   UNL     1     -18.150  -6.388  12.026  1.00  0.00     0.146 A 
ATOM      7  O   UNL     1     -20.138  -8.362  14.259  1.00  0.00    -0.285 OA
ATOM      8  C   UNL     1     -18.588  -6.925  13.265  1.00  0.00     0.111 A 
ATOM      9  C   UNL     1     -17.207  -5.358  11.991  1.00  0.00     0.094 A 
ATOM     10  C   UNL     1     -18.004  -6.424  14.466  1.00  0.00     0.134 A 
ATOM     11  C   UNL     1     -16.686  -4.838  13.173  1.00  0.00     0.123 A 
ATOM     12  C   UNL     1     -17.086  -5.369  14.401  1.00  0.00     0.093 A 
BRANCH   3  13
ATOM     13  C   UNL     1     -19.938  -8.281   9.450  1.00  0.00     0.021 A 
ATOM     14  C   UNL     1     -21.246  -8.095   8.966  1.00  0.00     0.016 A 
ATOM     15  C   UNL     1     -21.599  -8.549   7.692  1.00  0.00     0.047 A 
ATOM     16  C   UNL     1     -20.659  -9.209   6.893  1.00  0.00     0.115 A 
ATOM     17  C   UNL     1     -19.005  -8.965   8.651  1.00  0.00     0.016 A 
ATOM     18  C   UNL     1     -19.362  -9.419   7.378  1.00  0.00     0.047 A 
BRANCH  16  19
ATOM     19  O   UNL     1     -21.023  -9.651   5.623  1.00  0.00    -0.508 OA
ATOM     20  H   UNL     1     -20.776  -9.128   4.792  1.00  0.00     0.293 HD
ENDBRANCH  16  19
ENDBRANCH   3  13
BRANCH  10  21
ATOM     21  O   UNL     1     -18.269  -6.941  15.738  1.00  0.00    -0.507 OA
ATOM     22  H   UNL     1     -18.396  -6.388  16.571  1.00  0.00     0.293 HD
ENDBRANCH  10  21
BRANCH  11  23
ATOM     23  O   UNL     1     -15.760  -3.799  13.115  1.00  0.00    -0.508 OA
ATOM     24  H   UNL     1     -15.227  -3.518  13.931  1.00  0.00     0.293 HD
ENDBRANCH  11  23
ENDBRANCH   1   2
BRANCH   1  25
ATOM     25  C   UNL     1     -20.941 -10.658  12.264  1.00  0.00     0.339 C 
ATOM     26  C   UNL     1     -19.807 -10.828  13.296  1.00  0.00     0.214 C 
ATOM     27  O   UNL     1     -20.685 -11.413  11.091  1.00  0.00    -0.332 OA
ATOM     28  C   UNL     1     -18.441 -10.486  12.666  1.00  0.00     0.180 C 
ATOM     29  C   UNL     1     -19.511 -10.972  10.425  1.00  0.00     0.179 C 
ATOM     30  C   UNL     1     -18.260 -11.195  11.311  1.00  0.00     0.177 C 
BRANCH  26  31
ATOM     31  O   UNL     1     -19.811 -12.124  13.846  1.00  0.00    -0.384 OA
ATOM     32  H   UNL     1     -20.375 -12.113  14.662  1.00  0.00     0.211 HD
ENDBRANCH  26  31
BRANCH  28  33
ATOM     33  O   UNL     1     -17.399 -10.855  13.532  1.00  0.00    -0.387 OA
ATOM     34  H   UNL     1     -17.678 -10.583  14.446  1.00  0.00     0.211 HD
ENDBRANCH  28  33
BRANCH  29  35
ATOM     35  C   UNL     1     -19.406 -11.750   9.106  1.00  0.00     0.191 C 
BRANCH  35  36
ATOM     36  O   UNL     1     -18.065 -11.970   8.770  1.00  0.00    -0.394 OA
ATOM     37  H   UNL     1     -17.538 -11.316   9.300  1.00  0.00     0.210 HD
ENDBRANCH  35  36
ENDBRANCH  29  35
BRANCH  30  38
ATOM     38  O   UNL     1     -17.125 -10.676  10.666  1.00  0.00    -0.387 OA
ATOM     39  H   UNL     1     -17.451 -10.139   9.895  1.00  0.00     0.211 HD
ENDBRANCH  30  38
ENDBRANCH   1  25
TORSDOF 11
ENDMDL
MODEL 6
REMARK VINA RESULT:    32.320      3.559      5.032
REMARK INTER + INTRA:          45.413
REMARK INTER:                  44.280
REMARK INTRA:                   1.132
REMARK UNBOUND:                -1.078
REMARK SMILES O=c1c(O[C@H]2O[C@H](CO)[C@@H](O)[C@H](O)[C@@H]2O)c(-c2ccc(O)cc2)oc2cc(O)cc(O)c12
REMARK SMILES IDX 4 1 3 2 16 3 24 4 2 5 25 6 1 7 32 8 26 9 30 10 27 11 29 12
REMARK SMILES IDX 17 13 18 14 19 15 20 16 23 17 22 18 21 19 31 21 28 23 5 25
REMARK SMILES IDX 14 26 6 27 12 28 7 29 10 30 15 31 13 33 8 35 9 36 11 38
REMARK H PARENT 21 20 31 22 28 24 15 32 13 34 9 37 11 39
REMARK Flexibility Score: inf
ROOT
ATOM      1  O   UNL     1     -16.808   5.589  13.887  1.00  0.00    -0.454 OA
ENDROOT
BRANCH   1   2
ATOM      2  C   UNL     1     -17.948   4.780  13.826  1.00  0.00     0.214 A 
ATOM      3  C   UNL     1     -17.932   3.444  14.269  1.00  0.00     0.180 A 
ATOM      4  O   UNL     1     -19.059   2.744  14.281  1.00  0.00    -0.452 OA
ATOM      5  C   UNL     1     -19.140   5.315  13.323  1.00  0.00     0.239 A 
ATOM      6  C   UNL     1     -20.218   3.216  13.837  1.00  0.00     0.146 A 
ATOM      7  O   UNL     1     -19.145   6.519  12.956  1.00  0.00    -0.285 OA
ATOM      8  C   UNL     1     -20.310   4.522  13.287  1.00  0.00     0.111 A 
ATOM      9  C   UNL     1     -21.347   2.399  13.922  1.00  0.00     0.094 A 
ATOM     10  C   UNL     1     -21.570   4.957  12.779  1.00  0.00     0.134 A 
ATOM     11  C   UNL     1     -22.584   2.856  13.474  1.00  0.00     0.123 A 
ATOM     12  C   UNL     1     -22.691   4.129  12.909  1.00  0.00     0.093 A 
BRANCH   3  13
ATOM     13  C   UNL     1     -16.694   2.777  14.733  1.00  0.00     0.021 A 
ATOM     14  C   UNL     1     -15.595   3.518  15.204  1.00  0.00     0.016 A 
ATOM     15  C   UNL     1     -14.436   2.867  15.637  1.00  0.00     0.047 A 
ATOM     16  C   UNL     1     -14.352   1.472  15.589  1.00  0.00     0.115 A 
ATOM     17  C   UNL     1     -16.594   1.376  14.666  1.00  0.00     0.016 A 
ATOM     18  C   UNL     1     -15.433   0.728  15.098  1.00  0.00     0.047 A 
BRANCH  16  19
ATOM     19  O   UNL     1     -13.193   0.836  16.029  1.00  0.00    -0.508 OA
ATOM     20  H   UNL     1     -13.230   0.071  16.691  1.00  0.00     0.293 HD
ENDBRANCH  16  19
ENDBRANCH   3  13
BRANCH  10  21
ATOM     21  O   UNL     1     -21.767   6.173  12.119  1.00  0.00    -0.507 OA
ATOM     22  H   UNL     1     -22.667   6.567  11.889  1.00  0.00     0.293 HD
ENDBRANCH  10  21
BRANCH  11  23
ATOM     23  O   UNL     1     -23.701   2.031  13.585  1.00  0.00    -0.508 OA
ATOM     24  H   UNL     1     -24.087   1.780  14.489  1.00  0.00     0.293 HD
ENDBRANCH  11  23
ENDBRANCH   1   2
BRANCH   1  25
ATOM     25  C   UNL     1     -16.762   6.909  13.335  1.00  0.00     0.339 C 
ATOM     26  C   UNL     1     -16.728   6.858  11.793  1.00  0.00     0.214 C 
ATOM     27  O   UNL     1     -15.655   7.629  13.850  1.00  0.00    -0.332 OA
ATOM     28  C   UNL     1     -15.381   6.294  11.298  1.00  0.00     0.180 C 
ATOM     29  C   UNL     1     -14.422   7.001  13.529  1.00  0.00     0.179 C 
ATOM     30  C   UNL     1     -14.196   6.985  11.998  1.00  0.00     0.177 C 
BRANCH  26  31
ATOM     31  O   UNL     1     -16.993   8.124  11.238  1.00  0.00    -0.384 OA
ATOM     32  H   UNL     1     -16.343   8.771  11.616  1.00  0.00     0.211 HD
ENDBRANCH  26  31
BRANCH  28  33
ATOM     33  O   UNL     1     -15.266   6.458   9.908  1.00  0.00    -0.387 OA
ATOM     34  H   UNL     1     -16.122   6.854   9.595  1.00  0.00     0.211 HD
ENDBRANCH  28  33
BRANCH  29  35
ATOM     35  C   UNL     1     -13.307   7.773  14.249  1.00  0.00     0.191 C 
BRANCH  35  36
ATOM     36  O   UNL     1     -12.091   7.086  14.152  1.00  0.00    -0.394 OA
ATOM     37  H   UNL     1     -12.033   6.515  14.963  1.00  0.00     0.210 HD
ENDBRANCH  35  36
ENDBRANCH  29  35
BRANCH  30  38
ATOM     38  O   UNL     1     -13.014   6.287  11.701  1.00  0.00    -0.387 OA
ATOM     39  H   UNL     1     -13.026   5.454  12.243  1.00  0.00     0.211 HD
ENDBRANCH  30  38
ENDBRANCH   1  25
TORSDOF 11
ENDMDL
MODEL 7
REMARK VINA RESULT:    32.410     10.469     14.677
REMARK INTER + INTRA:          45.542
REMARK INTER:                  39.803
REMARK INTRA:                   5.740
REMARK UNBOUND:                -1.078
REMARK SMILES O=c1c(O[C@H]2O[C@H](CO)[C@@H](O)[C@H](O)[C@@H]2O)c(-c2ccc(O)cc2)oc2cc(O)cc(O)c12
REMARK SMILES IDX 4 1 3 2 16 3 24 4 2 5 25 6 1 7 32 8 26 9 30 10 27 11 29 12
REMARK SMILES IDX 17 13 18 14 19 15 20 16 23 17 22 18 21 19 31 21 28 23 5 25
REMARK SMILES IDX 14 26 6 27 12 28 7 29 10 30 15 31 13 33 8 35 9 36 11 38
REMARK H PARENT 21 20 31 22 28 24 15 32 13 34 9 37 11 39
REMARK Flexibility Score: inf
ROOT
ATOM      1  O   UNL     1     -21.078  -8.259  10.632  1.00  0.00    -0.454 OA
ENDROOT
BRANCH   1   2
ATOM      2  C   UNL     1     -20.255  -8.197  11.762  1.00  0.00     0.214 A 
ATOM      3  C   UNL     1     -19.757  -6.972  12.248  1.00  0.00     0.180 A 
ATOM      4  O   UNL     1     -19.060  -6.951  13.377  1.00  0.00    -0.452 OA
ATOM      5  C   UNL     1     -19.929  -9.379  12.435  1.00  0.00     0.239 A 
ATOM      6  C   UNL     1     -18.745  -8.044  14.063  1.00  0.00     0.146 A 
ATOM      7  O   UNL     1     -20.403 -10.462  12.004  1.00  0.00    -0.285 OA
ATOM      8  C   UNL     1     -19.127  -9.331  13.600  1.00  0.00     0.111 A 
ATOM      9  C   UNL     1     -18.029  -7.900  15.253  1.00  0.00     0.094 A 
ATOM     10  C   UNL     1     -18.717 -10.472  14.351  1.00  0.00     0.134 A 
ATOM     11  C   UNL     1     -17.683  -9.018  16.008  1.00  0.00     0.123 A 
ATOM     12  C   UNL     1     -18.029 -10.294  15.558  1.00  0.00     0.093 A 
BRANCH   3  13
ATOM     13  C   UNL     1     -19.985  -5.689  11.547  1.00  0.00     0.021 A 
ATOM     14  C   UNL     1     -19.657  -5.529  10.188  1.00  0.00     0.016 A 
ATOM     15  C   UNL     1     -19.881  -4.307   9.546  1.00  0.00     0.047 A 
ATOM     16  C   UNL     1     -20.416  -3.227  10.255  1.00  0.00     0.115 A 
ATOM     17  C   UNL     1     -20.501  -4.591  12.258  1.00  0.00     0.016 A 
ATOM     18  C   UNL     1     -20.721  -3.371  11.613  1.00  0.00     0.047 A 
BRANCH  16  19
ATOM     19  O   UNL     1     -20.638  -2.017   9.600  1.00  0.00    -0.508 OA
ATOM     20  H   UNL     1     -19.882  -1.370   9.415  1.00  0.00     0.293 HD
ENDBRANCH  16  19
ENDBRANCH   3  13
BRANCH  10  21
ATOM     21  O   UNL     1     -18.935 -11.792  13.947  1.00  0.00    -0.507 OA
ATOM     22  H   UNL     1     -18.648 -12.609  14.463  1.00  0.00     0.293 HD
ENDBRANCH  10  21
BRANCH  11  23
ATOM     23  O   UNL     1     -16.984  -8.851  17.201  1.00  0.00    -0.508 OA
ATOM     24  H   UNL     1     -17.454  -8.879  18.099  1.00  0.00     0.293 HD
ENDBRANCH  11  23
ENDBRANCH   1   2
BRANCH   1  25
ATOM     25  C   UNL     1     -20.563  -8.376   9.302  1.00  0.00     0.339 C 
ATOM     26  C   UNL     1     -20.482  -9.857   8.874  1.00  0.00     0.214 C 
ATOM     27  O   UNL     1     -19.299  -7.742   9.197  1.00  0.00    -0.332 OA
ATOM     28  C   UNL     1     -19.387 -10.595   9.671  1.00  0.00     0.180 C 
ATOM     29  C   UNL     1     -18.341  -8.326  10.067  1.00  0.00     0.179 C 
ATOM     30  C   UNL     1     -18.069  -9.799   9.675  1.00  0.00     0.177 C 
BRANCH  26  31
ATOM     31  O   UNL     1     -20.276  -9.972   7.486  1.00  0.00    -0.384 OA
ATOM     32  H   UNL     1     -20.368 -10.928   7.237  1.00  0.00     0.211 HD
ENDBRANCH  26  31
BRANCH  28  33
ATOM     33  O   UNL     1     -19.164 -11.870   9.126  1.00  0.00    -0.387 OA
ATOM     34  H   UNL     1     -19.272 -12.520   9.869  1.00  0.00     0.211 HD
ENDBRANCH  28  33
BRANCH  29  35
ATOM     35  C   UNL     1     -17.062  -7.481   9.983  1.00  0.00     0.191 C 
BRANCH  35  36
ATOM     36  O   UNL     1     -16.903  -6.712  11.143  1.00  0.00    -0.394 OA
ATOM     37  H   UNL     1     -17.791  -6.306  11.327  1.00  0.00     0.210 HD
ENDBRANCH  35  36
ENDBRANCH  29  35
BRANCH  30  38
ATOM     38  O   UNL     1     -17.184 -10.378  10.599  1.00  0.00    -0.387 OA
ATOM     39  H   UNL     1     -16.320  -9.892  10.517  1.00  0.00     0.211 HD
ENDBRANCH  30  38
ENDBRANCH   1  25
TORSDOF 11
ENDMDL
MODEL 8
REMARK VINA RESULT:    32.805      1.799      7.137
REMARK INTER + INTRA:          46.110
REMARK INTER:                  39.042
REMARK INTRA:                   7.069
REMARK UNBOUND:                -1.078
REMARK SMILES O=c1c(O[C@H]2O[C@H](CO)[C@@H](O)[C@H](O)[C@@H]2O)c(-c2ccc(O)cc2)oc2cc(O)cc(O)c12
REMARK SMILES IDX 4 1 3 2 16 3 24 4 2 5 25 6 1 7 32 8 26 9 30 10 27 11 29 12
REMARK SMILES IDX 17 13 18 14 19 15 20 16 23 17 22 18 21 19 31 21 28 23 5 25
REMARK SMILES IDX 14 26 6 27 12 28 7 29 10 30 15 31 13 33 8 35 9 36 11 38
REMARK H PARENT 21 20 31 22 28 24 15 32 13 34 9 37 11 39
REMARK Flexibility Score: inf
ROOT
ATOM      1  O   UNL     1     -18.112   3.709  16.002  1.00  0.00    -0.454 OA
ENDROOT
BRANCH   1   2
ATOM      2  C   UNL     1     -16.851   3.217  16.357  1.00  0.00     0.214 A 
ATOM      3  C   UNL     1     -16.239   3.562  17.578  1.00  0.00     0.180 A 
ATOM      4  O   UNL     1     -15.087   2.997  17.915  1.00  0.00    -0.452 OA
ATOM      5  C   UNL     1     -16.185   2.350  15.484  1.00  0.00     0.239 A 
ATOM      6  C   UNL     1     -14.429   2.151  17.130  1.00  0.00     0.146 A 
ATOM      7  O   UNL     1     -16.757   2.030  14.409  1.00  0.00    -0.285 OA
ATOM      8  C   UNL     1     -14.925   1.816  15.842  1.00  0.00     0.111 A 
ATOM      9  C   UNL     1     -13.236   1.596  17.599  1.00  0.00     0.094 A 
ATOM     10  C   UNL     1     -14.151   0.942  15.023  1.00  0.00     0.134 A 
ATOM     11  C   UNL     1     -12.517   0.700  16.812  1.00  0.00     0.123 A 
ATOM     12  C   UNL     1     -12.976   0.375  15.534  1.00  0.00     0.093 A 
BRANCH   3  13
ATOM     13  C   UNL     1     -16.836   4.538  18.517  1.00  0.00     0.021 A 
ATOM     14  C   UNL     1     -16.183   5.742  18.835  1.00  0.00     0.016 A 
ATOM     15  C   UNL     1     -16.766   6.650  19.725  1.00  0.00     0.047 A 
ATOM     16  C   UNL     1     -17.998   6.359  20.320  1.00  0.00     0.115 A 
ATOM     17  C   UNL     1     -18.063   4.242  19.137  1.00  0.00     0.016 A 
ATOM     18  C   UNL     1     -18.642   5.151  20.028  1.00  0.00     0.047 A 
BRANCH  16  19
ATOM     19  O   UNL     1     -18.570   7.276  21.200  1.00  0.00    -0.508 OA
ATOM     20  H   UNL     1     -18.403   8.270  21.109  1.00  0.00     0.293 HD
ENDBRANCH  16  19
ENDBRANCH   3  13
BRANCH  10  21
ATOM     21  O   UNL     1     -14.474   0.620  13.702  1.00  0.00    -0.507 OA
ATOM     22  H   UNL     1     -13.806   0.497  12.957  1.00  0.00     0.293 HD
ENDBRANCH  10  21
BRANCH  11  23
ATOM     23  O   UNL     1     -11.340   0.145  17.307  1.00  0.00    -0.508 OA
ATOM     24  H   UNL     1     -10.708  -0.377  16.710  1.00  0.00     0.293 HD
ENDBRANCH  11  23
ENDBRANCH   1   2
BRANCH   1  25
ATOM     25  C   UNL     1     -18.516   3.900  14.642  1.00  0.00     0.339 C 
ATOM     26  C   UNL     1     -20.032   4.173  14.554  1.00  0.00     0.214 C 
ATOM     27  O   UNL     1     -18.149   2.783  13.850  1.00  0.00    -0.332 OA
ATOM     28  C   UNL     1     -20.836   2.907  14.916  1.00  0.00     0.180 C 
ATOM     29  C   UNL     1     -18.766   1.588  14.303  1.00  0.00     0.179 C 
ATOM     30  C   UNL     1     -20.305   1.675  14.159  1.00  0.00     0.177 C 
BRANCH  26  31
ATOM     31  O   UNL     1     -20.386   4.662  13.282  1.00  0.00    -0.384 OA
ATOM     32  H   UNL     1     -21.001   4.009  12.859  1.00  0.00     0.211 HD
ENDBRANCH  26  31
BRANCH  28  33
ATOM     33  O   UNL     1     -22.196   3.091  14.619  1.00  0.00    -0.387 OA
ATOM     34  H   UNL     1     -22.397   2.515  13.835  1.00  0.00     0.211 HD
ENDBRANCH  28  33
BRANCH  29  35
ATOM     35  C   UNL     1     -18.194   0.428  13.476  1.00  0.00     0.191 C 
BRANCH  35  36
ATOM     36  O   UNL     1     -18.360  -0.787  14.151  1.00  0.00    -0.394 OA
ATOM     37  H   UNL     1     -17.462  -1.033  14.499  1.00  0.00     0.210 HD
ENDBRANCH  35  36
ENDBRANCH  29  35
BRANCH  30  38
ATOM     38  O   UNL     1     -20.897   0.517  14.690  1.00  0.00    -0.387 OA
ATOM     39  H   UNL     1     -20.208  -0.200  14.660  1.00  0.00     0.211 HD
ENDBRANCH  30  38
ENDBRANCH   1  25
TORSDOF 11
ENDMDL
