MODEL 1
REMARK VINA RESULT:    -5.049      0.000      0.000
REMARK INTER + INTRA:          -6.505
REMARK INTER:                  -6.230
REMARK INTRA:                  -0.275
REMARK UNBOUND:                -0.275
REMARK SMILES C=CCc1ccc(OC)c(OC)c1
REMARK SMILES IDX 7 1 10 2 13 3 4 4 5 5 6 6 8 7 9 8 11 9 12 10 3 11 2 12 1 13
REMARK H PARENT
REMARK Flexibility Score: inf
ROOT
ATOM      1  C   UNL     1      22.076  27.921 -14.945  1.00  0.00     0.160 A 
ATOM      2  C   UNL     1      21.445  28.497 -13.832  1.00  0.00     0.160 A 
ATOM      3  C   UNL     1      20.038  28.488 -13.745  1.00  0.00     0.054 A 
ATOM      4  C   UNL     1      19.266  27.904 -14.759  1.00  0.00    -0.040 A 
ATOM      5  C   UNL     1      19.903  27.341 -15.873  1.00  0.00     0.008 A 
ATOM      6  C   UNL     1      21.296  27.345 -15.965  1.00  0.00     0.051 A 
ENDROOT
BRANCH   1   7
ATOM      7  O   UNL     1      23.478  27.942 -15.003  1.00  0.00    -0.493 OA
ATOM      8  C   UNL     1      24.272  26.998 -15.714  1.00  0.00     0.278 C 
ENDBRANCH   1   7
BRANCH   2   9
ATOM      9  O   UNL     1      22.249  29.070 -12.833  1.00  0.00    -0.493 OA
ATOM     10  C   UNL     1      21.865  30.178 -12.024  1.00  0.00     0.278 C 
ENDBRANCH   2   9
BRANCH   4  11
ATOM     11  C   UNL     1      17.762  27.925 -14.680  1.00  0.00     0.062 C 
BRANCH  11  12
ATOM     12  C   UNL     1      17.239  26.624 -14.136  1.00  0.00    -0.030 C 
ATOM     13  C   UNL     1      16.879  26.493 -12.855  1.00  0.00     0.004 C 
ENDBRANCH  11  12
ENDBRANCH   4  11
TORSDOF 4
ENDMDL
MODEL 2
REMARK VINA RESULT:    -4.982      1.346      2.632
REMARK INTER + INTRA:          -6.422
REMARK INTER:                  -6.106
REMARK INTRA:                  -0.316
REMARK UNBOUND:                -0.275
REMARK SMILES C=CCc1ccc(OC)c(OC)c1
REMARK SMILES IDX 7 1 10 2 13 3 4 4 5 5 6 6 8 7 9 8 11 9 12 10 3 11 2 12 1 13
REMARK H PARENT
REMARK Flexibility Score: inf
ROOT
ATOM      1  C   UNL     1      21.933  28.416 -14.910  1.00  0.00     0.160 A 
ATOM      2  C   UNL     1      21.256  28.196 -16.120  1.00  0.00     0.160 A 
ATOM      3  C   UNL     1      19.855  28.040 -16.117  1.00  0.00     0.054 A 
ATOM      4  C   UNL     1      19.133  28.108 -14.917  1.00  0.00    -0.040 A 
ATOM      5  C   UNL     1      19.818  28.316 -13.712  1.00  0.00     0.008 A 
ATOM      6  C   UNL     1      21.205  28.473 -13.707  1.00  0.00     0.051 A 
ENDROOT
BRANCH   1   7
ATOM      7  O   UNL     1      23.328  28.570 -14.944  1.00  0.00    -0.493 OA
ATOM      8  C   UNL     1      24.241  27.839 -14.132  1.00  0.00     0.278 C 
ENDBRANCH   1   7
BRANCH   2   9
ATOM      9  O   UNL     1      22.010  28.138 -17.303  1.00  0.00    -0.493 OA
ATOM     10  C   UNL     1      22.179  29.226 -18.207  1.00  0.00     0.278 C 
ENDBRANCH   2   9
BRANCH   4  11
ATOM     11  C   UNL     1      17.640  27.908 -14.913  1.00  0.00     0.062 C 
BRANCH  11  12
ATOM     12  C   UNL     1      17.240  26.904 -13.868  1.00  0.00    -0.030 C 
ATOM     13  C   UNL     1      16.875  25.659 -14.193  1.00  0.00     0.004 C 
ENDBRANCH  11  12
ENDBRANCH   4  11
TORSDOF 4
ENDMDL
MODEL 3
REMARK VINA RESULT:    -4.944     11.230     13.776
REMARK INTER + INTRA:          -6.375
REMARK INTER:                  -6.090
REMARK INTRA:                  -0.284
REMARK UNBOUND:                -0.275
REMARK SMILES C=CCc1ccc(OC)c(OC)c1
REMARK SMILES IDX 7 1 10 2 13 3 4 4 5 5 6 6 8 7 9 8 11 9 12 10 3 11 2 12 1 13
REMARK H PARENT
REMARK Flexibility Score: inf
ROOT
ATOM      1  C   UNL     1      31.207  31.371 -17.994  1.00  0.00     0.160 A 
ATOM      2  C   UNL     1      32.545  31.724 -18.225  1.00  0.00     0.160 A 
ATOM      3  C   UNL     1      33.441  31.812 -17.141  1.00  0.00     0.054 A 
ATOM      4  C   UNL     1      33.006  31.544 -15.834  1.00  0.00    -0.040 A 
ATOM      5  C   UNL     1      31.666  31.203 -15.611  1.00  0.00     0.008 A 
ATOM      6  C   UNL     1      30.773  31.112 -16.680  1.00  0.00     0.051 A 
ENDROOT
BRANCH   1   7
ATOM      7  O   UNL     1      30.338  31.289 -19.094  1.00  0.00    -0.493 OA
ATOM      8  C   UNL     1      29.300  32.222 -19.375  1.00  0.00     0.278 C 
ENDBRANCH   1   7
BRANCH   2   9
ATOM      9  O   UNL     1      32.947  31.981 -19.546  1.00  0.00    -0.493 OA
ATOM     10  C   UNL     1      33.231  33.277 -20.066  1.00  0.00     0.278 C 
ENDBRANCH   2   9
BRANCH   4  11
ATOM     11  C   UNL     1      33.957  31.670 -14.673  1.00  0.00     0.062 C 
BRANCH  11  12
ATOM     12  C   UNL     1      35.318  31.148 -15.040  1.00  0.00    -0.030 C 
ATOM     13  C   UNL     1      36.417  31.522 -14.377  1.00  0.00     0.004 C 
ENDBRANCH  11  12
ENDBRANCH   4  11
TORSDOF 4
ENDMDL
MODEL 4
REMARK VINA RESULT:    -4.906     15.911     17.266
REMARK INTER + INTRA:          -6.328
REMARK INTER:                  -5.977
REMARK INTRA:                  -0.351
REMARK UNBOUND:                -0.275
REMARK SMILES C=CCc1ccc(OC)c(OC)c1
REMARK SMILES IDX 7 1 10 2 13 3 4 4 5 5 6 6 8 7 9 8 11 9 12 10 3 11 2 12 1 13
REMARK H PARENT
REMARK Flexibility Score: inf
ROOT
ATOM      1  C   UNL     1      31.265  38.073 -22.160  1.00  0.00     0.160 A 
ATOM      2  C   UNL     1      31.590  38.788 -23.323  1.00  0.00     0.160 A 
ATOM      3  C   UNL     1      30.562  39.270 -24.157  1.00  0.00     0.054 A 
ATOM      4  C   UNL     1      29.216  39.045 -23.830  1.00  0.00    -0.040 A 
ATOM      5  C   UNL     1      28.900  38.321 -22.673  1.00  0.00     0.008 A 
ATOM      6  C   UNL     1      29.914  37.841 -21.842  1.00  0.00     0.051 A 
ENDROOT
BRANCH   1   7
ATOM      7  O   UNL     1      32.311  37.607 -21.348  1.00  0.00    -0.493 OA
ATOM      8  C   UNL     1      32.584  36.233 -21.092  1.00  0.00     0.278 C 
ENDBRANCH   1   7
BRANCH   2   9
ATOM      9  O   UNL     1      32.947  38.998 -23.618  1.00  0.00    -0.493 OA
ATOM     10  C   UNL     1      33.633  38.417 -24.724  1.00  0.00     0.278 C 
ENDBRANCH   2   9
BRANCH   4  11
ATOM     11  C   UNL     1      28.119  39.533 -24.739  1.00  0.00     0.062 C 
BRANCH  11  12
ATOM     12  C   UNL     1      27.409  38.377 -25.387  1.00  0.00    -0.030 C 
ATOM     13  C   UNL     1      28.033  37.559 -26.241  1.00  0.00     0.004 C 
ENDBRANCH  11  12
ENDBRANCH   4  11
TORSDOF 4
ENDMDL
MODEL 5
REMARK VINA RESULT:    -4.864     10.401     12.832
REMARK INTER + INTRA:          -6.276
REMARK INTER:                  -6.000
REMARK INTRA:                  -0.276
REMARK UNBOUND:                -0.275
REMARK SMILES C=CCc1ccc(OC)c(OC)c1
REMARK SMILES IDX 7 1 10 2 13 3 4 4 5 5 6 6 8 7 9 8 11 9 12 10 3 11 2 12 1 13
REMARK H PARENT
REMARK Flexibility Score: inf
ROOT
ATOM      1  C   UNL     1      22.582  23.591 -23.583  1.00  0.00     0.160 A 
ATOM      2  C   UNL     1      22.188  23.663 -24.927  1.00  0.00     0.160 A 
ATOM      3  C   UNL     1      23.112  23.350 -25.944  1.00  0.00     0.054 A 
ATOM      4  C   UNL     1      24.421  22.962 -25.621  1.00  0.00    -0.040 A 
ATOM      5  C   UNL     1      24.811  22.904 -24.277  1.00  0.00     0.008 A 
ATOM      6  C   UNL     1      23.900  23.211 -23.264  1.00  0.00     0.051 A 
ENDROOT
BRANCH   1   7
ATOM      7  O   UNL     1      21.639  23.906 -22.592  1.00  0.00    -0.493 OA
ATOM      8  C   UNL     1      21.478  25.196 -22.012  1.00  0.00     0.278 C 
ENDBRANCH   1   7
BRANCH   2   9
ATOM      9  O   UNL     1      20.868  24.050 -25.214  1.00  0.00    -0.493 OA
ATOM     10  C   UNL     1      19.780  23.146 -25.382  1.00  0.00     0.278 C 
ENDBRANCH   2   9
BRANCH   4  11
ATOM     11  C   UNL     1      25.417  22.660 -26.710  1.00  0.00     0.062 C 
BRANCH  11  12
ATOM     12  C   UNL     1      25.550  21.176 -26.914  1.00  0.00    -0.030 C 
ATOM     13  C   UNL     1      24.781  20.515 -27.785  1.00  0.00     0.004 C 
ENDBRANCH  11  12
ENDBRANCH   4  11
TORSDOF 4
ENDMDL
MODEL 6
REMARK VINA RESULT:    -4.852     10.853     14.512
REMARK INTER + INTRA:          -6.262
REMARK INTER:                  -5.929
REMARK INTRA:                  -0.333
REMARK UNBOUND:                -0.275
REMARK SMILES C=CCc1ccc(OC)c(OC)c1
REMARK SMILES IDX 7 1 10 2 13 3 4 4 5 5 6 6 8 7 9 8 11 9 12 10 3 11 2 12 1 13
REMARK H PARENT
REMARK Flexibility Score: inf
ROOT
ATOM      1  C   UNL     1      32.236  31.043 -14.045  1.00  0.00     0.160 A 
ATOM      2  C   UNL     1      32.803  31.511 -15.240  1.00  0.00     0.160 A 
ATOM      3  C   UNL     1      34.202  31.646 -15.344  1.00  0.00     0.054 A 
ATOM      4  C   UNL     1      35.031  31.310 -14.263  1.00  0.00    -0.040 A 
ATOM      5  C   UNL     1      34.457  30.854 -13.069  1.00  0.00     0.008 A 
ATOM      6  C   UNL     1      33.072  30.717 -12.960  1.00  0.00     0.051 A 
ENDROOT
BRANCH   1   7
ATOM      7  O   UNL     1      30.840  30.916 -13.973  1.00  0.00    -0.493 OA
ATOM      8  C   UNL     1      30.071  31.122 -12.792  1.00  0.00     0.278 C 
ENDBRANCH   1   7
BRANCH   2   9
ATOM      9  O   UNL     1      31.943  31.833 -16.303  1.00  0.00    -0.493 OA
ATOM     10  C   UNL     1      31.835  31.084 -17.510  1.00  0.00     0.278 C 
ENDBRANCH   2   9
BRANCH   4  11
ATOM     11  C   UNL     1      36.524  31.486 -14.364  1.00  0.00     0.062 C 
BRANCH  11  12
ATOM     12  C   UNL     1      37.036  32.352 -13.248  1.00  0.00    -0.030 C 
ATOM     13  C   UNL     1      37.124  33.680 -13.373  1.00  0.00     0.004 C 
ENDBRANCH  11  12
ENDBRANCH   4  11
TORSDOF 4
ENDMDL
MODEL 7
REMARK VINA RESULT:    -4.820     10.762     14.201
REMARK INTER + INTRA:          -6.222
REMARK INTER:                  -5.925
REMARK INTRA:                  -0.298
REMARK UNBOUND:                -0.275
REMARK SMILES C=CCc1ccc(OC)c(OC)c1
REMARK SMILES IDX 7 1 10 2 13 3 4 4 5 5 6 6 8 7 9 8 11 9 12 10 3 11 2 12 1 13
REMARK H PARENT
REMARK Flexibility Score: inf
ROOT
ATOM      1  C   UNL     1      31.967  31.580 -14.432  1.00  0.00     0.160 A 
ATOM      2  C   UNL     1      32.629  30.793 -13.477  1.00  0.00     0.160 A 
ATOM      3  C   UNL     1      34.037  30.754 -13.459  1.00  0.00     0.054 A 
ATOM      4  C   UNL     1      34.782  31.500 -14.385  1.00  0.00    -0.040 A 
ATOM      5  C   UNL     1      34.114  32.275 -15.342  1.00  0.00     0.008 A 
ATOM      6  C   UNL     1      32.718  32.319 -15.365  1.00  0.00     0.051 A 
ENDROOT
BRANCH   1   7
ATOM      7  O   UNL     1      30.563  31.601 -14.424  1.00  0.00    -0.493 OA
ATOM      8  C   UNL     1      29.768  32.639 -14.987  1.00  0.00     0.278 C 
ENDBRANCH   1   7
BRANCH   2   9
ATOM      9  O   UNL     1      31.852  30.062 -12.563  1.00  0.00    -0.493 OA
ATOM     10  C   UNL     1      31.712  30.386 -11.182  1.00  0.00     0.278 C 
ENDBRANCH   2   9
BRANCH   4  11
ATOM     11  C   UNL     1      36.287  31.432 -14.385  1.00  0.00     0.062 C 
BRANCH  11  12
ATOM     12  C   UNL     1      36.874  32.632 -13.696  1.00  0.00    -0.030 C 
ATOM     13  C   UNL     1      37.125  32.635 -12.382  1.00  0.00     0.004 C 
ENDBRANCH  11  12
ENDBRANCH   4  11
TORSDOF 4
ENDMDL
MODEL 8
REMARK VINA RESULT:    -4.820      6.580      7.914
REMARK INTER + INTRA:          -6.222
REMARK INTER:                  -5.982
REMARK INTRA:                  -0.240
REMARK UNBOUND:                -0.275
REMARK SMILES C=CCc1ccc(OC)c(OC)c1
REMARK SMILES IDX 7 1 10 2 13 3 4 4 5 5 6 6 8 7 9 8 11 9 12 10 3 11 2 12 1 13
REMARK H PARENT
REMARK Flexibility Score: inf
ROOT
ATOM      1  C   UNL     1      20.571  27.443 -21.504  1.00  0.00     0.160 A 
ATOM      2  C   UNL     1      20.953  28.581 -20.778  1.00  0.00     0.160 A 
ATOM      3  C   UNL     1      20.233  29.782 -20.933  1.00  0.00     0.054 A 
ATOM      4  C   UNL     1      19.134  29.846 -21.802  1.00  0.00    -0.040 A 
ATOM      5  C   UNL     1      18.766  28.708 -22.532  1.00  0.00     0.008 A 
ATOM      6  C   UNL     1      19.474  27.515 -22.383  1.00  0.00     0.051 A 
ENDROOT
BRANCH   1   7
ATOM      7  O   UNL     1      21.307  26.260 -21.328  1.00  0.00    -0.493 OA
ATOM      8  C   UNL     1      22.055  25.614 -22.353  1.00  0.00     0.278 C 
ENDBRANCH   1   7
BRANCH   2   9
ATOM      9  O   UNL     1      22.056  28.480 -19.913  1.00  0.00    -0.493 OA
ATOM     10  C   UNL     1      22.087  28.988 -18.583  1.00  0.00     0.278 C 
ENDBRANCH   2   9
BRANCH   4  11
ATOM     11  C   UNL     1      18.385  31.140 -21.991  1.00  0.00     0.062 C 
BRANCH  11  12
ATOM     12  C   UNL     1      19.217  32.131 -22.755  1.00  0.00    -0.030 C 
ATOM     13  C   UNL     1      18.737  33.328 -23.108  1.00  0.00     0.004 C 
ENDBRANCH  11  12
ENDBRANCH   4  11
TORSDOF 4
ENDMDL
MODEL 9
REMARK VINA RESULT:    -4.802      2.341      3.880
REMARK INTER + INTRA:          -6.200
REMARK INTER:                  -5.931
REMARK INTRA:                  -0.268
REMARK UNBOUND:                -0.275
REMARK SMILES C=CCc1ccc(OC)c(OC)c1
REMARK SMILES IDX 7 1 10 2 13 3 4 4 5 5 6 6 8 7 9 8 11 9 12 10 3 11 2 12 1 13
REMARK H PARENT
REMARK Flexibility Score: inf
ROOT
ATOM      1  C   UNL     1      20.702  27.916 -15.367  1.00  0.00     0.160 A 
ATOM      2  C   UNL     1      19.515  28.001 -14.625  1.00  0.00     0.160 A 
ATOM      3  C   UNL     1      19.558  28.444 -13.287  1.00  0.00     0.054 A 
ATOM      4  C   UNL     1      20.778  28.805 -12.696  1.00  0.00    -0.040 A 
ATOM      5  C   UNL     1      21.960  28.707 -13.441  1.00  0.00     0.008 A 
ATOM      6  C   UNL     1      21.925  28.271 -14.767  1.00  0.00     0.051 A 
ENDROOT
BRANCH   1   7
ATOM      7  O   UNL     1      20.627  27.474 -16.698  1.00  0.00    -0.493 OA
ATOM      8  C   UNL     1      20.922  28.280 -17.834  1.00  0.00     0.278 C 
ENDBRANCH   1   7
BRANCH   2   9
ATOM      9  O   UNL     1      18.311  27.635 -15.249  1.00  0.00    -0.493 OA
ATOM     10  C   UNL     1      17.531  26.497 -14.894  1.00  0.00     0.278 C 
ENDBRANCH   2   9
BRANCH   4  11
ATOM     11  C   UNL     1      20.826  29.247 -11.257  1.00  0.00     0.062 C 
BRANCH  11  12
ATOM     12  C   UNL     1      19.909  28.409 -10.411  1.00  0.00    -0.030 C 
ATOM     13  C   UNL     1      20.288  27.937  -9.219  1.00  0.00     0.004 C 
ENDBRANCH  11  12
ENDBRANCH   4  11
TORSDOF 4
ENDMDL
