MODEL 1
REMARK VINA RESULT:    -7.357      0.000      0.000
REMARK INTER + INTRA:          -8.820
REMARK INTER:                  -9.938
REMARK INTRA:                   1.118
REMARK UNBOUND:                 1.118
REMARK SMILES O=c1c(-c2ccc(O)cc2)coc2c([C@@H]3O[C@@H](CO)[C@@H](O)[C@H](O)[C@@H]3O)c(O)ccc12
REMARK SMILES IDX 3 1 11 2 12 3 13 4 30 5 2 6 1 7 29 8 28 9 26 10 14 11 4 12
REMARK SMILES IDX 5 13 6 14 7 15 10 16 9 17 8 18 15 20 24 21 16 22 22 23 17 24
REMARK SMILES IDX 20 25 25 26 23 28 18 30 19 31 21 33 27 35
REMARK H PARENT 8 19 25 27 23 29 19 32 21 34 27 36
REMARK Flexibility Score: inf
ROOT
ATOM      1  C   UNL     1       8.586  52.379  21.210  1.00  0.00     0.065 A 
ATOM      2  C   UNL     1       9.721  52.199  20.410  1.00  0.00     0.208 A 
ATOM      3  O   UNL     1      10.905  51.947  20.952  1.00  0.00    -0.463 OA
ATOM      4  C   UNL     1      11.105  51.850  22.265  1.00  0.00     0.147 A 
ATOM      5  C   UNL     1      10.010  52.016  23.146  1.00  0.00     0.066 A 
ATOM      6  C   UNL     1       8.741  52.294  22.605  1.00  0.00     0.200 A 
ATOM      7  O   UNL     1       7.751  52.481  23.366  1.00  0.00    -0.288 OA
ATOM      8  C   UNL     1      10.206  51.896  24.526  1.00  0.00     0.020 A 
ATOM      9  C   UNL     1      11.465  51.592  25.029  1.00  0.00     0.047 A 
ATOM     10  C   UNL     1      12.560  51.417  24.173  1.00  0.00     0.125 A 
ATOM     11  C   UNL     1      12.408  51.579  22.768  1.00  0.00     0.069 A 
ENDROOT
BRANCH   1  12
ATOM     12  C   UNL     1       7.270  52.653  20.580  1.00  0.00    -0.011 A 
ATOM     13  C   UNL     1       6.765  51.806  19.577  1.00  0.00     0.013 A 
ATOM     14  C   UNL     1       5.532  52.077  18.977  1.00  0.00     0.047 A 
ATOM     15  C   UNL     1       4.790  53.196  19.366  1.00  0.00     0.115 A 
ATOM     16  C   UNL     1       6.522  53.781  20.961  1.00  0.00     0.013 A 
ATOM     17  C   UNL     1       5.289  54.048  20.361  1.00  0.00     0.047 A 
BRANCH  15  18
ATOM     18  O   UNL     1       3.563  53.453  18.760  1.00  0.00    -0.508 OA
ATOM     19  H   UNL     1       3.100  52.758  18.185  1.00  0.00     0.293 HD
ENDBRANCH  15  18
ENDBRANCH   1  12
BRANCH  11  20
ATOM     20  C   UNL     1      13.565  51.383  21.762  1.00  0.00     0.188 C 
ATOM     21  C   UNL     1      13.853  52.502  20.707  1.00  0.00     0.179 C 
ATOM     22  O   UNL     1      14.736  50.873  22.383  1.00  0.00    -0.362 OA
ATOM     23  C   UNL     1      15.355  52.848  20.682  1.00  0.00     0.177 C 
ATOM     24  C   UNL     1      15.501  51.867  23.048  1.00  0.00     0.176 C 
ATOM     25  C   UNL     1      15.916  53.048  22.104  1.00  0.00     0.177 C 
BRANCH  21  26
ATOM     26  O   UNL     1      13.062  53.645  20.914  1.00  0.00    -0.387 OA
ATOM     27  H   UNL     1      13.453  54.146  21.677  1.00  0.00     0.211 HD
ENDBRANCH  21  26
BRANCH  23  28
ATOM     28  O   UNL     1      15.611  53.960  19.858  1.00  0.00    -0.387 OA
ATOM     29  H   UNL     1      16.163  53.655  19.092  1.00  0.00     0.211 HD
ENDBRANCH  23  28
BRANCH  24  30
ATOM     30  C   UNL     1      16.709  51.169  23.698  1.00  0.00     0.191 C 
BRANCH  30  31
ATOM     31  O   UNL     1      16.424  49.817  23.941  1.00  0.00    -0.394 OA
ATOM     32  H   UNL     1      16.602  49.332  23.092  1.00  0.00     0.210 HD
ENDBRANCH  30  31
ENDBRANCH  24  30
BRANCH  25  33
ATOM     33  O   UNL     1      17.315  53.186  22.032  1.00  0.00    -0.388 OA
ATOM     34  H   UNL     1      17.657  53.198  22.965  1.00  0.00     0.211 HD
ENDBRANCH  25  33
ENDBRANCH  11  20
BRANCH  10  35
ATOM     35  O   UNL     1      13.787  51.076  24.739  1.00  0.00    -0.507 OA
ATOM     36  H   UNL     1      13.855  50.526  25.587  1.00  0.00     0.293 HD
ENDBRANCH  10  35
TORSDOF 9
ENDMDL
MODEL 2
REMARK VINA RESULT:    -7.233      1.385      1.790
REMARK INTER + INTRA:          -8.652
REMARK INTER:                  -8.772
REMARK INTRA:                   0.120
REMARK UNBOUND:                 1.118
REMARK SMILES O=c1c(-c2ccc(O)cc2)coc2c([C@@H]3O[C@@H](CO)[C@@H](O)[C@H](O)[C@@H]3O)c(O)ccc12
REMARK SMILES IDX 3 1 11 2 12 3 13 4 30 5 2 6 1 7 29 8 28 9 26 10 14 11 4 12
REMARK SMILES IDX 5 13 6 14 7 15 10 16 9 17 8 18 15 20 24 21 16 22 22 23 17 24
REMARK SMILES IDX 20 25 25 26 23 28 18 30 19 31 21 33 27 35
REMARK H PARENT 8 19 25 27 23 29 19 32 21 34 27 36
REMARK Flexibility Score: inf
ROOT
ATOM      1  C   UNL     1       9.042  52.498  20.906  1.00  0.00     0.065 A 
ATOM      2  C   UNL     1      10.093  52.882  20.064  1.00  0.00     0.208 A 
ATOM      3  O   UNL     1      11.357  52.711  20.429  1.00  0.00    -0.463 OA
ATOM      4  C   UNL     1      11.717  52.176  21.595  1.00  0.00     0.147 A 
ATOM      5  C   UNL     1      10.717  51.757  22.504  1.00  0.00     0.066 A 
ATOM      6  C   UNL     1       9.365  51.933  22.152  1.00  0.00     0.200 A 
ATOM      7  O   UNL     1       8.450  51.602  22.955  1.00  0.00    -0.288 OA
ATOM      8  C   UNL     1      11.086  51.176  23.722  1.00  0.00     0.020 A 
ATOM      9  C   UNL     1      12.428  50.989  24.029  1.00  0.00     0.047 A 
ATOM     10  C   UNL     1      13.433  51.389  23.139  1.00  0.00     0.125 A 
ATOM     11  C   UNL     1      13.097  52.027  21.913  1.00  0.00     0.069 A 
ENDROOT
BRANCH   1  12
ATOM     12  C   UNL     1       7.635  52.694  20.472  1.00  0.00    -0.011 A 
ATOM     13  C   UNL     1       6.851  53.721  21.026  1.00  0.00     0.013 A 
ATOM     14  C   UNL     1       5.523  53.891  20.624  1.00  0.00     0.047 A 
ATOM     15  C   UNL     1       4.961  53.040  19.668  1.00  0.00     0.115 A 
ATOM     16  C   UNL     1       7.062  51.837  19.516  1.00  0.00     0.013 A 
ATOM     17  C   UNL     1       5.735  52.011  19.115  1.00  0.00     0.047 A 
BRANCH  15  18
ATOM     18  O   UNL     1       3.637  53.223  19.277  1.00  0.00    -0.508 OA
ATOM     19  H   UNL     1       2.887  52.666  19.670  1.00  0.00     0.293 HD
ENDBRANCH  15  18
ENDBRANCH   1  12
BRANCH  11  20
ATOM     20  C   UNL     1      14.149  52.479  20.875  1.00  0.00     0.188 C 
ATOM     21  C   UNL     1      15.059  53.710  21.200  1.00  0.00     0.179 C 
ATOM     22  O   UNL     1      14.857  51.382  20.316  1.00  0.00    -0.362 OA
ATOM     23  C   UNL     1      16.538  53.378  20.923  1.00  0.00     0.177 C 
ATOM     24  C   UNL     1      15.902  50.902  21.147  1.00  0.00     0.176 C 
ATOM     25  C   UNL     1      16.938  52.017  21.527  1.00  0.00     0.177 C 
BRANCH  21  26
ATOM     26  O   UNL     1      14.871  54.179  22.512  1.00  0.00    -0.387 OA
ATOM     27  H   UNL     1      14.310  53.514  22.991  1.00  0.00     0.211 HD
ENDBRANCH  21  26
BRANCH  23  28
ATOM     28  O   UNL     1      17.386  54.412  21.360  1.00  0.00    -0.387 OA
ATOM     29  H   UNL     1      18.159  54.001  21.827  1.00  0.00     0.211 HD
ENDBRANCH  23  28
BRANCH  24  30
ATOM     30  C   UNL     1      16.552  49.702  20.435  1.00  0.00     0.191 C 
BRANCH  30  31
ATOM     31  O   UNL     1      17.114  48.820  21.371  1.00  0.00    -0.394 OA
ATOM     32  H   UNL     1      16.713  49.044  22.251  1.00  0.00     0.210 HD
ENDBRANCH  30  31
ENDBRANCH  24  30
BRANCH  25  33
ATOM     33  O   UNL     1      18.237  51.685  21.097  1.00  0.00    -0.388 OA
ATOM     34  H   UNL     1      18.333  52.020  20.167  1.00  0.00     0.211 HD
ENDBRANCH  25  33
ENDBRANCH  11  20
BRANCH  10  35
ATOM     35  O   UNL     1      14.758  51.138  23.490  1.00  0.00    -0.507 OA
ATOM     36  H   UNL     1      15.536  51.496  22.947  1.00  0.00     0.293 HD
ENDBRANCH  10  35
TORSDOF 9
ENDMDL
MODEL 3
REMARK VINA RESULT:    -7.229      1.679      8.597
REMARK INTER + INTRA:          -8.646
REMARK INTER:                  -9.341
REMARK INTRA:                   0.695
REMARK UNBOUND:                 1.118
REMARK SMILES O=c1c(-c2ccc(O)cc2)coc2c([C@@H]3O[C@@H](CO)[C@@H](O)[C@H](O)[C@@H]3O)c(O)ccc12
REMARK SMILES IDX 3 1 11 2 12 3 13 4 30 5 2 6 1 7 29 8 28 9 26 10 14 11 4 12
REMARK SMILES IDX 5 13 6 14 7 15 10 16 9 17 8 18 15 20 24 21 16 22 22 23 17 24
REMARK SMILES IDX 20 25 25 26 23 28 18 30 19 31 21 33 27 35
REMARK H PARENT 8 19 25 27 23 29 19 32 21 34 27 36
REMARK Flexibility Score: inf
ROOT
ATOM      1  C   UNL     1      12.217  51.995  22.222  1.00  0.00     0.065 A 
ATOM      2  C   UNL     1      11.586  52.487  21.073  1.00  0.00     0.208 A 
ATOM      3  O   UNL     1      10.269  52.648  21.033  1.00  0.00    -0.463 OA
ATOM      4  C   UNL     1       9.464  52.359  22.054  1.00  0.00     0.147 A 
ATOM      5  C   UNL     1      10.021  51.858  23.255  1.00  0.00     0.066 A 
ATOM      6  C   UNL     1      11.413  51.666  23.328  1.00  0.00     0.200 A 
ATOM      7  O   UNL     1      11.937  51.189  24.373  1.00  0.00    -0.288 OA
ATOM      8  C   UNL     1       9.185  51.570  24.339  1.00  0.00     0.020 A 
ATOM      9  C   UNL     1       7.817  51.796  24.247  1.00  0.00     0.047 A 
ATOM     10  C   UNL     1       7.248  52.299  23.071  1.00  0.00     0.125 A 
ATOM     11  C   UNL     1       8.060  52.558  21.931  1.00  0.00     0.069 A 
ENDROOT
BRANCH   1  12
ATOM     12  C   UNL     1      13.692  51.830  22.244  1.00  0.00    -0.011 A 
ATOM     13  C   UNL     1      14.478  52.541  23.169  1.00  0.00     0.013 A 
ATOM     14  C   UNL     1      15.868  52.393  23.176  1.00  0.00     0.047 A 
ATOM     15  C   UNL     1      16.491  51.539  22.261  1.00  0.00     0.115 A 
ATOM     16  C   UNL     1      14.325  50.978  21.323  1.00  0.00     0.013 A 
ATOM     17  C   UNL     1      15.715  50.831  21.333  1.00  0.00     0.047 A 
BRANCH  15  18
ATOM     18  O   UNL     1      17.876  51.401  22.280  1.00  0.00    -0.508 OA
ATOM     19  H   UNL     1      18.458  51.790  21.547  1.00  0.00     0.293 HD
ENDBRANCH  15  18
ENDBRANCH   1  12
BRANCH  11  20
ATOM     20  C   UNL     1       7.506  53.129  20.607  1.00  0.00     0.188 C 
ATOM     21  C   UNL     1       6.998  52.141  19.505  1.00  0.00     0.179 C 
ATOM     22  O   UNL     1       6.640  54.235  20.820  1.00  0.00    -0.362 OA
ATOM     23  C   UNL     1       5.610  52.570  18.992  1.00  0.00     0.177 C 
ATOM     24  C   UNL     1       5.324  53.859  21.192  1.00  0.00     0.176 C 
ATOM     25  C   UNL     1       4.650  52.896  20.153  1.00  0.00     0.177 C 
BRANCH  21  26
ATOM     26  O   UNL     1       6.997  50.807  19.947  1.00  0.00    -0.387 OA
ATOM     27  H   UNL     1       7.703  50.719  20.640  1.00  0.00     0.211 HD
ENDBRANCH  21  26
BRANCH  23  28
ATOM     28  O   UNL     1       5.066  51.608  18.120  1.00  0.00    -0.387 OA
ATOM     29  H   UNL     1       4.148  51.897  17.876  1.00  0.00     0.211 HD
ENDBRANCH  23  28
BRANCH  24  30
ATOM     30  C   UNL     1       4.517  55.149  21.422  1.00  0.00     0.191 C 
BRANCH  30  31
ATOM     31  O   UNL     1       4.597  55.987  20.300  1.00  0.00    -0.394 OA
ATOM     32  H   UNL     1       4.216  56.863  20.570  1.00  0.00     0.210 HD
ENDBRANCH  30  31
ENDBRANCH  24  30
BRANCH  25  33
ATOM     33  O   UNL     1       3.464  53.447  19.631  1.00  0.00    -0.388 OA
ATOM     34  H   UNL     1       3.474  54.417  19.841  1.00  0.00     0.211 HD
ENDBRANCH  25  33
ENDBRANCH  11  20
BRANCH  10  35
ATOM     35  O   UNL     1       5.876  52.540  23.056  1.00  0.00    -0.507 OA
ATOM     36  H   UNL     1       5.267  52.230  23.805  1.00  0.00     0.293 HD
ENDBRANCH  10  35
TORSDOF 9
ENDMDL
MODEL 4
REMARK VINA RESULT:    -6.941      2.698      4.528
REMARK INTER + INTRA:          -8.257
REMARK INTER:                  -8.312
REMARK INTRA:                   0.055
REMARK UNBOUND:                 1.118
REMARK SMILES O=c1c(-c2ccc(O)cc2)coc2c([C@@H]3O[C@@H](CO)[C@@H](O)[C@H](O)[C@@H]3O)c(O)ccc12
REMARK SMILES IDX 3 1 11 2 12 3 13 4 30 5 2 6 1 7 29 8 28 9 26 10 14 11 4 12
REMARK SMILES IDX 5 13 6 14 7 15 10 16 9 17 8 18 15 20 24 21 16 22 22 23 17 24
REMARK SMILES IDX 20 25 25 26 23 28 18 30 19 31 21 33 27 35
REMARK H PARENT 8 19 25 27 23 29 19 32 21 34 27 36
REMARK Flexibility Score: inf
ROOT
ATOM      1  C   UNL     1      11.661  51.542  23.149  1.00  0.00     0.065 A 
ATOM      2  C   UNL     1      11.992  51.055  21.879  1.00  0.00     0.208 A 
ATOM      3  O   UNL     1      13.253  51.022  21.468  1.00  0.00    -0.463 OA
ATOM      4  C   UNL     1      14.277  51.440  22.210  1.00  0.00     0.147 A 
ATOM      5  C   UNL     1      14.031  51.945  23.510  1.00  0.00     0.066 A 
ATOM      6  C   UNL     1      12.703  52.003  23.973  1.00  0.00     0.200 A 
ATOM      7  O   UNL     1      12.446  52.479  25.113  1.00  0.00    -0.288 OA
ATOM      8  C   UNL     1      15.102  52.368  24.304  1.00  0.00     0.020 A 
ATOM      9  C   UNL     1      16.404  52.272  23.830  1.00  0.00     0.047 A 
ATOM     10  C   UNL     1      16.669  51.768  22.550  1.00  0.00     0.125 A 
ATOM     11  C   UNL     1      15.603  51.374  21.696  1.00  0.00     0.069 A 
ENDROOT
BRANCH   1  12
ATOM     12  C   UNL     1      10.243  51.562  23.589  1.00  0.00    -0.011 A 
ATOM     13  C   UNL     1       9.834  50.839  24.724  1.00  0.00     0.013 A 
ATOM     14  C   UNL     1       8.495  50.851  25.125  1.00  0.00     0.047 A 
ATOM     15  C   UNL     1       7.548  51.578  24.398  1.00  0.00     0.115 A 
ATOM     16  C   UNL     1       9.284  52.285  22.858  1.00  0.00     0.013 A 
ATOM     17  C   UNL     1       7.946  52.296  23.263  1.00  0.00     0.047 A 
BRANCH  15  18
ATOM     18  O   UNL     1       6.218  51.581  24.810  1.00  0.00    -0.508 OA
ATOM     19  H   UNL     1       5.496  51.115  24.272  1.00  0.00     0.293 HD
ENDBRANCH  15  18
ENDBRANCH   1  12
BRANCH  11  20
ATOM     20  C   UNL     1      15.820  50.792  20.281  1.00  0.00     0.188 C 
ATOM     21  C   UNL     1      16.482  51.689  19.183  1.00  0.00     0.179 C 
ATOM     22  O   UNL     1      16.332  49.468  20.317  1.00  0.00    -0.362 OA
ATOM     23  C   UNL     1      17.618  50.925  18.474  1.00  0.00     0.177 C 
ATOM     24  C   UNL     1      17.732  49.410  20.541  1.00  0.00     0.176 C 
ATOM     25  C   UNL     1      18.551  50.228  19.483  1.00  0.00     0.177 C 
BRANCH  21  26
ATOM     26  O   UNL     1      16.928  52.918  19.698  1.00  0.00    -0.387 OA
ATOM     27  H   UNL     1      17.822  53.102  19.305  1.00  0.00     0.211 HD
ENDBRANCH  21  26
BRANCH  23  28
ATOM     28  O   UNL     1      18.330  51.765  17.597  1.00  0.00    -0.387 OA
ATOM     29  H   UNL     1      18.533  51.249  16.774  1.00  0.00     0.211 HD
ENDBRANCH  23  28
BRANCH  24  30
ATOM     30  C   UNL     1      18.135  47.925  20.591  1.00  0.00     0.191 C 
BRANCH  30  31
ATOM     31  O   UNL     1      17.438  47.192  19.619  1.00  0.00    -0.394 OA
ATOM     32  H   UNL     1      16.612  46.854  20.055  1.00  0.00     0.210 HD
ENDBRANCH  30  31
ENDBRANCH  24  30
BRANCH  25  33
ATOM     33  O   UNL     1      19.457  49.408  18.783  1.00  0.00    -0.388 OA
ATOM     34  H   UNL     1      20.220  49.981  18.510  1.00  0.00     0.211 HD
ENDBRANCH  25  33
ENDBRANCH  11  20
BRANCH  10  35
ATOM     35  O   UNL     1      18.000  51.662  22.150  1.00  0.00    -0.507 OA
ATOM     36  H   UNL     1      18.398  50.787  21.828  1.00  0.00     0.293 HD
ENDBRANCH  10  35
TORSDOF 9
ENDMDL
MODEL 5
REMARK VINA RESULT:    -6.941      4.385      5.800
REMARK INTER + INTRA:          -8.257
REMARK INTER:                  -8.634
REMARK INTRA:                   0.377
REMARK UNBOUND:                 1.118
REMARK SMILES O=c1c(-c2ccc(O)cc2)coc2c([C@@H]3O[C@@H](CO)[C@@H](O)[C@H](O)[C@@H]3O)c(O)ccc12
REMARK SMILES IDX 3 1 11 2 12 3 13 4 30 5 2 6 1 7 29 8 28 9 26 10 14 11 4 12
REMARK SMILES IDX 5 13 6 14 7 15 10 16 9 17 8 18 15 20 24 21 16 22 22 23 17 24
REMARK SMILES IDX 20 25 25 26 23 28 18 30 19 31 21 33 27 35
REMARK H PARENT 8 19 25 27 23 29 19 32 21 34 27 36
REMARK Flexibility Score: inf
ROOT
ATOM      1  C   UNL     1      10.986  51.783  16.146  1.00  0.00     0.065 A 
ATOM      2  C   UNL     1      12.013  51.193  16.891  1.00  0.00     0.208 A 
ATOM      3  O   UNL     1      12.048  51.303  18.213  1.00  0.00    -0.463 OA
ATOM      4  C   UNL     1      11.133  51.968  18.917  1.00  0.00     0.147 A 
ATOM      5  C   UNL     1      10.058  52.592  18.241  1.00  0.00     0.066 A 
ATOM      6  C   UNL     1       9.996  52.503  16.838  1.00  0.00     0.200 A 
ATOM      7  O   UNL     1       9.069  53.078  16.203  1.00  0.00    -0.288 OA
ATOM      8  C   UNL     1       9.082  53.276  18.974  1.00  0.00     0.020 A 
ATOM      9  C   UNL     1       9.154  53.322  20.361  1.00  0.00     0.047 A 
ATOM     10  C   UNL     1      10.205  52.704  21.049  1.00  0.00     0.125 A 
ATOM     11  C   UNL     1      11.241  52.041  20.334  1.00  0.00     0.069 A 
ENDROOT
BRANCH   1  12
ATOM     12  C   UNL     1      10.966  51.640  14.668  1.00  0.00    -0.011 A 
ATOM     13  C   UNL     1      10.217  50.618  14.057  1.00  0.00     0.013 A 
ATOM     14  C   UNL     1      10.214  50.479  12.666  1.00  0.00     0.047 A 
ATOM     15  C   UNL     1      10.957  51.354  11.869  1.00  0.00     0.115 A 
ATOM     16  C   UNL     1      11.717  52.512  13.861  1.00  0.00     0.013 A 
ATOM     17  C   UNL     1      11.710  52.372  12.470  1.00  0.00     0.047 A 
BRANCH  15  18
ATOM     18  O   UNL     1      10.944  51.204  10.485  1.00  0.00    -0.508 OA
ATOM     19  H   UNL     1      10.172  51.545   9.922  1.00  0.00     0.293 HD
ENDBRANCH  15  18
ENDBRANCH   1  12
BRANCH  11  20
ATOM     20  C   UNL     1      12.422  51.322  21.025  1.00  0.00     0.188 C 
ATOM     21  C   UNL     1      13.666  52.158  21.474  1.00  0.00     0.179 C 
ATOM     22  O   UNL     1      11.984  50.387  22.001  1.00  0.00    -0.362 OA
ATOM     23  C   UNL     1      14.045  51.824  22.930  1.00  0.00     0.177 C 
ATOM     24  C   UNL     1      11.641  50.985  23.241  1.00  0.00     0.176 C 
ATOM     25  C   UNL     1      12.812  51.828  23.855  1.00  0.00     0.177 C 
BRANCH  21  26
ATOM     26  O   UNL     1      13.471  53.538  21.294  1.00  0.00    -0.387 OA
ATOM     27  H   UNL     1      13.492  53.965  22.191  1.00  0.00     0.211 HD
ENDBRANCH  21  26
BRANCH  23  28
ATOM     28  O   UNL     1      15.057  52.680  23.405  1.00  0.00    -0.387 OA
ATOM     29  H   UNL     1      14.885  52.856  24.367  1.00  0.00     0.211 HD
ENDBRANCH  23  28
BRANCH  24  30
ATOM     30  C   UNL     1      11.155  49.867  24.180  1.00  0.00     0.191 C 
BRANCH  30  31
ATOM     31  O   UNL     1      11.934  48.712  24.015  1.00  0.00    -0.394 OA
ATOM     32  H   UNL     1      11.847  48.187  24.854  1.00  0.00     0.210 HD
ENDBRANCH  30  31
ENDBRANCH  24  30
BRANCH  25  33
ATOM     33  O   UNL     1      13.185  51.349  25.125  1.00  0.00    -0.388 OA
ATOM     34  H   UNL     1      12.669  50.516  25.287  1.00  0.00     0.211 HD
ENDBRANCH  25  33
ENDBRANCH  11  20
BRANCH  10  35
ATOM     35  O   UNL     1      10.198  52.755  22.441  1.00  0.00    -0.507 OA
ATOM     36  H   UNL     1      10.959  52.382  22.998  1.00  0.00     0.293 HD
ENDBRANCH  10  35
TORSDOF 9
ENDMDL
MODEL 6
REMARK VINA RESULT:    -6.711      6.750      8.914
REMARK INTER + INTRA:          -7.947
REMARK INTER:                  -7.729
REMARK INTRA:                  -0.218
REMARK UNBOUND:                 1.118
REMARK SMILES O=c1c(-c2ccc(O)cc2)coc2c([C@@H]3O[C@@H](CO)[C@@H](O)[C@H](O)[C@@H]3O)c(O)ccc12
REMARK SMILES IDX 3 1 11 2 12 3 13 4 30 5 2 6 1 7 29 8 28 9 26 10 14 11 4 12
REMARK SMILES IDX 5 13 6 14 7 15 10 16 9 17 8 18 15 20 24 21 16 22 22 23 17 24
REMARK SMILES IDX 20 25 25 26 23 28 18 30 19 31 21 33 27 35
REMARK H PARENT 8 19 25 27 23 29 19 32 21 34 27 36
REMARK Flexibility Score: inf
ROOT
ATOM      1  C   UNL     1      11.497  46.902  15.058  1.00  0.00     0.065 A 
ATOM      2  C   UNL     1      11.419  47.097  16.442  1.00  0.00     0.208 A 
ATOM      3  O   UNL     1      11.510  48.313  16.966  1.00  0.00    -0.463 OA
ATOM      4  C   UNL     1      11.681  49.415  16.237  1.00  0.00     0.147 A 
ATOM      5  C   UNL     1      11.767  49.307  14.829  1.00  0.00     0.066 A 
ATOM      6  C   UNL     1      11.685  48.031  14.240  1.00  0.00     0.200 A 
ATOM      7  O   UNL     1      11.793  47.898  12.990  1.00  0.00    -0.288 OA
ATOM      8  C   UNL     1      11.928  50.461  14.054  1.00  0.00     0.020 A 
ATOM      9  C   UNL     1      11.977  51.709  14.661  1.00  0.00     0.047 A 
ATOM     10  C   UNL     1      11.885  51.837  16.053  1.00  0.00     0.125 A 
ATOM     11  C   UNL     1      11.771  50.683  16.876  1.00  0.00     0.069 A 
ENDROOT
BRANCH   1  12
ATOM     12  C   UNL     1      11.386  45.533  14.495  1.00  0.00    -0.011 A 
ATOM     13  C   UNL     1      12.536  44.754  14.272  1.00  0.00     0.013 A 
ATOM     14  C   UNL     1      12.426  43.471  13.729  1.00  0.00     0.047 A 
ATOM     15  C   UNL     1      11.171  42.950  13.398  1.00  0.00     0.115 A 
ATOM     16  C   UNL     1      10.128  45.007  14.153  1.00  0.00     0.013 A 
ATOM     17  C   UNL     1      10.021  43.723  13.612  1.00  0.00     0.047 A 
BRANCH  15  18
ATOM     18  O   UNL     1      11.077  41.671  12.858  1.00  0.00    -0.508 OA
ATOM     19  H   UNL     1      10.722  41.515  11.921  1.00  0.00     0.293 HD
ENDBRANCH  15  18
ENDBRANCH   1  12
BRANCH  11  20
ATOM     20  C   UNL     1      11.646  50.748  18.415  1.00  0.00     0.188 C 
ATOM     21  C   UNL     1      12.741  51.506  19.236  1.00  0.00     0.179 C 
ATOM     22  O   UNL     1      10.320  51.037  18.835  1.00  0.00    -0.362 OA
ATOM     23  C   UNL     1      12.089  52.473  20.243  1.00  0.00     0.177 C 
ATOM     24  C   UNL     1       9.994  52.416  18.764  1.00  0.00     0.176 C 
ATOM     25  C   UNL     1      10.980  53.317  19.585  1.00  0.00     0.177 C 
BRANCH  21  26
ATOM     26  O   UNL     1      13.664  52.167  18.408  1.00  0.00    -0.387 OA
ATOM     27  H   UNL     1      14.491  51.618  18.382  1.00  0.00     0.211 HD
ENDBRANCH  21  26
BRANCH  23  28
ATOM     28  O   UNL     1      13.053  53.280  20.877  1.00  0.00    -0.387 OA
ATOM     29  H   UNL     1      13.945  53.029  20.523  1.00  0.00     0.211 HD
ENDBRANCH  23  28
BRANCH  24  30
ATOM     30  C   UNL     1       8.529  52.573  19.211  1.00  0.00     0.191 C 
BRANCH  30  31
ATOM     31  O   UNL     1       8.295  51.854  20.393  1.00  0.00    -0.394 OA
ATOM     32  H   UNL     1       7.655  52.390  20.930  1.00  0.00     0.210 HD
ENDBRANCH  30  31
ENDBRANCH  24  30
BRANCH  25  33
ATOM     33  O   UNL     1      10.305  54.050  20.581  1.00  0.00    -0.388 OA
ATOM     34  H   UNL     1       9.446  54.357  20.187  1.00  0.00     0.211 HD
ENDBRANCH  25  33
ENDBRANCH  11  20
BRANCH  10  35
ATOM     35  O   UNL     1      11.903  53.120  16.596  1.00  0.00    -0.507 OA
ATOM     36  H   UNL     1      11.192  53.442  17.243  1.00  0.00     0.293 HD
ENDBRANCH  10  35
TORSDOF 9
ENDMDL
MODEL 7
REMARK VINA RESULT:    -6.670      2.113      3.576
REMARK INTER + INTRA:          -7.891
REMARK INTER:                  -7.741
REMARK INTRA:                  -0.150
REMARK UNBOUND:                 1.118
REMARK SMILES O=c1c(-c2ccc(O)cc2)coc2c([C@@H]3O[C@@H](CO)[C@@H](O)[C@H](O)[C@@H]3O)c(O)ccc12
REMARK SMILES IDX 3 1 11 2 12 3 13 4 30 5 2 6 1 7 29 8 28 9 26 10 14 11 4 12
REMARK SMILES IDX 5 13 6 14 7 15 10 16 9 17 8 18 15 20 24 21 16 22 22 23 17 24
REMARK SMILES IDX 20 25 25 26 23 28 18 30 19 31 21 33 27 35
REMARK H PARENT 8 19 25 27 23 29 19 32 21 34 27 36
REMARK Flexibility Score: inf
ROOT
ATOM      1  C   UNL     1      10.007  52.698  20.083  1.00  0.00     0.065 A 
ATOM      2  C   UNL     1      10.670  51.783  20.910  1.00  0.00     0.208 A 
ATOM      3  O   UNL     1      11.995  51.744  20.960  1.00  0.00    -0.463 OA
ATOM      4  C   UNL     1      12.780  52.549  20.246  1.00  0.00     0.147 A 
ATOM      5  C   UNL     1      12.191  53.507  19.386  1.00  0.00     0.066 A 
ATOM      6  C   UNL     1      10.787  53.568  19.301  1.00  0.00     0.200 A 
ATOM      7  O   UNL     1      10.232  54.387  18.518  1.00  0.00    -0.288 OA
ATOM      8  C   UNL     1      13.007  54.369  18.646  1.00  0.00     0.020 A 
ATOM      9  C   UNL     1      14.389  54.304  18.773  1.00  0.00     0.047 A 
ATOM     10  C   UNL     1      14.991  53.369  19.624  1.00  0.00     0.125 A 
ATOM     11  C   UNL     1      14.195  52.444  20.355  1.00  0.00     0.069 A 
ENDROOT
BRANCH   1  12
ATOM     12  C   UNL     1       8.523  52.727  20.050  1.00  0.00    -0.011 A 
ATOM     13  C   UNL     1       7.816  52.055  19.036  1.00  0.00     0.013 A 
ATOM     14  C   UNL     1       6.420  52.097  19.001  1.00  0.00     0.047 A 
ATOM     15  C   UNL     1       5.712  52.811  19.973  1.00  0.00     0.115 A 
ATOM     16  C   UNL     1       7.806  53.449  21.019  1.00  0.00     0.013 A 
ATOM     17  C   UNL     1       6.409  53.487  20.983  1.00  0.00     0.047 A 
BRANCH  15  18
ATOM     18  O   UNL     1       4.321  52.843  19.926  1.00  0.00    -0.508 OA
ATOM     19  H   UNL     1       3.767  53.032  20.754  1.00  0.00     0.293 HD
ENDBRANCH  15  18
ENDBRANCH   1  12
BRANCH  11  20
ATOM     20  C   UNL     1      14.787  51.398  21.326  1.00  0.00     0.188 C 
ATOM     21  C   UNL     1      15.873  50.400  20.802  1.00  0.00     0.179 C 
ATOM     22  O   UNL     1      15.097  51.958  22.595  1.00  0.00    -0.362 OA
ATOM     23  C   UNL     1      17.076  50.355  21.764  1.00  0.00     0.177 C 
ATOM     24  C   UNL     1      16.331  52.657  22.617  1.00  0.00     0.176 C 
ATOM     25  C   UNL     1      17.541  51.770  22.160  1.00  0.00     0.177 C 
BRANCH  21  26
ATOM     26  O   UNL     1      16.273  50.693  19.487  1.00  0.00    -0.387 OA
ATOM     27  H   UNL     1      17.063  51.292  19.539  1.00  0.00     0.211 HD
ENDBRANCH  21  26
BRANCH  23  28
ATOM     28  O   UNL     1      18.130  49.589  21.231  1.00  0.00    -0.387 OA
ATOM     29  H   UNL     1      17.941  49.432  20.269  1.00  0.00     0.211 HD
ENDBRANCH  23  28
BRANCH  24  30
ATOM     30  C   UNL     1      16.515  53.234  24.032  1.00  0.00     0.191 C 
BRANCH  30  31
ATOM     31  O   UNL     1      17.383  54.336  24.005  1.00  0.00    -0.394 OA
ATOM     32  H   UNL     1      18.305  53.975  24.085  1.00  0.00     0.210 HD
ENDBRANCH  30  31
ENDBRANCH  24  30
BRANCH  25  33
ATOM     33  O   UNL     1      18.519  51.669  23.168  1.00  0.00    -0.388 OA
ATOM     34  H   UNL     1      18.483  50.742  23.520  1.00  0.00     0.211 HD
ENDBRANCH  25  33
ENDBRANCH  11  20
BRANCH  10  35
ATOM     35  O   UNL     1      16.380  53.381  19.735  1.00  0.00    -0.507 OA
ATOM     36  H   UNL     1      16.909  54.244  19.793  1.00  0.00     0.293 HD
ENDBRANCH  10  35
TORSDOF 9
ENDMDL
MODEL 8
REMARK VINA RESULT:    -6.439      3.546      4.807
REMARK INTER + INTRA:          -7.580
REMARK INTER:                  -7.853
REMARK INTRA:                   0.273
REMARK UNBOUND:                 1.118
REMARK SMILES O=c1c(-c2ccc(O)cc2)coc2c([C@@H]3O[C@@H](CO)[C@@H](O)[C@H](O)[C@@H]3O)c(O)ccc12
REMARK SMILES IDX 3 1 11 2 12 3 13 4 30 5 2 6 1 7 29 8 28 9 26 10 14 11 4 12
REMARK SMILES IDX 5 13 6 14 7 15 10 16 9 17 8 18 15 20 24 21 16 22 22 23 17 24
REMARK SMILES IDX 20 25 25 26 23 28 18 30 19 31 21 33 27 35
REMARK H PARENT 8 19 25 27 23 29 19 32 21 34 27 36
REMARK Flexibility Score: inf
ROOT
ATOM      1  C   UNL     1      12.272  51.121  17.724  1.00  0.00     0.065 A 
ATOM      2  C   UNL     1      13.620  51.455  17.902  1.00  0.00     0.208 A 
ATOM      3  O   UNL     1      14.096  51.757  19.103  1.00  0.00    -0.463 OA
ATOM      4  C   UNL     1      13.350  51.767  20.206  1.00  0.00     0.147 A 
ATOM      5  C   UNL     1      11.976  51.439  20.116  1.00  0.00     0.066 A 
ATOM      6  C   UNL     1      11.436  51.123  18.855  1.00  0.00     0.200 A 
ATOM      7  O   UNL     1      10.208  50.859  18.735  1.00  0.00    -0.288 OA
ATOM      8  C   UNL     1      11.188  51.429  21.272  1.00  0.00     0.020 A 
ATOM      9  C   UNL     1      11.755  51.717  22.507  1.00  0.00     0.047 A 
ATOM     10  C   UNL     1      13.114  52.036  22.618  1.00  0.00     0.125 A 
ATOM     11  C   UNL     1      13.935  52.104  21.459  1.00  0.00     0.069 A 
ENDROOT
BRANCH   1  12
ATOM     12  C   UNL     1      11.765  50.781  16.371  1.00  0.00    -0.011 A 
ATOM     13  C   UNL     1      11.157  51.761  15.566  1.00  0.00     0.013 A 
ATOM     14  C   UNL     1      10.669  51.431  14.299  1.00  0.00     0.047 A 
ATOM     15  C   UNL     1      10.778  50.123  13.820  1.00  0.00     0.115 A 
ATOM     16  C   UNL     1      11.866  49.465  15.886  1.00  0.00     0.013 A 
ATOM     17  C   UNL     1      11.378  49.139  14.618  1.00  0.00     0.047 A 
BRANCH  15  18
ATOM     18  O   UNL     1      10.287  49.809  12.555  1.00  0.00    -0.508 OA
ATOM     19  H   UNL     1      10.572  48.965  12.070  1.00  0.00     0.293 HD
ENDBRANCH  15  18
ENDBRANCH   1  12
BRANCH  11  20
ATOM     20  C   UNL     1      15.445  52.432  21.506  1.00  0.00     0.188 C 
ATOM     21  C   UNL     1      15.896  53.899  21.809  1.00  0.00     0.179 C 
ATOM     22  O   UNL     1      16.185  51.452  22.220  1.00  0.00    -0.362 OA
ATOM     23  C   UNL     1      16.980  53.917  22.904  1.00  0.00     0.177 C 
ATOM     24  C   UNL     1      16.120  51.611  23.628  1.00  0.00     0.176 C 
ATOM     25  C   UNL     1      16.592  53.029  24.103  1.00  0.00     0.177 C 
BRANCH  21  26
ATOM     26  O   UNL     1      14.813  54.731  22.140  1.00  0.00    -0.387 OA
ATOM     27  H   UNL     1      14.933  55.021  23.082  1.00  0.00     0.211 HD
ENDBRANCH  21  26
BRANCH  23  28
ATOM     28  O   UNL     1      17.283  55.232  23.304  1.00  0.00    -0.387 OA
ATOM     29  H   UNL     1      16.701  55.851  22.792  1.00  0.00     0.211 HD
ENDBRANCH  23  28
BRANCH  24  30
ATOM     30  C   UNL     1      16.931  50.468  24.265  1.00  0.00     0.191 C 
BRANCH  30  31
ATOM     31  O   UNL     1      16.077  49.451  24.717  1.00  0.00    -0.394 OA
ATOM     32  H   UNL     1      15.157  49.823  24.700  1.00  0.00     0.210 HD
ENDBRANCH  30  31
ENDBRANCH  24  30
BRANCH  25  33
ATOM     33  O   UNL     1      17.685  52.942  24.986  1.00  0.00    -0.388 OA
ATOM     34  H   UNL     1      17.500  53.559  25.743  1.00  0.00     0.211 HD
ENDBRANCH  25  33
ENDBRANCH  11  20
BRANCH  10  35
ATOM     35  O   UNL     1      13.630  52.277  23.890  1.00  0.00    -0.507 OA
ATOM     36  H   UNL     1      13.787  53.216  24.239  1.00  0.00     0.293 HD
ENDBRANCH  10  35
TORSDOF 9
ENDMDL
