MODEL 1
REMARK VINA RESULT:     1.694      0.000      0.000
REMARK INTER + INTRA:           4.072
REMARK INTER:                   2.487
REMARK INTRA:                   1.585
REMARK UNBOUND:                 1.585
REMARK SMILES C=C1CC=CC(C)(C)CC=C(C)CCC1
REMARK SMILES IDX 2 1 1 2 15 3 14 4 13 5 11 6 12 7 10 8 3 10 4 11 5 12 6 13
REMARK SMILES IDX 7 14 8 15 9 16
REMARK H PARENT
REMARK Flexibility Score: 60.00
ROOT
ATOM      1  C   UNL     1       6.274   4.882  13.231  1.00  0.00    -0.074 C 
ATOM      2  C   UNL     1       6.863   4.878  14.439  1.00  0.00     0.008 C 
ENDROOT
BRANCH   1   3
ATOM      3  C   UNL     1       7.168   4.901  11.993  1.00  0.00     0.031 C 
BRANCH   3   4
ATOM      4  C   UNL     1       8.319   5.926  11.991  1.00  0.00     0.009 C 
BRANCH   4   5
ATOM      5  C   UNL     1       7.819   7.381  12.046  1.00  0.00     0.030 C 
BRANCH   5   6
ATOM      6  C   UNL     1       7.935   8.041  13.410  1.00  0.00    -0.077 C 
ATOM      7  C   UNL     1       9.292   8.547  13.839  1.00  0.00     0.039 C 
ATOM      8  C   UNL     1       6.886   8.316  14.232  1.00  0.00    -0.027 CG0
ATOM      9  G   UNL     1       5.465   7.787  14.149  1.00  0.00     0.000 G0
ENDBRANCH   5   6
ENDBRANCH   4   5
ENDBRANCH   3   4
ENDBRANCH   1   3
BRANCH   1  10
ATOM     10  C   UNL     1       4.757   4.965  13.164  1.00  0.00     0.057 C 
BRANCH  10  11
ATOM     11  C   UNL     1       4.341   5.824  11.992  1.00  0.00    -0.026 C 
ATOM     12  C   UNL     1       4.367   7.175  11.892  1.00  0.00    -0.024 C 
BRANCH  12  13
ATOM     13  C   UNL     1       4.543   8.219  12.997  1.00  0.00    -0.014 C 
ATOM     14  C   UNL     1       5.144   9.495  12.355  1.00  0.00     0.016 C 
ATOM     15  C   UNL     1       3.154   8.602  13.556  1.00  0.00     0.016 C 
BRANCH  13  16
ATOM     16  C   UNL     1       5.468   7.782  14.173  1.00  0.00     0.038 CG0
ATOM     17  G   UNL     1       6.873   8.359  14.206  1.00  0.00     0.000 G0
ENDBRANCH  13  16
ENDBRANCH  12  13
ENDBRANCH  10  11
ENDBRANCH   1  10
TORSDOF 0
ENDMDL
MODEL 2
REMARK VINA RESULT:     2.615      0.850      3.270
REMARK INTER + INTRA:           5.423
REMARK INTER:                   3.228
REMARK INTRA:                   2.195
REMARK UNBOUND:                 1.585
REMARK SMILES C=C1CC=CC(C)(C)CC=C(C)CCC1
REMARK SMILES IDX 2 1 1 2 15 3 14 4 13 5 11 6 12 7 10 8 3 10 4 11 5 12 6 13
REMARK SMILES IDX 7 14 8 15 9 16
REMARK H PARENT
REMARK Flexibility Score: 60.00
ROOT
ATOM      1  C   UNL     1       6.540   5.081  12.982  1.00  0.00    -0.074 C 
ATOM      2  C   UNL     1       6.581   4.899  14.313  1.00  0.00     0.008 C 
ENDROOT
BRANCH   1   3
ATOM      3  C   UNL     1       5.207   4.875  12.265  1.00  0.00     0.031 C 
BRANCH   3   4
ATOM      4  C   UNL     1       4.143   5.972  12.464  1.00  0.00     0.009 C 
BRANCH   4   5
ATOM      5  C   UNL     1       4.745   7.388  12.477  1.00  0.00     0.030 C 
BRANCH   5   6
ATOM      6  C   UNL     1       4.728   8.073  13.833  1.00  0.00    -0.077 C 
ATOM      7  C   UNL     1       3.441   8.721  14.284  1.00  0.00     0.039 C 
ATOM      8  C   UNL     1       5.753   8.050  14.728  1.00  0.00    -0.027 CG0
ATOM      9  G   UNL     1       7.195   7.634  14.493  1.00  0.00     0.000 G0
ENDBRANCH   5   6
ENDBRANCH   4   5
ENDBRANCH   3   4
ENDBRANCH   1   3
BRANCH   1  10
ATOM     10  C   UNL     1       7.839   5.387  12.252  1.00  0.00     0.057 C 
BRANCH  10  11
ATOM     11  C   UNL     1       7.727   6.717  11.541  1.00  0.00    -0.026 C 
ATOM     12  C   UNL     1       7.947   7.956  12.041  1.00  0.00    -0.024 C 
BRANCH  12  13
ATOM     13  C   UNL     1       8.087   8.394  13.501  1.00  0.00    -0.014 C 
ATOM     14  C   UNL     1       9.569   8.209  13.914  1.00  0.00     0.016 C 
ATOM     15  C   UNL     1       7.770   9.903  13.608  1.00  0.00     0.016 C 
BRANCH  13  16
ATOM     16  C   UNL     1       7.197   7.609  14.511  1.00  0.00     0.038 CG0
ATOM     17  G   UNL     1       5.774   8.100  14.714  1.00  0.00     0.000 G0
ENDBRANCH  13  16
ENDBRANCH  12  13
ENDBRANCH  10  11
ENDBRANCH   1  10
TORSDOF 0
ENDMDL
