MODEL 1
REMARK VINA RESULT:    -5.238      0.000      0.000
REMARK INTER + INTRA:          -6.790
REMARK INTER:                  -6.463
REMARK INTRA:                  -0.326
REMARK UNBOUND:                -0.326
REMARK SMILES O=c1c(O)c(-c2cc(O)c(O)c(O)c2)oc2cc(O)cc(O)c12
REMARK SMILES IDX 5 1 3 2 2 3 1 4 23 5 21 6 20 7 18 8 17 9 16 10 15 11 6 12
REMARK SMILES IDX 7 13 8 14 14 15 10 16 12 17 9 18 11 20 13 22 4 24 22 26
REMARK SMILES IDX 19 28
REMARK H PARENT 9 19 11 21 13 23 4 25 22 27 19 29
REMARK Flexibility Score: inf
ROOT
ATOM      1  C   UNL     1     135.505 141.891 126.820  1.00  0.00     0.180 A 
ATOM      2  C   UNL     1     136.776 142.440 126.578  1.00  0.00     0.208 A 
ATOM      3  C   UNL     1     136.870 143.766 126.126  1.00  0.00     0.238 A 
ATOM      4  O   UNL     1     138.012 144.270 125.963  1.00  0.00    -0.285 OA
ATOM      5  C   UNL     1     135.692 144.521 125.905  1.00  0.00     0.111 A 
ATOM      6  C   UNL     1     135.668 145.860 125.410  1.00  0.00     0.134 A 
ATOM      7  C   UNL     1     134.452 146.553 125.356  1.00  0.00     0.093 A 
ATOM      8  C   UNL     1     133.252 145.935 125.717  1.00  0.00     0.123 A 
ATOM      9  C   UNL     1     133.259 144.610 126.144  1.00  0.00     0.094 A 
ATOM     10  C   UNL     1     134.460 143.903 126.244  1.00  0.00     0.146 A 
ATOM     11  O   UNL     1     134.422 142.645 126.667  1.00  0.00    -0.452 OA
ENDROOT
BRANCH   1  12
ATOM     12  C   UNL     1     135.324 140.493 127.274  1.00  0.00     0.029 A 
ATOM     13  C   UNL     1     135.444 139.414 126.381  1.00  0.00     0.062 A 
ATOM     14  C   UNL     1     135.246 138.099 126.825  1.00  0.00     0.162 A 
ATOM     15  C   UNL     1     134.971 140.240 128.608  1.00  0.00     0.062 A 
ATOM     16  C   UNL     1     134.916 137.853 128.164  1.00  0.00     0.200 A 
ATOM     17  C   UNL     1     134.773 138.927 129.058  1.00  0.00     0.162 A 
BRANCH  14  18
ATOM     18  O   UNL     1     135.372 137.030 125.939  1.00  0.00    -0.504 OA
ATOM     19  H   UNL     1     136.267 136.780 125.533  1.00  0.00     0.293 HD
ENDBRANCH  14  18
BRANCH  16  20
ATOM     20  O   UNL     1     134.727 136.537 128.588  1.00  0.00    -0.502 OA
ATOM     21  H   UNL     1     133.816 136.183 128.855  1.00  0.00     0.293 HD
ENDBRANCH  16  20
BRANCH  17  22
ATOM     22  O   UNL     1     134.435 138.688 130.389  1.00  0.00    -0.504 OA
ATOM     23  H   UNL     1     134.614 137.793 130.830  1.00  0.00     0.293 HD
ENDBRANCH  17  22
ENDBRANCH   1  12
BRANCH   2  24
ATOM     24  O   UNL     1     137.926 141.685 126.823  1.00  0.00    -0.502 OA
ATOM     25  H   UNL     1     138.060 140.758 126.436  1.00  0.00     0.293 HD
ENDBRANCH   2  24
BRANCH   6  26
ATOM     26  O   UNL     1     136.796 146.537 124.938  1.00  0.00    -0.507 OA
ATOM     27  H   UNL     1     136.781 147.255 124.231  1.00  0.00     0.293 HD
ENDBRANCH   6  26
BRANCH   8  28
ATOM     28  O   UNL     1     132.047 146.628 125.643  1.00  0.00    -0.508 OA
ATOM     29  H   UNL     1     131.977 147.523 125.174  1.00  0.00     0.293 HD
ENDBRANCH   8  28
TORSDOF 7
ENDMDL
MODEL 2
REMARK VINA RESULT:    -5.218      6.545     10.087
REMARK INTER + INTRA:          -6.765
REMARK INTER:                  -6.423
REMARK INTRA:                  -0.341
REMARK UNBOUND:                -0.326
REMARK SMILES O=c1c(O)c(-c2cc(O)c(O)c(O)c2)oc2cc(O)cc(O)c12
REMARK SMILES IDX 5 1 3 2 2 3 1 4 23 5 21 6 20 7 18 8 17 9 16 10 15 11 6 12
REMARK SMILES IDX 7 13 8 14 14 15 10 16 12 17 9 18 11 20 13 22 4 24 22 26
REMARK SMILES IDX 19 28
REMARK H PARENT 9 19 11 21 13 23 4 25 22 27 19 29
REMARK Flexibility Score: inf
ROOT
ATOM      1  C   UNL     1     137.923 134.918 126.739  1.00  0.00     0.180 A 
ATOM      2  C   UNL     1     138.933 135.734 126.201  1.00  0.00     0.208 A 
ATOM      3  C   UNL     1     140.248 135.246 126.149  1.00  0.00     0.238 A 
ATOM      4  O   UNL     1     141.138 135.960 125.617  1.00  0.00    -0.285 OA
ATOM      5  C   UNL     1     140.541 133.954 126.650  1.00  0.00     0.111 A 
ATOM      6  C   UNL     1     141.844 133.373 126.684  1.00  0.00     0.134 A 
ATOM      7  C   UNL     1     141.995 132.039 127.081  1.00  0.00     0.093 A 
ATOM      8  C   UNL     1     140.899 131.285 127.507  1.00  0.00     0.123 A 
ATOM      9  C   UNL     1     139.632 131.862 127.533  1.00  0.00     0.094 A 
ATOM     10  C   UNL     1     139.444 133.179 127.109  1.00  0.00     0.146 A 
ATOM     11  O   UNL     1     138.217 133.686 127.140  1.00  0.00    -0.452 OA
ENDROOT
BRANCH   1  12
ATOM     12  C   UNL     1     136.518 135.373 126.851  1.00  0.00     0.029 A 
ATOM     13  C   UNL     1     136.106 136.223 127.891  1.00  0.00     0.062 A 
ATOM     14  C   UNL     1     134.766 136.624 127.993  1.00  0.00     0.162 A 
ATOM     15  C   UNL     1     135.565 134.901 125.935  1.00  0.00     0.062 A 
ATOM     16  C   UNL     1     133.825 136.167 127.061  1.00  0.00     0.200 A 
ATOM     17  C   UNL     1     134.224 135.299 126.031  1.00  0.00     0.162 A 
BRANCH  14  18
ATOM     18  O   UNL     1     134.362 137.473 129.022  1.00  0.00    -0.504 OA
ATOM     19  H   UNL     1     134.250 137.138 129.972  1.00  0.00     0.293 HD
ENDBRANCH  14  18
BRANCH  16  20
ATOM     20  O   UNL     1     132.497 136.580 127.177  1.00  0.00    -0.502 OA
ATOM     21  H   UNL     1     131.807 136.038 127.683  1.00  0.00     0.293 HD
ENDBRANCH  16  20
BRANCH  17  22
ATOM     22  O   UNL     1     133.289 134.836 125.107  1.00  0.00    -0.504 OA
ATOM     23  H   UNL     1     132.996 135.401 124.319  1.00  0.00     0.293 HD
ENDBRANCH  17  22
ENDBRANCH   1  12
BRANCH   2  24
ATOM     24  O   UNL     1     138.619 136.998 125.693  1.00  0.00    -0.502 OA
ATOM     25  H   UNL     1     138.184 137.718 126.257  1.00  0.00     0.293 HD
ENDBRANCH   2  24
BRANCH   6  26
ATOM     26  O   UNL     1     143.015 134.068 126.368  1.00  0.00    -0.507 OA
ATOM     27  H   UNL     1     143.052 135.034 126.081  1.00  0.00     0.293 HD
ENDBRANCH   6  26
BRANCH   8  28
ATOM     28  O   UNL     1     141.062 129.963 127.915  1.00  0.00    -0.508 OA
ATOM     29  H   UNL     1     140.474 129.220 127.556  1.00  0.00     0.293 HD
ENDBRANCH   8  28
TORSDOF 7
ENDMDL
MODEL 3
REMARK VINA RESULT:    -5.194      1.201      3.379
REMARK INTER + INTRA:          -6.735
REMARK INTER:                  -6.367
REMARK INTRA:                  -0.368
REMARK UNBOUND:                -0.326
REMARK SMILES O=c1c(O)c(-c2cc(O)c(O)c(O)c2)oc2cc(O)cc(O)c12
REMARK SMILES IDX 5 1 3 2 2 3 1 4 23 5 21 6 20 7 18 8 17 9 16 10 15 11 6 12
REMARK SMILES IDX 7 13 8 14 14 15 10 16 12 17 9 18 11 20 13 22 4 24 22 26
REMARK SMILES IDX 19 28
REMARK H PARENT 9 19 11 21 13 23 4 25 22 27 19 29
REMARK Flexibility Score: inf
ROOT
ATOM      1  C   UNL     1     135.288 141.877 126.647  1.00  0.00     0.180 A 
ATOM      2  C   UNL     1     134.187 142.607 126.169  1.00  0.00     0.208 A 
ATOM      3  C   UNL     1     134.393 143.905 125.675  1.00  0.00     0.238 A 
ATOM      4  O   UNL     1     133.412 144.534 125.197  1.00  0.00    -0.285 OA
ATOM      5  C   UNL     1     135.694 144.464 125.682  1.00  0.00     0.111 A 
ATOM      6  C   UNL     1     136.012 145.784 125.243  1.00  0.00     0.134 A 
ATOM      7  C   UNL     1     137.353 146.184 125.173  1.00  0.00     0.093 A 
ATOM      8  C   UNL     1     138.381 145.334 125.587  1.00  0.00     0.123 A 
ATOM      9  C   UNL     1     138.076 144.065 126.072  1.00  0.00     0.094 A 
ATOM     10  C   UNL     1     136.751 143.624 126.120  1.00  0.00     0.146 A 
ATOM     11  O   UNL     1     136.506 142.403 126.580  1.00  0.00    -0.452 OA
ENDROOT
BRANCH   1  12
ATOM     12  C   UNL     1     135.146 140.513 127.206  1.00  0.00     0.029 A 
ATOM     13  C   UNL     1     134.865 140.306 128.567  1.00  0.00     0.062 A 
ATOM     14  C   UNL     1     134.757 139.006 129.081  1.00  0.00     0.162 A 
ATOM     15  C   UNL     1     135.352 139.402 126.374  1.00  0.00     0.062 A 
ATOM     16  C   UNL     1     134.942 137.902 128.240  1.00  0.00     0.200 A 
ATOM     17  C   UNL     1     135.245 138.100 126.883  1.00  0.00     0.162 A 
BRANCH  14  18
ATOM     18  O   UNL     1     134.471 138.805 130.431  1.00  0.00    -0.504 OA
ATOM     19  H   UNL     1     134.229 137.888 130.790  1.00  0.00     0.293 HD
ENDBRANCH  14  18
BRANCH  16  20
ATOM     20  O   UNL     1     134.827 136.616 128.770  1.00  0.00    -0.502 OA
ATOM     21  H   UNL     1     134.676 136.453 129.758  1.00  0.00     0.293 HD
ENDBRANCH  16  20
BRANCH  17  22
ATOM     22  O   UNL     1     135.439 137.003 126.044  1.00  0.00    -0.504 OA
ATOM     23  H   UNL     1     136.038 136.230 126.310  1.00  0.00     0.293 HD
ENDBRANCH  17  22
ENDBRANCH   1  12
BRANCH   2  24
ATOM     24  O   UNL     1     132.914 142.029 126.151  1.00  0.00    -0.502 OA
ATOM     25  H   UNL     1     132.086 142.546 125.878  1.00  0.00     0.293 HD
ENDBRANCH   2  24
BRANCH   6  26
ATOM     26  O   UNL     1     135.055 146.742 124.896  1.00  0.00    -0.507 OA
ATOM     27  H   UNL     1     135.190 147.466 124.207  1.00  0.00     0.293 HD
ENDBRANCH   6  26
BRANCH   8  28
ATOM     28  O   UNL     1     139.710 145.747 125.528  1.00  0.00    -0.508 OA
ATOM     29  H   UNL     1     139.982 146.695 125.759  1.00  0.00     0.293 HD
ENDBRANCH   8  28
TORSDOF 7
ENDMDL
MODEL 4
REMARK VINA RESULT:    -5.054     16.623     19.082
REMARK INTER + INTRA:          -6.561
REMARK INTER:                  -6.212
REMARK INTRA:                  -0.349
REMARK UNBOUND:                -0.326
REMARK SMILES O=c1c(O)c(-c2cc(O)c(O)c(O)c2)oc2cc(O)cc(O)c12
REMARK SMILES IDX 5 1 3 2 2 3 1 4 23 5 21 6 20 7 18 8 17 9 16 10 15 11 6 12
REMARK SMILES IDX 7 13 8 14 14 15 10 16 12 17 9 18 11 20 13 22 4 24 22 26
REMARK SMILES IDX 19 28
REMARK H PARENT 9 19 11 21 13 23 4 25 22 27 19 29
REMARK Flexibility Score: inf
ROOT
ATOM      1  C   UNL     1     144.862 139.652 141.482  1.00  0.00     0.180 A 
ATOM      2  C   UNL     1     143.809 140.335 142.115  1.00  0.00     0.208 A 
ATOM      3  C   UNL     1     142.807 139.594 142.761  1.00  0.00     0.238 A 
ATOM      4  O   UNL     1     141.896 140.212 143.373  1.00  0.00    -0.285 OA
ATOM      5  C   UNL     1     142.860 138.179 142.752  1.00  0.00     0.111 A 
ATOM      6  C   UNL     1     141.878 137.327 143.340  1.00  0.00     0.134 A 
ATOM      7  C   UNL     1     142.101 135.945 143.385  1.00  0.00     0.093 A 
ATOM      8  C   UNL     1     143.239 135.379 142.805  1.00  0.00     0.123 A 
ATOM      9  C   UNL     1     144.174 136.197 142.177  1.00  0.00     0.094 A 
ATOM     10  C   UNL     1     143.998 137.583 142.148  1.00  0.00     0.146 A 
ATOM     11  O   UNL     1     144.919 138.327 141.548  1.00  0.00    -0.452 OA
ENDROOT
BRANCH   1  12
ATOM     12  C   UNL     1     145.941 140.364 140.760  1.00  0.00     0.029 A 
ATOM     13  C   UNL     1     147.068 140.862 141.436  1.00  0.00     0.062 A 
ATOM     14  C   UNL     1     148.067 141.554 140.738  1.00  0.00     0.162 A 
ATOM     15  C   UNL     1     145.812 140.597 139.382  1.00  0.00     0.062 A 
ATOM     16  C   UNL     1     147.943 141.763 139.358  1.00  0.00     0.200 A 
ATOM     17  C   UNL     1     146.809 141.288 138.679  1.00  0.00     0.162 A 
BRANCH  14  18
ATOM     18  O   UNL     1     149.187 142.041 141.410  1.00  0.00    -0.504 OA
ATOM     19  H   UNL     1     149.822 141.422 141.901  1.00  0.00     0.293 HD
ENDBRANCH  14  18
BRANCH  16  20
ATOM     20  O   UNL     1     148.950 142.450 138.681  1.00  0.00    -0.502 OA
ATOM     21  H   UNL     1     149.272 142.166 137.763  1.00  0.00     0.293 HD
ENDBRANCH  16  20
BRANCH  17  22
ATOM     22  O   UNL     1     146.676 141.502 137.307  1.00  0.00    -0.504 OA
ATOM     23  H   UNL     1     146.630 140.731 136.651  1.00  0.00     0.293 HD
ENDBRANCH  17  22
ENDBRANCH   1  12
BRANCH   2  24
ATOM     24  O   UNL     1     143.787 141.733 142.131  1.00  0.00    -0.502 OA
ATOM     25  H   UNL     1     143.158 142.273 141.548  1.00  0.00     0.293 HD
ENDBRANCH   2  24
BRANCH   6  26
ATOM     26  O   UNL     1     140.665 137.781 143.864  1.00  0.00    -0.507 OA
ATOM     27  H   UNL     1     140.284 138.703 143.718  1.00  0.00     0.293 HD
ENDBRANCH   6  26
BRANCH   8  28
ATOM     28  O   UNL     1     143.444 134.002 142.841  1.00  0.00    -0.508 OA
ATOM     29  H   UNL     1     142.677 133.349 142.736  1.00  0.00     0.293 HD
ENDBRANCH   8  28
TORSDOF 7
ENDMDL
MODEL 5
REMARK VINA RESULT:    -4.994     16.637     19.022
REMARK INTER + INTRA:          -6.488
REMARK INTER:                  -6.129
REMARK INTRA:                  -0.359
REMARK UNBOUND:                -0.326
REMARK SMILES O=c1c(O)c(-c2cc(O)c(O)c(O)c2)oc2cc(O)cc(O)c12
REMARK SMILES IDX 5 1 3 2 2 3 1 4 23 5 21 6 20 7 18 8 17 9 16 10 15 11 6 12
REMARK SMILES IDX 7 13 8 14 14 15 10 16 12 17 9 18 11 20 13 22 4 24 22 26
REMARK SMILES IDX 19 28
REMARK H PARENT 9 19 11 21 13 23 4 25 22 27 19 29
REMARK Flexibility Score: inf
ROOT
ATOM      1  C   UNL     1     144.788 139.685 141.506  1.00  0.00     0.180 A 
ATOM      2  C   UNL     1     143.744 140.373 142.148  1.00  0.00     0.208 A 
ATOM      3  C   UNL     1     142.744 139.637 142.803  1.00  0.00     0.238 A 
ATOM      4  O   UNL     1     141.842 140.258 143.423  1.00  0.00    -0.285 OA
ATOM      5  C   UNL     1     142.791 138.221 142.794  1.00  0.00     0.111 A 
ATOM      6  C   UNL     1     141.810 137.373 143.391  1.00  0.00     0.134 A 
ATOM      7  C   UNL     1     142.028 135.991 143.434  1.00  0.00     0.093 A 
ATOM      8  C   UNL     1     143.158 135.420 142.844  1.00  0.00     0.123 A 
ATOM      9  C   UNL     1     144.091 136.234 142.208  1.00  0.00     0.094 A 
ATOM     10  C   UNL     1     143.921 137.620 142.180  1.00  0.00     0.146 A 
ATOM     11  O   UNL     1     144.840 138.360 141.571  1.00  0.00    -0.452 OA
ENDROOT
BRANCH   1  12
ATOM     12  C   UNL     1     145.864 140.392 140.774  1.00  0.00     0.029 A 
ATOM     13  C   UNL     1     145.773 140.628 139.391  1.00  0.00     0.062 A 
ATOM     14  C   UNL     1     146.813 141.278 138.712  1.00  0.00     0.162 A 
ATOM     15  C   UNL     1     147.023 140.785 141.460  1.00  0.00     0.062 A 
ATOM     16  C   UNL     1     147.958 141.687 139.408  1.00  0.00     0.200 A 
ATOM     17  C   UNL     1     148.065 141.436 140.786  1.00  0.00     0.162 A 
BRANCH  14  18
ATOM     18  O   UNL     1     146.717 141.516 137.341  1.00  0.00    -0.504 OA
ATOM     19  H   UNL     1     146.548 140.764 136.683  1.00  0.00     0.293 HD
ENDBRANCH  14  18
BRANCH  16  20
ATOM     20  O   UNL     1     148.980 142.336 138.714  1.00  0.00    -0.502 OA
ATOM     21  H   UNL     1     149.846 141.870 138.472  1.00  0.00     0.293 HD
ENDBRANCH  16  20
BRANCH  17  22
ATOM     22  O   UNL     1     149.207 141.833 141.481  1.00  0.00    -0.504 OA
ATOM     23  H   UNL     1     149.544 142.788 141.446  1.00  0.00     0.293 HD
ENDBRANCH  17  22
ENDBRANCH   1  12
BRANCH   2  24
ATOM     24  O   UNL     1     143.728 141.771 142.163  1.00  0.00    -0.502 OA
ATOM     25  H   UNL     1     143.850 142.325 141.324  1.00  0.00     0.293 HD
ENDBRANCH   2  24
BRANCH   6  26
ATOM     26  O   UNL     1     140.604 137.833 143.926  1.00  0.00    -0.507 OA
ATOM     27  H   UNL     1     139.706 137.752 143.475  1.00  0.00     0.293 HD
ENDBRANCH   6  26
BRANCH   8  28
ATOM     28  O   UNL     1     143.357 134.041 142.878  1.00  0.00    -0.508 OA
ATOM     29  H   UNL     1     144.264 133.641 143.085  1.00  0.00     0.293 HD
ENDBRANCH   8  28
TORSDOF 7
ENDMDL
MODEL 6
REMARK VINA RESULT:    -4.926     17.113     18.246
REMARK INTER + INTRA:          -6.404
REMARK INTER:                  -6.124
REMARK INTRA:                  -0.280
REMARK UNBOUND:                -0.326
REMARK SMILES O=c1c(O)c(-c2cc(O)c(O)c(O)c2)oc2cc(O)cc(O)c12
REMARK SMILES IDX 5 1 3 2 2 3 1 4 23 5 21 6 20 7 18 8 17 9 16 10 15 11 6 12
REMARK SMILES IDX 7 13 8 14 14 15 10 16 12 17 9 18 11 20 13 22 4 24 22 26
REMARK SMILES IDX 19 28
REMARK H PARENT 9 19 11 21 13 23 4 25 22 27 19 29
REMARK Flexibility Score: inf
ROOT
ATOM      1  C   UNL     1     145.132 142.160 141.378  1.00  0.00     0.180 A 
ATOM      2  C   UNL     1     144.926 143.497 141.759  1.00  0.00     0.208 A 
ATOM      3  C   UNL     1     143.691 143.864 142.316  1.00  0.00     0.238 A 
ATOM      4  O   UNL     1     143.532 145.051 142.706  1.00  0.00    -0.285 OA
ATOM      5  C   UNL     1     142.671 142.894 142.471  1.00  0.00     0.111 A 
ATOM      6  C   UNL     1     141.368 143.164 142.987  1.00  0.00     0.134 A 
ATOM      7  C   UNL     1     140.484 142.102 143.217  1.00  0.00     0.093 A 
ATOM      8  C   UNL     1     140.832 140.789 142.888  1.00  0.00     0.123 A 
ATOM      9  C   UNL     1     142.080 140.525 142.329  1.00  0.00     0.094 A 
ATOM     10  C   UNL     1     142.997 141.558 142.122  1.00  0.00     0.146 A 
ATOM     11  O   UNL     1     144.179 141.260 141.596  1.00  0.00    -0.452 OA
ENDROOT
BRANCH   1  12
ATOM     12  C   UNL     1     146.398 141.702 140.760  1.00  0.00     0.029 A 
ATOM     13  C   UNL     1     146.748 142.073 139.451  1.00  0.00     0.062 A 
ATOM     14  C   UNL     1     147.940 141.610 138.876  1.00  0.00     0.162 A 
ATOM     15  C   UNL     1     147.239 140.834 141.473  1.00  0.00     0.062 A 
ATOM     16  C   UNL     1     148.786 140.762 139.602  1.00  0.00     0.200 A 
ATOM     17  C   UNL     1     148.432 140.369 140.904  1.00  0.00     0.162 A 
BRANCH  14  18
ATOM     18  O   UNL     1     148.287 141.985 137.579  1.00  0.00    -0.504 OA
ATOM     19  H   UNL     1     147.589 142.087 136.851  1.00  0.00     0.293 HD
ENDBRANCH  14  18
BRANCH  16  20
ATOM     20  O   UNL     1     149.969 140.315 139.014  1.00  0.00    -0.502 OA
ATOM     21  H   UNL     1     150.803 140.126 139.557  1.00  0.00     0.293 HD
ENDBRANCH  16  20
BRANCH  17  22
ATOM     22  O   UNL     1     149.267 139.518 141.626  1.00  0.00    -0.504 OA
ATOM     23  H   UNL     1     150.073 139.868 142.131  1.00  0.00     0.293 HD
ENDBRANCH  17  22
ENDBRANCH   1  12
BRANCH   2  24
ATOM     24  O   UNL     1     145.954 144.434 141.617  1.00  0.00    -0.502 OA
ATOM     25  H   UNL     1     146.553 144.465 140.801  1.00  0.00     0.293 HD
ENDBRANCH   2  24
BRANCH   6  26
ATOM     26  O   UNL     1     140.887 144.447 143.260  1.00  0.00    -0.507 OA
ATOM     27  H   UNL     1     140.223 144.947 142.690  1.00  0.00     0.293 HD
ENDBRANCH   6  26
BRANCH   8  28
ATOM     28  O   UNL     1     139.940 139.742 143.106  1.00  0.00    -0.508 OA
ATOM     29  H   UNL     1     139.369 139.367 142.358  1.00  0.00     0.293 HD
ENDBRANCH   8  28
TORSDOF 7
ENDMDL
MODEL 7
REMARK VINA RESULT:    -4.878      1.611      2.079
REMARK INTER + INTRA:          -6.345
REMARK INTER:                  -6.274
REMARK INTRA:                  -0.071
REMARK UNBOUND:                -0.326
REMARK SMILES O=c1c(O)c(-c2cc(O)c(O)c(O)c2)oc2cc(O)cc(O)c12
REMARK SMILES IDX 5 1 3 2 2 3 1 4 23 5 21 6 20 7 18 8 17 9 16 10 15 11 6 12
REMARK SMILES IDX 7 13 8 14 14 15 10 16 12 17 9 18 11 20 13 22 4 24 22 26
REMARK SMILES IDX 19 28
REMARK H PARENT 9 19 11 21 13 23 4 25 22 27 19 29
REMARK Flexibility Score: inf
ROOT
ATOM      1  C   UNL     1     135.800 140.698 126.588  1.00  0.00     0.180 A 
ATOM      2  C   UNL     1     136.805 141.680 126.543  1.00  0.00     0.208 A 
ATOM      3  C   UNL     1     136.434 143.032 126.463  1.00  0.00     0.238 A 
ATOM      4  O   UNL     1     137.337 143.909 126.478  1.00  0.00    -0.285 OA
ATOM      5  C   UNL     1     135.063 143.385 126.412  1.00  0.00     0.111 A 
ATOM      6  C   UNL     1     134.574 144.720 126.290  1.00  0.00     0.134 A 
ATOM      7  C   UNL     1     133.198 144.961 126.381  1.00  0.00     0.093 A 
ATOM      8  C   UNL     1     132.289 143.909 126.525  1.00  0.00     0.123 A 
ATOM      9  C   UNL     1     132.754 142.599 126.585  1.00  0.00     0.094 A 
ATOM     10  C   UNL     1     134.124 142.329 126.533  1.00  0.00     0.146 A 
ATOM     11  O   UNL     1     134.523 141.065 126.605  1.00  0.00    -0.452 OA
ENDROOT
BRANCH   1  12
ATOM     12  C   UNL     1     136.114 139.252 126.647  1.00  0.00     0.029 A 
ATOM     13  C   UNL     1     136.994 138.657 125.728  1.00  0.00     0.062 A 
ATOM     14  C   UNL     1     137.259 137.282 125.786  1.00  0.00     0.162 A 
ATOM     15  C   UNL     1     135.477 138.447 127.604  1.00  0.00     0.062 A 
ATOM     16  C   UNL     1     136.637 136.488 126.758  1.00  0.00     0.200 A 
ATOM     17  C   UNL     1     135.739 137.071 127.668  1.00  0.00     0.162 A 
BRANCH  14  18
ATOM     18  O   UNL     1     138.138 136.695 124.876  1.00  0.00    -0.504 OA
ATOM     19  H   UNL     1     137.824 136.373 123.968  1.00  0.00     0.293 HD
ENDBRANCH  14  18
BRANCH  16  20
ATOM     20  O   UNL     1     136.918 135.122 126.803  1.00  0.00    -0.502 OA
ATOM     21  H   UNL     1     136.558 134.522 127.535  1.00  0.00     0.293 HD
ENDBRANCH  16  20
BRANCH  17  22
ATOM     22  O   UNL     1     135.111 136.283 128.631  1.00  0.00    -0.504 OA
ATOM     23  H   UNL     1     134.599 135.446 128.381  1.00  0.00     0.293 HD
ENDBRANCH  17  22
ENDBRANCH   1  12
BRANCH   2  24
ATOM     24  O   UNL     1     138.152 141.311 126.616  1.00  0.00    -0.502 OA
ATOM     25  H   UNL     1     138.472 140.376 126.395  1.00  0.00     0.293 HD
ENDBRANCH   2  24
BRANCH   6  26
ATOM     26  O   UNL     1     135.389 145.830 126.052  1.00  0.00    -0.507 OA
ATOM     27  H   UNL     1     135.080 146.690 125.626  1.00  0.00     0.293 HD
ENDBRANCH   6  26
BRANCH   8  28
ATOM     28  O   UNL     1     130.921 144.159 126.598  1.00  0.00    -0.508 OA
ATOM     29  H   UNL     1     130.295 143.539 127.098  1.00  0.00     0.293 HD
ENDBRANCH   8  28
TORSDOF 7
ENDMDL
MODEL 8
REMARK VINA RESULT:    -4.874     17.354     18.847
REMARK INTER + INTRA:          -6.340
REMARK INTER:                  -5.980
REMARK INTRA:                  -0.360
REMARK UNBOUND:                -0.326
REMARK SMILES O=c1c(O)c(-c2cc(O)c(O)c(O)c2)oc2cc(O)cc(O)c12
REMARK SMILES IDX 5 1 3 2 2 3 1 4 23 5 21 6 20 7 18 8 17 9 16 10 15 11 6 12
REMARK SMILES IDX 7 13 8 14 14 15 10 16 12 17 9 18 11 20 13 22 4 24 22 26
REMARK SMILES IDX 19 28
REMARK H PARENT 9 19 11 21 13 23 4 25 22 27 19 29
REMARK Flexibility Score: inf
ROOT
ATOM      1  C   UNL     1     145.507 139.179 142.129  1.00  0.00     0.180 A 
ATOM      2  C   UNL     1     146.391 139.444 143.189  1.00  0.00     0.208 A 
ATOM      3  C   UNL     1     147.565 140.170 142.932  1.00  0.00     0.238 A 
ATOM      4  O   UNL     1     148.326 140.451 143.894  1.00  0.00    -0.285 OA
ATOM      5  C   UNL     1     147.848 140.608 141.615  1.00  0.00     0.111 A 
ATOM      6  C   UNL     1     149.027 141.317 141.233  1.00  0.00     0.134 A 
ATOM      7  C   UNL     1     149.139 141.815 139.929  1.00  0.00     0.093 A 
ATOM      8  C   UNL     1     148.146 141.573 138.976  1.00  0.00     0.123 A 
ATOM      9  C   UNL     1     147.021 140.832 139.324  1.00  0.00     0.094 A 
ATOM     10  C   UNL     1     146.862 140.353 140.627  1.00  0.00     0.146 A 
ATOM     11  O   UNL     1     145.768 139.660 140.919  1.00  0.00    -0.452 OA
ENDROOT
BRANCH   1  12
ATOM     12  C   UNL     1     144.263 138.398 142.318  1.00  0.00     0.029 A 
ATOM     13  C   UNL     1     144.232 137.009 142.104  1.00  0.00     0.062 A 
ATOM     14  C   UNL     1     143.039 136.291 142.265  1.00  0.00     0.162 A 
ATOM     15  C   UNL     1     143.076 139.063 142.661  1.00  0.00     0.062 A 
ATOM     16  C   UNL     1     141.863 136.959 142.630  1.00  0.00     0.200 A 
ATOM     17  C   UNL     1     141.880 138.350 142.824  1.00  0.00     0.162 A 
BRANCH  14  18
ATOM     18  O   UNL     1     143.014 134.913 142.059  1.00  0.00    -0.504 OA
ATOM     19  H   UNL     1     142.432 134.495 141.341  1.00  0.00     0.293 HD
ENDBRANCH  14  18
BRANCH  16  20
ATOM     20  O   UNL     1     140.686 136.227 142.789  1.00  0.00    -0.502 OA
ATOM     21  H   UNL     1     139.776 136.671 142.830  1.00  0.00     0.293 HD
ENDBRANCH  16  20
BRANCH  17  22
ATOM     22  O   UNL     1     140.710 139.020 143.178  1.00  0.00    -0.504 OA
ATOM     23  H   UNL     1     140.217 138.810 144.038  1.00  0.00     0.293 HD
ENDBRANCH  17  22
ENDBRANCH   1  12
BRANCH   2  24
ATOM     24  O   UNL     1     146.082 139.020 144.485  1.00  0.00    -0.502 OA
ATOM     25  H   UNL     1     146.660 139.251 145.284  1.00  0.00     0.293 HD
ENDBRANCH   2  24
BRANCH   6  26
ATOM     26  O   UNL     1     150.117 141.532 142.080  1.00  0.00    -0.507 OA
ATOM     27  H   UNL     1     150.794 140.831 142.336  1.00  0.00     0.293 HD
ENDBRANCH   6  26
BRANCH   8  28
ATOM     28  O   UNL     1     148.276 142.059 137.677  1.00  0.00    -0.508 OA
ATOM     29  H   UNL     1     147.514 142.004 137.012  1.00  0.00     0.293 HD
ENDBRANCH   8  28
TORSDOF 7
ENDMDL
MODEL 9
REMARK VINA RESULT:    -4.870      4.750      9.803
REMARK INTER + INTRA:          -6.335
REMARK INTER:                  -6.028
REMARK INTRA:                  -0.306
REMARK UNBOUND:                -0.326
REMARK SMILES O=c1c(O)c(-c2cc(O)c(O)c(O)c2)oc2cc(O)cc(O)c12
REMARK SMILES IDX 5 1 3 2 2 3 1 4 23 5 21 6 20 7 18 8 17 9 16 10 15 11 6 12
REMARK SMILES IDX 7 13 8 14 14 15 10 16 12 17 9 18 11 20 13 22 4 24 22 26
REMARK SMILES IDX 19 28
REMARK H PARENT 9 19 11 21 13 23 4 25 22 27 19 29
REMARK Flexibility Score: inf
ROOT
ATOM      1  C   UNL     1     137.020 135.502 126.792  1.00  0.00     0.180 A 
ATOM      2  C   UNL     1     136.367 134.529 126.017  1.00  0.00     0.208 A 
ATOM      3  C   UNL     1     137.035 133.328 125.727  1.00  0.00     0.238 A 
ATOM      4  O   UNL     1     136.426 132.438 125.078  1.00  0.00    -0.285 OA
ATOM      5  C   UNL     1     138.354 133.122 126.203  1.00  0.00     0.111 A 
ATOM      6  C   UNL     1     139.140 131.961 125.936  1.00  0.00     0.134 A 
ATOM      7  C   UNL     1     140.381 131.809 126.566  1.00  0.00     0.093 A 
ATOM      8  C   UNL     1     140.893 132.805 127.402  1.00  0.00     0.123 A 
ATOM      9  C   UNL     1     140.159 133.967 127.620  1.00  0.00     0.094 A 
ATOM     10  C   UNL     1     138.901 134.133 127.035  1.00  0.00     0.146 A 
ATOM     11  O   UNL     1     138.231 135.253 127.279  1.00  0.00    -0.452 OA
ENDROOT
BRANCH   1  12
ATOM     12  C   UNL     1     136.390 136.802 127.118  1.00  0.00     0.029 A 
ATOM     13  C   UNL     1     136.772 137.984 126.461  1.00  0.00     0.062 A 
ATOM     14  C   UNL     1     136.181 139.209 126.800  1.00  0.00     0.162 A 
ATOM     15  C   UNL     1     135.432 136.868 128.142  1.00  0.00     0.062 A 
ATOM     16  C   UNL     1     135.209 139.264 127.808  1.00  0.00     0.200 A 
ATOM     17  C   UNL     1     134.837 138.090 128.484  1.00  0.00     0.162 A 
BRANCH  14  18
ATOM     18  O   UNL     1     136.558 140.379 126.142  1.00  0.00    -0.504 OA
ATOM     19  H   UNL     1     135.895 141.125 125.966  1.00  0.00     0.293 HD
ENDBRANCH  14  18
BRANCH  16  20
ATOM     20  O   UNL     1     134.629 140.491 128.128  1.00  0.00    -0.502 OA
ATOM     21  H   UNL     1     135.185 141.322 128.297  1.00  0.00     0.293 HD
ENDBRANCH  16  20
BRANCH  17  22
ATOM     22  O   UNL     1     133.877 138.141 129.494  1.00  0.00    -0.504 OA
ATOM     23  H   UNL     1     133.851 137.453 130.237  1.00  0.00     0.293 HD
ENDBRANCH  17  22
ENDBRANCH   1  12
BRANCH   2  24
ATOM     24  O   UNL     1     135.058 134.743 125.575  1.00  0.00    -0.502 OA
ATOM     25  H   UNL     1     134.276 134.191 125.906  1.00  0.00     0.293 HD
ENDBRANCH   2  24
BRANCH   6  26
ATOM     26  O   UNL     1     138.762 130.951 125.046  1.00  0.00    -0.507 OA
ATOM     27  H   UNL     1     137.814 130.756 124.766  1.00  0.00     0.293 HD
ENDBRANCH   6  26
BRANCH   8  28
ATOM     28  O   UNL     1     142.135 132.651 128.011  1.00  0.00    -0.508 OA
ATOM     29  H   UNL     1     142.806 133.409 128.047  1.00  0.00     0.293 HD
ENDBRANCH   8  28
TORSDOF 7
ENDMDL
