MODEL 1
REMARK VINA RESULT:    -3.610      0.000      0.000
REMARK INTER + INTRA:          -5.835
REMARK INTER:                  -5.088
REMARK INTRA:                  -0.747
REMARK UNBOUND:                -0.747
REMARK SMILES C=CCCCCCCC(=O)[O-]
REMARK SMILES IDX 6 1 7 2 8 3 9 4 10 5 11 6 5 7 4 8 3 9 2 10 1 11
REMARK H PARENT
REMARK Flexibility Score: inf
ROOT
ATOM      1  C   UNL     1      -2.080   3.386  17.399  1.00  0.00     0.000 C 
ENDROOT
BRANCH   1   2
ATOM      2  C   UNL     1      -1.121   4.527  17.016  1.00  0.00     0.006 C 
BRANCH   2   3
ATOM      3  C   UNL     1       0.317   4.032  16.817  1.00  0.00     0.053 C 
BRANCH   3   4
ATOM      4  C   UNL     1       0.601   3.718  15.379  1.00  0.00     0.041 C 
ATOM      5  O   UNL     1       0.331   2.581  14.913  1.00  0.00    -0.550 OA
ATOM      6  O   UNL     1       1.195   4.674  14.565  1.00  0.00    -0.550 OA
ENDBRANCH   3   4
ENDBRANCH   2   3
ENDBRANCH   1   2
BRANCH   1   7
ATOM      7  C   UNL     1      -3.351   3.366  16.535  1.00  0.00     0.000 C 
BRANCH   7   8
ATOM      8  C   UNL     1      -3.142   2.653  15.192  1.00  0.00     0.004 C 
BRANCH   8   9
ATOM      9  C   UNL     1      -3.640   3.518  14.028  1.00  0.00     0.027 C 
BRANCH   9  10
ATOM     10  C   UNL     1      -2.681   4.639  13.732  1.00  0.00    -0.035 C 
ATOM     11  C   UNL     1      -3.055   5.920  13.798  1.00  0.00     0.004 C 
ENDBRANCH   9  10
ENDBRANCH   8   9
ENDBRANCH   7   8
ENDBRANCH   1   7
TORSDOF 7
ENDMDL
MODEL 2
REMARK VINA RESULT:    -3.576      1.986      3.809
REMARK INTER + INTRA:          -5.786
REMARK INTER:                  -5.183
REMARK INTRA:                  -0.603
REMARK UNBOUND:                -0.747
REMARK SMILES C=CCCCCCCC(=O)[O-]
REMARK SMILES IDX 6 1 7 2 8 3 9 4 10 5 11 6 5 7 4 8 3 9 2 10 1 11
REMARK H PARENT
REMARK Flexibility Score: inf
ROOT
ATOM      1  C   UNL     1      -2.152   3.415  16.998  1.00  0.00     0.000 C 
ENDROOT
BRANCH   1   2
ATOM      2  C   UNL     1      -3.320   3.599  16.014  1.00  0.00     0.006 C 
BRANCH   2   3
ATOM      3  C   UNL     1      -2.936   4.474  14.815  1.00  0.00     0.053 C 
BRANCH   3   4
ATOM      4  C   UNL     1      -3.012   3.712  13.526  1.00  0.00     0.041 C 
ATOM      5  O   UNL     1      -4.107   3.227  13.140  1.00  0.00    -0.550 OA
ATOM      6  O   UNL     1      -1.864   3.511  12.771  1.00  0.00    -0.550 OA
ENDBRANCH   3   4
ENDBRANCH   2   3
ENDBRANCH   1   2
BRANCH   1   7
ATOM      7  C   UNL     1      -1.104   4.534  16.887  1.00  0.00     0.000 C 
BRANCH   7   8
ATOM      8  C   UNL     1       0.334   3.996  16.871  1.00  0.00     0.004 C 
BRANCH   8   9
ATOM      9  C   UNL     1       0.720   3.503  15.471  1.00  0.00     0.027 C 
BRANCH   9  10
ATOM     10  C   UNL     1       0.856   4.649  14.507  1.00  0.00    -0.035 C 
ATOM     11  C   UNL     1       2.049   5.066  14.073  1.00  0.00     0.004 C 
ENDBRANCH   9  10
ENDBRANCH   8   9
ENDBRANCH   7   8
ENDBRANCH   1   7
TORSDOF 7
ENDMDL
MODEL 3
REMARK VINA RESULT:    -3.380      1.403      2.962
REMARK INTER + INTRA:          -5.510
REMARK INTER:                  -4.822
REMARK INTRA:                  -0.688
REMARK UNBOUND:                -0.747
REMARK SMILES C=CCCCCCCC(=O)[O-]
REMARK SMILES IDX 6 1 7 2 8 3 9 4 10 5 11 6 5 7 4 8 3 9 2 10 1 11
REMARK H PARENT
REMARK Flexibility Score: inf
ROOT
ATOM      1  C   UNL     1      -0.794   3.928  13.905  1.00  0.00     0.000 C 
ENDROOT
BRANCH   1   2
ATOM      2  C   UNL     1       0.555   4.459  14.418  1.00  0.00     0.006 C 
BRANCH   2   3
ATOM      3  C   UNL     1       0.752   4.190  15.916  1.00  0.00     0.053 C 
BRANCH   3   4
ATOM      4  C   UNL     1       1.457   2.890  16.156  1.00  0.00     0.041 C 
ATOM      5  O   UNL     1       2.145   2.362  15.243  1.00  0.00    -0.550 OA
ATOM      6  O   UNL     1       1.325   2.244  17.378  1.00  0.00    -0.550 OA
ENDBRANCH   3   4
ENDBRANCH   2   3
ENDBRANCH   1   2
BRANCH   1   7
ATOM      7  C   UNL     1      -1.804   5.052  13.623  1.00  0.00     0.000 C 
BRANCH   7   8
ATOM      8  C   UNL     1      -3.096   4.904  14.438  1.00  0.00     0.004 C 
BRANCH   8   9
ATOM      9  C   UNL     1      -3.181   3.515  15.083  1.00  0.00     0.027 C 
BRANCH   9  10
ATOM     10  C   UNL     1      -3.234   3.612  16.583  1.00  0.00    -0.035 C 
ATOM     11  C   UNL     1      -2.427   2.888  17.364  1.00  0.00     0.004 C 
ENDBRANCH   9  10
ENDBRANCH   8   9
ENDBRANCH   7   8
ENDBRANCH   1   7
TORSDOF 7
ENDMDL
MODEL 4
REMARK VINA RESULT:    -3.376      1.942      4.103
REMARK INTER + INTRA:          -5.505
REMARK INTER:                  -4.940
REMARK INTRA:                  -0.565
REMARK UNBOUND:                -0.747
REMARK SMILES C=CCCCCCCC(=O)[O-]
REMARK SMILES IDX 6 1 7 2 8 3 9 4 10 5 11 6 5 7 4 8 3 9 2 10 1 11
REMARK H PARENT
REMARK Flexibility Score: inf
ROOT
ATOM      1  C   UNL     1      -1.881   3.338  16.966  1.00  0.00     0.000 C 
ENDROOT
BRANCH   1   2
ATOM      2  C   UNL     1      -2.508   3.065  15.588  1.00  0.00     0.006 C 
BRANCH   2   3
ATOM      3  C   UNL     1      -3.289   4.273  15.057  1.00  0.00     0.053 C 
BRANCH   3   4
ATOM      4  C   UNL     1      -2.590   4.918  13.898  1.00  0.00     0.041 C 
ATOM      5  O   UNL     1      -1.777   4.258  13.200  1.00  0.00    -0.550 OA
ATOM      6  O   UNL     1      -2.814   6.258  13.611  1.00  0.00    -0.550 OA
ENDBRANCH   3   4
ENDBRANCH   2   3
ENDBRANCH   1   2
BRANCH   1   7
ATOM      7  C   UNL     1      -0.888   4.511  16.942  1.00  0.00     0.000 C 
BRANCH   7   8
ATOM      8  C   UNL     1       0.575   4.047  16.933  1.00  0.00     0.004 C 
BRANCH   8   9
ATOM      9  C   UNL     1       1.087   3.874  15.498  1.00  0.00     0.027 C 
BRANCH   9  10
ATOM     10  C   UNL     1       1.834   2.578  15.336  1.00  0.00    -0.035 C 
ATOM     11  C   UNL     1       1.206   1.399  15.349  1.00  0.00     0.004 C 
ENDBRANCH   9  10
ENDBRANCH   8   9
ENDBRANCH   7   8
ENDBRANCH   1   7
TORSDOF 7
ENDMDL
MODEL 5
REMARK VINA RESULT:    -3.366      1.663      2.135
REMARK INTER + INTRA:          -5.491
REMARK INTER:                  -4.857
REMARK INTRA:                  -0.634
REMARK UNBOUND:                -0.747
REMARK SMILES C=CCCCCCCC(=O)[O-]
REMARK SMILES IDX 6 1 7 2 8 3 9 4 10 5 11 6 5 7 4 8 3 9 2 10 1 11
REMARK H PARENT
REMARK Flexibility Score: inf
ROOT
ATOM      1  C   UNL     1      -0.787   4.373  16.979  1.00  0.00     0.000 C 
ENDROOT
BRANCH   1   2
ATOM      2  C   UNL     1       0.498   4.145  16.166  1.00  0.00     0.006 C 
BRANCH   2   3
ATOM      3  C   UNL     1       1.538   3.327  16.943  1.00  0.00     0.053 C 
BRANCH   3   4
ATOM      4  C   UNL     1       1.153   1.881  17.028  1.00  0.00     0.041 C 
ATOM      5  O   UNL     1       0.851   1.242  15.987  1.00  0.00    -0.550 OA
ATOM      6  O   UNL     1       1.097   1.250  18.264  1.00  0.00    -0.550 OA
ENDBRANCH   3   4
ENDBRANCH   2   3
ENDBRANCH   1   2
BRANCH   1   7
ATOM      7  C   UNL     1      -2.043   3.856  16.258  1.00  0.00     0.000 C 
BRANCH   7   8
ATOM      8  C   UNL     1      -1.742   3.339  14.844  1.00  0.00     0.004 C 
BRANCH   8   9
ATOM      9  C   UNL     1      -2.761   3.881  13.834  1.00  0.00     0.027 C 
BRANCH   9  10
ATOM     10  C   UNL     1      -3.181   5.283  14.181  1.00  0.00    -0.035 C 
ATOM     11  C   UNL     1      -2.624   6.349  13.596  1.00  0.00     0.004 C 
ENDBRANCH   9  10
ENDBRANCH   8   9
ENDBRANCH   7   8
ENDBRANCH   1   7
TORSDOF 7
ENDMDL
MODEL 6
REMARK VINA RESULT:    -3.314     14.952     15.752
REMARK INTER + INTRA:          -5.418
REMARK INTER:                  -5.060
REMARK INTRA:                  -0.357
REMARK UNBOUND:                -0.747
REMARK SMILES C=CCCCCCCC(=O)[O-]
REMARK SMILES IDX 6 1 7 2 8 3 9 4 10 5 11 6 5 7 4 8 3 9 2 10 1 11
REMARK H PARENT
REMARK Flexibility Score: inf
ROOT
ATOM      1  C   UNL     1     -10.467  -8.218  14.866  1.00  0.00     0.000 C 
ENDROOT
BRANCH   1   2
ATOM      2  C   UNL     1     -10.245  -8.399  16.377  1.00  0.00     0.006 C 
BRANCH   2   3
ATOM      3  C   UNL     1     -11.566  -8.423  17.158  1.00  0.00     0.053 C 
BRANCH   3   4
ATOM      4  C   UNL     1     -11.383  -7.952  18.569  1.00  0.00     0.041 C 
ATOM      5  O   UNL     1     -11.088  -6.752  18.805  1.00  0.00    -0.550 OA
ATOM      6  O   UNL     1     -11.505  -8.851  19.621  1.00  0.00    -0.550 OA
ENDBRANCH   3   4
ENDBRANCH   2   3
ENDBRANCH   1   2
BRANCH   1   7
ATOM      7  C   UNL     1     -11.949  -8.032  14.503  1.00  0.00     0.000 C 
BRANCH   7   8
ATOM      8  C   UNL     1     -12.297  -8.610  13.124  1.00  0.00     0.004 C 
BRANCH   8   9
ATOM      9  C   UNL     1     -12.998  -7.561  12.252  1.00  0.00     0.027 C 
BRANCH   9  10
ATOM     10  C   UNL     1     -12.791  -6.173  12.794  1.00  0.00    -0.035 C 
ATOM     11  C   UNL     1     -12.932  -5.089  12.026  1.00  0.00     0.004 C 
ENDBRANCH   9  10
ENDBRANCH   8   9
ENDBRANCH   7   8
ENDBRANCH   1   7
TORSDOF 7
ENDMDL
MODEL 7
REMARK VINA RESULT:    -3.309     15.296     16.257
REMARK INTER + INTRA:          -5.410
REMARK INTER:                  -5.209
REMARK INTRA:                  -0.201
REMARK UNBOUND:                -0.747
REMARK SMILES C=CCCCCCCC(=O)[O-]
REMARK SMILES IDX 6 1 7 2 8 3 9 4 10 5 11 6 5 7 4 8 3 9 2 10 1 11
REMARK H PARENT
REMARK Flexibility Score: inf
ROOT
ATOM      1  C   UNL     1     -12.291  -8.404  14.605  1.00  0.00     0.000 C 
ENDROOT
BRANCH   1   2
ATOM      2  C   UNL     1     -11.915  -8.076  13.150  1.00  0.00     0.006 C 
BRANCH   2   3
ATOM      3  C   UNL     1     -13.092  -7.483  12.366  1.00  0.00     0.053 C 
BRANCH   3   4
ATOM      4  C   UNL     1     -12.942  -6.003  12.179  1.00  0.00     0.041 C 
ATOM      5  O   UNL     1     -12.979  -5.231  13.171  1.00  0.00    -0.550 OA
ATOM      6  O   UNL     1     -12.797  -5.477  10.902  1.00  0.00    -0.550 OA
ENDBRANCH   3   4
ENDBRANCH   2   3
ENDBRANCH   1   2
BRANCH   1   7
ATOM      7  C   UNL     1     -11.305  -7.805  15.620  1.00  0.00     0.000 C 
BRANCH   7   8
ATOM      8  C   UNL     1     -11.092  -8.711  16.842  1.00  0.00     0.004 C 
BRANCH   8   9
ATOM      9  C   UNL     1     -11.615  -8.040  18.119  1.00  0.00     0.027 C 
BRANCH   9  10
ATOM     10  C   UNL     1     -11.318  -8.875  19.335  1.00  0.00    -0.035 C 
ATOM     11  C   UNL     1     -10.666  -8.375  20.389  1.00  0.00     0.004 C 
ENDBRANCH   9  10
ENDBRANCH   8   9
ENDBRANCH   7   8
ENDBRANCH   1   7
TORSDOF 7
ENDMDL
MODEL 8
REMARK VINA RESULT:    -3.228      2.522      4.725
REMARK INTER + INTRA:          -5.296
REMARK INTER:                  -4.569
REMARK INTRA:                  -0.727
REMARK UNBOUND:                -0.747
REMARK SMILES C=CCCCCCCC(=O)[O-]
REMARK SMILES IDX 6 1 7 2 8 3 9 4 10 5 11 6 5 7 4 8 3 9 2 10 1 11
REMARK H PARENT
REMARK Flexibility Score: inf
ROOT
ATOM      1  C   UNL     1       1.117   4.428  14.885  1.00  0.00     0.000 C 
ENDROOT
BRANCH   1   2
ATOM      2  C   UNL     1      -0.268   4.325  14.223  1.00  0.00     0.006 C 
BRANCH   2   3
ATOM      3  C   UNL     1      -1.395   4.188  15.254  1.00  0.00     0.053 C 
BRANCH   3   4
ATOM      4  C   UNL     1      -2.736   4.473  14.649  1.00  0.00     0.041 C 
ATOM      5  O   UNL     1      -2.997   5.617  14.193  1.00  0.00    -0.550 OA
ATOM      6  O   UNL     1      -3.709   3.483  14.621  1.00  0.00    -0.550 OA
ENDBRANCH   3   4
ENDBRANCH   2   3
ENDBRANCH   1   2
BRANCH   1   7
ATOM      7  C   UNL     1       1.047   4.342  16.418  1.00  0.00     0.000 C 
BRANCH   7   8
ATOM      8  C   UNL     1       1.853   3.164  16.982  1.00  0.00     0.004 C 
BRANCH   8   9
ATOM      9  C   UNL     1       0.978   1.910  17.104  1.00  0.00     0.027 C 
BRANCH   9  10
ATOM     10  C   UNL     1       1.214   0.965  15.958  1.00  0.00    -0.035 C 
ATOM     11  C   UNL     1       0.268   0.711  15.050  1.00  0.00     0.004 C 
ENDBRANCH   9  10
ENDBRANCH   8   9
ENDBRANCH   7   8
ENDBRANCH   1   7
TORSDOF 7
ENDMDL
MODEL 9
REMARK VINA RESULT:    -3.227      2.294      4.144
REMARK INTER + INTRA:          -5.295
REMARK INTER:                  -4.561
REMARK INTRA:                  -0.734
REMARK UNBOUND:                -0.747
REMARK SMILES C=CCCCCCCC(=O)[O-]
REMARK SMILES IDX 6 1 7 2 8 3 9 4 10 5 11 6 5 7 4 8 3 9 2 10 1 11
REMARK H PARENT
REMARK Flexibility Score: inf
ROOT
ATOM      1  C   UNL     1      -2.478   4.701  14.891  1.00  0.00     0.000 C 
ENDROOT
BRANCH   1   2
ATOM      2  C   UNL     1      -2.119   4.043  13.548  1.00  0.00     0.006 C 
BRANCH   2   3
ATOM      3  C   UNL     1      -1.895   2.531  13.684  1.00  0.00     0.053 C 
BRANCH   3   4
ATOM      4  C   UNL     1      -1.961   1.840  12.356  1.00  0.00     0.041 C 
ATOM      5  O   UNL     1      -1.845   2.500  11.290  1.00  0.00    -0.550 OA
ATOM      6  O   UNL     1      -2.184   0.471  12.297  1.00  0.00    -0.550 OA
ENDBRANCH   3   4
ENDBRANCH   2   3
ENDBRANCH   1   2
BRANCH   1   7
ATOM      7  C   UNL     1      -1.944   3.912  16.097  1.00  0.00     0.000 C 
BRANCH   7   8
ATOM      8  C   UNL     1      -0.729   4.583  16.752  1.00  0.00     0.004 C 
BRANCH   8   9
ATOM      9  C   UNL     1       0.488   3.650  16.738  1.00  0.00     0.027 C 
BRANCH   9  10
ATOM     10  C   UNL     1       1.171   3.664  15.398  1.00  0.00    -0.035 C 
ATOM     11  C   UNL     1       1.378   4.800  14.726  1.00  0.00     0.004 C 
ENDBRANCH   9  10
ENDBRANCH   8   9
ENDBRANCH   7   8
ENDBRANCH   1   7
TORSDOF 7
ENDMDL
