MODEL 1
REMARK VINA RESULT:    -6.239      0.000      0.000
REMARK INTER + INTRA:          -6.985
REMARK INTER:                  -6.969
REMARK INTRA:                  -0.016
REMARK UNBOUND:                -0.016
REMARK SMILES COc1cc2ccc(=O)oc2c(O)c1O
REMARK SMILES IDX 3 1 14 2 12 3 11 4 5 5 4 6 6 7 7 8 8 9 9 10 10 11 2 12 1 13
REMARK SMILES IDX 15 14 13 16
REMARK H PARENT 15 15 13 17
REMARK Flexibility Score: inf
ROOT
ATOM      1  C   UNL     1      -7.719 -35.548 -21.636  1.00  0.00     0.165 A 
ATOM      2  C   UNL     1      -8.108 -34.263 -21.206  1.00  0.00     0.204 A 
ATOM      3  C   UNL     1      -8.689 -34.085 -19.937  1.00  0.00     0.205 A 
ATOM      4  C   UNL     1      -8.882 -35.187 -19.095  1.00  0.00     0.184 A 
ATOM      5  C   UNL     1      -8.495 -36.475 -19.521  1.00  0.00     0.025 A 
ATOM      6  C   UNL     1      -7.917 -36.651 -20.784  1.00  0.00     0.062 A 
ATOM      7  C   UNL     1      -8.701 -37.555 -18.656  1.00  0.00     0.020 A 
ATOM      8  C   UNL     1      -9.280 -37.331 -17.407  1.00  0.00     0.094 A 
ATOM      9  C   UNL     1      -9.639 -36.026 -17.051  1.00  0.00     0.336 A 
ATOM     10  O   UNL     1     -10.163 -35.803 -15.929  1.00  0.00    -0.246 OA
ATOM     11  O   UNL     1      -9.431 -35.018 -17.893  1.00  0.00    -0.419 OA
ENDROOT
BRANCH   1  12
ATOM     12  O   UNL     1      -7.144 -35.689 -22.908  1.00  0.00    -0.493 OA
ATOM     13  C   UNL     1      -7.880 -35.788 -24.124  1.00  0.00     0.278 C 
ENDBRANCH   1  12
BRANCH   2  14
ATOM     14  O   UNL     1      -7.923 -33.153 -22.033  1.00  0.00    -0.502 OA
ATOM     15  H   UNL     1      -7.394 -32.340 -21.740  1.00  0.00     0.293 HD
ENDBRANCH   2  14
BRANCH   3  16
ATOM     16  O   UNL     1      -9.078 -32.819 -19.499  1.00  0.00    -0.502 OA
ATOM     17  H   UNL     1     -10.033 -32.490 -19.576  1.00  0.00     0.293 HD
ENDBRANCH   3  16
TORSDOF 3
ENDMDL
MODEL 2
REMARK VINA RESULT:    -6.127      2.685      5.667
REMARK INTER + INTRA:          -6.860
REMARK INTER:                  -6.850
REMARK INTRA:                  -0.010
REMARK UNBOUND:                -0.016
REMARK SMILES COc1cc2ccc(=O)oc2c(O)c1O
REMARK SMILES IDX 3 1 14 2 12 3 11 4 5 5 4 6 6 7 7 8 8 9 9 10 10 11 2 12 1 13
REMARK SMILES IDX 15 14 13 16
REMARK H PARENT 15 15 13 17
REMARK Flexibility Score: inf
ROOT
ATOM      1  C   UNL     1      -8.752 -35.788 -21.615  1.00  0.00     0.165 A 
ATOM      2  C   UNL     1      -8.542 -34.400 -21.486  1.00  0.00     0.204 A 
ATOM      3  C   UNL     1      -8.969 -33.521 -22.497  1.00  0.00     0.205 A 
ATOM      4  C   UNL     1      -9.606 -34.023 -23.638  1.00  0.00     0.184 A 
ATOM      5  C   UNL     1      -9.819 -35.411 -23.773  1.00  0.00     0.025 A 
ATOM      6  C   UNL     1      -9.393 -36.286 -22.766  1.00  0.00     0.062 A 
ATOM      7  C   UNL     1     -10.458 -35.880 -24.925  1.00  0.00     0.020 A 
ATOM      8  C   UNL     1     -10.864 -34.971 -25.902  1.00  0.00     0.094 A 
ATOM      9  C   UNL     1     -10.621 -33.609 -25.701  1.00  0.00     0.336 A 
ATOM     10  O   UNL     1     -10.979 -32.772 -26.570  1.00  0.00    -0.246 OA
ATOM     11  O   UNL     1     -10.011 -33.190 -24.596  1.00  0.00    -0.419 OA
ENDROOT
BRANCH   1  12
ATOM     12  O   UNL     1      -8.313 -36.637 -20.587  1.00  0.00    -0.493 OA
ATOM     13  C   UNL     1      -9.029 -36.886 -19.381  1.00  0.00     0.278 C 
ENDBRANCH   1  12
BRANCH   2  14
ATOM     14  O   UNL     1      -7.908 -33.882 -20.354  1.00  0.00    -0.502 OA
ATOM     15  H   UNL     1      -8.420 -33.433 -19.604  1.00  0.00     0.293 HD
ENDBRANCH   2  14
BRANCH   3  16
ATOM     16  O   UNL     1      -8.767 -32.145 -22.382  1.00  0.00    -0.502 OA
ATOM     17  H   UNL     1      -7.956 -31.754 -21.917  1.00  0.00     0.293 HD
ENDBRANCH   3  16
TORSDOF 3
ENDMDL
MODEL 3
REMARK VINA RESULT:    -5.820      3.949      7.380
REMARK INTER + INTRA:          -6.516
REMARK INTER:                  -6.467
REMARK INTRA:                  -0.049
REMARK UNBOUND:                -0.016
REMARK SMILES COc1cc2ccc(=O)oc2c(O)c1O
REMARK SMILES IDX 3 1 14 2 12 3 11 4 5 5 4 6 6 7 7 8 8 9 9 10 10 11 2 12 1 13
REMARK SMILES IDX 15 14 13 16
REMARK H PARENT 15 15 13 17
REMARK Flexibility Score: inf
ROOT
ATOM      1  C   UNL     1     -11.435 -36.194 -13.361  1.00  0.00     0.165 A 
ATOM      2  C   UNL     1     -10.149 -36.554 -12.911  1.00  0.00     0.204 A 
ATOM      3  C   UNL     1      -9.156 -36.934 -13.831  1.00  0.00     0.205 A 
ATOM      4  C   UNL     1      -9.443 -36.956 -15.201  1.00  0.00     0.184 A 
ATOM      5  C   UNL     1     -10.729 -36.598 -15.658  1.00  0.00     0.025 A 
ATOM      6  C   UNL     1     -11.717 -36.220 -14.740  1.00  0.00     0.062 A 
ATOM      7  C   UNL     1     -10.983 -36.630 -17.032  1.00  0.00     0.020 A 
ATOM      8  C   UNL     1      -9.968 -37.014 -17.908  1.00  0.00     0.094 A 
ATOM      9  C   UNL     1      -8.716 -37.356 -17.385  1.00  0.00     0.336 A 
ATOM     10  O   UNL     1      -7.786 -37.706 -18.158  1.00  0.00    -0.246 OA
ATOM     11  O   UNL     1      -8.502 -37.316 -16.073  1.00  0.00    -0.419 OA
ENDROOT
BRANCH   1  12
ATOM     12  O   UNL     1     -12.402 -35.820 -12.415  1.00  0.00    -0.493 OA
ATOM     13  C   UNL     1     -13.599 -35.109 -12.717  1.00  0.00     0.278 C 
ENDBRANCH   1  12
BRANCH   2  14
ATOM     14  O   UNL     1      -9.845 -36.536 -11.548  1.00  0.00    -0.502 OA
ATOM     15  H   UNL     1      -9.853 -35.684 -11.001  1.00  0.00     0.293 HD
ENDBRANCH   2  14
BRANCH   3  16
ATOM     16  O   UNL     1      -7.878 -37.292 -13.399  1.00  0.00    -0.502 OA
ATOM     17  H   UNL     1      -7.475 -36.928 -12.544  1.00  0.00     0.293 HD
ENDBRANCH   3  16
TORSDOF 3
ENDMDL
MODEL 4
REMARK VINA RESULT:    -5.741      3.664      5.379
REMARK INTER + INTRA:          -6.428
REMARK INTER:                  -6.366
REMARK INTRA:                  -0.062
REMARK UNBOUND:                -0.016
REMARK SMILES COc1cc2ccc(=O)oc2c(O)c1O
REMARK SMILES IDX 3 1 14 2 12 3 11 4 5 5 4 6 6 7 7 8 8 9 9 10 10 11 2 12 1 13
REMARK SMILES IDX 15 14 13 16
REMARK H PARENT 15 15 13 17
REMARK Flexibility Score: inf
ROOT
ATOM      1  C   UNL     1     -10.382 -32.604 -25.875  1.00  0.00     0.165 A 
ATOM      2  C   UNL     1      -9.636 -31.900 -24.907  1.00  0.00     0.204 A 
ATOM      3  C   UNL     1      -9.175 -32.556 -23.752  1.00  0.00     0.205 A 
ATOM      4  C   UNL     1      -9.455 -33.914 -23.559  1.00  0.00     0.184 A 
ATOM      5  C   UNL     1     -10.201 -34.623 -24.524  1.00  0.00     0.025 A 
ATOM      6  C   UNL     1     -10.660 -33.969 -25.674  1.00  0.00     0.062 A 
ATOM      7  C   UNL     1     -10.464 -35.979 -24.301  1.00  0.00     0.020 A 
ATOM      8  C   UNL     1      -9.986 -36.587 -23.140  1.00  0.00     0.094 A 
ATOM      9  C   UNL     1      -9.253 -35.823 -22.227  1.00  0.00     0.336 A 
ATOM     10  O   UNL     1      -8.813 -36.353 -21.174  1.00  0.00    -0.246 OA
ATOM     11  O   UNL     1      -9.017 -34.535 -22.464  1.00  0.00    -0.419 OA
ENDROOT
BRANCH   1  12
ATOM     12  O   UNL     1     -10.827 -31.918 -27.015  1.00  0.00    -0.493 OA
ATOM     13  C   UNL     1     -12.193 -31.773 -27.392  1.00  0.00     0.278 C 
ENDBRANCH   1  12
BRANCH   2  14
ATOM     14  O   UNL     1      -9.347 -30.545 -25.084  1.00  0.00    -0.502 OA
ATOM     15  H   UNL     1     -10.065 -29.831 -25.070  1.00  0.00     0.293 HD
ENDBRANCH   2  14
BRANCH   3  16
ATOM     16  O   UNL     1      -8.436 -31.871 -22.786  1.00  0.00    -0.502 OA
ATOM     17  H   UNL     1      -8.709 -31.849 -21.811  1.00  0.00     0.293 HD
ENDBRANCH   3  16
TORSDOF 3
ENDMDL
MODEL 5
REMARK VINA RESULT:    -5.686      5.396      7.810
REMARK INTER + INTRA:          -6.366
REMARK INTER:                  -6.302
REMARK INTRA:                  -0.065
REMARK UNBOUND:                -0.016
REMARK SMILES COc1cc2ccc(=O)oc2c(O)c1O
REMARK SMILES IDX 3 1 14 2 12 3 11 4 5 5 4 6 6 7 7 8 8 9 9 10 10 11 2 12 1 13
REMARK SMILES IDX 15 14 13 16
REMARK H PARENT 15 15 13 17
REMARK Flexibility Score: inf
ROOT
ATOM      1  C   UNL     1      -9.763 -33.087 -23.949  1.00  0.00     0.165 A 
ATOM      2  C   UNL     1      -9.871 -34.020 -25.000  1.00  0.00     0.204 A 
ATOM      3  C   UNL     1     -10.978 -33.985 -25.868  1.00  0.00     0.205 A 
ATOM      4  C   UNL     1     -11.977 -33.021 -25.690  1.00  0.00     0.184 A 
ATOM      5  C   UNL     1     -11.874 -32.086 -24.639  1.00  0.00     0.025 A 
ATOM      6  C   UNL     1     -10.772 -32.121 -23.775  1.00  0.00     0.062 A 
ATOM      7  C   UNL     1     -12.889 -31.135 -24.488  1.00  0.00     0.020 A 
ATOM      8  C   UNL     1     -13.967 -31.139 -25.372  1.00  0.00     0.094 A 
ATOM      9  C   UNL     1     -14.004 -32.096 -26.392  1.00  0.00     0.336 A 
ATOM     10  O   UNL     1     -14.968 -32.117 -27.200  1.00  0.00    -0.246 OA
ATOM     11  O   UNL     1     -13.024 -32.988 -26.512  1.00  0.00    -0.419 OA
ENDROOT
BRANCH   1  12
ATOM     12  O   UNL     1      -8.646 -33.151 -23.101  1.00  0.00    -0.493 OA
ATOM     13  C   UNL     1      -8.610 -33.848 -21.860  1.00  0.00     0.278 C 
ENDBRANCH   1  12
BRANCH   2  14
ATOM     14  O   UNL     1      -8.883 -34.988 -25.193  1.00  0.00    -0.502 OA
ATOM     15  H   UNL     1      -8.155 -35.163 -24.511  1.00  0.00     0.293 HD
ENDBRANCH   2  14
BRANCH   3  16
ATOM     16  O   UNL     1     -11.097 -34.902 -26.913  1.00  0.00    -0.502 OA
ATOM     17  H   UNL     1     -10.292 -35.259 -27.414  1.00  0.00     0.293 HD
ENDBRANCH   3  16
TORSDOF 3
ENDMDL
MODEL 6
REMARK VINA RESULT:    -5.463      4.790      6.906
REMARK INTER + INTRA:          -6.118
REMARK INTER:                  -6.052
REMARK INTRA:                  -0.066
REMARK UNBOUND:                -0.016
REMARK SMILES COc1cc2ccc(=O)oc2c(O)c1O
REMARK SMILES IDX 3 1 14 2 12 3 11 4 5 5 4 6 6 7 7 8 8 9 9 10 10 11 2 12 1 13
REMARK SMILES IDX 15 14 13 16
REMARK H PARENT 15 15 13 17
REMARK Flexibility Score: inf
ROOT
ATOM      1  C   UNL     1      -9.768 -34.699 -24.626  1.00  0.00     0.165 A 
ATOM      2  C   UNL     1      -9.375 -33.363 -24.410  1.00  0.00     0.204 A 
ATOM      3  C   UNL     1     -10.310 -32.319 -24.532  1.00  0.00     0.205 A 
ATOM      4  C   UNL     1     -11.638 -32.606 -24.869  1.00  0.00     0.184 A 
ATOM      5  C   UNL     1     -12.037 -33.941 -25.087  1.00  0.00     0.025 A 
ATOM      6  C   UNL     1     -11.105 -34.980 -24.966  1.00  0.00     0.062 A 
ATOM      7  C   UNL     1     -13.371 -34.194 -25.423  1.00  0.00     0.020 A 
ATOM      8  C   UNL     1     -14.263 -33.128 -25.533  1.00  0.00     0.094 A 
ATOM      9  C   UNL     1     -13.798 -31.829 -25.302  1.00  0.00     0.336 A 
ATOM     10  O   UNL     1     -14.587 -30.853 -25.396  1.00  0.00    -0.246 OA
ATOM     11  O   UNL     1     -12.524 -31.617 -24.984  1.00  0.00    -0.419 OA
ENDROOT
BRANCH   1  12
ATOM     12  O   UNL     1      -8.808 -35.715 -24.497  1.00  0.00    -0.493 OA
ATOM     13  C   UNL     1      -8.591 -36.478 -23.314  1.00  0.00     0.278 C 
ENDBRANCH   1  12
BRANCH   2  14
ATOM     14  O   UNL     1      -8.054 -33.059 -24.072  1.00  0.00    -0.502 OA
ATOM     15  H   UNL     1      -7.476 -32.450 -24.638  1.00  0.00     0.293 HD
ENDBRANCH   2  14
BRANCH   3  16
ATOM     16  O   UNL     1      -9.934 -30.992 -24.320  1.00  0.00    -0.502 OA
ATOM     17  H   UNL     1      -9.015 -30.645 -24.565  1.00  0.00     0.293 HD
ENDBRANCH   3  16
TORSDOF 3
ENDMDL
MODEL 7
REMARK VINA RESULT:    -5.424      2.339      3.764
REMARK INTER + INTRA:          -6.074
REMARK INTER:                  -6.024
REMARK INTRA:                  -0.051
REMARK UNBOUND:                -0.016
REMARK SMILES COc1cc2ccc(=O)oc2c(O)c1O
REMARK SMILES IDX 3 1 14 2 12 3 11 4 5 5 4 6 6 7 7 8 8 9 9 10 10 11 2 12 1 13
REMARK SMILES IDX 15 14 13 16
REMARK H PARENT 15 15 13 17
REMARK Flexibility Score: inf
ROOT
ATOM      1  C   UNL     1      -9.186 -33.164 -23.411  1.00  0.00     0.165 A 
ATOM      2  C   UNL     1      -9.256 -34.457 -23.969  1.00  0.00     0.204 A 
ATOM      3  C   UNL     1      -9.210 -35.591 -23.138  1.00  0.00     0.205 A 
ATOM      4  C   UNL     1      -9.094 -35.439 -21.751  1.00  0.00     0.184 A 
ATOM      5  C   UNL     1      -9.023 -34.147 -21.188  1.00  0.00     0.025 A 
ATOM      6  C   UNL     1      -9.069 -33.018 -22.015  1.00  0.00     0.062 A 
ATOM      7  C   UNL     1      -8.908 -34.029 -19.799  1.00  0.00     0.020 A 
ATOM      8  C   UNL     1      -8.865 -35.182 -19.015  1.00  0.00     0.094 A 
ATOM      9  C   UNL     1      -8.941 -36.430 -19.642  1.00  0.00     0.336 A 
ATOM     10  O   UNL     1      -8.905 -37.483 -18.953  1.00  0.00    -0.246 OA
ATOM     11  O   UNL     1      -9.051 -36.513 -20.965  1.00  0.00    -0.419 OA
ENDROOT
BRANCH   1  12
ATOM     12  O   UNL     1      -9.234 -32.054 -24.269  1.00  0.00    -0.493 OA
ATOM     13  C   UNL     1      -8.626 -30.795 -24.000  1.00  0.00     0.278 C 
ENDBRANCH   1  12
BRANCH   2  14
ATOM     14  O   UNL     1      -9.372 -34.626 -25.350  1.00  0.00    -0.502 OA
ATOM     15  H   UNL     1      -8.653 -35.077 -25.903  1.00  0.00     0.293 HD
ENDBRANCH   2  14
BRANCH   3  16
ATOM     16  O   UNL     1      -9.278 -36.876 -23.677  1.00  0.00    -0.502 OA
ATOM     17  H   UNL     1      -8.677 -37.178 -24.434  1.00  0.00     0.293 HD
ENDBRANCH   3  16
TORSDOF 3
ENDMDL
MODEL 8
REMARK VINA RESULT:    -5.419      5.887      7.311
REMARK INTER + INTRA:          -6.069
REMARK INTER:                  -6.001
REMARK INTRA:                  -0.068
REMARK UNBOUND:                -0.016
REMARK SMILES COc1cc2ccc(=O)oc2c(O)c1O
REMARK SMILES IDX 3 1 14 2 12 3 11 4 5 5 4 6 6 7 7 8 8 9 9 10 10 11 2 12 1 13
REMARK SMILES IDX 15 14 13 16
REMARK H PARENT 15 15 13 17
REMARK Flexibility Score: inf
ROOT
ATOM      1  C   UNL     1     -10.980 -30.662 -23.191  1.00  0.00     0.165 A 
ATOM      2  C   UNL     1      -9.661 -31.138 -23.337  1.00  0.00     0.204 A 
ATOM      3  C   UNL     1      -9.403 -32.292 -24.098  1.00  0.00     0.205 A 
ATOM      4  C   UNL     1     -10.458 -32.973 -24.716  1.00  0.00     0.184 A 
ATOM      5  C   UNL     1     -11.780 -32.502 -24.574  1.00  0.00     0.025 A 
ATOM      6  C   UNL     1     -12.037 -31.353 -23.815  1.00  0.00     0.062 A 
ATOM      7  C   UNL     1     -12.812 -33.206 -25.204  1.00  0.00     0.020 A 
ATOM      8  C   UNL     1     -12.509 -34.345 -25.949  1.00  0.00     0.094 A 
ATOM      9  C   UNL     1     -11.175 -34.754 -26.048  1.00  0.00     0.336 A 
ATOM     10  O   UNL     1     -10.879 -35.780 -26.715  1.00  0.00    -0.246 OA
ATOM     11  O   UNL     1     -10.213 -34.066 -25.438  1.00  0.00    -0.419 OA
ENDROOT
BRANCH   1  12
ATOM     12  O   UNL     1     -11.202 -29.508 -22.424  1.00  0.00    -0.493 OA
ATOM     13  C   UNL     1     -11.822 -29.495 -21.142  1.00  0.00     0.278 C 
ENDBRANCH   1  12
BRANCH   2  14
ATOM     14  O   UNL     1      -8.597 -30.470 -22.728  1.00  0.00    -0.502 OA
ATOM     15  H   UNL     1      -7.828 -30.961 -22.289  1.00  0.00     0.293 HD
ENDBRANCH   2  14
BRANCH   3  16
ATOM     16  O   UNL     1      -8.102 -32.773 -24.251  1.00  0.00    -0.502 OA
ATOM     17  H   UNL     1      -7.504 -32.976 -23.458  1.00  0.00     0.293 HD
ENDBRANCH   3  16
TORSDOF 3
ENDMDL
MODEL 9
REMARK VINA RESULT:    -5.341      3.941      7.132
REMARK INTER + INTRA:          -5.982
REMARK INTER:                  -5.913
REMARK INTRA:                  -0.069
REMARK UNBOUND:                -0.016
REMARK SMILES COc1cc2ccc(=O)oc2c(O)c1O
REMARK SMILES IDX 3 1 14 2 12 3 11 4 5 5 4 6 6 7 7 8 8 9 9 10 10 11 2 12 1 13
REMARK SMILES IDX 15 14 13 16
REMARK H PARENT 15 15 13 17
REMARK Flexibility Score: inf
ROOT
ATOM      1  C   UNL     1      -8.565 -34.481 -23.130  1.00  0.00     0.165 A 
ATOM      2  C   UNL     1      -9.294 -35.487 -23.797  1.00  0.00     0.204 A 
ATOM      3  C   UNL     1     -10.139 -35.156 -24.872  1.00  0.00     0.205 A 
ATOM      4  C   UNL     1     -10.258 -33.824 -25.284  1.00  0.00     0.184 A 
ATOM      5  C   UNL     1      -9.532 -32.813 -24.621  1.00  0.00     0.025 A 
ATOM      6  C   UNL     1      -8.691 -33.143 -23.550  1.00  0.00     0.062 A 
ATOM      7  C   UNL     1      -9.673 -31.492 -25.057  1.00  0.00     0.020 A 
ATOM      8  C   UNL     1     -10.523 -31.212 -26.127  1.00  0.00     0.094 A 
ATOM      9  C   UNL     1     -11.212 -32.264 -26.739  1.00  0.00     0.336 A 
ATOM     10  O   UNL     1     -11.983 -32.033 -27.706  1.00  0.00    -0.246 OA
ATOM     11  O   UNL     1     -11.058 -33.512 -26.303  1.00  0.00    -0.419 OA
ENDROOT
BRANCH   1  12
ATOM     12  O   UNL     1      -7.732 -34.846 -22.062  1.00  0.00    -0.493 OA
ATOM     13  C   UNL     1      -8.022 -34.603 -20.688  1.00  0.00     0.278 C 
ENDBRANCH   1  12
BRANCH   2  14
ATOM     14  O   UNL     1      -9.186 -36.821 -23.399  1.00  0.00    -0.502 OA
ATOM     15  H   UNL     1      -8.551 -37.471 -23.846  1.00  0.00     0.293 HD
ENDBRANCH   2  14
BRANCH   3  16
ATOM     16  O   UNL     1     -10.865 -36.142 -25.541  1.00  0.00    -0.502 OA
ATOM     17  H   UNL     1     -11.560 -35.919 -26.243  1.00  0.00     0.293 HD
ENDBRANCH   3  16
TORSDOF 3
ENDMDL
