MODEL 1
REMARK VINA RESULT:    -3.682      0.000      0.000
REMARK INTER + INTRA:          -5.363
REMARK INTER:                  -4.973
REMARK INTRA:                  -0.390
REMARK UNBOUND:                -0.390
REMARK SMILES CCCCCCC=CC(=O)[O-]
REMARK SMILES IDX 5 1 6 2 7 3 8 4 9 5 10 6 11 7 4 8 3 9 2 10 1 11
REMARK H PARENT
REMARK Flexibility Score: inf
ROOT
ATOM      1  C   UNL     1      -3.025  -8.854   5.616  1.00  0.00     0.004 C 
ENDROOT
BRANCH   1   2
ATOM      2  C   UNL     1      -2.508  -8.831   7.062  1.00  0.00     0.027 C 
BRANCH   2   3
ATOM      3  C   UNL     1      -1.017  -8.622   7.119  1.00  0.00    -0.025 C 
ATOM      4  C   UNL     1      -0.363  -7.669   7.805  1.00  0.00     0.020 C 
BRANCH   4   5
ATOM      5  C   UNL     1      -0.952  -6.650   8.698  1.00  0.00     0.064 C 
ATOM      6  O   UNL     1      -0.974  -5.451   8.319  1.00  0.00    -0.545 OA
ATOM      7  O   UNL     1      -1.430  -6.959   9.964  1.00  0.00    -0.545 OA
ENDBRANCH   4   5
ENDBRANCH   2   3
ENDBRANCH   1   2
BRANCH   1   8
ATOM      8  C   UNL     1      -2.105  -8.091   4.648  1.00  0.00     0.000 C 
BRANCH   8   9
ATOM      9  C   UNL     1      -2.740  -7.877   3.263  1.00  0.00    -0.000 C 
BRANCH   9  10
ATOM     10  C   UNL     1      -4.268  -8.064   3.215  1.00  0.00    -0.003 C 
ATOM     11  C   UNL     1      -5.031  -6.741   3.169  1.00  0.00     0.004 C 
ENDBRANCH   9  10
ENDBRANCH   8   9
ENDBRANCH   1   8
TORSDOF 6
ENDMDL
MODEL 2
REMARK VINA RESULT:    -3.607      1.637      2.706
REMARK INTER + INTRA:          -5.262
REMARK INTER:                  -4.768
REMARK INTRA:                  -0.494
REMARK UNBOUND:                -0.390
REMARK SMILES CCCCCCC=CC(=O)[O-]
REMARK SMILES IDX 5 1 6 2 7 3 8 4 9 5 10 6 11 7 4 8 3 9 2 10 1 11
REMARK H PARENT
REMARK Flexibility Score: inf
ROOT
ATOM      1  C   UNL     1      -3.103  -8.049   3.222  1.00  0.00     0.004 C 
ENDROOT
BRANCH   1   2
ATOM      2  C   UNL     1      -2.233  -8.035   4.487  1.00  0.00     0.027 C 
BRANCH   2   3
ATOM      3  C   UNL     1      -2.876  -8.797   5.616  1.00  0.00    -0.025 C 
ATOM      4  C   UNL     1      -2.386  -8.964   6.857  1.00  0.00     0.020 C 
BRANCH   4   5
ATOM      5  C   UNL     1      -1.139  -8.394   7.407  1.00  0.00     0.064 C 
ATOM      6  O   UNL     1      -0.102  -9.105   7.422  1.00  0.00    -0.545 OA
ATOM      7  O   UNL     1      -1.084  -7.122   7.961  1.00  0.00    -0.545 OA
ENDBRANCH   4   5
ENDBRANCH   2   3
ENDBRANCH   1   2
BRANCH   1   8
ATOM      8  C   UNL     1      -4.177  -6.949   3.232  1.00  0.00     0.000 C 
BRANCH   8   9
ATOM      9  C   UNL     1      -5.571  -7.470   2.841  1.00  0.00    -0.000 C 
BRANCH   9  10
ATOM     10  C   UNL     1      -6.641  -7.351   3.942  1.00  0.00    -0.003 C 
ATOM     11  C   UNL     1      -6.366  -8.255   5.143  1.00  0.00     0.004 C 
ENDBRANCH   9  10
ENDBRANCH   8   9
ENDBRANCH   1   8
TORSDOF 6
ENDMDL
MODEL 3
REMARK VINA RESULT:    -3.432     15.446     17.149
REMARK INTER + INTRA:          -5.025
REMARK INTER:                  -4.557
REMARK INTRA:                  -0.468
REMARK UNBOUND:                -0.390
REMARK SMILES CCCCCCC=CC(=O)[O-]
REMARK SMILES IDX 5 1 6 2 7 3 8 4 9 5 10 6 11 7 4 8 3 9 2 10 1 11
REMARK H PARENT
REMARK Flexibility Score: inf
ROOT
ATOM      1  C   UNL     1       6.327  -4.226  -9.646  1.00  0.00     0.004 C 
ENDROOT
BRANCH   1   2
ATOM      2  C   UNL     1       4.805  -4.414  -9.568  1.00  0.00     0.027 C 
BRANCH   2   3
ATOM      3  C   UNL     1       4.422  -5.462  -8.556  1.00  0.00    -0.025 C 
ATOM      4  C   UNL     1       3.190  -5.712  -8.081  1.00  0.00     0.020 C 
BRANCH   4   5
ATOM      5  C   UNL     1       1.930  -5.054  -8.484  1.00  0.00     0.064 C 
ATOM      6  O   UNL     1       1.243  -5.569  -9.404  1.00  0.00    -0.545 OA
ATOM      7  O   UNL     1       1.504  -3.857  -7.924  1.00  0.00    -0.545 OA
ENDBRANCH   4   5
ENDBRANCH   2   3
ENDBRANCH   1   2
BRANCH   1   8
ATOM      8  C   UNL     1       7.094  -5.549  -9.481  1.00  0.00     0.000 C 
BRANCH   8   9
ATOM      9  C   UNL     1       7.834  -5.647  -8.135  1.00  0.00    -0.000 C 
BRANCH   9  10
ATOM     10  C   UNL     1       7.758  -7.025  -7.453  1.00  0.00    -0.003 C 
ATOM     11  C   UNL     1       6.848  -7.035  -6.225  1.00  0.00     0.004 C 
ENDBRANCH   9  10
ENDBRANCH   8   9
ENDBRANCH   1   8
TORSDOF 6
ENDMDL
MODEL 4
REMARK VINA RESULT:    -3.430      4.755      6.409
REMARK INTER + INTRA:          -5.023
REMARK INTER:                  -4.440
REMARK INTRA:                  -0.584
REMARK UNBOUND:                -0.390
REMARK SMILES CCCCCCC=CC(=O)[O-]
REMARK SMILES IDX 5 1 6 2 7 3 8 4 9 5 10 6 11 7 4 8 3 9 2 10 1 11
REMARK H PARENT
REMARK Flexibility Score: inf
ROOT
ATOM      1  C   UNL     1      -4.762  -8.018   1.815  1.00  0.00     0.004 C 
ENDROOT
BRANCH   1   2
ATOM      2  C   UNL     1      -5.263  -6.925   2.769  1.00  0.00     0.027 C 
BRANCH   2   3
ATOM      3  C   UNL     1      -5.829  -7.507   4.039  1.00  0.00    -0.025 C 
ATOM      4  C   UNL     1      -7.121  -7.762   4.301  1.00  0.00     0.020 C 
BRANCH   4   5
ATOM      5  C   UNL     1      -8.269  -7.581   3.388  1.00  0.00     0.064 C 
ATOM      6  O   UNL     1      -8.319  -8.265   2.334  1.00  0.00    -0.545 OA
ATOM      7  O   UNL     1      -9.264  -6.642   3.623  1.00  0.00    -0.545 OA
ENDBRANCH   4   5
ENDBRANCH   2   3
ENDBRANCH   1   2
BRANCH   1   8
ATOM      8  C   UNL     1      -3.807  -9.009   2.501  1.00  0.00     0.000 C 
BRANCH   8   9
ATOM      9  C   UNL     1      -2.332  -8.769   2.135  1.00  0.00    -0.000 C 
BRANCH   9  10
ATOM     10  C   UNL     1      -1.506  -8.044   3.213  1.00  0.00    -0.003 C 
ATOM     11  C   UNL     1      -2.169  -8.066   4.590  1.00  0.00     0.004 C 
ENDBRANCH   9  10
ENDBRANCH   8   9
ENDBRANCH   1   8
TORSDOF 6
ENDMDL
MODEL 5
REMARK VINA RESULT:    -3.413      3.582      5.964
REMARK INTER + INTRA:          -5.000
REMARK INTER:                  -4.775
REMARK INTRA:                  -0.225
REMARK UNBOUND:                -0.390
REMARK SMILES CCCCCCC=CC(=O)[O-]
REMARK SMILES IDX 5 1 6 2 7 3 8 4 9 5 10 6 11 7 4 8 3 9 2 10 1 11
REMARK H PARENT
REMARK Flexibility Score: inf
ROOT
ATOM      1  C   UNL     1      -2.143  -8.143   4.843  1.00  0.00     0.004 C 
ENDROOT
BRANCH   1   2
ATOM      2  C   UNL     1      -3.455  -8.372   4.079  1.00  0.00     0.027 C 
BRANCH   2   3
ATOM      3  C   UNL     1      -3.911  -7.127   3.364  1.00  0.00    -0.025 C 
ATOM      4  C   UNL     1      -5.170  -6.811   3.018  1.00  0.00     0.020 C 
BRANCH   4   5
ATOM      5  C   UNL     1      -6.395  -7.586   3.308  1.00  0.00     0.064 C 
ATOM      6  O   UNL     1      -6.869  -8.329   2.410  1.00  0.00    -0.545 OA
ATOM      7  O   UNL     1      -7.074  -7.478   4.513  1.00  0.00    -0.545 OA
ENDBRANCH   4   5
ENDBRANCH   2   3
ENDBRANCH   1   2
BRANCH   1   8
ATOM      8  C   UNL     1      -2.200  -8.670   6.286  1.00  0.00     0.000 C 
BRANCH   8   9
ATOM      9  C   UNL     1      -0.981  -8.250   7.125  1.00  0.00    -0.000 C 
BRANCH   9  10
ATOM     10  C   UNL     1      -1.311  -7.411   8.374  1.00  0.00    -0.003 C 
ATOM     11  C   UNL     1      -0.340  -6.251   8.589  1.00  0.00     0.004 C 
ENDBRANCH   9  10
ENDBRANCH   8   9
ENDBRANCH   1   8
TORSDOF 6
ENDMDL
MODEL 6
REMARK VINA RESULT:    -3.411      3.015      5.280
REMARK INTER + INTRA:          -4.998
REMARK INTER:                  -4.537
REMARK INTRA:                  -0.461
REMARK UNBOUND:                -0.390
REMARK SMILES CCCCCCC=CC(=O)[O-]
REMARK SMILES IDX 5 1 6 2 7 3 8 4 9 5 10 6 11 7 4 8 3 9 2 10 1 11
REMARK H PARENT
REMARK Flexibility Score: inf
ROOT
ATOM      1  C   UNL     1      -2.209  -9.118   7.191  1.00  0.00     0.004 C 
ENDROOT
BRANCH   1   2
ATOM      2  C   UNL     1      -2.964  -8.930   5.867  1.00  0.00     0.027 C 
BRANCH   2   3
ATOM      3  C   UNL     1      -2.165  -8.124   4.877  1.00  0.00    -0.025 C 
ATOM      4  C   UNL     1      -2.604  -7.606   3.718  1.00  0.00     0.020 C 
BRANCH   4   5
ATOM      5  C   UNL     1      -3.980  -7.663   3.181  1.00  0.00     0.064 C 
ATOM      6  O   UNL     1      -4.705  -6.637   3.259  1.00  0.00    -0.545 OA
ATOM      7  O   UNL     1      -4.522  -8.824   2.647  1.00  0.00    -0.545 OA
ENDBRANCH   4   5
ENDBRANCH   2   3
ENDBRANCH   1   2
BRANCH   1   8
ATOM      8  C   UNL     1      -0.708  -8.809   7.063  1.00  0.00     0.000 C 
BRANCH   8   9
ATOM      9  C   UNL     1      -0.282  -7.568   7.867  1.00  0.00    -0.000 C 
BRANCH   9  10
ATOM     10  C   UNL     1      -1.405  -6.915   8.693  1.00  0.00    -0.003 C 
ATOM     11  C   UNL     1      -1.167  -5.428   8.954  1.00  0.00     0.004 C 
ENDBRANCH   9  10
ENDBRANCH   8   9
ENDBRANCH   1   8
TORSDOF 6
ENDMDL
MODEL 7
REMARK VINA RESULT:    -3.401     15.141     16.681
REMARK INTER + INTRA:          -4.984
REMARK INTER:                  -4.584
REMARK INTRA:                  -0.400
REMARK UNBOUND:                -0.390
REMARK SMILES CCCCCCC=CC(=O)[O-]
REMARK SMILES IDX 5 1 6 2 7 3 8 4 9 5 10 6 11 7 4 8 3 9 2 10 1 11
REMARK H PARENT
REMARK Flexibility Score: inf
ROOT
ATOM      1  C   UNL     1       6.893  -5.526  -9.418  1.00  0.00     0.004 C 
ENDROOT
BRANCH   1   2
ATOM      2  C   UNL     1       7.830  -5.502  -8.201  1.00  0.00     0.027 C 
BRANCH   2   3
ATOM      3  C   UNL     1       8.258  -6.889  -7.797  1.00  0.00    -0.025 C 
ATOM      4  C   UNL     1       7.693  -7.664  -6.857  1.00  0.00     0.020 C 
BRANCH   4   5
ATOM      5  C   UNL     1       6.496  -7.355  -6.048  1.00  0.00     0.064 C 
ATOM      6  O   UNL     1       5.358  -7.533  -6.556  1.00  0.00    -0.545 OA
ATOM      7  O   UNL     1       6.580  -6.821  -4.770  1.00  0.00    -0.545 OA
ENDBRANCH   4   5
ENDBRANCH   2   3
ENDBRANCH   1   2
BRANCH   1   8
ATOM      8  C   UNL     1       6.354  -4.132  -9.775  1.00  0.00     0.000 C 
BRANCH   8   9
ATOM      9  C   UNL     1       4.818  -4.088  -9.861  1.00  0.00    -0.000 C 
BRANCH   9  10
ATOM     10  C   UNL     1       4.085  -4.772  -8.692  1.00  0.00    -0.003 C 
ATOM     11  C   UNL     1       2.668  -4.237  -8.481  1.00  0.00     0.004 C 
ENDBRANCH   9  10
ENDBRANCH   8   9
ENDBRANCH   1   8
TORSDOF 6
ENDMDL
MODEL 8
REMARK VINA RESULT:    -3.390     15.563     17.448
REMARK INTER + INTRA:          -4.969
REMARK INTER:                  -4.483
REMARK INTRA:                  -0.486
REMARK UNBOUND:                -0.390
REMARK SMILES CCCCCCC=CC(=O)[O-]
REMARK SMILES IDX 5 1 6 2 7 3 8 4 9 5 10 6 11 7 4 8 3 9 2 10 1 11
REMARK H PARENT
REMARK Flexibility Score: inf
ROOT
ATOM      1  C   UNL     1       7.595  -5.496  -8.205  1.00  0.00     0.004 C 
ENDROOT
BRANCH   1   2
ATOM      2  C   UNL     1       6.897  -5.472  -9.572  1.00  0.00     0.027 C 
BRANCH   2   3
ATOM      3  C   UNL     1       6.057  -4.233  -9.749  1.00  0.00    -0.025 C 
ATOM      4  C   UNL     1       4.722  -4.141  -9.626  1.00  0.00     0.020 C 
BRANCH   4   5
ATOM      5  C   UNL     1       3.786  -5.216  -9.239  1.00  0.00     0.064 C 
ATOM      6  O   UNL     1       3.378  -5.267  -8.050  1.00  0.00    -0.545 OA
ATOM      7  O   UNL     1       3.385  -6.208 -10.124  1.00  0.00    -0.545 OA
ENDBRANCH   4   5
ENDBRANCH   2   3
ENDBRANCH   1   2
BRANCH   1   8
ATOM      8  C   UNL     1       8.463  -6.751  -8.008  1.00  0.00     0.000 C 
BRANCH   8   9
ATOM      9  C   UNL     1       7.818  -7.782  -7.066  1.00  0.00    -0.000 C 
BRANCH   9  10
ATOM     10  C   UNL     1       6.763  -7.209  -6.102  1.00  0.00    -0.003 C 
ATOM     11  C   UNL     1       5.361  -7.764  -6.351  1.00  0.00     0.004 C 
ENDBRANCH   9  10
ENDBRANCH   8   9
ENDBRANCH   1   8
TORSDOF 6
ENDMDL
MODEL 9
REMARK VINA RESULT:    -3.389     14.491     15.892
REMARK INTER + INTRA:          -4.968
REMARK INTER:                  -4.432
REMARK INTRA:                  -0.536
REMARK UNBOUND:                -0.390
REMARK SMILES CCCCCCC=CC(=O)[O-]
REMARK SMILES IDX 5 1 6 2 7 3 8 4 9 5 10 6 11 7 4 8 3 9 2 10 1 11
REMARK H PARENT
REMARK Flexibility Score: inf
ROOT
ATOM      1  C   UNL     1      -9.855   4.625   4.336  1.00  0.00     0.004 C 
ENDROOT
BRANCH   1   2
ATOM      2  C   UNL     1      -8.957   4.711   5.579  1.00  0.00     0.027 C 
BRANCH   2   3
ATOM      3  C   UNL     1      -9.544   5.616   6.631  1.00  0.00    -0.025 C 
ATOM      4  C   UNL     1      -9.020   6.766   7.088  1.00  0.00     0.020 C 
BRANCH   4   5
ATOM      5  C   UNL     1      -7.784   7.428   6.624  1.00  0.00     0.064 C 
ATOM      6  O   UNL     1      -6.700   7.166   7.206  1.00  0.00    -0.545 OA
ATOM      7  O   UNL     1      -7.783   8.374   5.608  1.00  0.00    -0.545 OA
ENDBRANCH   4   5
ENDBRANCH   2   3
ENDBRANCH   1   2
BRANCH   1   8
ATOM      8  C   UNL     1     -10.091   5.997   3.683  1.00  0.00     0.000 C 
BRANCH   8   9
ATOM      9  C   UNL     1      -8.931   6.432   2.770  1.00  0.00    -0.000 C 
BRANCH   9  10
ATOM     10  C   UNL     1      -9.062   7.851   2.187  1.00  0.00    -0.003 C 
ATOM     11  C   UNL     1      -7.713   8.494   1.867  1.00  0.00     0.004 C 
ENDBRANCH   9  10
ENDBRANCH   8   9
ENDBRANCH   1   8
TORSDOF 6
ENDMDL
