MODEL 1
REMARK VINA RESULT:    -7.639      0.000      0.000
REMARK INTER + INTRA:          -9.514
REMARK INTER:                  -9.203
REMARK INTRA:                  -0.312
REMARK UNBOUND:                -0.312
REMARK SMILES O=c1c(O)c(-c2ccc(O)c(O)c2)oc2cc(O)cc(O)c12
REMARK SMILES IDX 5 1 3 2 2 3 1 4 22 5 20 6 19 7 17 8 16 9 15 10 14 11 6 12
REMARK SMILES IDX 7 13 8 14 9 15 13 16 11 17 10 18 12 20 4 22 21 24 18 26
REMARK H PARENT 10 19 12 21 4 23 21 25 18 27
REMARK Flexibility Score: inf
ROOT
ATOM      1  C   UNL     1      25.542   6.240  22.658  1.00  0.00     0.180 A 
ATOM      2  C   UNL     1      24.599   6.030  23.679  1.00  0.00     0.208 A 
ATOM      3  C   UNL     1      23.609   5.050  23.501  1.00  0.00     0.238 A 
ATOM      4  O   UNL     1      22.734   4.905  24.395  1.00  0.00    -0.285 OA
ATOM      5  C   UNL     1      23.584   4.281  22.312  1.00  0.00     0.111 A 
ATOM      6  C   UNL     1      22.652   3.235  22.043  1.00  0.00     0.134 A 
ATOM      7  C   UNL     1      22.639   2.630  20.780  1.00  0.00     0.093 A 
ATOM      8  C   UNL     1      23.564   2.987  19.801  1.00  0.00     0.123 A 
ATOM      9  C   UNL     1      24.520   3.967  20.074  1.00  0.00     0.094 A 
ATOM     10  C   UNL     1      24.535   4.615  21.312  1.00  0.00     0.146 A 
ATOM     11  O   UNL     1      25.453   5.548  21.528  1.00  0.00    -0.452 OA
ENDROOT
BRANCH   1  12
ATOM     12  C   UNL     1      26.630   7.237  22.783  1.00  0.00     0.025 A 
ATOM     13  C   UNL     1      27.922   6.863  23.193  1.00  0.00     0.016 A 
ATOM     14  C   UNL     1      28.939   7.817  23.279  1.00  0.00     0.051 A 
ATOM     15  C   UNL     1      28.684   9.154  22.947  1.00  0.00     0.157 A 
ATOM     16  C   UNL     1      26.386   8.574  22.431  1.00  0.00     0.062 A 
ATOM     17  C   UNL     1      27.402   9.533  22.518  1.00  0.00     0.158 A 
BRANCH  15  18
ATOM     18  O   UNL     1      29.701  10.104  23.037  1.00  0.00    -0.504 OA
ATOM     19  H   UNL     1      30.672   9.859  22.881  1.00  0.00     0.293 HD
ENDBRANCH  15  18
BRANCH  17  20
ATOM     20  O   UNL     1      27.118  10.854  22.174  1.00  0.00    -0.504 OA
ATOM     21  H   UNL     1      27.526  11.638  22.669  1.00  0.00     0.293 HD
ENDBRANCH  17  20
ENDBRANCH   1  12
BRANCH   2  22
ATOM     22  O   UNL     1      24.628   6.815  24.835  1.00  0.00    -0.502 OA
ATOM     23  H   UNL     1      25.206   7.643  24.916  1.00  0.00     0.293 HD
ENDBRANCH   2  22
BRANCH   6  24
ATOM     24  O   UNL     1      21.743   2.739  22.982  1.00  0.00    -0.507 OA
ATOM     25  H   UNL     1      20.741   2.764  22.881  1.00  0.00     0.293 HD
ENDBRANCH   6  24
BRANCH   8  26
ATOM     26  O   UNL     1      23.532   2.353  18.561  1.00  0.00    -0.508 OA
ATOM     27  H   UNL     1      24.159   1.588  18.340  1.00  0.00     0.293 HD
ENDBRANCH   8  26
TORSDOF 6
ENDMDL
MODEL 2
REMARK VINA RESULT:    -7.599      3.126      6.809
REMARK INTER + INTRA:          -9.466
REMARK INTER:                  -9.145
REMARK INTRA:                  -0.320
REMARK UNBOUND:                -0.312
REMARK SMILES O=c1c(O)c(-c2ccc(O)c(O)c2)oc2cc(O)cc(O)c12
REMARK SMILES IDX 5 1 3 2 2 3 1 4 22 5 20 6 19 7 17 8 16 9 15 10 14 11 6 12
REMARK SMILES IDX 7 13 8 14 9 15 13 16 11 17 10 18 12 20 4 22 21 24 18 26
REMARK H PARENT 10 19 12 21 4 23 21 25 18 27
REMARK Flexibility Score: inf
ROOT
ATOM      1  C   UNL     1      26.375   6.482  20.450  1.00  0.00     0.180 A 
ATOM      2  C   UNL     1      27.715   6.440  20.027  1.00  0.00     0.208 A 
ATOM      3  C   UNL     1      28.735   6.519  20.989  1.00  0.00     0.238 A 
ATOM      4  O   UNL     1      29.932   6.536  20.600  1.00  0.00    -0.285 OA
ATOM      5  C   UNL     1      28.403   6.623  22.361  1.00  0.00     0.111 A 
ATOM      6  C   UNL     1      29.354   6.669  23.424  1.00  0.00     0.134 A 
ATOM      7  C   UNL     1      28.917   6.904  24.734  1.00  0.00     0.093 A 
ATOM      8  C   UNL     1      27.560   7.029  25.028  1.00  0.00     0.123 A 
ATOM      9  C   UNL     1      26.616   6.925  24.004  1.00  0.00     0.094 A 
ATOM     10  C   UNL     1      27.024   6.728  22.683  1.00  0.00     0.146 A 
ATOM     11  O   UNL     1      26.096   6.646  21.738  1.00  0.00    -0.452 OA
ENDROOT
BRANCH   1  12
ATOM     12  C   UNL     1      25.245   6.380  19.498  1.00  0.00     0.025 A 
ATOM     13  C   UNL     1      24.621   5.148  19.233  1.00  0.00     0.016 A 
ATOM     14  C   UNL     1      23.541   5.079  18.350  1.00  0.00     0.051 A 
ATOM     15  C   UNL     1      23.060   6.240  17.729  1.00  0.00     0.157 A 
ATOM     16  C   UNL     1      24.745   7.543  18.890  1.00  0.00     0.062 A 
ATOM     17  C   UNL     1      23.664   7.477  18.003  1.00  0.00     0.158 A 
BRANCH  15  18
ATOM     18  O   UNL     1      21.983   6.167  16.846  1.00  0.00    -0.504 OA
ATOM     19  H   UNL     1      21.821   6.881  16.146  1.00  0.00     0.293 HD
ENDBRANCH  15  18
BRANCH  17  20
ATOM     20  O   UNL     1      23.205   8.651  17.408  1.00  0.00    -0.504 OA
ATOM     21  H   UNL     1      22.499   8.645  16.680  1.00  0.00     0.293 HD
ENDBRANCH  17  20
ENDBRANCH   1  12
BRANCH   2  22
ATOM     22  O   UNL     1      28.021   6.360  18.666  1.00  0.00    -0.502 OA
ATOM     23  H   UNL     1      28.047   5.479  18.166  1.00  0.00     0.293 HD
ENDBRANCH   2  22
BRANCH   6  24
ATOM     24  O   UNL     1      30.726   6.465  23.252  1.00  0.00    -0.507 OA
ATOM     25  H   UNL     1      31.133   5.731  22.693  1.00  0.00     0.293 HD
ENDBRANCH   6  24
BRANCH   8  26
ATOM     26  O   UNL     1      27.159   7.246  26.344  1.00  0.00    -0.508 OA
ATOM     27  H   UNL     1      26.866   8.161  26.665  1.00  0.00     0.293 HD
ENDBRANCH   8  26
TORSDOF 6
ENDMDL
MODEL 3
REMARK VINA RESULT:    -7.518      2.681      6.586
REMARK INTER + INTRA:          -9.369
REMARK INTER:                  -9.034
REMARK INTRA:                  -0.335
REMARK UNBOUND:                -0.312
REMARK SMILES O=c1c(O)c(-c2ccc(O)c(O)c2)oc2cc(O)cc(O)c12
REMARK SMILES IDX 5 1 3 2 2 3 1 4 22 5 20 6 19 7 17 8 16 9 15 10 14 11 6 12
REMARK SMILES IDX 7 13 8 14 9 15 13 16 11 17 10 18 12 20 4 22 21 24 18 26
REMARK H PARENT 10 19 12 21 4 23 21 25 18 27
REMARK Flexibility Score: inf
ROOT
ATOM      1  C   UNL     1      25.171   6.395  23.907  1.00  0.00     0.180 A 
ATOM      2  C   UNL     1      25.755   6.747  25.136  1.00  0.00     0.208 A 
ATOM      3  C   UNL     1      27.120   7.075  25.172  1.00  0.00     0.238 A 
ATOM      4  O   UNL     1      27.650   7.336  26.284  1.00  0.00    -0.285 OA
ATOM      5  C   UNL     1      27.879   7.061  23.978  1.00  0.00     0.111 A 
ATOM      6  C   UNL     1      29.259   7.414  23.891  1.00  0.00     0.134 A 
ATOM      7  C   UNL     1      29.943   7.239  22.681  1.00  0.00     0.093 A 
ATOM      8  C   UNL     1      29.282   6.787  21.540  1.00  0.00     0.123 A 
ATOM      9  C   UNL     1      27.918   6.496  21.598  1.00  0.00     0.094 A 
ATOM     10  C   UNL     1      27.217   6.625  22.800  1.00  0.00     0.146 A 
ATOM     11  O   UNL     1      25.924   6.328  22.815  1.00  0.00    -0.452 OA
ENDROOT
BRANCH   1  12
ATOM     12  C   UNL     1      23.733   6.061  23.785  1.00  0.00     0.025 A 
ATOM     13  C   UNL     1      22.769   7.056  23.540  1.00  0.00     0.016 A 
ATOM     14  C   UNL     1      21.421   6.714  23.403  1.00  0.00     0.051 A 
ATOM     15  C   UNL     1      21.018   5.375  23.497  1.00  0.00     0.157 A 
ATOM     16  C   UNL     1      23.326   4.719  23.857  1.00  0.00     0.062 A 
ATOM     17  C   UNL     1      21.976   4.374  23.722  1.00  0.00     0.158 A 
BRANCH  15  18
ATOM     18  O   UNL     1      19.671   5.039  23.363  1.00  0.00    -0.504 OA
ATOM     19  H   UNL     1      19.115   5.373  22.585  1.00  0.00     0.293 HD
ENDBRANCH  15  18
BRANCH  17  20
ATOM     20  O   UNL     1      21.608   3.032  23.814  1.00  0.00    -0.504 OA
ATOM     21  H   UNL     1      20.766   2.737  24.292  1.00  0.00     0.293 HD
ENDBRANCH  17  20
ENDBRANCH   1  12
BRANCH   2  22
ATOM     22  O   UNL     1      24.992   6.732  26.307  1.00  0.00    -0.502 OA
ATOM     23  H   UNL     1      23.999   6.935  26.312  1.00  0.00     0.293 HD
ENDBRANCH   2  22
BRANCH   6  24
ATOM     24  O   UNL     1      29.993   7.962  24.948  1.00  0.00    -0.507 OA
ATOM     25  H   UNL     1      29.599   8.259  25.827  1.00  0.00     0.293 HD
ENDBRANCH   6  24
BRANCH   8  26
ATOM     26  O   UNL     1      29.989   6.639  20.349  1.00  0.00    -0.508 OA
ATOM     27  H   UNL     1      30.824   6.068  20.295  1.00  0.00     0.293 HD
ENDBRANCH   8  26
TORSDOF 6
ENDMDL
MODEL 4
REMARK VINA RESULT:    -7.434      2.598      3.754
REMARK INTER + INTRA:          -9.267
REMARK INTER:                  -8.969
REMARK INTRA:                  -0.299
REMARK UNBOUND:                -0.312
REMARK SMILES O=c1c(O)c(-c2ccc(O)c(O)c2)oc2cc(O)cc(O)c12
REMARK SMILES IDX 5 1 3 2 2 3 1 4 22 5 20 6 19 7 17 8 16 9 15 10 14 11 6 12
REMARK SMILES IDX 7 13 8 14 9 15 13 16 11 17 10 18 12 20 4 22 21 24 18 26
REMARK H PARENT 10 19 12 21 4 23 21 25 18 27
REMARK Flexibility Score: inf
ROOT
ATOM      1  C   UNL     1      25.825   6.070  21.948  1.00  0.00     0.180 A 
ATOM      2  C   UNL     1      25.527   4.720  21.692  1.00  0.00     0.208 A 
ATOM      3  C   UNL     1      24.760   4.395  20.561  1.00  0.00     0.238 A 
ATOM      4  O   UNL     1      24.450   3.190  20.367  1.00  0.00    -0.285 OA
ATOM      5  C   UNL     1      24.314   5.420  19.693  1.00  0.00     0.111 A 
ATOM      6  C   UNL     1      23.565   5.202  18.499  1.00  0.00     0.134 A 
ATOM      7  C   UNL     1      23.065   6.299  17.786  1.00  0.00     0.093 A 
ATOM      8  C   UNL     1      23.341   7.605  18.188  1.00  0.00     0.123 A 
ATOM      9  C   UNL     1      24.124   7.830  19.322  1.00  0.00     0.094 A 
ATOM     10  C   UNL     1      24.606   6.757  20.074  1.00  0.00     0.146 A 
ATOM     11  O   UNL     1      25.337   7.014  21.151  1.00  0.00    -0.452 OA
ENDROOT
BRANCH   1  12
ATOM     12  C   UNL     1      26.649   6.489  23.105  1.00  0.00     0.025 A 
ATOM     13  C   UNL     1      28.010   6.809  22.956  1.00  0.00     0.016 A 
ATOM     14  C   UNL     1      28.762   7.226  24.058  1.00  0.00     0.051 A 
ATOM     15  C   UNL     1      28.163   7.342  25.320  1.00  0.00     0.157 A 
ATOM     16  C   UNL     1      26.049   6.627  24.367  1.00  0.00     0.062 A 
ATOM     17  C   UNL     1      26.799   7.043  25.473  1.00  0.00     0.158 A 
BRANCH  15  18
ATOM     18  O   UNL     1      28.916   7.756  26.417  1.00  0.00    -0.504 OA
ATOM     19  H   UNL     1      29.283   7.093  27.090  1.00  0.00     0.293 HD
ENDBRANCH  15  18
BRANCH  17  20
ATOM     20  O   UNL     1      26.172   7.155  26.713  1.00  0.00    -0.504 OA
ATOM     21  H   UNL     1      26.679   7.415  27.551  1.00  0.00     0.293 HD
ENDBRANCH  17  20
ENDBRANCH   1  12
BRANCH   2  22
ATOM     22  O   UNL     1      25.959   3.726  22.573  1.00  0.00    -0.502 OA
ATOM     23  H   UNL     1      26.897   3.707  22.956  1.00  0.00     0.293 HD
ENDBRANCH   2  22
BRANCH   6  24
ATOM     24  O   UNL     1      23.309   3.939  17.958  1.00  0.00    -0.507 OA
ATOM     25  H   UNL     1      22.879   3.774  17.061  1.00  0.00     0.293 HD
ENDBRANCH   6  24
BRANCH   8  26
ATOM     26  O   UNL     1      22.842   8.673  17.447  1.00  0.00    -0.508 OA
ATOM     27  H   UNL     1      22.779   8.634  16.437  1.00  0.00     0.293 HD
ENDBRANCH   8  26
TORSDOF 6
ENDMDL
MODEL 5
REMARK VINA RESULT:    -7.329      1.797      7.046
REMARK INTER + INTRA:          -9.140
REMARK INTER:                  -8.814
REMARK INTRA:                  -0.326
REMARK UNBOUND:                -0.312
REMARK SMILES O=c1c(O)c(-c2ccc(O)c(O)c2)oc2cc(O)cc(O)c12
REMARK SMILES IDX 5 1 3 2 2 3 1 4 22 5 20 6 19 7 17 8 16 9 15 10 14 11 6 12
REMARK SMILES IDX 7 13 8 14 9 15 13 16 11 17 10 18 12 20 4 22 21 24 18 26
REMARK H PARENT 10 19 12 21 4 23 21 25 18 27
REMARK Flexibility Score: inf
ROOT
ATOM      1  C   UNL     1      25.902   4.745  22.050  1.00  0.00     0.180 A 
ATOM      2  C   UNL     1      27.005   4.062  22.592  1.00  0.00     0.208 A 
ATOM      3  C   UNL     1      28.087   4.805  23.091  1.00  0.00     0.238 A 
ATOM      4  O   UNL     1      29.095   4.188  23.525  1.00  0.00    -0.285 OA
ATOM      5  C   UNL     1      28.047   6.219  23.055  1.00  0.00     0.111 A 
ATOM      6  C   UNL     1      29.070   7.072  23.568  1.00  0.00     0.134 A 
ATOM      7  C   UNL     1      28.984   8.455  23.362  1.00  0.00     0.093 A 
ATOM      8  C   UNL     1      27.884   9.020  22.720  1.00  0.00     0.123 A 
ATOM      9  C   UNL     1      26.849   8.201  22.267  1.00  0.00     0.094 A 
ATOM     10  C   UNL     1      26.922   6.815  22.426  1.00  0.00     0.146 A 
ATOM     11  O   UNL     1      25.923   6.071  21.972  1.00  0.00    -0.452 OA
ENDROOT
BRANCH   1  12
ATOM     12  C   UNL     1      24.713   4.032  21.528  1.00  0.00     0.025 A 
ATOM     13  C   UNL     1      23.595   3.781  22.343  1.00  0.00     0.016 A 
ATOM     14  C   UNL     1      22.474   3.129  21.822  1.00  0.00     0.051 A 
ATOM     15  C   UNL     1      22.449   2.729  20.479  1.00  0.00     0.157 A 
ATOM     16  C   UNL     1      24.674   3.649  20.178  1.00  0.00     0.062 A 
ATOM     17  C   UNL     1      23.554   2.994  19.653  1.00  0.00     0.158 A 
BRANCH  15  18
ATOM     18  O   UNL     1      21.330   2.077  19.963  1.00  0.00    -0.504 OA
ATOM     19  H   UNL     1      20.872   1.328  20.470  1.00  0.00     0.293 HD
ENDBRANCH  15  18
BRANCH  17  20
ATOM     20  O   UNL     1      23.558   2.616  18.311  1.00  0.00    -0.504 OA
ATOM     21  H   UNL     1      24.416   2.421  17.810  1.00  0.00     0.293 HD
ENDBRANCH  17  20
ENDBRANCH   1  12
BRANCH   2  22
ATOM     22  O   UNL     1      27.034   2.665  22.598  1.00  0.00    -0.502 OA
ATOM     23  H   UNL     1      26.599   2.109  21.870  1.00  0.00     0.293 HD
ENDBRANCH   2  22
BRANCH   6  24
ATOM     24  O   UNL     1      30.167   6.619  24.305  1.00  0.00    -0.507 OA
ATOM     25  H   UNL     1      30.649   7.156  25.009  1.00  0.00     0.293 HD
ENDBRANCH   6  24
BRANCH   8  26
ATOM     26  O   UNL     1      27.824  10.401  22.546  1.00  0.00    -0.508 OA
ATOM     27  H   UNL     1      28.106  10.839  21.677  1.00  0.00     0.293 HD
ENDBRANCH   8  26
TORSDOF 6
ENDMDL
MODEL 6
REMARK VINA RESULT:    -7.306      3.572      6.350
REMARK INTER + INTRA:          -9.113
REMARK INTER:                  -8.789
REMARK INTRA:                  -0.324
REMARK UNBOUND:                -0.312
REMARK SMILES O=c1c(O)c(-c2ccc(O)c(O)c2)oc2cc(O)cc(O)c12
REMARK SMILES IDX 5 1 3 2 2 3 1 4 22 5 20 6 19 7 17 8 16 9 15 10 14 11 6 12
REMARK SMILES IDX 7 13 8 14 9 15 13 16 11 17 10 18 12 20 4 22 21 24 18 26
REMARK H PARENT 10 19 12 21 4 23 21 25 18 27
REMARK Flexibility Score: inf
ROOT
ATOM      1  C   UNL     1      25.491   8.366  21.980  1.00  0.00     0.180 A 
ATOM      2  C   UNL     1      26.392   9.425  22.187  1.00  0.00     0.208 A 
ATOM      3  C   UNL     1      27.713   9.132  22.560  1.00  0.00     0.238 A 
ATOM      4  O   UNL     1      28.501  10.085  22.797  1.00  0.00    -0.285 OA
ATOM      5  C   UNL     1      28.121   7.784  22.708  1.00  0.00     0.111 A 
ATOM      6  C   UNL     1      29.445   7.370  23.044  1.00  0.00     0.134 A 
ATOM      7  C   UNL     1      29.703   6.016  23.291  1.00  0.00     0.093 A 
ATOM      8  C   UNL     1      28.704   5.055  23.152  1.00  0.00     0.123 A 
ATOM      9  C   UNL     1      27.420   5.442  22.765  1.00  0.00     0.094 A 
ATOM     10  C   UNL     1      27.122   6.789  22.546  1.00  0.00     0.146 A 
ATOM     11  O   UNL     1      25.886   7.116  22.190  1.00  0.00    -0.452 OA
ENDROOT
BRANCH   1  12
ATOM     12  C   UNL     1      24.089   8.595  21.561  1.00  0.00     0.025 A 
ATOM     13  C   UNL     1      23.717   8.566  20.205  1.00  0.00     0.016 A 
ATOM     14  C   UNL     1      22.384   8.760  19.834  1.00  0.00     0.051 A 
ATOM     15  C   UNL     1      21.402   8.973  20.811  1.00  0.00     0.157 A 
ATOM     16  C   UNL     1      23.098   8.788  22.537  1.00  0.00     0.062 A 
ATOM     17  C   UNL     1      21.762   8.984  22.168  1.00  0.00     0.158 A 
BRANCH  15  18
ATOM     18  O   UNL     1      20.074   9.169  20.437  1.00  0.00    -0.504 OA
ATOM     19  H   UNL     1      19.516   9.918  20.831  1.00  0.00     0.293 HD
ENDBRANCH  15  18
BRANCH  17  20
ATOM     20  O   UNL     1      20.808   9.187  23.165  1.00  0.00    -0.504 OA
ATOM     21  H   UNL     1      20.596   8.479  23.859  1.00  0.00     0.293 HD
ENDBRANCH  17  20
ENDBRANCH   1  12
BRANCH   2  22
ATOM     22  O   UNL     1      25.963  10.748  22.057  1.00  0.00    -0.502 OA
ATOM     23  H   UNL     1      25.809  11.185  21.156  1.00  0.00     0.293 HD
ENDBRANCH   2  22
BRANCH   6  24
ATOM     24  O   UNL     1      30.538   8.238  23.121  1.00  0.00    -0.507 OA
ATOM     25  H   UNL     1      31.112   8.510  22.338  1.00  0.00     0.293 HD
ENDBRANCH   6  24
BRANCH   8  26
ATOM     26  O   UNL     1      29.000   3.715  23.390  1.00  0.00    -0.508 OA
ATOM     27  H   UNL     1      29.952   3.398  23.530  1.00  0.00     0.293 HD
ENDBRANCH   8  26
TORSDOF 6
ENDMDL
MODEL 7
REMARK VINA RESULT:    -7.254      2.618      3.539
REMARK INTER + INTRA:          -9.050
REMARK INTER:                  -8.730
REMARK INTRA:                  -0.320
REMARK UNBOUND:                -0.312
REMARK SMILES O=c1c(O)c(-c2ccc(O)c(O)c2)oc2cc(O)cc(O)c12
REMARK SMILES IDX 5 1 3 2 2 3 1 4 22 5 20 6 19 7 17 8 16 9 15 10 14 11 6 12
REMARK SMILES IDX 7 13 8 14 9 15 13 16 11 17 10 18 12 20 4 22 21 24 18 26
REMARK H PARENT 10 19 12 21 4 23 21 25 18 27
REMARK Flexibility Score: inf
ROOT
ATOM      1  C   UNL     1      25.182   7.045  21.877  1.00  0.00     0.180 A 
ATOM      2  C   UNL     1      24.506   8.167  21.366  1.00  0.00     0.208 A 
ATOM      3  C   UNL     1      23.638   7.999  20.275  1.00  0.00     0.238 A 
ATOM      4  O   UNL     1      23.077   9.015  19.787  1.00  0.00    -0.285 OA
ATOM      5  C   UNL     1      23.445   6.711  19.719  1.00  0.00     0.111 A 
ATOM      6  C   UNL     1      22.560   6.419  18.639  1.00  0.00     0.134 A 
ATOM      7  C   UNL     1      22.546   5.133  18.085  1.00  0.00     0.093 A 
ATOM      8  C   UNL     1      23.337   4.114  18.612  1.00  0.00     0.123 A 
ATOM      9  C   UNL     1      24.163   4.373  19.708  1.00  0.00     0.094 A 
ATOM     10  C   UNL     1      24.225   5.655  20.259  1.00  0.00     0.146 A 
ATOM     11  O   UNL     1      25.030   5.862  21.293  1.00  0.00    -0.452 OA
ENDROOT
BRANCH   1  12
ATOM     12  C   UNL     1      26.094   7.138  23.041  1.00  0.00     0.025 A 
ATOM     13  C   UNL     1      27.449   7.478  22.884  1.00  0.00     0.016 A 
ATOM     14  C   UNL     1      28.284   7.584  23.999  1.00  0.00     0.051 A 
ATOM     15  C   UNL     1      27.777   7.364  25.286  1.00  0.00     0.157 A 
ATOM     16  C   UNL     1      25.585   6.941  24.335  1.00  0.00     0.062 A 
ATOM     17  C   UNL     1      26.420   7.044  25.454  1.00  0.00     0.158 A 
BRANCH  15  18
ATOM     18  O   UNL     1      28.614   7.469  26.396  1.00  0.00    -0.504 OA
ATOM     19  H   UNL     1      29.390   6.832  26.538  1.00  0.00     0.293 HD
ENDBRANCH  15  18
BRANCH  17  20
ATOM     20  O   UNL     1      25.882   6.827  26.722  1.00  0.00    -0.504 OA
ATOM     21  H   UNL     1      25.207   7.459  27.136  1.00  0.00     0.293 HD
ENDBRANCH  17  20
ENDBRANCH   1  12
BRANCH   2  22
ATOM     22  O   UNL     1      24.727   9.432  21.915  1.00  0.00    -0.502 OA
ATOM     23  H   UNL     1      25.651   9.844  21.979  1.00  0.00     0.293 HD
ENDBRANCH   2  22
BRANCH   6  24
ATOM     24  O   UNL     1      21.661   7.342  18.096  1.00  0.00    -0.507 OA
ATOM     25  H   UNL     1      21.665   7.652  17.136  1.00  0.00     0.293 HD
ENDBRANCH   6  24
BRANCH   8  26
ATOM     26  O   UNL     1      23.287   2.842  18.046  1.00  0.00    -0.508 OA
ATOM     27  H   UNL     1      22.429   2.466  17.661  1.00  0.00     0.293 HD
ENDBRANCH   8  26
TORSDOF 6
ENDMDL
MODEL 8
REMARK VINA RESULT:    -7.192      3.614      5.148
REMARK INTER + INTRA:          -8.975
REMARK INTER:                  -8.807
REMARK INTRA:                  -0.168
REMARK UNBOUND:                -0.312
REMARK SMILES O=c1c(O)c(-c2ccc(O)c(O)c2)oc2cc(O)cc(O)c12
REMARK SMILES IDX 5 1 3 2 2 3 1 4 22 5 20 6 19 7 17 8 16 9 15 10 14 11 6 12
REMARK SMILES IDX 7 13 8 14 9 15 13 16 11 17 10 18 12 20 4 22 21 24 18 26
REMARK H PARENT 10 19 12 21 4 23 21 25 18 27
REMARK Flexibility Score: inf
ROOT
ATOM      1  C   UNL     1      26.267   6.745  21.104  1.00  0.00     0.180 A 
ATOM      2  C   UNL     1      26.098   6.696  19.709  1.00  0.00     0.208 A 
ATOM      3  C   UNL     1      24.958   7.287  19.141  1.00  0.00     0.238 A 
ATOM      4  O   UNL     1      24.784   7.192  17.898  1.00  0.00    -0.285 OA
ATOM      5  C   UNL     1      24.010   7.932  19.971  1.00  0.00     0.111 A 
ATOM      6  C   UNL     1      22.839   8.598  19.500  1.00  0.00     0.134 A 
ATOM      7  C   UNL     1      21.905   9.088  20.421  1.00  0.00     0.093 A 
ATOM      8  C   UNL     1      22.129   8.994  21.793  1.00  0.00     0.123 A 
ATOM      9  C   UNL     1      23.300   8.398  22.265  1.00  0.00     0.094 A 
ATOM     10  C   UNL     1      24.233   7.867  21.372  1.00  0.00     0.146 A 
ATOM     11  O   UNL     1      25.328   7.300  21.862  1.00  0.00    -0.452 OA
ENDROOT
BRANCH   1  12
ATOM     12  C   UNL     1      27.455   6.166  21.774  1.00  0.00     0.025 A 
ATOM     13  C   UNL     1      27.346   5.047  22.618  1.00  0.00     0.016 A 
ATOM     14  C   UNL     1      28.484   4.503  23.220  1.00  0.00     0.051 A 
ATOM     15  C   UNL     1      29.746   5.061  22.978  1.00  0.00     0.157 A 
ATOM     16  C   UNL     1      28.725   6.707  21.518  1.00  0.00     0.062 A 
ATOM     17  C   UNL     1      29.866   6.166  22.121  1.00  0.00     0.158 A 
BRANCH  15  18
ATOM     18  O   UNL     1      30.879   4.517  23.583  1.00  0.00    -0.504 OA
ATOM     19  H   UNL     1      31.492   5.078  24.164  1.00  0.00     0.293 HD
ENDBRANCH  15  18
BRANCH  17  20
ATOM     20  O   UNL     1      31.109   6.740  21.854  1.00  0.00    -0.504 OA
ATOM     21  H   UNL     1      31.555   7.380  22.500  1.00  0.00     0.293 HD
ENDBRANCH  17  20
ENDBRANCH   1  12
BRANCH   2  22
ATOM     22  O   UNL     1      27.034   6.035  18.910  1.00  0.00    -0.502 OA
ATOM     23  H   UNL     1      28.007   6.315  18.868  1.00  0.00     0.293 HD
ENDBRANCH   2  22
BRANCH   6  24
ATOM     24  O   UNL     1      22.563   8.826  18.149  1.00  0.00    -0.507 OA
ATOM     25  H   UNL     1      23.246   8.794  17.408  1.00  0.00     0.293 HD
ENDBRANCH   6  24
BRANCH   8  26
ATOM     26  O   UNL     1      21.186   9.507  22.680  1.00  0.00    -0.508 OA
ATOM     27  H   UNL     1      21.156   9.215  23.650  1.00  0.00     0.293 HD
ENDBRANCH   8  26
TORSDOF 6
ENDMDL
MODEL 9
REMARK VINA RESULT:    -6.985      1.778      3.140
REMARK INTER + INTRA:          -8.726
REMARK INTER:                  -8.408
REMARK INTRA:                  -0.318
REMARK UNBOUND:                -0.312
REMARK SMILES O=c1c(O)c(-c2ccc(O)c(O)c2)oc2cc(O)cc(O)c12
REMARK SMILES IDX 5 1 3 2 2 3 1 4 22 5 20 6 19 7 17 8 16 9 15 10 14 11 6 12
REMARK SMILES IDX 7 13 8 14 9 15 13 16 11 17 10 18 12 20 4 22 21 24 18 26
REMARK H PARENT 10 19 12 21 4 23 21 25 18 27
REMARK Flexibility Score: inf
ROOT
ATOM      1  C   UNL     1      26.519   6.277  23.659  1.00  0.00     0.180 A 
ATOM      2  C   UNL     1      26.845   5.111  22.945  1.00  0.00     0.208 A 
ATOM      3  C   UNL     1      25.815   4.235  22.567  1.00  0.00     0.238 A 
ATOM      4  O   UNL     1      26.118   3.165  21.976  1.00  0.00    -0.285 OA
ATOM      5  C   UNL     1      24.472   4.543  22.892  1.00  0.00     0.111 A 
ATOM      6  C   UNL     1      23.346   3.747  22.524  1.00  0.00     0.134 A 
ATOM      7  C   UNL     1      22.076   4.080  23.011  1.00  0.00     0.093 A 
ATOM      8  C   UNL     1      21.881   5.213  23.799  1.00  0.00     0.123 A 
ATOM      9  C   UNL     1      22.967   6.032  24.116  1.00  0.00     0.094 A 
ATOM     10  C   UNL     1      24.251   5.707  23.675  1.00  0.00     0.146 A 
ATOM     11  O   UNL     1      25.257   6.505  24.006  1.00  0.00    -0.452 OA
ENDROOT
BRANCH   1  12
ATOM     12  C   UNL     1      27.547   7.261  24.071  1.00  0.00     0.025 A 
ATOM     13  C   UNL     1      28.162   7.190  25.334  1.00  0.00     0.016 A 
ATOM     14  C   UNL     1      29.147   8.115  25.691  1.00  0.00     0.051 A 
ATOM     15  C   UNL     1      29.539   9.115  24.791  1.00  0.00     0.157 A 
ATOM     16  C   UNL     1      27.959   8.251  23.165  1.00  0.00     0.062 A 
ATOM     17  C   UNL     1      28.944   9.180  23.521  1.00  0.00     0.158 A 
BRANCH  15  18
ATOM     18  O   UNL     1      30.520  10.037  25.152  1.00  0.00    -0.504 OA
ATOM     19  H   UNL     1      31.126   9.883  25.950  1.00  0.00     0.293 HD
ENDBRANCH  15  18
BRANCH  17  20
ATOM     20  O   UNL     1      29.316  10.158  22.599  1.00  0.00    -0.504 OA
ATOM     21  H   UNL     1      29.491   9.940  21.625  1.00  0.00     0.293 HD
ENDBRANCH  17  20
ENDBRANCH   1  12
BRANCH   2  22
ATOM     22  O   UNL     1      28.178   4.814  22.654  1.00  0.00    -0.502 OA
ATOM     23  H   UNL     1      28.609   3.933  22.910  1.00  0.00     0.293 HD
ENDBRANCH   2  22
BRANCH   6  24
ATOM     24  O   UNL     1      23.416   2.645  21.666  1.00  0.00    -0.507 OA
ATOM     25  H   UNL     1      24.269   2.264  21.289  1.00  0.00     0.293 HD
ENDBRANCH   6  24
BRANCH   8  26
ATOM     26  O   UNL     1      20.602   5.523  24.254  1.00  0.00    -0.508 OA
ATOM     27  H   UNL     1      19.781   5.058  23.886  1.00  0.00     0.293 HD
ENDBRANCH   8  26
TORSDOF 6
ENDMDL
