MODEL 1
REMARK VINA RESULT:    -3.332      0.000      0.000
REMARK INTER + INTRA:          -5.193
REMARK INTER:                  -4.696
REMARK INTRA:                  -0.497
REMARK UNBOUND:                -0.497
REMARK SMILES CCCCCCCC(=O)OC
REMARK SMILES IDX 5 1 4 2 3 3 2 4 1 5 6 6 7 7 8 8 9 9 10 10 11 11
REMARK H PARENT
REMARK Flexibility Score: inf
ROOT
ATOM      1  C   UNL     1     178.135 178.716 170.991  1.00  0.00     0.001 C 
ENDROOT
BRANCH   1   2
ATOM      2  C   UNL     1     177.544 178.675 172.408  1.00  0.00     0.000 C 
BRANCH   2   3
ATOM      3  C   UNL     1     176.483 179.770 172.591  1.00  0.00    -0.000 C 
BRANCH   3   4
ATOM      4  C   UNL     1     176.869 181.087 171.899  1.00  0.00    -0.003 C 
ATOM      5  C   UNL     1     177.956 181.855 172.650  1.00  0.00     0.004 C 
ENDBRANCH   3   4
ENDBRANCH   2   3
ENDBRANCH   1   2
BRANCH   1   6
ATOM      6  C   UNL     1     179.657 178.927 170.990  1.00  0.00     0.012 C 
BRANCH   6   7
ATOM      7  C   UNL     1     180.234 179.073 172.404  1.00  0.00     0.123 C 
BRANCH   7   8
ATOM      8  C   UNL     1     181.089 177.893 172.740  1.00  0.00     0.305 C 
ATOM      9  O   UNL     1     181.957 177.986 173.651  1.00  0.00    -0.252 OA
BRANCH   8  10
ATOM     10  O   UNL     1     180.888 176.684 172.068  1.00  0.00    -0.469 OA
ATOM     11  C   UNL     1     179.980 175.692 172.530  1.00  0.00     0.282 C 
ENDBRANCH   8  10
ENDBRANCH   7   8
ENDBRANCH   6   7
ENDBRANCH   1   6
TORSDOF 7
ENDMDL
MODEL 2
REMARK VINA RESULT:    -3.241      2.548      4.924
REMARK INTER + INTRA:          -5.064
REMARK INTER:                  -4.544
REMARK INTRA:                  -0.520
REMARK UNBOUND:                -0.497
REMARK SMILES CCCCCCCC(=O)OC
REMARK SMILES IDX 5 1 4 2 3 3 2 4 1 5 6 6 7 7 8 8 9 9 10 10 11 11
REMARK H PARENT
REMARK Flexibility Score: inf
ROOT
ATOM      1  C   UNL     1     180.074 179.148 171.226  1.00  0.00     0.001 C 
ENDROOT
BRANCH   1   2
ATOM      2  C   UNL     1     180.358 178.925 172.720  1.00  0.00     0.000 C 
BRANCH   2   3
ATOM      3  C   UNL     1     181.495 177.912 172.916  1.00  0.00    -0.000 C 
BRANCH   3   4
ATOM      4  C   UNL     1     181.339 176.669 172.026  1.00  0.00    -0.003 C 
ATOM      5  C   UNL     1     180.152 175.796 172.430  1.00  0.00     0.004 C 
ENDBRANCH   3   4
ENDBRANCH   2   3
ENDBRANCH   1   2
BRANCH   1   6
ATOM      6  C   UNL     1     178.599 178.916 170.862  1.00  0.00     0.012 C 
BRANCH   6   7
ATOM      7  C   UNL     1     177.720 178.656 172.094  1.00  0.00     0.123 C 
BRANCH   7   8
ATOM      8  C   UNL     1     176.915 179.872 172.423  1.00  0.00     0.305 C 
ATOM      9  O   UNL     1     175.883 179.765 173.142  1.00  0.00    -0.252 OA
BRANCH   8  10
ATOM     10  O   UNL     1     177.339 181.123 171.965  1.00  0.00    -0.469 OA
ATOM     11  C   UNL     1     178.151 181.990 172.745  1.00  0.00     0.282 C 
ENDBRANCH   8  10
ENDBRANCH   7   8
ENDBRANCH   6   7
ENDBRANCH   1   6
TORSDOF 7
ENDMDL
MODEL 3
REMARK VINA RESULT:    -3.101      1.280      1.685
REMARK INTER + INTRA:          -4.867
REMARK INTER:                  -4.474
REMARK INTRA:                  -0.394
REMARK UNBOUND:                -0.497
REMARK SMILES CCCCCCCC(=O)OC
REMARK SMILES IDX 5 1 4 2 3 3 2 4 1 5 6 6 7 7 8 8 9 9 10 10 11 11
REMARK H PARENT
REMARK Flexibility Score: inf
ROOT
ATOM      1  C   UNL     1     177.481 178.902 171.314  1.00  0.00     0.001 C 
ENDROOT
BRANCH   1   2
ATOM      2  C   UNL     1     176.184 179.439 171.938  1.00  0.00     0.000 C 
BRANCH   2   3
ATOM      3  C   UNL     1     176.455 180.708 172.758  1.00  0.00    -0.000 C 
BRANCH   3   4
ATOM      4  C   UNL     1     177.494 181.628 172.096  1.00  0.00    -0.003 C 
ATOM      5  C   UNL     1     178.408 182.316 173.110  1.00  0.00     0.004 C 
ENDBRANCH   3   4
ENDBRANCH   2   3
ENDBRANCH   1   2
BRANCH   1   6
ATOM      6  C   UNL     1     178.386 178.202 172.340  1.00  0.00     0.012 C 
BRANCH   6   7
ATOM      7  C   UNL     1     179.728 178.922 172.532  1.00  0.00     0.123 C 
BRANCH   7   8
ATOM      8  C   UNL     1     180.683 178.537 171.448  1.00  0.00     0.305 C 
ATOM      9  O   UNL     1     180.824 179.286 170.442  1.00  0.00    -0.252 OA
BRANCH   8  10
ATOM     10  O   UNL     1     181.443 177.372 171.581  1.00  0.00    -0.469 OA
ATOM     11  C   UNL     1     181.845 176.859 172.845  1.00  0.00     0.282 C 
ENDBRANCH   8  10
ENDBRANCH   7   8
ENDBRANCH   6   7
ENDBRANCH   1   6
TORSDOF 7
ENDMDL
MODEL 4
REMARK VINA RESULT:    -2.737      0.907      1.639
REMARK INTER + INTRA:          -4.354
REMARK INTER:                  -4.166
REMARK INTRA:                  -0.188
REMARK UNBOUND:                -0.497
REMARK SMILES CCCCCCCC(=O)OC
REMARK SMILES IDX 5 1 4 2 3 3 2 4 1 5 6 6 7 7 8 8 9 9 10 10 11 11
REMARK H PARENT
REMARK Flexibility Score: inf
ROOT
ATOM      1  C   UNL     1     178.405 178.636 171.410  1.00  0.00     0.001 C 
ENDROOT
BRANCH   1   2
ATOM      2  C   UNL     1     177.568 178.898 172.671  1.00  0.00     0.000 C 
BRANCH   2   3
ATOM      3  C   UNL     1     176.388 179.831 172.362  1.00  0.00    -0.000 C 
BRANCH   3   4
ATOM      4  C   UNL     1     176.841 181.194 171.817  1.00  0.00    -0.003 C 
ATOM      5  C   UNL     1     177.909 181.856 172.689  1.00  0.00     0.004 C 
ENDBRANCH   3   4
ENDBRANCH   2   3
ENDBRANCH   1   2
BRANCH   1   6
ATOM      6  C   UNL     1     179.863 179.097 171.560  1.00  0.00     0.012 C 
BRANCH   6   7
ATOM      7  C   UNL     1     180.870 177.978 171.260  1.00  0.00     0.123 C 
BRANCH   7   8
ATOM      8  C   UNL     1     180.997 177.064 172.435  1.00  0.00     0.305 C 
ATOM      9  O   UNL     1     180.223 176.074 172.547  1.00  0.00    -0.252 OA
BRANCH   8  10
ATOM     10  O   UNL     1     182.002 177.292 173.379  1.00  0.00    -0.469 OA
ATOM     11  C   UNL     1     181.880 178.264 174.410  1.00  0.00     0.282 C 
ENDBRANCH   8  10
ENDBRANCH   7   8
ENDBRANCH   6   7
ENDBRANCH   1   6
TORSDOF 7
ENDMDL
MODEL 5
REMARK VINA RESULT:    -2.567      2.647      4.927
REMARK INTER + INTRA:          -4.115
REMARK INTER:                  -3.935
REMARK INTRA:                  -0.180
REMARK UNBOUND:                -0.497
REMARK SMILES CCCCCCCC(=O)OC
REMARK SMILES IDX 5 1 4 2 3 3 2 4 1 5 6 6 7 7 8 8 9 9 10 10 11 11
REMARK H PARENT
REMARK Flexibility Score: inf
ROOT
ATOM      1  C   UNL     1     180.929 178.124 171.410  1.00  0.00     0.001 C 
ENDROOT
BRANCH   1   2
ATOM      2  C   UNL     1     181.578 177.458 172.632  1.00  0.00     0.000 C 
BRANCH   2   3
ATOM      3  C   UNL     1     181.515 178.381 173.857  1.00  0.00    -0.000 C 
BRANCH   3   4
ATOM      4  C   UNL     1     182.479 177.949 174.973  1.00  0.00    -0.003 C 
ATOM      5  C   UNL     1     182.520 178.937 176.138  1.00  0.00     0.004 C 
ENDBRANCH   3   4
ENDBRANCH   2   3
ENDBRANCH   1   2
BRANCH   1   6
ATOM      6  C   UNL     1     179.851 179.149 171.796  1.00  0.00     0.012 C 
BRANCH   6   7
ATOM      7  C   UNL     1     178.518 178.490 172.177  1.00  0.00     0.123 C 
BRANCH   7   8
ATOM      8  C   UNL     1     177.439 178.917 171.235  1.00  0.00     0.305 C 
ATOM      9  O   UNL     1     177.562 178.698 169.999  1.00  0.00    -0.252 OA
BRANCH   8  10
ATOM     10  O   UNL     1     176.283 179.520 171.741  1.00  0.00    -0.469 OA
ATOM     11  C   UNL     1     176.317 180.497 172.773  1.00  0.00     0.282 C 
ENDBRANCH   8  10
ENDBRANCH   7   8
ENDBRANCH   6   7
ENDBRANCH   1   6
TORSDOF 7
ENDMDL
MODEL 6
REMARK VINA RESULT:    -2.169     14.384     15.553
REMARK INTER + INTRA:          -3.554
REMARK INTER:                  -3.239
REMARK INTRA:                  -0.315
REMARK UNBOUND:                -0.497
REMARK SMILES CCCCCCCC(=O)OC
REMARK SMILES IDX 5 1 4 2 3 3 2 4 1 5 6 6 7 7 8 8 9 9 10 10 11 11
REMARK H PARENT
REMARK Flexibility Score: inf
ROOT
ATOM      1  C   UNL     1     172.584 168.925 182.393  1.00  0.00     0.001 C 
ENDROOT
BRANCH   1   2
ATOM      2  C   UNL     1     171.751 169.908 181.556  1.00  0.00     0.000 C 
BRANCH   2   3
ATOM      3  C   UNL     1     171.855 169.580 180.060  1.00  0.00    -0.000 C 
BRANCH   3   4
ATOM      4  C   UNL     1     171.427 170.754 179.166  1.00  0.00    -0.003 C 
ATOM      5  C   UNL     1     170.585 171.790 179.911  1.00  0.00     0.004 C 
ENDBRANCH   3   4
ENDBRANCH   2   3
ENDBRANCH   1   2
BRANCH   1   6
ATOM      6  C   UNL     1     172.241 168.982 183.889  1.00  0.00     0.012 C 
BRANCH   6   7
ATOM      7  C   UNL     1     171.431 170.232 184.263  1.00  0.00     0.123 C 
BRANCH   7   8
ATOM      8  C   UNL     1     172.242 171.133 185.138  1.00  0.00     0.305 C 
ATOM      9  O   UNL     1     172.147 171.041 186.393  1.00  0.00    -0.252 OA
BRANCH   8  10
ATOM     10  O   UNL     1     173.130 172.041 184.554  1.00  0.00    -0.469 OA
ATOM     11  C   UNL     1     172.732 173.340 184.134  1.00  0.00     0.282 C 
ENDBRANCH   8  10
ENDBRANCH   7   8
ENDBRANCH   6   7
ENDBRANCH   1   6
TORSDOF 7
ENDMDL
MODEL 7
REMARK VINA RESULT:    -2.046     14.613     15.755
REMARK INTER + INTRA:          -3.381
REMARK INTER:                  -3.127
REMARK INTRA:                  -0.253
REMARK UNBOUND:                -0.497
REMARK SMILES CCCCCCCC(=O)OC
REMARK SMILES IDX 5 1 4 2 3 3 2 4 1 5 6 6 7 7 8 8 9 9 10 10 11 11
REMARK H PARENT
REMARK Flexibility Score: inf
ROOT
ATOM      1  C   UNL     1     172.653 168.959 182.352  1.00  0.00     0.001 C 
ENDROOT
BRANCH   1   2
ATOM      2  C   UNL     1     171.692 169.857 181.559  1.00  0.00     0.000 C 
BRANCH   2   3
ATOM      3  C   UNL     1     171.826 169.604 180.050  1.00  0.00    -0.000 C 
BRANCH   3   4
ATOM      4  C   UNL     1     171.422 170.825 179.209  1.00  0.00    -0.003 C 
ATOM      5  C   UNL     1     170.611 171.849 180.001  1.00  0.00     0.004 C 
ENDBRANCH   3   4
ENDBRANCH   2   3
ENDBRANCH   1   2
BRANCH   1   6
ATOM      6  C   UNL     1     172.352 168.955 183.859  1.00  0.00     0.012 C 
BRANCH   6   7
ATOM      7  C   UNL     1     171.508 170.160 184.297  1.00  0.00     0.123 C 
BRANCH   7   8
ATOM      8  C   UNL     1     172.390 171.248 184.821  1.00  0.00     0.305 C 
ATOM      9  O   UNL     1     173.236 171.791 184.059  1.00  0.00    -0.252 OA
BRANCH   8  10
ATOM     10  O   UNL     1     172.237 171.681 186.141  1.00  0.00    -0.469 OA
ATOM     11  C   UNL     1     172.193 170.782 187.242  1.00  0.00     0.282 C 
ENDBRANCH   8  10
ENDBRANCH   7   8
ENDBRANCH   6   7
ENDBRANCH   1   6
TORSDOF 7
ENDMDL
MODEL 8
REMARK VINA RESULT:    -1.573     13.805     15.004
REMARK INTER + INTRA:          -2.714
REMARK INTER:                  -2.580
REMARK INTRA:                  -0.133
REMARK UNBOUND:                -0.497
REMARK SMILES CCCCCCCC(=O)OC
REMARK SMILES IDX 5 1 4 2 3 3 2 4 1 5 6 6 7 7 8 8 9 9 10 10 11 11
REMARK H PARENT
REMARK Flexibility Score: inf
ROOT
ATOM      1  C   UNL     1     171.511 168.875 183.143  1.00  0.00     0.001 C 
ENDROOT
BRANCH   1   2
ATOM      2  C   UNL     1     171.673 170.014 184.160  1.00  0.00     0.000 C 
BRANCH   2   3
ATOM      3  C   UNL     1     172.831 170.942 183.764  1.00  0.00    -0.000 C 
BRANCH   3   4
ATOM      4  C   UNL     1     172.992 172.129 184.727  1.00  0.00    -0.003 C 
ATOM      5  C   UNL     1     172.727 173.477 184.056  1.00  0.00     0.004 C 
ENDBRANCH   3   4
ENDBRANCH   2   3
ENDBRANCH   1   2
BRANCH   1   6
ATOM      6  C   UNL     1     172.529 168.957 181.995  1.00  0.00     0.012 C 
BRANCH   6   7
ATOM      7  C   UNL     1     171.866 168.913 180.611  1.00  0.00     0.123 C 
BRANCH   7   8
ATOM      8  C   UNL     1     171.518 170.294 180.158  1.00  0.00     0.305 C 
ATOM      9  O   UNL     1     170.988 171.105 180.967  1.00  0.00    -0.252 OA
BRANCH   8  10
ATOM     10  O   UNL     1     171.822 170.687 178.852  1.00  0.00    -0.469 OA
ATOM     11  C   UNL     1     170.821 170.953 177.878  1.00  0.00     0.282 C 
ENDBRANCH   8  10
ENDBRANCH   7   8
ENDBRANCH   6   7
ENDBRANCH   1   6
TORSDOF 7
ENDMDL
