MODEL 1
REMARK VINA RESULT:    -4.300      0.000      0.000
REMARK INTER + INTRA:          -6.566
REMARK INTER:                  -6.059
REMARK INTRA:                  -0.507
REMARK UNBOUND:                -0.507
REMARK SMILES CCCCCCCCC(=O)[O-]
REMARK SMILES IDX 6 1 7 2 8 3 9 4 10 5 11 6 5 7 4 8 3 9 2 10 1 11
REMARK H PARENT
REMARK Flexibility Score: inf
ROOT
ATOM      1  C   UNL     1      15.943  15.662  58.590  1.00  0.00     0.000 C 
ENDROOT
BRANCH   1   2
ATOM      2  C   UNL     1      15.378  15.309  59.974  1.00  0.00     0.006 C 
BRANCH   2   3
ATOM      3  C   UNL     1      15.097  16.573  60.790  1.00  0.00     0.053 C 
BRANCH   3   4
ATOM      4  C   UNL     1      15.715  16.469  62.148  1.00  0.00     0.041 C 
ATOM      5  O   UNL     1      15.760  15.359  62.741  1.00  0.00    -0.550 OA
ATOM      6  O   UNL     1      16.288  17.588  62.739  1.00  0.00    -0.550 OA
ENDBRANCH   3   4
ENDBRANCH   2   3
ENDBRANCH   1   2
BRANCH   1   7
ATOM      7  C   UNL     1      17.450  15.377  58.470  1.00  0.00     0.000 C 
BRANCH   7   8
ATOM      8  C   UNL     1      18.370  16.475  59.040  1.00  0.00    -0.000 C 
BRANCH   8   9
ATOM      9  C   UNL     1      19.012  16.148  60.400  1.00  0.00    -0.000 C 
BRANCH   9  10
ATOM     10  C   UNL     1      19.878  17.294  60.941  1.00  0.00    -0.003 C 
ATOM     11  C   UNL     1      19.903  17.292  62.466  1.00  0.00     0.004 C 
ENDBRANCH   9  10
ENDBRANCH   8   9
ENDBRANCH   7   8
ENDBRANCH   1   7
TORSDOF 7
ENDMDL
MODEL 2
REMARK VINA RESULT:    -4.287      2.576      3.337
REMARK INTER + INTRA:          -6.547
REMARK INTER:                  -6.064
REMARK INTRA:                  -0.484
REMARK UNBOUND:                -0.507
REMARK SMILES CCCCCCCCC(=O)[O-]
REMARK SMILES IDX 6 1 7 2 8 3 9 4 10 5 11 6 5 7 4 8 3 9 2 10 1 11
REMARK H PARENT
REMARK Flexibility Score: inf
ROOT
ATOM      1  C   UNL     1      15.479  14.947  60.614  1.00  0.00     0.000 C 
ENDROOT
BRANCH   1   2
ATOM      2  C   UNL     1      15.794  14.391  59.218  1.00  0.00     0.006 C 
BRANCH   2   3
ATOM      3  C   UNL     1      16.319  15.494  58.294  1.00  0.00     0.053 C 
BRANCH   3   4
ATOM      4  C   UNL     1      17.756  15.254  57.955  1.00  0.00     0.041 C 
ATOM      5  O   UNL     1      18.276  14.126  58.160  1.00  0.00    -0.550 OA
ATOM      6  O   UNL     1      18.509  16.262  57.365  1.00  0.00    -0.550 OA
ENDBRANCH   3   4
ENDBRANCH   2   3
ENDBRANCH   1   2
BRANCH   1   7
ATOM      7  C   UNL     1      15.958  16.397  60.804  1.00  0.00     0.000 C 
BRANCH   7   8
ATOM      8  C   UNL     1      17.132  16.575  61.787  1.00  0.00    -0.000 C 
BRANCH   8   9
ATOM      9  C   UNL     1      18.448  15.902  61.361  1.00  0.00    -0.000 C 
BRANCH   9  10
ATOM     10  C   UNL     1      19.569  16.912  61.078  1.00  0.00    -0.003 C 
ATOM     11  C   UNL     1      20.277  17.323  62.365  1.00  0.00     0.004 C 
ENDBRANCH   9  10
ENDBRANCH   8   9
ENDBRANCH   7   8
ENDBRANCH   1   7
TORSDOF 7
ENDMDL
MODEL 3
REMARK VINA RESULT:    -4.207      1.862      3.934
REMARK INTER + INTRA:          -6.436
REMARK INTER:                  -5.781
REMARK INTRA:                  -0.655
REMARK UNBOUND:                -0.507
REMARK SMILES CCCCCCCCC(=O)[O-]
REMARK SMILES IDX 6 1 7 2 8 3 9 4 10 5 11 6 5 7 4 8 3 9 2 10 1 11
REMARK H PARENT
REMARK Flexibility Score: inf
ROOT
ATOM      1  C   UNL     1      17.623  17.019  59.510  1.00  0.00     0.000 C 
ENDROOT
BRANCH   1   2
ATOM      2  C   UNL     1      18.818  16.222  60.052  1.00  0.00     0.006 C 
BRANCH   2   3
ATOM      3  C   UNL     1      18.818  16.207  61.583  1.00  0.00     0.053 C 
BRANCH   3   4
ATOM      4  C   UNL     1      19.666  17.316  62.119  1.00  0.00     0.041 C 
ATOM      5  O   UNL     1      20.912  17.303  61.941  1.00  0.00    -0.550 OA
ATOM      6  O   UNL     1      19.075  18.389  62.774  1.00  0.00    -0.550 OA
ENDBRANCH   3   4
ENDBRANCH   2   3
ENDBRANCH   1   2
BRANCH   1   7
ATOM      7  C   UNL     1      16.419  16.126  59.159  1.00  0.00     0.000 C 
BRANCH   7   8
ATOM      8  C   UNL     1      15.355  15.998  60.267  1.00  0.00    -0.000 C 
BRANCH   8   9
ATOM      9  C   UNL     1      15.146  17.261  61.121  1.00  0.00    -0.000 C 
BRANCH   9  10
ATOM     10  C   UNL     1      15.305  16.997  62.625  1.00  0.00    -0.003 C 
ATOM     11  C   UNL     1      14.902  15.569  62.978  1.00  0.00     0.004 C 
ENDBRANCH   9  10
ENDBRANCH   8   9
ENDBRANCH   7   8
ENDBRANCH   1   7
TORSDOF 7
ENDMDL
MODEL 4
REMARK VINA RESULT:    -4.186      2.286      2.866
REMARK INTER + INTRA:          -6.406
REMARK INTER:                  -5.772
REMARK INTRA:                  -0.634
REMARK UNBOUND:                -0.507
REMARK SMILES CCCCCCCCC(=O)[O-]
REMARK SMILES IDX 6 1 7 2 8 3 9 4 10 5 11 6 5 7 4 8 3 9 2 10 1 11
REMARK H PARENT
REMARK Flexibility Score: inf
ROOT
ATOM      1  C   UNL     1      15.361  16.158  60.077  1.00  0.00     0.000 C 
ENDROOT
BRANCH   1   2
ATOM      2  C   UNL     1      15.418  14.772  59.419  1.00  0.00     0.006 C 
BRANCH   2   3
ATOM      3  C   UNL     1      15.527  13.667  60.473  1.00  0.00     0.053 C 
BRANCH   3   4
ATOM      4  C   UNL     1      16.780  12.875  60.275  1.00  0.00     0.041 C 
ATOM      5  O   UNL     1      17.273  12.221  61.231  1.00  0.00    -0.550 OA
ATOM      6  O   UNL     1      17.376  12.818  59.022  1.00  0.00    -0.550 OA
ENDBRANCH   3   4
ENDBRANCH   2   3
ENDBRANCH   1   2
BRANCH   1   7
ATOM      7  C   UNL     1      16.545  17.058  59.681  1.00  0.00     0.000 C 
BRANCH   7   8
ATOM      8  C   UNL     1      17.737  16.324  59.036  1.00  0.00    -0.000 C 
BRANCH   8   9
ATOM      9  C   UNL     1      18.943  16.094  59.964  1.00  0.00    -0.000 C 
BRANCH   9  10
ATOM     10  C   UNL     1      18.632  16.411  61.434  1.00  0.00    -0.003 C 
ATOM     11  C   UNL     1      19.730  17.268  62.056  1.00  0.00     0.004 C 
ENDBRANCH   9  10
ENDBRANCH   8   9
ENDBRANCH   7   8
ENDBRANCH   1   7
TORSDOF 7
ENDMDL
MODEL 5
REMARK VINA RESULT:    -4.177     13.351     14.577
REMARK INTER + INTRA:          -6.393
REMARK INTER:                  -6.025
REMARK INTRA:                  -0.368
REMARK UNBOUND:                -0.507
REMARK SMILES CCCCCCCCC(=O)[O-]
REMARK SMILES IDX 6 1 7 2 8 3 9 4 10 5 11 6 5 7 4 8 3 9 2 10 1 11
REMARK H PARENT
REMARK Flexibility Score: inf
ROOT
ATOM      1  C   UNL     1      11.329  29.716  57.116  1.00  0.00     0.000 C 
ENDROOT
BRANCH   1   2
ATOM      2  C   UNL     1      10.993  29.798  55.621  1.00  0.00     0.006 C 
BRANCH   2   3
ATOM      3  C   UNL     1      10.916  28.402  54.997  1.00  0.00     0.053 C 
BRANCH   3   4
ATOM      4  C   UNL     1      11.297  28.450  53.552  1.00  0.00     0.041 C 
ATOM      5  O   UNL     1      10.984  29.446  52.847  1.00  0.00    -0.550 OA
ATOM      6  O   UNL     1      12.040  27.419  52.993  1.00  0.00    -0.550 OA
ENDBRANCH   3   4
ENDBRANCH   2   3
ENDBRANCH   1   2
BRANCH   1   7
ATOM      7  C   UNL     1      10.199  29.086  57.950  1.00  0.00     0.000 C 
BRANCH   7   8
ATOM      8  C   UNL     1      10.639  27.951  58.896  1.00  0.00    -0.000 C 
BRANCH   8   9
ATOM      9  C   UNL     1      10.474  26.529  58.331  1.00  0.00    -0.000 C 
BRANCH   9  10
ATOM     10  C   UNL     1      11.168  25.462  59.190  1.00  0.00    -0.003 C 
ATOM     11  C   UNL     1      11.649  26.049  60.513  1.00  0.00     0.004 C 
ENDBRANCH   9  10
ENDBRANCH   8   9
ENDBRANCH   7   8
ENDBRANCH   1   7
TORSDOF 7
ENDMDL
MODEL 6
REMARK VINA RESULT:    -4.172      3.248      5.076
REMARK INTER + INTRA:          -6.386
REMARK INTER:                  -5.770
REMARK INTRA:                  -0.616
REMARK UNBOUND:                -0.507
REMARK SMILES CCCCCCCCC(=O)[O-]
REMARK SMILES IDX 6 1 7 2 8 3 9 4 10 5 11 6 5 7 4 8 3 9 2 10 1 11
REMARK H PARENT
REMARK Flexibility Score: inf
ROOT
ATOM      1  C   UNL     1      13.581  15.855  63.707  1.00  0.00     0.000 C 
ENDROOT
BRANCH   1   2
ATOM      2  C   UNL     1      14.215  14.513  64.101  1.00  0.00     0.006 C 
BRANCH   2   3
ATOM      3  C   UNL     1      13.478  13.343  63.442  1.00  0.00     0.053 C 
BRANCH   3   4
ATOM      4  C   UNL     1      14.087  12.041  63.854  1.00  0.00     0.041 C 
ATOM      5  O   UNL     1      13.459  11.261  64.616  1.00  0.00    -0.550 OA
ATOM      6  O   UNL     1      15.329  11.666  63.356  1.00  0.00    -0.550 OA
ENDBRANCH   3   4
ENDBRANCH   2   3
ENDBRANCH   1   2
BRANCH   1   7
ATOM      7  C   UNL     1      14.622  16.913  63.302  1.00  0.00     0.000 C 
BRANCH   7   8
ATOM      8  C   UNL     1      15.711  16.420  62.328  1.00  0.00    -0.000 C 
BRANCH   8   9
ATOM      9  C   UNL     1      15.258  16.265  60.866  1.00  0.00    -0.000 C 
BRANCH   9  10
ATOM     10  C   UNL     1      15.992  15.134  60.132  1.00  0.00    -0.003 C 
ATOM     11  C   UNL     1      15.214  13.825  60.219  1.00  0.00     0.004 C 
ENDBRANCH   9  10
ENDBRANCH   8   9
ENDBRANCH   7   8
ENDBRANCH   1   7
TORSDOF 7
ENDMDL
MODEL 7
REMARK VINA RESULT:    -4.159      2.909      4.221
REMARK INTER + INTRA:          -6.367
REMARK INTER:                  -6.086
REMARK INTRA:                  -0.280
REMARK UNBOUND:                -0.507
REMARK SMILES CCCCCCCCC(=O)[O-]
REMARK SMILES IDX 6 1 7 2 8 3 9 4 10 5 11 6 5 7 4 8 3 9 2 10 1 11
REMARK H PARENT
REMARK Flexibility Score: inf
ROOT
ATOM      1  C   UNL     1      14.403  15.720  62.851  1.00  0.00     0.000 C 
ENDROOT
BRANCH   1   2
ATOM      2  C   UNL     1      14.199  14.529  63.798  1.00  0.00     0.006 C 
BRANCH   2   3
ATOM      3  C   UNL     1      13.729  13.290  63.030  1.00  0.00     0.053 C 
BRANCH   3   4
ATOM      4  C   UNL     1      14.290  12.048  63.645  1.00  0.00     0.041 C 
ATOM      5  O   UNL     1      15.476  11.701  63.405  1.00  0.00    -0.550 OA
ATOM      6  O   UNL     1      13.519  11.297  64.524  1.00  0.00    -0.550 OA
ENDBRANCH   3   4
ENDBRANCH   2   3
ENDBRANCH   1   2
BRANCH   1   7
ATOM      7  C   UNL     1      15.261  15.367  61.623  1.00  0.00     0.000 C 
BRANCH   7   8
ATOM      8  C   UNL     1      15.255  16.419  60.497  1.00  0.00    -0.000 C 
BRANCH   8   9
ATOM      9  C   UNL     1      16.217  16.133  59.330  1.00  0.00    -0.000 C 
BRANCH   9  10
ATOM     10  C   UNL     1      17.458  17.036  59.346  1.00  0.00    -0.003 C 
ATOM     11  C   UNL     1      18.665  16.301  59.920  1.00  0.00     0.004 C 
ENDBRANCH   9  10
ENDBRANCH   8   9
ENDBRANCH   7   8
ENDBRANCH   1   7
TORSDOF 7
ENDMDL
MODEL 8
REMARK VINA RESULT:    -4.151      1.922      2.676
REMARK INTER + INTRA:          -6.356
REMARK INTER:                  -6.001
REMARK INTRA:                  -0.354
REMARK UNBOUND:                -0.507
REMARK SMILES CCCCCCCCC(=O)[O-]
REMARK SMILES IDX 6 1 7 2 8 3 9 4 10 5 11 6 5 7 4 8 3 9 2 10 1 11
REMARK H PARENT
REMARK Flexibility Score: inf
ROOT
ATOM      1  C   UNL     1      15.979  16.558  61.768  1.00  0.00     0.000 C 
ENDROOT
BRANCH   1   2
ATOM      2  C   UNL     1      14.992  15.538  62.352  1.00  0.00     0.006 C 
BRANCH   2   3
ATOM      3  C   UNL     1      14.339  16.075  63.629  1.00  0.00     0.053 C 
BRANCH   3   4
ATOM      4  C   UNL     1      14.055  14.959  64.583  1.00  0.00     0.041 C 
ATOM      5  O   UNL     1      12.985  14.949  65.247  1.00  0.00    -0.550 OA
ATOM      6  O   UNL     1      14.949  13.902  64.703  1.00  0.00    -0.550 OA
ENDBRANCH   3   4
ENDBRANCH   2   3
ENDBRANCH   1   2
BRANCH   1   7
ATOM      7  C   UNL     1      15.951  16.605  60.230  1.00  0.00     0.000 C 
BRANCH   7   8
ATOM      8  C   UNL     1      17.325  16.791  59.556  1.00  0.00    -0.000 C 
BRANCH   8   9
ATOM      9  C   UNL     1      18.518  16.208  60.334  1.00  0.00    -0.000 C 
BRANCH   9  10
ATOM     10  C   UNL     1      19.543  17.276  60.741  1.00  0.00    -0.003 C 
ATOM     11  C   UNL     1      19.862  17.192  62.230  1.00  0.00     0.004 C 
ENDBRANCH   9  10
ENDBRANCH   8   9
ENDBRANCH   7   8
ENDBRANCH   1   7
TORSDOF 7
ENDMDL
MODEL 9
REMARK VINA RESULT:    -4.105      2.876      4.882
REMARK INTER + INTRA:          -6.292
REMARK INTER:                  -5.823
REMARK INTRA:                  -0.469
REMARK UNBOUND:                -0.507
REMARK SMILES CCCCCCCCC(=O)[O-]
REMARK SMILES IDX 6 1 7 2 8 3 9 4 10 5 11 6 5 7 4 8 3 9 2 10 1 11
REMARK H PARENT
REMARK Flexibility Score: inf
ROOT
ATOM      1  C   UNL     1      15.375  15.239  60.870  1.00  0.00     0.000 C 
ENDROOT
BRANCH   1   2
ATOM      2  C   UNL     1      15.622  15.722  59.434  1.00  0.00     0.006 C 
BRANCH   2   3
ATOM      3  C   UNL     1      16.790  16.710  59.379  1.00  0.00     0.053 C 
BRANCH   3   4
ATOM      4  C   UNL     1      17.996  16.065  58.775  1.00  0.00     0.041 C 
ATOM      5  O   UNL     1      18.779  15.388  59.491  1.00  0.00    -0.550 OA
ATOM      6  O   UNL     1      18.230  16.170  57.409  1.00  0.00    -0.550 OA
ENDBRANCH   3   4
ENDBRANCH   2   3
ENDBRANCH   1   2
BRANCH   1   7
ATOM      7  C   UNL     1      15.936  16.204  61.930  1.00  0.00     0.000 C 
BRANCH   7   8
ATOM      8  C   UNL     1      14.874  16.966  62.747  1.00  0.00    -0.000 C 
BRANCH   8   9
ATOM      9  C   UNL     1      13.766  16.090  63.357  1.00  0.00    -0.000 C 
BRANCH   9  10
ATOM     10  C   UNL     1      14.209  15.378  64.643  1.00  0.00    -0.003 C 
ATOM     11  C   UNL     1      13.788  13.912  64.633  1.00  0.00     0.004 C 
ENDBRANCH   9  10
ENDBRANCH   8   9
ENDBRANCH   7   8
ENDBRANCH   1   7
TORSDOF 7
ENDMDL
