MODEL 1
REMARK VINA RESULT:    -4.562      0.000      0.000
REMARK INTER + INTRA:          -6.880
REMARK INTER:                  -6.696
REMARK INTRA:                  -0.184
REMARK UNBOUND:                -0.184
REMARK SMILES O=C([O-])CCCCCCCC(=O)[O-]
REMARK SMILES IDX 7 1 6 2 5 3 4 4 2 5 1 6 3 7 8 8 9 9 10 10 11 11 12 12 13 13
REMARK H PARENT
REMARK Flexibility Score: inf
ROOT
ATOM      1  C   UNL     1      40.014  56.049  18.275  1.00  0.00     0.000 C 
ENDROOT
BRANCH   1   2
ATOM      2  C   UNL     1      41.163  55.980  17.251  1.00  0.00     0.000 C 
BRANCH   2   3
ATOM      3  C   UNL     1      42.425  55.310  17.811  1.00  0.00     0.006 C 
BRANCH   3   4
ATOM      4  C   UNL     1      43.009  54.311  16.806  1.00  0.00     0.053 C 
BRANCH   4   5
ATOM      5  C   UNL     1      44.228  54.878  16.151  1.00  0.00     0.041 C 
ATOM      6  O   UNL     1      44.775  55.913  16.615  1.00  0.00    -0.550 OA
ATOM      7  O   UNL     1      44.793  54.233  15.057  1.00  0.00    -0.550 OA
ENDBRANCH   4   5
ENDBRANCH   3   4
ENDBRANCH   2   3
ENDBRANCH   1   2
BRANCH   1   8
ATOM      8  C   UNL     1      38.953  57.129  17.993  1.00  0.00     0.000 C 
BRANCH   8   9
ATOM      9  C   UNL     1      37.901  56.681  16.964  1.00  0.00     0.006 C 
BRANCH   9  10
ATOM     10  C   UNL     1      36.570  57.425  17.136  1.00  0.00     0.053 C 
BRANCH  10  11
ATOM     11  C   UNL     1      35.723  57.343  15.904  1.00  0.00     0.041 C 
ATOM     12  O   UNL     1      35.982  58.066  14.906  1.00  0.00    -0.550 OA
ATOM     13  O   UNL     1      34.664  56.445  15.846  1.00  0.00    -0.550 OA
ENDBRANCH  10  11
ENDBRANCH   9  10
ENDBRANCH   8   9
ENDBRANCH   1   8
TORSDOF 8
ENDMDL
MODEL 2
REMARK VINA RESULT:    -4.559      0.396      7.319
REMARK INTER + INTRA:          -6.875
REMARK INTER:                  -6.683
REMARK INTRA:                  -0.192
REMARK UNBOUND:                -0.184
REMARK SMILES O=C([O-])CCCCCCCC(=O)[O-]
REMARK SMILES IDX 7 1 6 2 5 3 4 4 2 5 1 6 3 7 8 8 9 9 10 10 11 11 12 12 13 13
REMARK H PARENT
REMARK Flexibility Score: inf
ROOT
ATOM      1  C   UNL     1      39.888  56.118  18.288  1.00  0.00     0.000 C 
ENDROOT
BRANCH   1   2
ATOM      2  C   UNL     1      38.826  57.179  17.943  1.00  0.00     0.000 C 
BRANCH   2   3
ATOM      3  C   UNL     1      37.824  56.700  16.882  1.00  0.00     0.006 C 
BRANCH   3   4
ATOM      4  C   UNL     1      36.419  57.238  17.172  1.00  0.00     0.053 C 
BRANCH   4   5
ATOM      5  C   UNL     1      35.650  57.410  15.901  1.00  0.00     0.041 C 
ATOM      6  O   UNL     1      36.174  57.996  14.917  1.00  0.00    -0.550 OA
ATOM      7  O   UNL     1      34.372  56.877  15.784  1.00  0.00    -0.550 OA
ENDBRANCH   4   5
ENDBRANCH   3   4
ENDBRANCH   2   3
ENDBRANCH   1   2
BRANCH   1   8
ATOM      8  C   UNL     1      40.987  55.926  17.226  1.00  0.00     0.000 C 
BRANCH   8   9
ATOM      9  C   UNL     1      42.295  55.368  17.812  1.00  0.00     0.006 C 
BRANCH   9  10
ATOM     10  C   UNL     1      42.972  54.368  16.865  1.00  0.00     0.053 C 
BRANCH  10  11
ATOM     11  C   UNL     1      44.061  55.011  16.062  1.00  0.00     0.041 C 
ATOM     12  O   UNL     1      45.032  55.567  16.639  1.00  0.00    -0.550 OA
ATOM     13  O   UNL     1      44.017  54.971  14.673  1.00  0.00    -0.550 OA
ENDBRANCH  10  11
ENDBRANCH   9  10
ENDBRANCH   8   9
ENDBRANCH   1   8
TORSDOF 8
ENDMDL
MODEL 3
REMARK VINA RESULT:    -4.545      0.982      7.428
REMARK INTER + INTRA:          -6.854
REMARK INTER:                  -6.673
REMARK INTRA:                  -0.181
REMARK UNBOUND:                -0.184
REMARK SMILES O=C([O-])CCCCCCCC(=O)[O-]
REMARK SMILES IDX 7 1 6 2 5 3 4 4 2 5 1 6 3 7 8 8 9 9 10 10 11 11 12 12 13 13
REMARK H PARENT
REMARK Flexibility Score: inf
ROOT
ATOM      1  C   UNL     1      38.958  57.122  18.050  1.00  0.00     0.000 C 
ENDROOT
BRANCH   1   2
ATOM      2  C   UNL     1      37.999  56.731  16.910  1.00  0.00     0.000 C 
BRANCH   2   3
ATOM      3  C   UNL     1      36.619  57.392  17.034  1.00  0.00     0.006 C 
BRANCH   3   4
ATOM      4  C   UNL     1      36.021  57.680  15.653  1.00  0.00     0.053 C 
BRANCH   4   5
ATOM      5  C   UNL     1      34.875  56.760  15.375  1.00  0.00     0.041 C 
ATOM      6  O   UNL     1      34.845  56.087  14.312  1.00  0.00    -0.550 OA
ATOM      7  O   UNL     1      33.863  56.608  16.316  1.00  0.00    -0.550 OA
ENDBRANCH   4   5
ENDBRANCH   3   4
ENDBRANCH   2   3
ENDBRANCH   1   2
BRANCH   1   8
ATOM      8  C   UNL     1      40.041  56.077  18.377  1.00  0.00     0.000 C 
BRANCH   8   9
ATOM      9  C   UNL     1      41.105  55.952  17.274  1.00  0.00     0.006 C 
BRANCH   9  10
ATOM     10  C   UNL     1      42.384  55.269  17.777  1.00  0.00     0.053 C 
BRANCH  10  11
ATOM     11  C   UNL     1      43.403  55.124  16.690  1.00  0.00     0.041 C 
ATOM     12  O   UNL     1      43.053  54.766  15.535  1.00  0.00    -0.550 OA
ATOM     13  O   UNL     1      44.739  55.412  16.945  1.00  0.00    -0.550 OA
ENDBRANCH  10  11
ENDBRANCH   9  10
ENDBRANCH   8   9
ENDBRANCH   1   8
TORSDOF 8
ENDMDL
MODEL 4
REMARK VINA RESULT:    -4.536      0.910      1.649
REMARK INTER + INTRA:          -6.841
REMARK INTER:                  -6.658
REMARK INTRA:                  -0.183
REMARK UNBOUND:                -0.184
REMARK SMILES O=C([O-])CCCCCCCC(=O)[O-]
REMARK SMILES IDX 7 1 6 2 5 3 4 4 2 5 1 6 3 7 8 8 9 9 10 10 11 11 12 12 13 13
REMARK H PARENT
REMARK Flexibility Score: inf
ROOT
ATOM      1  C   UNL     1      38.980  57.117  18.014  1.00  0.00     0.000 C 
ENDROOT
BRANCH   1   2
ATOM      2  C   UNL     1      40.031  56.037  18.331  1.00  0.00     0.000 C 
BRANCH   2   3
ATOM      3  C   UNL     1      41.132  55.941  17.265  1.00  0.00     0.006 C 
BRANCH   3   4
ATOM      4  C   UNL     1      42.376  55.241  17.823  1.00  0.00     0.053 C 
BRANCH   4   5
ATOM      5  C   UNL     1      43.228  54.720  16.710  1.00  0.00     0.041 C 
ATOM      6  O   UNL     1      42.903  53.669  16.100  1.00  0.00    -0.550 OA
ATOM      7  O   UNL     1      44.358  55.425  16.312  1.00  0.00    -0.550 OA
ENDBRANCH   4   5
ENDBRANCH   3   4
ENDBRANCH   2   3
ENDBRANCH   1   2
BRANCH   1   8
ATOM      8  C   UNL     1      37.890  56.692  17.012  1.00  0.00     0.000 C 
BRANCH   8   9
ATOM      9  C   UNL     1      36.594  57.508  17.156  1.00  0.00     0.006 C 
BRANCH   9  10
ATOM     10  C   UNL     1      36.009  57.911  15.796  1.00  0.00     0.053 C 
BRANCH  10  11
ATOM     11  C   UNL     1      34.858  57.037  15.403  1.00  0.00     0.041 C 
ATOM     12  O   UNL     1      34.548  56.903  14.191  1.00  0.00    -0.550 OA
ATOM     13  O   UNL     1      34.145  56.347  16.376  1.00  0.00    -0.550 OA
ENDBRANCH  10  11
ENDBRANCH   9  10
ENDBRANCH   8   9
ENDBRANCH   1   8
TORSDOF 8
ENDMDL
MODEL 5
REMARK VINA RESULT:    -4.232      2.944      4.443
REMARK INTER + INTRA:          -6.396
REMARK INTER:                  -6.162
REMARK INTRA:                  -0.233
REMARK UNBOUND:                -0.184
REMARK SMILES O=C([O-])CCCCCCCC(=O)[O-]
REMARK SMILES IDX 7 1 6 2 5 3 4 4 2 5 1 6 3 7 8 8 9 9 10 10 11 11 12 12 13 13
REMARK H PARENT
REMARK Flexibility Score: inf
ROOT
ATOM      1  C   UNL     1      36.362  57.923  15.904  1.00  0.00     0.000 C 
ENDROOT
BRANCH   1   2
ATOM      2  C   UNL     1      36.926  57.357  17.221  1.00  0.00     0.000 C 
BRANCH   2   3
ATOM      3  C   UNL     1      38.176  56.490  17.015  1.00  0.00     0.006 C 
BRANCH   3   4
ATOM      4  C   UNL     1      39.292  56.896  17.983  1.00  0.00     0.053 C 
BRANCH   4   5
ATOM      5  C   UNL     1      40.516  56.069  17.749  1.00  0.00     0.041 C 
ATOM      6  O   UNL     1      41.174  55.620  18.724  1.00  0.00    -0.550 OA
ATOM      7  O   UNL     1      40.903  55.752  16.452  1.00  0.00    -0.550 OA
ENDBRANCH   4   5
ENDBRANCH   3   4
ENDBRANCH   2   3
ENDBRANCH   1   2
BRANCH   1   8
ATOM      8  C   UNL     1      35.252  57.076  15.254  1.00  0.00     0.000 C 
BRANCH   8   9
ATOM      9  C   UNL     1      34.271  56.484  16.280  1.00  0.00     0.006 C 
BRANCH   9  10
ATOM     10  C   UNL     1      32.834  56.433  15.745  1.00  0.00     0.053 C 
BRANCH  10  11
ATOM     11  C   UNL     1      31.838  56.219  16.844  1.00  0.00     0.041 C 
ATOM     12  O   UNL     1      31.825  55.137  17.487  1.00  0.00    -0.550 OA
ATOM     13  O   UNL     1      30.942  57.228  17.176  1.00  0.00    -0.550 OA
ENDBRANCH  10  11
ENDBRANCH   9  10
ENDBRANCH   8   9
ENDBRANCH   1   8
TORSDOF 8
ENDMDL
MODEL 6
REMARK VINA RESULT:    -4.196      1.633      7.274
REMARK INTER + INTRA:          -6.343
REMARK INTER:                  -6.038
REMARK INTRA:                  -0.305
REMARK UNBOUND:                -0.184
REMARK SMILES O=C([O-])CCCCCCCC(=O)[O-]
REMARK SMILES IDX 7 1 6 2 5 3 4 4 2 5 1 6 3 7 8 8 9 9 10 10 11 11 12 12 13 13
REMARK H PARENT
REMARK Flexibility Score: inf
ROOT
ATOM      1  C   UNL     1      42.656  55.536  17.541  1.00  0.00     0.000 C 
ENDROOT
BRANCH   1   2
ATOM      2  C   UNL     1      41.268  55.692  18.190  1.00  0.00     0.000 C 
BRANCH   2   3
ATOM      3  C   UNL     1      40.196  56.178  17.204  1.00  0.00     0.006 C 
BRANCH   3   4
ATOM      4  C   UNL     1      39.016  56.814  17.945  1.00  0.00     0.053 C 
BRANCH   4   5
ATOM      5  C   UNL     1      37.819  56.897  17.053  1.00  0.00     0.041 C 
ATOM      6  O   UNL     1      36.777  57.487  17.442  1.00  0.00    -0.550 OA
ATOM      7  O   UNL     1      37.871  56.366  15.769  1.00  0.00    -0.550 OA
ENDBRANCH   4   5
ENDBRANCH   3   4
ENDBRANCH   2   3
ENDBRANCH   1   2
BRANCH   1   8
ATOM      8  C   UNL     1      43.029  54.098  17.135  1.00  0.00     0.000 C 
BRANCH   8   9
ATOM      9  C   UNL     1      42.924  53.856  15.620  1.00  0.00     0.006 C 
BRANCH   9  10
ATOM     10  C   UNL     1      44.160  53.139  15.061  1.00  0.00     0.053 C 
BRANCH  10  11
ATOM     11  C   UNL     1      45.275  54.096  14.771  1.00  0.00     0.041 C 
ATOM     12  O   UNL     1      46.453  53.675  14.631  1.00  0.00    -0.550 OA
ATOM     13  O   UNL     1      45.008  55.452  14.626  1.00  0.00    -0.550 OA
ENDBRANCH  10  11
ENDBRANCH   9  10
ENDBRANCH   8   9
ENDBRANCH   1   8
TORSDOF 8
ENDMDL
MODEL 7
REMARK VINA RESULT:    -4.177      2.933      8.325
REMARK INTER + INTRA:          -6.315
REMARK INTER:                  -6.085
REMARK INTRA:                  -0.230
REMARK UNBOUND:                -0.184
REMARK SMILES O=C([O-])CCCCCCCC(=O)[O-]
REMARK SMILES IDX 7 1 6 2 5 3 4 4 2 5 1 6 3 7 8 8 9 9 10 10 11 11 12 12 13 13
REMARK H PARENT
REMARK Flexibility Score: inf
ROOT
ATOM      1  C   UNL     1      36.375  57.846  15.911  1.00  0.00     0.000 C 
ENDROOT
BRANCH   1   2
ATOM      2  C   UNL     1      35.280  56.904  15.377  1.00  0.00     0.000 C 
BRANCH   2   3
ATOM      3  C   UNL     1      34.240  56.531  16.444  1.00  0.00     0.006 C 
BRANCH   3   4
ATOM      4  C   UNL     1      32.854  56.345  15.817  1.00  0.00     0.053 C 
BRANCH   4   5
ATOM      5  C   UNL     1      31.825  56.116  16.878  1.00  0.00     0.041 C 
ATOM      6  O   UNL     1      31.808  55.034  17.521  1.00  0.00    -0.550 OA
ATOM      7  O   UNL     1      30.915  57.118  17.191  1.00  0.00    -0.550 OA
ENDBRANCH   4   5
ENDBRANCH   3   4
ENDBRANCH   2   3
ENDBRANCH   1   2
BRANCH   1   8
ATOM      8  C   UNL     1      36.987  57.435  17.264  1.00  0.00     0.000 C 
BRANCH   8   9
ATOM      9  C   UNL     1      38.173  56.467  17.115  1.00  0.00     0.006 C 
BRANCH   9  10
ATOM     10  C   UNL     1      39.375  56.890  17.970  1.00  0.00     0.053 C 
BRANCH  10  11
ATOM     11  C   UNL     1      40.576  56.035  17.705  1.00  0.00     0.041 C 
ATOM     12  O   UNL     1      41.260  55.587  18.663  1.00  0.00    -0.550 OA
ATOM     13  O   UNL     1      40.922  55.707  16.400  1.00  0.00    -0.550 OA
ENDBRANCH  10  11
ENDBRANCH   9  10
ENDBRANCH   8   9
ENDBRANCH   1   8
TORSDOF 8
ENDMDL
MODEL 8
REMARK VINA RESULT:    -4.084      0.907      1.802
REMARK INTER + INTRA:          -6.179
REMARK INTER:                  -5.915
REMARK INTRA:                  -0.264
REMARK UNBOUND:                -0.184
REMARK SMILES O=C([O-])CCCCCCCC(=O)[O-]
REMARK SMILES IDX 7 1 6 2 5 3 4 4 2 5 1 6 3 7 8 8 9 9 10 10 11 11 12 12 13 13
REMARK H PARENT
REMARK Flexibility Score: inf
ROOT
ATOM      1  C   UNL     1      40.913  55.983  17.176  1.00  0.00     0.000 C 
ENDROOT
BRANCH   1   2
ATOM      2  C   UNL     1      42.251  55.307  17.532  1.00  0.00     0.000 C 
BRANCH   2   3
ATOM      3  C   UNL     1      42.731  54.325  16.453  1.00  0.00     0.006 C 
BRANCH   3   4
ATOM      4  C   UNL     1      44.262  54.284  16.392  1.00  0.00     0.053 C 
BRANCH   4   5
ATOM      5  C   UNL     1      44.787  55.440  15.602  1.00  0.00     0.041 C 
ATOM      6  O   UNL     1      44.663  55.461  14.349  1.00  0.00    -0.550 OA
ATOM      7  O   UNL     1      45.368  56.521  16.254  1.00  0.00    -0.550 OA
ENDBRANCH   4   5
ENDBRANCH   3   4
ENDBRANCH   2   3
ENDBRANCH   1   2
BRANCH   1   8
ATOM      8  C   UNL     1      40.026  56.347  18.382  1.00  0.00     0.000 C 
BRANCH   8   9
ATOM      9  C   UNL     1      38.721  57.051  17.973  1.00  0.00     0.006 C 
BRANCH   9  10
ATOM     10  C   UNL     1      38.129  56.470  16.682  1.00  0.00     0.053 C 
BRANCH  10  11
ATOM     11  C   UNL     1      36.794  57.068  16.363  1.00  0.00     0.041 C 
ATOM     12  O   UNL     1      35.892  57.113  17.240  1.00  0.00    -0.550 OA
ATOM     13  O   UNL     1      36.555  57.603  15.103  1.00  0.00    -0.550 OA
ENDBRANCH  10  11
ENDBRANCH   9  10
ENDBRANCH   8   9
ENDBRANCH   1   8
TORSDOF 8
ENDMDL
MODEL 9
REMARK VINA RESULT:    -3.987      2.838      8.161
REMARK INTER + INTRA:          -6.036
REMARK INTER:                  -5.745
REMARK INTRA:                  -0.291
REMARK UNBOUND:                -0.184
REMARK SMILES O=C([O-])CCCCCCCC(=O)[O-]
REMARK SMILES IDX 7 1 6 2 5 3 4 4 2 5 1 6 3 7 8 8 9 9 10 10 11 11 12 12 13 13
REMARK H PARENT
REMARK Flexibility Score: inf
ROOT
ATOM      1  C   UNL     1      44.017  55.437  16.676  1.00  0.00     0.000 C 
ENDROOT
BRANCH   1   2
ATOM      2  C   UNL     1      42.929  54.551  17.311  1.00  0.00     0.000 C 
BRANCH   2   3
ATOM      3  C   UNL     1      41.851  55.361  18.046  1.00  0.00     0.006 C 
BRANCH   3   4
ATOM      4  C   UNL     1      40.867  55.992  17.055  1.00  0.00     0.053 C 
BRANCH   4   5
ATOM      5  C   UNL     1      39.621  56.427  17.758  1.00  0.00     0.041 C 
ATOM      6  O   UNL     1      39.657  56.745  18.975  1.00  0.00    -0.550 OA
ATOM      7  O   UNL     1      38.426  56.529  17.055  1.00  0.00    -0.550 OA
ENDBRANCH   4   5
ENDBRANCH   3   4
ENDBRANCH   2   3
ENDBRANCH   1   2
BRANCH   1   8
ATOM      8  C   UNL     1      44.794  54.785  15.517  1.00  0.00     0.000 C 
BRANCH   8   9
ATOM      9  C   UNL     1      46.247  55.279  15.418  1.00  0.00     0.006 C 
BRANCH   9  10
ATOM     10  C   UNL     1      46.532  56.438  16.382  1.00  0.00     0.053 C 
BRANCH  10  11
ATOM     11  C   UNL     1      47.747  56.181  17.219  1.00  0.00     0.041 C 
ATOM     12  O   UNL     1      48.264  55.033  17.251  1.00  0.00    -0.550 OA
ATOM     13  O   UNL     1      48.325  57.217  17.942  1.00  0.00    -0.550 OA
ENDBRANCH  10  11
ENDBRANCH   9  10
ENDBRANCH   8   9
ENDBRANCH   1   8
TORSDOF 8
ENDMDL
