MODEL 1
REMARK VINA RESULT:    -7.729      0.000      0.000
REMARK INTER + INTRA:          -9.467
REMARK INTER:                  -9.311
REMARK INTRA:                  -0.156
REMARK UNBOUND:                -0.156
REMARK SMILES O=c1c(O)c(-c2ccc(O)c(O)c2)oc2cc(O)cc(O)c12
REMARK SMILES IDX 5 1 3 2 2 3 1 4 22 5 20 6 19 7 17 8 16 9 15 10 14 11 6 12
REMARK SMILES IDX 7 13 8 14 9 15 13 16 11 17 10 18 12 20 4 22 21 24 18 26
REMARK H PARENT 10 19 12 21 4 23 21 25 18 27
REMARK Flexibility Score: inf
ROOT
ATOM      1  C   UNL     1      24.013  -4.551  24.066  1.00  0.00     0.180 A 
ATOM      2  C   UNL     1      24.768  -3.568  23.402  1.00  0.00     0.208 A 
ATOM      3  C   UNL     1      24.309  -3.072  22.172  1.00  0.00     0.238 A 
ATOM      4  O   UNL     1      25.028  -2.248  21.547  1.00  0.00    -0.285 OA
ATOM      5  C   UNL     1      23.073  -3.522  21.646  1.00  0.00     0.111 A 
ATOM      6  C   UNL     1      22.489  -3.056  20.429  1.00  0.00     0.134 A 
ATOM      7  C   UNL     1      21.314  -3.651  19.955  1.00  0.00     0.093 A 
ATOM      8  C   UNL     1      20.667  -4.651  20.684  1.00  0.00     0.123 A 
ATOM      9  C   UNL     1      21.200  -5.076  21.899  1.00  0.00     0.094 A 
ATOM     10  C   UNL     1      22.392  -4.528  22.380  1.00  0.00     0.146 A 
ATOM     11  O   UNL     1      22.875  -4.978  23.532  1.00  0.00    -0.452 OA
ENDROOT
BRANCH   1  12
ATOM     12  C   UNL     1      24.438  -5.132  25.358  1.00  0.00     0.025 A 
ATOM     13  C   UNL     1      24.544  -4.344  26.518  1.00  0.00     0.016 A 
ATOM     14  C   UNL     1      24.972  -4.909  27.721  1.00  0.00     0.051 A 
ATOM     15  C   UNL     1      25.313  -6.267  27.782  1.00  0.00     0.157 A 
ATOM     16  C   UNL     1      24.803  -6.487  25.420  1.00  0.00     0.062 A 
ATOM     17  C   UNL     1      25.231  -7.057  26.624  1.00  0.00     0.158 A 
BRANCH  15  18
ATOM     18  O   UNL     1      25.738  -6.828  28.985  1.00  0.00    -0.504 OA
ATOM     19  H   UNL     1      25.360  -7.705  29.325  1.00  0.00     0.293 HD
ENDBRANCH  15  18
BRANCH  17  20
ATOM     20  O   UNL     1      25.571  -8.410  26.651  1.00  0.00    -0.504 OA
ATOM     21  H   UNL     1      24.879  -9.142  26.550  1.00  0.00     0.293 HD
ENDBRANCH  17  20
ENDBRANCH   1  12
BRANCH   2  22
ATOM     22  O   UNL     1      25.947  -3.082  23.974  1.00  0.00    -0.502 OA
ATOM     23  H   UNL     1      26.857  -3.471  23.760  1.00  0.00     0.293 HD
ENDBRANCH   2  22
BRANCH   6  24
ATOM     24  O   UNL     1      23.003  -2.001  19.668  1.00  0.00    -0.507 OA
ATOM     25  H   UNL     1      23.274  -2.067  18.698  1.00  0.00     0.293 HD
ENDBRANCH   6  24
BRANCH   8  26
ATOM     26  O   UNL     1      19.489  -5.226  20.212  1.00  0.00    -0.508 OA
ATOM     27  H   UNL     1      19.501  -6.021  19.585  1.00  0.00     0.293 HD
ENDBRANCH   8  26
TORSDOF 6
ENDMDL
MODEL 2
REMARK VINA RESULT:    -7.542      3.980      6.009
REMARK INTER + INTRA:          -9.242
REMARK INTER:                  -8.934
REMARK INTRA:                  -0.308
REMARK UNBOUND:                -0.156
REMARK SMILES O=c1c(O)c(-c2ccc(O)c(O)c2)oc2cc(O)cc(O)c12
REMARK SMILES IDX 5 1 3 2 2 3 1 4 22 5 20 6 19 7 17 8 16 9 15 10 14 11 6 12
REMARK SMILES IDX 7 13 8 14 9 15 13 16 11 17 10 18 12 20 4 22 21 24 18 26
REMARK H PARENT 10 19 12 21 4 23 21 25 18 27
REMARK Flexibility Score: inf
ROOT
ATOM      1  C   UNL     1      23.894  -4.338  20.340  1.00  0.00     0.180 A 
ATOM      2  C   UNL     1      23.120  -4.477  21.505  1.00  0.00     0.208 A 
ATOM      3  C   UNL     1      21.933  -5.224  21.450  1.00  0.00     0.238 A 
ATOM      4  O   UNL     1      21.207  -5.282  22.477  1.00  0.00    -0.285 OA
ATOM      5  C   UNL     1      21.561  -5.870  20.245  1.00  0.00     0.111 A 
ATOM      6  C   UNL     1      20.402  -6.689  20.085  1.00  0.00     0.134 A 
ATOM      7  C   UNL     1      20.079  -7.189  18.819  1.00  0.00     0.093 A 
ATOM      8  C   UNL     1      20.907  -6.954  17.718  1.00  0.00     0.123 A 
ATOM      9  C   UNL     1      22.068  -6.202  17.874  1.00  0.00     0.094 A 
ATOM     10  C   UNL     1      22.398  -5.656  19.118  1.00  0.00     0.146 A 
ATOM     11  O   UNL     1      23.503  -4.928  19.216  1.00  0.00    -0.452 OA
ENDROOT
BRANCH   1  12
ATOM     12  C   UNL     1      25.150  -3.556  20.316  1.00  0.00     0.025 A 
ATOM     13  C   UNL     1      26.367  -4.111  20.749  1.00  0.00     0.016 A 
ATOM     14  C   UNL     1      27.536  -3.344  20.741  1.00  0.00     0.051 A 
ATOM     15  C   UNL     1      27.503  -2.010  20.314  1.00  0.00     0.157 A 
ATOM     16  C   UNL     1      25.119  -2.212  19.910  1.00  0.00     0.062 A 
ATOM     17  C   UNL     1      26.287  -1.442  19.900  1.00  0.00     0.158 A 
BRANCH  15  18
ATOM     18  O   UNL     1      28.671  -1.249  20.306  1.00  0.00    -0.504 OA
ATOM     19  H   UNL     1      29.386  -1.366  21.015  1.00  0.00     0.293 HD
ENDBRANCH  15  18
BRANCH  17  20
ATOM     20  O   UNL     1      26.221  -0.114  19.477  1.00  0.00    -0.504 OA
ATOM     21  H   UNL     1      25.636   0.570  19.941  1.00  0.00     0.293 HD
ENDBRANCH  17  20
ENDBRANCH   1  12
BRANCH   2  22
ATOM     22  O   UNL     1      23.544  -3.896  22.704  1.00  0.00    -0.502 OA
ATOM     23  H   UNL     1      22.894  -3.579  23.414  1.00  0.00     0.293 HD
ENDBRANCH   2  22
BRANCH   6  24
ATOM     24  O   UNL     1      19.555  -7.060  21.135  1.00  0.00    -0.507 OA
ATOM     25  H   UNL     1      18.817  -6.486  21.513  1.00  0.00     0.293 HD
ENDBRANCH   6  24
BRANCH   8  26
ATOM     26  O   UNL     1      20.586  -7.470  16.465  1.00  0.00    -0.508 OA
ATOM     27  H   UNL     1      21.297  -7.843  15.847  1.00  0.00     0.293 HD
ENDBRANCH   8  26
TORSDOF 6
ENDMDL
MODEL 3
REMARK VINA RESULT:    -7.412     10.408     12.892
REMARK INTER + INTRA:          -9.085
REMARK INTER:                  -9.076
REMARK INTRA:                  -0.009
REMARK UNBOUND:                -0.156
REMARK SMILES O=c1c(O)c(-c2ccc(O)c(O)c2)oc2cc(O)cc(O)c12
REMARK SMILES IDX 5 1 3 2 2 3 1 4 22 5 20 6 19 7 17 8 16 9 15 10 14 11 6 12
REMARK SMILES IDX 7 13 8 14 9 15 13 16 11 17 10 18 12 20 4 22 21 24 18 26
REMARK H PARENT 10 19 12 21 4 23 21 25 18 27
REMARK Flexibility Score: inf
ROOT
ATOM      1  C   UNL     1      23.223   6.500  23.819  1.00  0.00     0.180 A 
ATOM      2  C   UNL     1      24.039   7.479  23.224  1.00  0.00     0.208 A 
ATOM      3  C   UNL     1      25.053   8.077  23.989  1.00  0.00     0.238 A 
ATOM      4  O   UNL     1      25.729   9.005  23.474  1.00  0.00    -0.285 OA
ATOM      5  C   UNL     1      25.276   7.651  25.321  1.00  0.00     0.111 A 
ATOM      6  C   UNL     1      26.304   8.156  26.175  1.00  0.00     0.134 A 
ATOM      7  C   UNL     1      26.363   7.736  27.509  1.00  0.00     0.093 A 
ATOM      8  C   UNL     1      25.471   6.781  28.004  1.00  0.00     0.123 A 
ATOM      9  C   UNL     1      24.499   6.242  27.164  1.00  0.00     0.094 A 
ATOM     10  C   UNL     1      24.391   6.670  25.838  1.00  0.00     0.146 A 
ATOM     11  O   UNL     1      23.436   6.145  25.081  1.00  0.00    -0.452 OA
ENDROOT
BRANCH   1  12
ATOM     12  C   UNL     1      22.126   5.834  23.082  1.00  0.00     0.025 A 
ATOM     13  C   UNL     1      22.340   5.246  21.823  1.00  0.00     0.016 A 
ATOM     14  C   UNL     1      21.282   4.646  21.135  1.00  0.00     0.051 A 
ATOM     15  C   UNL     1      19.995   4.635  21.687  1.00  0.00     0.157 A 
ATOM     16  C   UNL     1      20.829   5.840  23.621  1.00  0.00     0.062 A 
ATOM     17  C   UNL     1      19.768   5.238  22.935  1.00  0.00     0.158 A 
BRANCH  15  18
ATOM     18  O   UNL     1      18.943   4.033  20.999  1.00  0.00    -0.504 OA
ATOM     19  H   UNL     1      18.060   4.509  20.856  1.00  0.00     0.293 HD
ENDBRANCH  15  18
BRANCH  17  20
ATOM     20  O   UNL     1      18.497   5.251  23.508  1.00  0.00    -0.504 OA
ATOM     21  H   UNL     1      18.197   4.546  24.170  1.00  0.00     0.293 HD
ENDBRANCH  17  20
ENDBRANCH   1  12
BRANCH   2  22
ATOM     22  O   UNL     1      23.851   7.831  21.885  1.00  0.00    -0.502 OA
ATOM     23  H   UNL     1      23.695   7.143  21.158  1.00  0.00     0.293 HD
ENDBRANCH   2  22
BRANCH   6  24
ATOM     24  O   UNL     1      27.300   9.045  25.759  1.00  0.00    -0.507 OA
ATOM     25  H   UNL     1      27.326  10.029  25.980  1.00  0.00     0.293 HD
ENDBRANCH   6  24
BRANCH   8  26
ATOM     26  O   UNL     1      25.548   6.356  29.328  1.00  0.00    -0.508 OA
ATOM     27  H   UNL     1      25.693   5.382  29.565  1.00  0.00     0.293 HD
ENDBRANCH   8  26
TORSDOF 6
ENDMDL
MODEL 4
REMARK VINA RESULT:    -7.330      8.817     10.569
REMARK INTER + INTRA:          -8.987
REMARK INTER:                  -8.708
REMARK INTRA:                  -0.279
REMARK UNBOUND:                -0.156
REMARK SMILES O=c1c(O)c(-c2ccc(O)c(O)c2)oc2cc(O)cc(O)c12
REMARK SMILES IDX 5 1 3 2 2 3 1 4 22 5 20 6 19 7 17 8 16 9 15 10 14 11 6 12
REMARK SMILES IDX 7 13 8 14 9 15 13 16 11 17 10 18 12 20 4 22 21 24 18 26
REMARK H PARENT 10 19 12 21 4 23 21 25 18 27
REMARK Flexibility Score: inf
ROOT
ATOM      1  C   UNL     1      22.781   5.589  23.654  1.00  0.00     0.180 A 
ATOM      2  C   UNL     1      21.401   5.859  23.697  1.00  0.00     0.208 A 
ATOM      3  C   UNL     1      20.552   5.212  22.786  1.00  0.00     0.238 A 
ATOM      4  O   UNL     1      19.330   5.514  22.781  1.00  0.00    -0.285 OA
ATOM      5  C   UNL     1      21.082   4.261  21.880  1.00  0.00     0.111 A 
ATOM      6  C   UNL     1      20.307   3.512  20.942  1.00  0.00     0.134 A 
ATOM      7  C   UNL     1      20.954   2.677  20.023  1.00  0.00     0.093 A 
ATOM      8  C   UNL     1      22.342   2.515  20.049  1.00  0.00     0.123 A 
ATOM      9  C   UNL     1      23.101   3.199  20.995  1.00  0.00     0.094 A 
ATOM     10  C   UNL     1      22.488   4.069  21.901  1.00  0.00     0.146 A 
ATOM     11  O   UNL     1      23.252   4.717  22.770  1.00  0.00    -0.452 OA
ENDROOT
BRANCH   1  12
ATOM     12  C   UNL     1      23.741   6.242  24.571  1.00  0.00     0.025 A 
ATOM     13  C   UNL     1      24.584   7.279  24.134  1.00  0.00     0.016 A 
ATOM     14  C   UNL     1      25.500   7.863  25.012  1.00  0.00     0.051 A 
ATOM     15  C   UNL     1      25.597   7.412  26.335  1.00  0.00     0.157 A 
ATOM     16  C   UNL     1      23.857   5.779  25.892  1.00  0.00     0.062 A 
ATOM     17  C   UNL     1      24.773   6.363  26.775  1.00  0.00     0.158 A 
BRANCH  15  18
ATOM     18  O   UNL     1      26.511   7.998  27.210  1.00  0.00    -0.504 OA
ATOM     19  H   UNL     1      26.232   8.327  28.127  1.00  0.00     0.293 HD
ENDBRANCH  15  18
BRANCH  17  20
ATOM     20  O   UNL     1      24.851   5.886  28.083  1.00  0.00    -0.504 OA
ATOM     21  H   UNL     1      24.137   6.087  28.773  1.00  0.00     0.293 HD
ENDBRANCH  17  20
ENDBRANCH   1  12
BRANCH   2  22
ATOM     22  O   UNL     1      20.888   6.743  24.649  1.00  0.00    -0.502 OA
ATOM     23  H   UNL     1      21.464   7.429  25.122  1.00  0.00     0.293 HD
ENDBRANCH   2  22
BRANCH   6  24
ATOM     24  O   UNL     1      18.910   3.531  20.888  1.00  0.00    -0.507 OA
ATOM     25  H   UNL     1      18.352   3.072  20.184  1.00  0.00     0.293 HD
ENDBRANCH   6  24
BRANCH   8  26
ATOM     26  O   UNL     1      22.975   1.669  19.141  1.00  0.00    -0.508 OA
ATOM     27  H   UNL     1      22.451   1.021  18.565  1.00  0.00     0.293 HD
ENDBRANCH   8  26
TORSDOF 6
ENDMDL
MODEL 5
REMARK VINA RESULT:    -7.319      1.689      3.772
REMARK INTER + INTRA:          -8.972
REMARK INTER:                  -9.013
REMARK INTRA:                   0.040
REMARK UNBOUND:                -0.156
REMARK SMILES O=c1c(O)c(-c2ccc(O)c(O)c2)oc2cc(O)cc(O)c12
REMARK SMILES IDX 5 1 3 2 2 3 1 4 22 5 20 6 19 7 17 8 16 9 15 10 14 11 6 12
REMARK SMILES IDX 7 13 8 14 9 15 13 16 11 17 10 18 12 20 4 22 21 24 18 26
REMARK H PARENT 10 19 12 21 4 23 21 25 18 27
REMARK Flexibility Score: inf
ROOT
ATOM      1  C   UNL     1      22.596  -5.426  22.370  1.00  0.00     0.180 A 
ATOM      2  C   UNL     1      21.356  -5.997  22.033  1.00  0.00     0.208 A 
ATOM      3  C   UNL     1      20.740  -5.626  20.828  1.00  0.00     0.238 A 
ATOM      4  O   UNL     1      19.596  -6.084  20.569  1.00  0.00    -0.285 OA
ATOM      5  C   UNL     1      21.395  -4.731  19.947  1.00  0.00     0.111 A 
ATOM      6  C   UNL     1      20.885  -4.320  18.678  1.00  0.00     0.134 A 
ATOM      7  C   UNL     1      21.570  -3.348  17.940  1.00  0.00     0.093 A 
ATOM      8  C   UNL     1      22.782  -2.819  18.394  1.00  0.00     0.123 A 
ATOM      9  C   UNL     1      23.316  -3.254  19.604  1.00  0.00     0.094 A 
ATOM     10  C   UNL     1      22.635  -4.195  20.382  1.00  0.00     0.146 A 
ATOM     11  O   UNL     1      23.170  -4.564  21.539  1.00  0.00    -0.452 OA
ENDROOT
BRANCH   1  12
ATOM     12  C   UNL     1      23.300  -5.756  23.629  1.00  0.00     0.025 A 
ATOM     13  C   UNL     1      23.471  -7.089  24.045  1.00  0.00     0.016 A 
ATOM     14  C   UNL     1      24.117  -7.375  25.251  1.00  0.00     0.051 A 
ATOM     15  C   UNL     1      24.591  -6.337  26.063  1.00  0.00     0.157 A 
ATOM     16  C   UNL     1      23.758  -4.719  24.458  1.00  0.00     0.062 A 
ATOM     17  C   UNL     1      24.406  -5.003  25.665  1.00  0.00     0.158 A 
BRANCH  15  18
ATOM     18  O   UNL     1      25.237  -6.627  27.264  1.00  0.00    -0.504 OA
ATOM     19  H   UNL     1      25.973  -7.321  27.316  1.00  0.00     0.293 HD
ENDBRANCH  15  18
BRANCH  17  20
ATOM     20  O   UNL     1      24.860  -3.947  26.455  1.00  0.00    -0.504 OA
ATOM     21  H   UNL     1      25.756  -3.502  26.298  1.00  0.00     0.293 HD
ENDBRANCH  17  20
ENDBRANCH   1  12
BRANCH   2  22
ATOM     22  O   UNL     1      20.762  -6.937  22.881  1.00  0.00    -0.502 OA
ATOM     23  H   UNL     1      20.865  -7.935  22.744  1.00  0.00     0.293 HD
ENDBRANCH   2  22
BRANCH   6  24
ATOM     24  O   UNL     1      19.731  -4.848  18.090  1.00  0.00    -0.507 OA
ATOM     25  H   UNL     1      18.801  -4.775  18.473  1.00  0.00     0.293 HD
ENDBRANCH   6  24
BRANCH   8  26
ATOM     26  O   UNL     1      23.466  -1.865  17.644  1.00  0.00    -0.508 OA
ATOM     27  H   UNL     1      24.235  -2.120  17.036  1.00  0.00     0.293 HD
ENDBRANCH   8  26
TORSDOF 6
ENDMDL
MODEL 6
REMARK VINA RESULT:    -7.285      6.098      8.658
REMARK INTER + INTRA:          -8.932
REMARK INTER:                  -8.607
REMARK INTRA:                  -0.325
REMARK UNBOUND:                -0.156
REMARK SMILES O=c1c(O)c(-c2ccc(O)c(O)c2)oc2cc(O)cc(O)c12
REMARK SMILES IDX 5 1 3 2 2 3 1 4 22 5 20 6 19 7 17 8 16 9 15 10 14 11 6 12
REMARK SMILES IDX 7 13 8 14 9 15 13 16 11 17 10 18 12 20 4 22 21 24 18 26
REMARK H PARENT 10 19 12 21 4 23 21 25 18 27
REMARK Flexibility Score: inf
ROOT
ATOM      1  C   UNL     1      23.370   1.720  22.094  1.00  0.00     0.180 A 
ATOM      2  C   UNL     1      22.402   2.431  21.362  1.00  0.00     0.208 A 
ATOM      3  C   UNL     1      21.953   3.668  21.849  1.00  0.00     0.238 A 
ATOM      4  O   UNL     1      21.032   4.263  21.229  1.00  0.00    -0.285 OA
ATOM      5  C   UNL     1      22.516   4.208  23.031  1.00  0.00     0.111 A 
ATOM      6  C   UNL     1      22.169   5.474  23.593  1.00  0.00     0.134 A 
ATOM      7  C   UNL     1      22.714   5.857  24.824  1.00  0.00     0.093 A 
ATOM      8  C   UNL     1      23.644   5.049  25.483  1.00  0.00     0.123 A 
ATOM      9  C   UNL     1      24.031   3.836  24.916  1.00  0.00     0.094 A 
ATOM     10  C   UNL     1      23.475   3.409  23.708  1.00  0.00     0.146 A 
ATOM     11  O   UNL     1      23.856   2.237  23.216  1.00  0.00    -0.452 OA
ENDROOT
BRANCH   1  12
ATOM     12  C   UNL     1      23.883   0.404  21.652  1.00  0.00     0.025 A 
ATOM     13  C   UNL     1      23.320  -0.796  22.120  1.00  0.00     0.016 A 
ATOM     14  C   UNL     1      23.838  -2.027  21.708  1.00  0.00     0.051 A 
ATOM     15  C   UNL     1      24.931  -2.077  20.834  1.00  0.00     0.157 A 
ATOM     16  C   UNL     1      24.993   0.348  20.793  1.00  0.00     0.062 A 
ATOM     17  C   UNL     1      25.513  -0.883  20.378  1.00  0.00     0.158 A 
BRANCH  15  18
ATOM     18  O   UNL     1      25.444  -3.307  20.424  1.00  0.00    -0.504 OA
ATOM     19  H   UNL     1      26.405  -3.406  20.117  1.00  0.00     0.293 HD
ENDBRANCH  15  18
BRANCH  17  20
ATOM     20  O   UNL     1      26.608  -0.900  19.515  1.00  0.00    -0.504 OA
ATOM     21  H   UNL     1      26.684  -1.564  18.754  1.00  0.00     0.293 HD
ENDBRANCH  17  20
ENDBRANCH   1  12
BRANCH   2  22
ATOM     22  O   UNL     1      21.914   1.917  20.158  1.00  0.00    -0.502 OA
ATOM     23  H   UNL     1      21.940   0.928  19.937  1.00  0.00     0.293 HD
ENDBRANCH   2  22
BRANCH   6  24
ATOM     24  O   UNL     1      21.319   6.398  22.976  1.00  0.00    -0.507 OA
ATOM     25  H   UNL     1      20.986   6.332  22.026  1.00  0.00     0.293 HD
ENDBRANCH   6  24
BRANCH   8  26
ATOM     26  O   UNL     1      24.195   5.445  26.699  1.00  0.00    -0.508 OA
ATOM     27  H   UNL     1      24.763   6.281  26.777  1.00  0.00     0.293 HD
ENDBRANCH   8  26
TORSDOF 6
ENDMDL
MODEL 7
REMARK VINA RESULT:    -7.244      4.568      8.447
REMARK INTER + INTRA:          -8.882
REMARK INTER:                  -8.677
REMARK INTRA:                  -0.205
REMARK UNBOUND:                -0.156
REMARK SMILES O=c1c(O)c(-c2ccc(O)c(O)c2)oc2cc(O)cc(O)c12
REMARK SMILES IDX 5 1 3 2 2 3 1 4 22 5 20 6 19 7 17 8 16 9 15 10 14 11 6 12
REMARK SMILES IDX 7 13 8 14 9 15 13 16 11 17 10 18 12 20 4 22 21 24 18 26
REMARK H PARENT 10 19 12 21 4 23 21 25 18 27
REMARK Flexibility Score: inf
ROOT
ATOM      1  C   UNL     1      24.155  -0.569  18.736  1.00  0.00     0.180 A 
ATOM      2  C   UNL     1      24.479  -0.770  20.089  1.00  0.00     0.208 A 
ATOM      3  C   UNL     1      23.815  -1.777  20.806  1.00  0.00     0.238 A 
ATOM      4  O   UNL     1      24.055  -1.902  22.036  1.00  0.00    -0.285 OA
ATOM      5  C   UNL     1      22.875  -2.608  20.149  1.00  0.00     0.111 A 
ATOM      6  C   UNL     1      22.174  -3.689  20.766  1.00  0.00     0.134 A 
ATOM      7  C   UNL     1      21.189  -4.375  20.045  1.00  0.00     0.093 A 
ATOM      8  C   UNL     1      20.924  -4.062  18.709  1.00  0.00     0.123 A 
ATOM      9  C   UNL     1      21.640  -3.045  18.082  1.00  0.00     0.094 A 
ATOM     10  C   UNL     1      22.603  -2.317  18.787  1.00  0.00     0.146 A 
ATOM     11  O   UNL     1      23.245  -1.343  18.155  1.00  0.00    -0.452 OA
ENDROOT
BRANCH   1  12
ATOM     12  C   UNL     1      24.802   0.481  17.918  1.00  0.00     0.025 A 
ATOM     13  C   UNL     1      24.596   1.847  18.182  1.00  0.00     0.016 A 
ATOM     14  C   UNL     1      25.198   2.820  17.380  1.00  0.00     0.051 A 
ATOM     15  C   UNL     1      26.002   2.445  16.297  1.00  0.00     0.157 A 
ATOM     16  C   UNL     1      25.591   0.111  16.817  1.00  0.00     0.062 A 
ATOM     17  C   UNL     1      26.196   1.084  16.013  1.00  0.00     0.158 A 
BRANCH  15  18
ATOM     18  O   UNL     1      26.602   3.419  15.500  1.00  0.00    -0.504 OA
ATOM     19  H   UNL     1      27.251   4.095  15.887  1.00  0.00     0.293 HD
ENDBRANCH  15  18
BRANCH  17  20
ATOM     20  O   UNL     1      26.985   0.678  14.936  1.00  0.00    -0.504 OA
ATOM     21  H   UNL     1      27.845   1.151  14.690  1.00  0.00     0.293 HD
ENDBRANCH  17  20
ENDBRANCH   1  12
BRANCH   2  22
ATOM     22  O   UNL     1      25.465   0.011  20.699  1.00  0.00    -0.502 OA
ATOM     23  H   UNL     1      26.447  -0.235  20.674  1.00  0.00     0.293 HD
ENDBRANCH   2  22
BRANCH   6  24
ATOM     24  O   UNL     1      22.423  -4.143  22.065  1.00  0.00    -0.507 OA
ATOM     25  H   UNL     1      23.073  -3.722  22.710  1.00  0.00     0.293 HD
ENDBRANCH   6  24
BRANCH   8  26
ATOM     26  O   UNL     1      19.954  -4.761  17.995  1.00  0.00    -0.508 OA
ATOM     27  H   UNL     1      19.187  -4.284  17.536  1.00  0.00     0.293 HD
ENDBRANCH   8  26
TORSDOF 6
ENDMDL
MODEL 8
REMARK VINA RESULT:    -7.233      3.887      7.595
REMARK INTER + INTRA:          -8.869
REMARK INTER:                  -8.537
REMARK INTRA:                  -0.332
REMARK UNBOUND:                -0.156
REMARK SMILES O=c1c(O)c(-c2ccc(O)c(O)c2)oc2cc(O)cc(O)c12
REMARK SMILES IDX 5 1 3 2 2 3 1 4 22 5 20 6 19 7 17 8 16 9 15 10 14 11 6 12
REMARK SMILES IDX 7 13 8 14 9 15 13 16 11 17 10 18 12 20 4 22 21 24 18 26
REMARK H PARENT 10 19 12 21 4 23 21 25 18 27
REMARK Flexibility Score: inf
ROOT
ATOM      1  C   UNL     1      24.424  -5.012  19.977  1.00  0.00     0.180 A 
ATOM      2  C   UNL     1      24.898  -5.989  20.870  1.00  0.00     0.208 A 
ATOM      3  C   UNL     1      26.093  -5.753  21.567  1.00  0.00     0.238 A 
ATOM      4  O   UNL     1      26.550  -6.663  22.307  1.00  0.00    -0.285 OA
ATOM      5  C   UNL     1      26.772  -4.520  21.406  1.00  0.00     0.111 A 
ATOM      6  C   UNL     1      27.968  -4.154  22.096  1.00  0.00     0.134 A 
ATOM      7  C   UNL     1      28.608  -2.951  21.777  1.00  0.00     0.093 A 
ATOM      8  C   UNL     1      28.063  -2.070  20.840  1.00  0.00     0.123 A 
ATOM      9  C   UNL     1      26.867  -2.392  20.202  1.00  0.00     0.094 A 
ATOM     10  C   UNL     1      26.225  -3.604  20.470  1.00  0.00     0.146 A 
ATOM     11  O   UNL     1      25.100  -3.879  19.823  1.00  0.00    -0.452 OA
ENDROOT
BRANCH   1  12
ATOM     12  C   UNL     1      23.180  -5.194  19.197  1.00  0.00     0.025 A 
ATOM     13  C   UNL     1      23.186  -5.841  17.948  1.00  0.00     0.016 A 
ATOM     14  C   UNL     1      22.003  -5.978  17.218  1.00  0.00     0.051 A 
ATOM     15  C   UNL     1      20.800  -5.463  17.717  1.00  0.00     0.157 A 
ATOM     16  C   UNL     1      21.975  -4.660  19.683  1.00  0.00     0.062 A 
ATOM     17  C   UNL     1      20.788  -4.798  18.954  1.00  0.00     0.158 A 
BRANCH  15  18
ATOM     18  O   UNL     1      19.620  -5.604  16.987  1.00  0.00    -0.504 OA
ATOM     19  H   UNL     1      19.630  -5.876  16.011  1.00  0.00     0.293 HD
ENDBRANCH  15  18
BRANCH  17  20
ATOM     20  O   UNL     1      19.609  -4.266  19.475  1.00  0.00    -0.504 OA
ATOM     21  H   UNL     1      18.717  -4.374  19.007  1.00  0.00     0.293 HD
ENDBRANCH  17  20
ENDBRANCH   1  12
BRANCH   2  22
ATOM     22  O   UNL     1      24.173  -7.167  21.072  1.00  0.00    -0.502 OA
ATOM     23  H   UNL     1      24.559  -7.966  21.561  1.00  0.00     0.293 HD
ENDBRANCH   2  22
BRANCH   6  24
ATOM     24  O   UNL     1      28.550  -4.918  23.113  1.00  0.00    -0.507 OA
ATOM     25  H   UNL     1      28.758  -4.583  24.041  1.00  0.00     0.293 HD
ENDBRANCH   6  24
BRANCH   8  26
ATOM     26  O   UNL     1      28.698  -0.867  20.542  1.00  0.00    -0.508 OA
ATOM     27  H   UNL     1      28.311  -0.215  19.869  1.00  0.00     0.293 HD
ENDBRANCH   8  26
TORSDOF 6
ENDMDL
MODEL 9
REMARK VINA RESULT:    -7.179      4.199      7.361
REMARK INTER + INTRA:          -8.804
REMARK INTER:                  -8.544
REMARK INTRA:                  -0.260
REMARK UNBOUND:                -0.156
REMARK SMILES O=c1c(O)c(-c2ccc(O)c(O)c2)oc2cc(O)cc(O)c12
REMARK SMILES IDX 5 1 3 2 2 3 1 4 22 5 20 6 19 7 17 8 16 9 15 10 14 11 6 12
REMARK SMILES IDX 7 13 8 14 9 15 13 16 11 17 10 18 12 20 4 22 21 24 18 26
REMARK H PARENT 10 19 12 21 4 23 21 25 18 27
REMARK Flexibility Score: inf
ROOT
ATOM      1  C   UNL     1      24.415  -3.731  19.572  1.00  0.00     0.180 A 
ATOM      2  C   UNL     1      24.671  -2.397  19.207  1.00  0.00     0.208 A 
ATOM      3  C   UNL     1      25.837  -1.774  19.678  1.00  0.00     0.238 A 
ATOM      4  O   UNL     1      26.022  -0.557  19.410  1.00  0.00    -0.285 OA
ATOM      5  C   UNL     1      26.763  -2.507  20.460  1.00  0.00     0.111 A 
ATOM      6  C   UNL     1      27.999  -1.991  20.954  1.00  0.00     0.134 A 
ATOM      7  C   UNL     1      28.784  -2.776  21.807  1.00  0.00     0.093 A 
ATOM      8  C   UNL     1      28.410  -4.082  22.133  1.00  0.00     0.123 A 
ATOM      9  C   UNL     1      27.233  -4.614  21.612  1.00  0.00     0.094 A 
ATOM     10  C   UNL     1      26.409  -3.842  20.789  1.00  0.00     0.146 A 
ATOM     11  O   UNL     1      25.286  -4.382  20.334  1.00  0.00    -0.452 OA
ENDROOT
BRANCH   1  12
ATOM     12  C   UNL     1      23.201  -4.450  19.127  1.00  0.00     0.025 A 
ATOM     13  C   UNL     1      23.249  -5.393  18.085  1.00  0.00     0.016 A 
ATOM     14  C   UNL     1      22.084  -6.042  17.665  1.00  0.00     0.051 A 
ATOM     15  C   UNL     1      20.855  -5.749  18.269  1.00  0.00     0.157 A 
ATOM     16  C   UNL     1      21.963  -4.145  19.714  1.00  0.00     0.062 A 
ATOM     17  C   UNL     1      20.795  -4.794  19.297  1.00  0.00     0.158 A 
BRANCH  15  18
ATOM     18  O   UNL     1      19.696  -6.400  17.849  1.00  0.00    -0.504 OA
ATOM     19  H   UNL     1      19.574  -6.700  16.889  1.00  0.00     0.293 HD
ENDBRANCH  15  18
BRANCH  17  20
ATOM     20  O   UNL     1      19.585  -4.474  19.913  1.00  0.00    -0.504 OA
ATOM     21  H   UNL     1      19.439  -3.592  20.388  1.00  0.00     0.293 HD
ENDBRANCH  17  20
ENDBRANCH   1  12
BRANCH   2  22
ATOM     22  O   UNL     1      23.783  -1.714  18.372  1.00  0.00    -0.502 OA
ATOM     23  H   UNL     1      23.967  -0.777  18.032  1.00  0.00     0.293 HD
ENDBRANCH   2  22
BRANCH   6  24
ATOM     24  O   UNL     1      28.511  -0.733  20.620  1.00  0.00    -0.507 OA
ATOM     25  H   UNL     1      29.492  -0.501  20.577  1.00  0.00     0.293 HD
ENDBRANCH   6  24
BRANCH   8  26
ATOM     26  O   UNL     1      29.206  -4.862  22.968  1.00  0.00    -0.508 OA
ATOM     27  H   UNL     1      29.893  -5.507  22.597  1.00  0.00     0.293 HD
ENDBRANCH   8  26
TORSDOF 6
ENDMDL
