MODEL 1
REMARK VINA RESULT:    -3.772      0.000      0.000
REMARK INTER + INTRA:          -4.688
REMARK INTER:                  -4.654
REMARK INTRA:                  -0.034
REMARK UNBOUND:                -0.034
REMARK SMILES CCCCCC=O
REMARK SMILES IDX 4 1 3 2 2 3 1 4 5 5 6 6 7 7
REMARK H PARENT
REMARK Flexibility Score: inf
ROOT
ATOM      1  C   UNL     1      24.333  55.925  -9.078  1.00  0.00     0.008 C 
ENDROOT
BRANCH   1   2
ATOM      2  C   UNL     1      25.718  56.577  -9.200  1.00  0.00     0.000 C 
BRANCH   2   3
ATOM      3  C   UNL     1      25.640  58.061  -9.591  1.00  0.00    -0.003 C 
ATOM      4  C   UNL     1      26.852  58.523 -10.400  1.00  0.00     0.004 C 
ENDBRANCH   2   3
ENDBRANCH   1   2
BRANCH   1   5
ATOM      5  C   UNL     1      24.007  55.603  -7.616  1.00  0.00     0.072 C 
BRANCH   5   6
ATOM      6  C   UNL     1      22.779  54.748  -7.514  1.00  0.00     0.224 C 
ATOM      7  O   UNL     1      22.374  54.373  -6.426  1.00  0.00    -0.303 OA
ENDBRANCH   5   6
ENDBRANCH   1   5
TORSDOF 4
ENDMDL
MODEL 2
REMARK VINA RESULT:    -3.603      2.934      4.884
REMARK INTER + INTRA:          -4.479
REMARK INTER:                  -4.440
REMARK INTRA:                  -0.039
REMARK UNBOUND:                -0.034
REMARK SMILES CCCCCC=O
REMARK SMILES IDX 4 1 3 2 2 3 1 4 5 5 6 6 7 7
REMARK H PARENT
REMARK Flexibility Score: inf
ROOT
ATOM      1  C   UNL     1      25.588  56.348  -8.912  1.00  0.00     0.008 C 
ENDROOT
BRANCH   1   2
ATOM      2  C   UNL     1      24.288  55.530  -8.900  1.00  0.00     0.000 C 
BRANCH   2   3
ATOM      3  C   UNL     1      23.721  55.343  -7.484  1.00  0.00    -0.003 C 
ATOM      4  C   UNL     1      22.564  54.346  -7.439  1.00  0.00     0.004 C 
ENDBRANCH   2   3
ENDBRANCH   1   2
BRANCH   1   5
ATOM      5  C   UNL     1      25.317  57.800  -9.320  1.00  0.00     0.072 C 
BRANCH   5   6
ATOM      6  C   UNL     1      26.474  58.369 -10.086  1.00  0.00     0.224 C 
ATOM      7  O   UNL     1      26.684  59.571 -10.088  1.00  0.00    -0.303 OA
ENDBRANCH   5   6
ENDBRANCH   1   5
TORSDOF 4
ENDMDL
MODEL 3
REMARK VINA RESULT:    -3.532      0.859      1.578
REMARK INTER + INTRA:          -4.392
REMARK INTER:                  -4.362
REMARK INTRA:                  -0.030
REMARK UNBOUND:                -0.034
REMARK SMILES CCCCCC=O
REMARK SMILES IDX 4 1 3 2 2 3 1 4 5 5 6 6 7 7
REMARK H PARENT
REMARK Flexibility Score: inf
ROOT
ATOM      1  C   UNL     1      25.658  56.821  -9.078  1.00  0.00     0.008 C 
ENDROOT
BRANCH   1   2
ATOM      2  C   UNL     1      25.780  58.261  -9.597  1.00  0.00     0.000 C 
BRANCH   2   3
ATOM      3  C   UNL     1      26.935  58.434 -10.596  1.00  0.00    -0.003 C 
ATOM      4  C   UNL     1      27.522  59.845 -10.582  1.00  0.00     0.004 C 
ENDBRANCH   2   3
ENDBRANCH   1   2
BRANCH   1   5
ATOM      5  C   UNL     1      24.187  56.423  -8.909  1.00  0.00     0.072 C 
BRANCH   5   6
ATOM      6  C   UNL     1      24.028  55.406  -7.819  1.00  0.00     0.224 C 
ATOM      7  O   UNL     1      23.037  54.694  -7.776  1.00  0.00    -0.303 OA
ENDBRANCH   5   6
ENDBRANCH   1   5
TORSDOF 4
ENDMDL
MODEL 4
REMARK VINA RESULT:    -3.245     15.863     17.085
REMARK INTER + INTRA:          -4.038
REMARK INTER:                  -3.895
REMARK INTRA:                  -0.143
REMARK UNBOUND:                -0.034
REMARK SMILES CCCCCC=O
REMARK SMILES IDX 4 1 3 2 2 3 1 4 5 5 6 6 7 7
REMARK H PARENT
REMARK Flexibility Score: inf
ROOT
ATOM      1  C   UNL     1      19.308  44.416   0.010  1.00  0.00     0.008 C 
ENDROOT
BRANCH   1   2
ATOM      2  C   UNL     1      17.802  44.118  -0.037  1.00  0.00     0.000 C 
BRANCH   2   3
ATOM      3  C   UNL     1      17.240  43.699   1.331  1.00  0.00    -0.003 C 
ATOM      4  C   UNL     1      15.856  44.286   1.605  1.00  0.00     0.004 C 
ENDBRANCH   2   3
ENDBRANCH   1   2
BRANCH   1   5
ATOM      5  C   UNL     1      19.929  43.893   1.311  1.00  0.00     0.072 C 
BRANCH   5   6
ATOM      6  C   UNL     1      20.894  42.779   1.035  1.00  0.00     0.224 C 
ATOM      7  O   UNL     1      21.132  42.435  -0.112  1.00  0.00    -0.303 OA
ENDBRANCH   5   6
ENDBRANCH   1   5
TORSDOF 4
ENDMDL
MODEL 5
REMARK VINA RESULT:    -3.147     16.646     17.203
REMARK INTER + INTRA:          -3.917
REMARK INTER:                  -3.753
REMARK INTRA:                  -0.164
REMARK UNBOUND:                -0.034
REMARK SMILES CCCCCC=O
REMARK SMILES IDX 4 1 3 2 2 3 1 4 5 5 6 6 7 7
REMARK H PARENT
REMARK Flexibility Score: inf
ROOT
ATOM      1  C   UNL     1      18.623  43.546   1.921  1.00  0.00     0.008 C 
ENDROOT
BRANCH   1   2
ATOM      2  C   UNL     1      19.784  43.838   0.959  1.00  0.00     0.000 C 
BRANCH   2   3
ATOM      3  C   UNL     1      20.930  42.823   1.091  1.00  0.00    -0.003 C 
ATOM      4  C   UNL     1      21.214  42.080  -0.214  1.00  0.00     0.004 C 
ENDBRANCH   2   3
ENDBRANCH   1   2
BRANCH   1   5
ATOM      5  C   UNL     1      17.394  43.043   1.158  1.00  0.00     0.072 C 
BRANCH   5   6
ATOM      6  C   UNL     1      17.572  43.213  -0.321  1.00  0.00     0.224 C 
ATOM      7  O   UNL     1      17.524  42.247  -1.066  1.00  0.00    -0.303 OA
ENDBRANCH   5   6
ENDBRANCH   1   5
TORSDOF 4
ENDMDL
MODEL 6
REMARK VINA RESULT:    -3.138     16.788     17.720
REMARK INTER + INTRA:          -3.906
REMARK INTER:                  -3.685
REMARK INTRA:                  -0.222
REMARK UNBOUND:                -0.034
REMARK SMILES CCCCCC=O
REMARK SMILES IDX 4 1 3 2 2 3 1 4 5 5 6 6 7 7
REMARK H PARENT
REMARK Flexibility Score: inf
ROOT
ATOM      1  C   UNL     1      14.497  43.460 -13.071  1.00  0.00     0.008 C 
ENDROOT
BRANCH   1   2
ATOM      2  C   UNL     1      14.071  42.029 -13.430  1.00  0.00     0.000 C 
BRANCH   2   3
ATOM      3  C   UNL     1      14.898  40.964 -12.693  1.00  0.00    -0.003 C 
ATOM      4  C   UNL     1      16.373  41.342 -12.572  1.00  0.00     0.004 C 
ENDBRANCH   2   3
ENDBRANCH   1   2
BRANCH   1   5
ATOM      5  C   UNL     1      14.591  44.334 -14.326  1.00  0.00     0.072 C 
BRANCH   5   6
ATOM      6  C   UNL     1      15.273  43.600 -15.442  1.00  0.00     0.224 C 
ATOM      7  O   UNL     1      16.491  43.590 -15.523  1.00  0.00    -0.303 OA
ENDBRANCH   5   6
ENDBRANCH   1   5
TORSDOF 4
ENDMDL
MODEL 7
REMARK VINA RESULT:    -3.114     16.621     17.577
REMARK INTER + INTRA:          -3.876
REMARK INTER:                  -3.685
REMARK INTRA:                  -0.191
REMARK UNBOUND:                -0.034
REMARK SMILES CCCCCC=O
REMARK SMILES IDX 4 1 3 2 2 3 1 4 5 5 6 6 7 7
REMARK H PARENT
REMARK Flexibility Score: inf
ROOT
ATOM      1  C   UNL     1      18.762  43.402   1.879  1.00  0.00     0.008 C 
ENDROOT
BRANCH   1   2
ATOM      2  C   UNL     1      17.714  42.518   1.186  1.00  0.00     0.000 C 
BRANCH   2   3
ATOM      3  C   UNL     1      17.657  42.750  -0.332  1.00  0.00    -0.003 C 
ATOM      4  C   UNL     1      17.853  41.464  -1.134  1.00  0.00     0.004 C 
ENDBRANCH   2   3
ENDBRANCH   1   2
BRANCH   1   5
ATOM      5  C   UNL     1      19.895  43.766   0.913  1.00  0.00     0.072 C 
BRANCH   5   6
ATOM      6  C   UNL     1      21.002  42.757   0.978  1.00  0.00     0.224 C 
ATOM      7  O   UNL     1      21.251  42.048   0.015  1.00  0.00    -0.303 OA
ENDBRANCH   5   6
ENDBRANCH   1   5
TORSDOF 4
ENDMDL
MODEL 8
REMARK VINA RESULT:    -3.021     16.783     17.224
REMARK INTER + INTRA:          -3.761
REMARK INTER:                  -3.723
REMARK INTRA:                  -0.038
REMARK UNBOUND:                -0.034
REMARK SMILES CCCCCC=O
REMARK SMILES IDX 4 1 3 2 2 3 1 4 5 5 6 6 7 7
REMARK H PARENT
REMARK Flexibility Score: inf
ROOT
ATOM      1  C   UNL     1      17.473  43.762   0.784  1.00  0.00     0.008 C 
ENDROOT
BRANCH   1   2
ATOM      2  C   UNL     1      18.512  43.504   1.886  1.00  0.00     0.000 C 
BRANCH   2   3
ATOM      3  C   UNL     1      19.934  43.903   1.462  1.00  0.00    -0.003 C 
ATOM      4  C   UNL     1      20.672  42.777   0.738  1.00  0.00     0.004 C 
ENDBRANCH   2   3
ENDBRANCH   1   2
BRANCH   1   5
ATOM      5  C   UNL     1      16.136  44.206   1.386  1.00  0.00     0.072 C 
BRANCH   5   6
ATOM      6  C   UNL     1      15.391  45.100   0.440  1.00  0.00     0.224 C 
ATOM      7  O   UNL     1      14.455  45.777   0.836  1.00  0.00    -0.303 OA
ENDBRANCH   5   6
ENDBRANCH   1   5
TORSDOF 4
ENDMDL
MODEL 9
REMARK VINA RESULT:    -2.987      7.373      8.622
REMARK INTER + INTRA:          -3.720
REMARK INTER:                  -3.605
REMARK INTRA:                  -0.115
REMARK UNBOUND:                -0.034
REMARK SMILES CCCCCC=O
REMARK SMILES IDX 4 1 3 2 2 3 1 4 5 5 6 6 7 7
REMARK H PARENT
REMARK Flexibility Score: inf
ROOT
ATOM      1  C   UNL     1      30.291  57.317 -13.470  1.00  0.00     0.008 C 
ENDROOT
BRANCH   1   2
ATOM      2  C   UNL     1      31.491  56.721 -14.220  1.00  0.00     0.000 C 
BRANCH   2   3
ATOM      3  C   UNL     1      32.708  57.660 -14.229  1.00  0.00    -0.003 C 
ATOM      4  C   UNL     1      34.002  56.954 -13.826  1.00  0.00     0.004 C 
ENDBRANCH   2   3
ENDBRANCH   1   2
BRANCH   1   5
ATOM      5  C   UNL     1      30.503  58.810 -13.196  1.00  0.00     0.072 C 
BRANCH   5   6
ATOM      6  C   UNL     1      30.264  59.131 -11.751  1.00  0.00     0.224 C 
ATOM      7  O   UNL     1      29.141  59.055 -11.278  1.00  0.00    -0.303 OA
ENDBRANCH   5   6
ENDBRANCH   1   5
TORSDOF 4
ENDMDL
