MODEL 1
REMARK VINA RESULT:    -4.392      0.000      0.000
REMARK INTER + INTRA:          -4.781
REMARK INTER:                  -5.419
REMARK INTRA:                   0.638
REMARK UNBOUND:                 0.638
REMARK SMILES C=C1[C@@H]2CC[C@H]3[C@@H]2C(C)(C)CCC[C@@]13C
REMARK SMILES IDX 14 1 6 2 7 3 3 4 2 5 1 6 4 7 5 8 15 9 8 10 9 11 10 12 11 13
REMARK SMILES IDX 13 15 12 16
REMARK H PARENT
REMARK Flexibility Score: 80.00
ROOT
ATOM      1  C   UNL     1       4.011   7.913  15.383  1.00  0.00    -0.008 C 
ATOM      2  C   UNL     1       5.315   8.804  15.376  1.00  0.00     0.003 C 
ATOM      3  C   UNL     1       6.476   7.797  15.509  1.00  0.00     0.006 C 
ATOM      4  C   UNL     1       5.878   7.120  16.743  1.00  0.00     0.019 C 
ATOM      5  C   UNL     1       4.485   6.797  16.280  1.00  0.00    -0.068 C 
ATOM      6  C   UNL     1       3.767   5.740  16.680  1.00  0.00     0.009 C 
ATOM      7  C   UNL     1       5.754   8.324  17.708  1.00  0.00     0.008 C 
ATOM      8  C   UNL     1       5.468   9.509  16.753  1.00  0.00     0.005 C 
ATOM      9  C   UNL     1       2.777   8.625  16.000  1.00  0.00     0.016 C 
ENDROOT
BRANCH   3  10
ATOM     10  C   UNL     1       6.912   6.919  14.258  1.00  0.00    -0.032 C 
ATOM     11  C   UNL     1       7.211   5.455  14.668  1.00  0.00     0.011 C 
ATOM     12  C   UNL     1       8.248   7.496  13.714  1.00  0.00     0.011 C 
BRANCH  10  13
ATOM     13  C   UNL     1       5.928   6.959  13.055  1.00  0.00     0.007 CG0
ATOM     14  G   UNL     1       4.530   6.406  13.319  1.00  0.00     0.000 G0
ENDBRANCH  10  13
ENDBRANCH   3  10
BRANCH   1  15
ATOM     15  C   UNL     1       3.606   7.429  13.965  1.00  0.00     0.011 C 
BRANCH  15  16
ATOM     16  C   UNL     1       4.533   6.404  13.319  1.00  0.00     0.001 CG0
ATOM     17  G   UNL     1       5.928   6.963  13.057  1.00  0.00     0.000 G0
ENDBRANCH  15  16
ENDBRANCH   1  15
TORSDOF 0
ENDMDL
MODEL 2
REMARK VINA RESULT:    -3.924     10.481     12.223
REMARK INTER + INTRA:          -4.203
REMARK INTER:                  -4.835
REMARK INTRA:                   0.632
REMARK UNBOUND:                 0.638
REMARK SMILES C=C1[C@@H]2CC[C@H]3[C@@H]2C(C)(C)CCC[C@@]13C
REMARK SMILES IDX 14 1 6 2 7 3 3 4 2 5 1 6 4 7 5 8 15 9 8 10 9 11 10 12 11 13
REMARK SMILES IDX 13 15 12 16
REMARK H PARENT
REMARK Flexibility Score: 80.00
ROOT
ATOM      1  C   UNL     1      11.931   9.102  23.572  1.00  0.00    -0.008 C 
ATOM      2  C   UNL     1      12.496   9.356  25.025  1.00  0.00     0.003 C 
ATOM      3  C   UNL     1      13.694   8.393  25.151  1.00  0.00     0.006 C 
ATOM      4  C   UNL     1      12.883   7.169  24.723  1.00  0.00     0.019 C 
ATOM      5  C   UNL     1      12.265   7.638  23.435  1.00  0.00    -0.068 C 
ATOM      6  C   UNL     1      11.982   6.854  22.387  1.00  0.00     0.009 C 
ATOM      7  C   UNL     1      11.755   7.179  25.782  1.00  0.00     0.008 C 
ATOM      8  C   UNL     1      11.558   8.688  26.069  1.00  0.00     0.005 C 
ATOM      9  C   UNL     1      10.399   9.327  23.455  1.00  0.00     0.016 C 
ENDROOT
BRANCH   3  10
ATOM     10  C   UNL     1      15.064   8.731  24.418  1.00  0.00    -0.032 C 
ATOM     11  C   UNL     1      15.689   7.469  23.771  1.00  0.00     0.011 C 
ATOM     12  C   UNL     1      16.075   9.209  25.497  1.00  0.00     0.011 C 
BRANCH  10  13
ATOM     13  C   UNL     1      14.985   9.891  23.387  1.00  0.00     0.007 CG0
ATOM     14  G   UNL     1      14.071   9.657  22.188  1.00  0.00     0.000 G0
ENDBRANCH  10  13
ENDBRANCH   3  10
BRANCH   1  15
ATOM     15  C   UNL     1      12.613   9.991  22.498  1.00  0.00     0.011 C 
BRANCH  15  16
ATOM     16  C   UNL     1      14.070   9.659  22.185  1.00  0.00     0.001 CG0
ATOM     17  G   UNL     1      14.990   9.888  23.381  1.00  0.00     0.000 G0
ENDBRANCH  15  16
ENDBRANCH   1  15
TORSDOF 0
ENDMDL
MODEL 3
REMARK VINA RESULT:    -3.923      1.614      4.461
REMARK INTER + INTRA:          -4.202
REMARK INTER:                  -4.835
REMARK INTRA:                   0.632
REMARK UNBOUND:                 0.638
REMARK SMILES C=C1[C@@H]2CC[C@H]3[C@@H]2C(C)(C)CCC[C@@]13C
REMARK SMILES IDX 14 1 6 2 7 3 3 4 2 5 1 6 4 7 5 8 15 9 8 10 9 11 10 12 11 13
REMARK SMILES IDX 13 15 12 16
REMARK H PARENT
REMARK Flexibility Score: 80.00
ROOT
ATOM      1  C   UNL     1       7.474   7.535  12.967  1.00  0.00    -0.008 C 
ATOM      2  C   UNL     1       6.050   7.800  12.339  1.00  0.00     0.003 C 
ATOM      3  C   UNL     1       5.103   6.855  13.107  1.00  0.00     0.006 C 
ATOM      4  C   UNL     1       5.965   5.619  12.847  1.00  0.00     0.019 C 
ATOM      5  C   UNL     1       7.319   6.076  13.314  1.00  0.00    -0.068 C 
ATOM      6  C   UNL     1       8.251   5.286  13.861  1.00  0.00     0.009 C 
ATOM      7  C   UNL     1       6.012   5.613  11.300  1.00  0.00     0.008 C 
ATOM      8  C   UNL     1       5.964   7.119  10.944  1.00  0.00     0.005 C 
ATOM      9  C   UNL     1       8.642   7.738  11.963  1.00  0.00     0.016 C 
ENDROOT
BRANCH   3  10
ATOM     10  C   UNL     1       4.659   7.212  14.591  1.00  0.00    -0.032 C 
ATOM     11  C   UNL     1       4.660   5.959  15.502  1.00  0.00     0.011 C 
ATOM     12  C   UNL     1       3.187   7.708  14.541  1.00  0.00     0.011 C 
BRANCH  10  13
ATOM     13  C   UNL     1       5.459   8.369  15.253  1.00  0.00     0.007 CG0
ATOM     14  G   UNL     1       6.951   8.118  15.453  1.00  0.00     0.000 G0
ENDBRANCH  10  13
ENDBRANCH   3  10
BRANCH   1  15
ATOM     15  C   UNL     1       7.763   8.433  14.200  1.00  0.00     0.011 C 
BRANCH  15  16
ATOM     16  C   UNL     1       6.952   8.124  15.455  1.00  0.00     0.001 CG0
ATOM     17  G   UNL     1       5.459   8.375  15.260  1.00  0.00     0.000 G0
ENDBRANCH  15  16
ENDBRANCH   1  15
TORSDOF 0
ENDMDL
MODEL 4
REMARK VINA RESULT:    -3.893      2.759      4.660
REMARK INTER + INTRA:          -4.166
REMARK INTER:                  -4.795
REMARK INTRA:                   0.629
REMARK UNBOUND:                 0.638
REMARK SMILES C=C1[C@@H]2CC[C@H]3[C@@H]2C(C)(C)CCC[C@@]13C
REMARK SMILES IDX 14 1 6 2 7 3 3 4 2 5 1 6 4 7 5 8 15 9 8 10 9 11 10 12 11 13
REMARK SMILES IDX 13 15 12 16
REMARK H PARENT
REMARK Flexibility Score: 80.00
ROOT
ATOM      1  C   UNL     1       3.699   8.499  16.460  1.00  0.00    -0.008 C 
ATOM      2  C   UNL     1       3.844   7.118  17.211  1.00  0.00     0.003 C 
ATOM      3  C   UNL     1       5.252   7.161  17.840  1.00  0.00     0.006 C 
ATOM      4  C   UNL     1       5.937   7.524  16.523  1.00  0.00     0.019 C 
ATOM      5  C   UNL     1       5.139   8.716  16.071  1.00  0.00    -0.068 C 
ATOM      6  C   UNL     1       5.625   9.744  15.364  1.00  0.00     0.009 C 
ATOM      7  C   UNL     1       5.502   6.338  15.628  1.00  0.00     0.008 C 
ATOM      8  C   UNL     1       4.096   5.988  16.173  1.00  0.00     0.005 C 
ATOM      9  C   UNL     1       2.796   8.426  15.198  1.00  0.00     0.016 C 
ENDROOT
BRANCH   3  10
ATOM     10  C   UNL     1       5.513   8.043  19.137  1.00  0.00    -0.032 C 
ATOM     11  C   UNL     1       6.870   8.787  19.055  1.00  0.00     0.011 C 
ATOM     12  C   UNL     1       5.621   7.080  20.352  1.00  0.00     0.011 C 
BRANCH  10  13
ATOM     13  C   UNL     1       4.369   9.032  19.498  1.00  0.00     0.007 CG0
ATOM     14  G   UNL     1       4.067  10.109  18.460  1.00  0.00     0.000 G0
ENDBRANCH  10  13
ENDBRANCH   3  10
BRANCH   1  15
ATOM     15  C   UNL     1       3.133   9.621  17.370  1.00  0.00     0.011 C 
BRANCH  15  16
ATOM     16  C   UNL     1       4.062  10.116  18.476  1.00  0.00     0.001 CG0
ATOM     17  G   UNL     1       4.374   9.031  19.503  1.00  0.00     0.000 G0
ENDBRANCH  15  16
ENDBRANCH   1  15
TORSDOF 0
ENDMDL
MODEL 5
REMARK VINA RESULT:    -3.764     10.472     12.273
REMARK INTER + INTRA:          -4.006
REMARK INTER:                  -4.641
REMARK INTRA:                   0.635
REMARK UNBOUND:                 0.638
REMARK SMILES C=C1[C@@H]2CC[C@H]3[C@@H]2C(C)(C)CCC[C@@]13C
REMARK SMILES IDX 14 1 6 2 7 3 3 4 2 5 1 6 4 7 5 8 15 9 8 10 9 11 10 12 11 13
REMARK SMILES IDX 13 15 12 16
REMARK H PARENT
REMARK Flexibility Score: 80.00
ROOT
ATOM      1  C   UNL     1      11.809   7.816  23.482  1.00  0.00    -0.008 C 
ATOM      2  C   UNL     1      13.000   7.426  22.521  1.00  0.00     0.003 C 
ATOM      3  C   UNL     1      14.194   8.267  23.020  1.00  0.00     0.006 C 
ATOM      4  C   UNL     1      13.416   9.582  22.970  1.00  0.00     0.019 C 
ATOM      5  C   UNL     1      12.184   9.249  23.764  1.00  0.00    -0.068 C 
ATOM      6  C   UNL     1      11.496  10.116  24.518  1.00  0.00     0.009 C 
ATOM      7  C   UNL     1      12.987   9.614  21.483  1.00  0.00     0.008 C 
ATOM      8  C   UNL     1      12.800   8.115  21.142  1.00  0.00     0.005 C 
ATOM      9  C   UNL     1      10.414   7.739  22.802  1.00  0.00     0.016 C 
ENDROOT
BRANCH   3  10
ATOM     10  C   UNL     1      14.957   7.849  24.350  1.00  0.00    -0.032 C 
ATOM     11  C   UNL     1      15.306   9.085  25.218  1.00  0.00     0.011 C 
ATOM     12  C   UNL     1      16.314   7.213  23.940  1.00  0.00     0.011 C 
BRANCH  10  13
ATOM     13  C   UNL     1      14.239   6.766  25.205  1.00  0.00     0.007 CG0
ATOM     14  G   UNL     1      12.872   7.156  25.761  1.00  0.00     0.000 G0
ENDBRANCH  10  13
ENDBRANCH   3  10
BRANCH   1  15
ATOM     15  C   UNL     1      11.752   6.933  24.757  1.00  0.00     0.011 C 
BRANCH  15  16
ATOM     16  C   UNL     1      12.872   7.151  25.770  1.00  0.00     0.001 CG0
ATOM     17  G   UNL     1      14.241   6.767  25.216  1.00  0.00     0.000 G0
ENDBRANCH  15  16
ENDBRANCH   1  15
TORSDOF 0
ENDMDL
MODEL 6
REMARK VINA RESULT:    -3.746      2.397      4.124
REMARK INTER + INTRA:          -3.984
REMARK INTER:                  -4.619
REMARK INTRA:                   0.635
REMARK UNBOUND:                 0.638
REMARK SMILES C=C1[C@@H]2CC[C@H]3[C@@H]2C(C)(C)CCC[C@@]13C
REMARK SMILES IDX 14 1 6 2 7 3 3 4 2 5 1 6 4 7 5 8 15 9 8 10 9 11 10 12 11 13
REMARK SMILES IDX 13 15 12 16
REMARK H PARENT
REMARK Flexibility Score: 80.00
ROOT
ATOM      1  C   UNL     1       4.053   8.388  16.277  1.00  0.00    -0.008 C 
ATOM      2  C   UNL     1       3.727   9.596  17.239  1.00  0.00     0.003 C 
ATOM      3  C   UNL     1       4.041   9.066  18.654  1.00  0.00     0.006 C 
ATOM      4  C   UNL     1       3.177   7.816  18.484  1.00  0.00     0.019 C 
ATOM      5  C   UNL     1       3.700   7.245  17.195  1.00  0.00    -0.068 C 
ATOM      6  C   UNL     1       3.749   5.941  16.895  1.00  0.00     0.009 C 
ATOM      7  C   UNL     1       1.803   8.450  18.160  1.00  0.00     0.008 C 
ATOM      8  C   UNL     1       2.186   9.737  17.390  1.00  0.00     0.005 C 
ATOM      9  C   UNL     1       3.171   8.357  14.999  1.00  0.00     0.016 C 
ENDROOT
BRANCH   3  10
ATOM     10  C   UNL     1       5.552   8.925  19.129  1.00  0.00    -0.032 C 
ATOM     11  C   UNL     1       5.779   7.610  19.918  1.00  0.00     0.011 C 
ATOM     12  C   UNL     1       5.846  10.081  20.124  1.00  0.00     0.011 C 
BRANCH  10  13
ATOM     13  C   UNL     1       6.611   9.075  18.001  1.00  0.00     0.007 CG0
ATOM     14  G   UNL     1       6.561   8.024  16.896  1.00  0.00     0.000 G0
ENDBRANCH  10  13
ENDBRANCH   3  10
BRANCH   1  15
ATOM     15  C   UNL     1       5.536   8.369  15.817  1.00  0.00     0.011 C 
BRANCH  15  16
ATOM     16  C   UNL     1       6.563   8.021  16.890  1.00  0.00     0.001 CG0
ATOM     17  G   UNL     1       6.623   9.067  18.001  1.00  0.00     0.000 G0
ENDBRANCH  15  16
ENDBRANCH   1  15
TORSDOF 0
ENDMDL
MODEL 7
REMARK VINA RESULT:    -3.718      3.624      5.564
REMARK INTER + INTRA:          -3.950
REMARK INTER:                  -4.588
REMARK INTRA:                   0.638
REMARK UNBOUND:                 0.638
REMARK SMILES C=C1[C@@H]2CC[C@H]3[C@@H]2C(C)(C)CCC[C@@]13C
REMARK SMILES IDX 14 1 6 2 7 3 3 4 2 5 1 6 4 7 5 8 15 9 8 10 9 11 10 12 11 13
REMARK SMILES IDX 13 15 12 16
REMARK H PARENT
REMARK Flexibility Score: 80.00
ROOT
ATOM      1  C   UNL     1       3.011   9.239  17.307  1.00  0.00    -0.008 C 
ATOM      2  C   UNL     1       2.216   9.934  18.481  1.00  0.00     0.003 C 
ATOM      3  C   UNL     1       2.582   9.118  19.738  1.00  0.00     0.006 C 
ATOM      4  C   UNL     1       2.214   7.780  19.096  1.00  0.00     0.019 C 
ATOM      5  C   UNL     1       2.999   7.819  17.814  1.00  0.00    -0.068 C 
ATOM      6  C   UNL     1       3.515   6.750  17.195  1.00  0.00     0.009 C 
ATOM      7  C   UNL     1       0.736   8.033  18.714  1.00  0.00     0.008 C 
ATOM      8  C   UNL     1       0.713   9.547  18.390  1.00  0.00     0.005 C 
ATOM      9  C   UNL     1       2.295   9.335  15.932  1.00  0.00     0.016 C 
ENDROOT
BRANCH   3  10
ATOM     10  C   UNL     1       4.007   9.304  20.417  1.00  0.00    -0.032 C 
ATOM     11  C   UNL     1       4.612   7.945  20.852  1.00  0.00     0.011 C 
ATOM     12  C   UNL     1       3.808  10.125  21.721  1.00  0.00     0.011 C 
BRANCH  10  13
ATOM     13  C   UNL     1       5.033  10.114  19.575  1.00  0.00     0.007 CG0
ATOM     14  G   UNL     1       5.428   9.500  18.235  1.00  0.00     0.000 G0
ENDBRANCH  10  13
ENDBRANCH   3  10
BRANCH   1  15
ATOM     15  C   UNL     1       4.441   9.814  17.126  1.00  0.00     0.011 C 
BRANCH  15  16
ATOM     16  C   UNL     1       5.438   9.486  18.234  1.00  0.00     0.001 CG0
ATOM     17  G   UNL     1       5.046  10.106  19.572  1.00  0.00     0.000 G0
ENDBRANCH  15  16
ENDBRANCH   1  15
TORSDOF 0
ENDMDL
MODEL 8
REMARK VINA RESULT:    -3.696     11.155     12.974
REMARK INTER + INTRA:          -3.922
REMARK INTER:                  -4.557
REMARK INTRA:                   0.635
REMARK UNBOUND:                 0.638
REMARK SMILES C=C1[C@@H]2CC[C@H]3[C@@H]2C(C)(C)CCC[C@@]13C
REMARK SMILES IDX 14 1 6 2 7 3 3 4 2 5 1 6 4 7 5 8 15 9 8 10 9 11 10 12 11 13
REMARK SMILES IDX 13 15 12 16
REMARK H PARENT
REMARK Flexibility Score: 80.00
ROOT
ATOM      1  C   UNL     1      12.066   8.018  25.874  1.00  0.00    -0.008 C 
ATOM      2  C   UNL     1      13.539   7.798  26.398  1.00  0.00     0.003 C 
ATOM      3  C   UNL     1      14.377   7.568  25.124  1.00  0.00     0.006 C 
ATOM      4  C   UNL     1      13.456   6.468  24.597  1.00  0.00     0.019 C 
ATOM      5  C   UNL     1      12.108   7.132  24.655  1.00  0.00    -0.068 C 
ATOM      6  C   UNL     1      11.097   6.895  23.810  1.00  0.00     0.009 C 
ATOM      7  C   UNL     1      13.500   5.460  25.770  1.00  0.00     0.008 C 
ATOM      8  C   UNL     1      13.663   6.374  27.010  1.00  0.00     0.005 C 
ATOM      9  C   UNL     1      10.975   7.532  26.867  1.00  0.00     0.016 C 
ENDROOT
BRANCH   3  10
ATOM     10  C   UNL     1      14.754   8.799  24.191  1.00  0.00    -0.032 C 
ATOM     11  C   UNL     1      14.619   8.437  22.690  1.00  0.00     0.011 C 
ATOM     12  C   UNL     1      16.255   9.128  24.422  1.00  0.00     0.011 C 
BRANCH  10  13
ATOM     13  C   UNL     1      13.992  10.117  24.505  1.00  0.00     0.007 CG0
ATOM     14  G   UNL     1      12.477  10.069  24.327  1.00  0.00     0.000 G0
ENDBRANCH  10  13
ENDBRANCH   3  10
BRANCH   1  15
ATOM     15  C   UNL     1      11.762   9.504  25.543  1.00  0.00     0.011 C 
BRANCH  15  16
ATOM     16  C   UNL     1      12.480  10.077  24.324  1.00  0.00     0.001 CG0
ATOM     17  G   UNL     1      13.995  10.115  24.505  1.00  0.00     0.000 G0
ENDBRANCH  15  16
ENDBRANCH   1  15
TORSDOF 0
ENDMDL
MODEL 9
REMARK VINA RESULT:    -3.659      3.236      5.619
REMARK INTER + INTRA:          -3.877
REMARK INTER:                  -4.506
REMARK INTRA:                   0.629
REMARK UNBOUND:                 0.638
REMARK SMILES C=C1[C@@H]2CC[C@H]3[C@@H]2C(C)(C)CCC[C@@]13C
REMARK SMILES IDX 14 1 6 2 7 3 3 4 2 5 1 6 4 7 5 8 15 9 8 10 9 11 10 12 11 13
REMARK SMILES IDX 13 15 12 16
REMARK H PARENT
REMARK Flexibility Score: 80.00
ROOT
ATOM      1  C   UNL     1       6.316   7.786  19.875  1.00  0.00    -0.008 C 
ATOM      2  C   UNL     1       4.958   7.478  20.619  1.00  0.00     0.003 C 
ATOM      3  C   UNL     1       4.016   8.629  20.207  1.00  0.00     0.006 C 
ATOM      4  C   UNL     1       5.012   9.718  20.606  1.00  0.00     0.019 C 
ATOM      5  C   UNL     1       6.254   9.293  19.872  1.00  0.00    -0.068 C 
ATOM      6  C   UNL     1       7.183  10.125  19.386  1.00  0.00     0.009 C 
ATOM      7  C   UNL     1       5.243   9.374  22.097  1.00  0.00     0.008 C 
ATOM      8  C   UNL     1       5.100   7.833  22.126  1.00  0.00     0.005 C 
ATOM      9  C   UNL     1       7.570   7.291  20.644  1.00  0.00     0.016 C 
ENDROOT
BRANCH   3  10
ATOM     10  C   UNL     1       3.369   8.642  18.755  1.00  0.00    -0.032 C 
ATOM     11  C   UNL     1       3.369  10.067  18.146  1.00  0.00     0.011 C 
ATOM     12  C   UNL     1       1.877   8.233  18.896  1.00  0.00     0.011 C 
BRANCH  10  13
ATOM     13  C   UNL     1       3.982   7.621  17.755  1.00  0.00     0.007 CG0
ATOM     14  G   UNL     1       5.456   7.822  17.416  1.00  0.00     0.000 G0
ENDBRANCH  10  13
ENDBRANCH   3  10
BRANCH   1  15
ATOM     15  C   UNL     1       6.373   7.172  18.450  1.00  0.00     0.011 C 
BRANCH  15  16
ATOM     16  C   UNL     1       5.454   7.808  17.412  1.00  0.00     0.001 CG0
ATOM     17  G   UNL     1       3.977   7.618  17.745  1.00  0.00     0.000 G0
ENDBRANCH  15  16
ENDBRANCH   1  15
TORSDOF 0
ENDMDL
