MODEL 1
REMARK VINA RESULT:    -3.598      0.000      0.000
REMARK INTER + INTRA:          -6.202
REMARK INTER:                  -5.492
REMARK INTRA:                  -0.710
REMARK UNBOUND:                -0.710
REMARK SMILES CCCCCCCCCCC(=O)[O-]
REMARK SMILES IDX 7 1 8 2 9 3 10 4 11 5 12 6 13 7 6 8 5 9 4 10 3 11 2 12 1 13
REMARK H PARENT
REMARK Flexibility Score: inf
ROOT
ATOM      1  C   UNL     1      -0.900   6.115   8.984  1.00  0.00     0.000 C 
ENDROOT
BRANCH   1   2
ATOM      2  C   UNL     1      -0.248   5.144   9.990  1.00  0.00     0.000 C 
BRANCH   2   3
ATOM      3  C   UNL     1      -0.727   3.685   9.894  1.00  0.00     0.006 C 
BRANCH   3   4
ATOM      4  C   UNL     1      -2.254   3.555   9.945  1.00  0.00     0.053 C 
BRANCH   4   5
ATOM      5  C   UNL     1      -2.690   2.274   9.308  1.00  0.00     0.041 C 
ATOM      6  O   UNL     1      -1.887   1.614   8.597  1.00  0.00    -0.550 OA
ATOM      7  O   UNL     1      -3.999   1.834   9.456  1.00  0.00    -0.550 OA
ENDBRANCH   4   5
ENDBRANCH   3   4
ENDBRANCH   2   3
ENDBRANCH   1   2
BRANCH   1   8
ATOM      8  C   UNL     1      -1.102   7.553   9.495  1.00  0.00     0.000 C 
BRANCH   8   9
ATOM      9  C   UNL     1      -0.534   8.613   8.535  1.00  0.00    -0.000 C 
BRANCH   9  10
ATOM     10  C   UNL     1       0.427   8.013   7.497  1.00  0.00    -0.000 C 
BRANCH  10  11
ATOM     11  C   UNL     1       1.781   8.742   7.450  1.00  0.00    -0.000 C 
BRANCH  11  12
ATOM     12  C   UNL     1       2.933   7.879   7.988  1.00  0.00    -0.003 C 
ATOM     13  C   UNL     1       2.717   7.443   9.437  1.00  0.00     0.004 C 
ENDBRANCH  11  12
ENDBRANCH  10  11
ENDBRANCH   9  10
ENDBRANCH   8   9
ENDBRANCH   1   8
TORSDOF 9
ENDMDL
MODEL 2
REMARK VINA RESULT:    -3.580      1.273      1.763
REMARK INTER + INTRA:          -6.173
REMARK INTER:                  -5.695
REMARK INTRA:                  -0.478
REMARK UNBOUND:                -0.710
REMARK SMILES CCCCCCCCCCC(=O)[O-]
REMARK SMILES IDX 7 1 8 2 9 3 10 4 11 5 12 6 13 7 6 8 5 9 4 10 3 11 2 12 1 13
REMARK H PARENT
REMARK Flexibility Score: inf
ROOT
ATOM      1  C   UNL     1      -2.139   5.571   9.347  1.00  0.00     0.000 C 
ENDROOT
BRANCH   1   2
ATOM      2  C   UNL     1      -1.449   4.228   9.034  1.00  0.00     0.000 C 
BRANCH   2   3
ATOM      3  C   UNL     1      -1.965   3.024   9.841  1.00  0.00     0.006 C 
BRANCH   3   4
ATOM      4  C   UNL     1      -2.433   1.866   8.950  1.00  0.00     0.053 C 
BRANCH   4   5
ATOM      5  C   UNL     1      -3.923   1.747   8.989  1.00  0.00     0.041 C 
ATOM      6  O   UNL     1      -4.482   0.674   8.637  1.00  0.00    -0.550 OA
ATOM      7  O   UNL     1      -4.699   2.835   9.367  1.00  0.00    -0.550 OA
ENDBRANCH   4   5
ENDBRANCH   3   4
ENDBRANCH   2   3
ENDBRANCH   1   2
BRANCH   1   8
ATOM      8  C   UNL     1      -1.190   6.765   9.561  1.00  0.00     0.000 C 
BRANCH   8   9
ATOM      9  C   UNL     1       0.294   6.375   9.445  1.00  0.00    -0.000 C 
BRANCH   9  10
ATOM     10  C   UNL     1       1.199   7.581   9.148  1.00  0.00    -0.000 C 
BRANCH  10  11
ATOM     11  C   UNL     1       0.849   8.272   7.818  1.00  0.00    -0.000 C 
BRANCH  11  12
ATOM     12  C   UNL     1       2.085   8.516   6.939  1.00  0.00    -0.003 C 
ATOM     13  C   UNL     1       3.360   7.918   7.535  1.00  0.00     0.004 C 
ENDBRANCH  11  12
ENDBRANCH  10  11
ENDBRANCH   9  10
ENDBRANCH   8   9
ENDBRANCH   1   8
TORSDOF 9
ENDMDL
MODEL 3
REMARK VINA RESULT:    -3.449      3.638      6.640
REMARK INTER + INTRA:          -5.974
REMARK INTER:                  -5.426
REMARK INTRA:                  -0.548
REMARK UNBOUND:                -0.710
REMARK SMILES CCCCCCCCCCC(=O)[O-]
REMARK SMILES IDX 7 1 8 2 9 3 10 4 11 5 12 6 13 7 6 8 5 9 4 10 3 11 2 12 1 13
REMARK H PARENT
REMARK Flexibility Score: inf
ROOT
ATOM      1  C   UNL     1      -0.822   6.702   8.977  1.00  0.00     0.000 C 
ENDROOT
BRANCH   1   2
ATOM      2  C   UNL     1       0.622   6.396   9.427  1.00  0.00     0.000 C 
BRANCH   2   3
ATOM      3  C   UNL     1       1.576   7.603   9.428  1.00  0.00     0.006 C 
BRANCH   3   4
ATOM      4  C   UNL     1       1.324   8.563   8.259  1.00  0.00     0.053 C 
BRANCH   4   5
ATOM      5  C   UNL     1       2.241   8.251   7.120  1.00  0.00     0.041 C 
ATOM      6  O   UNL     1       1.903   8.531   5.939  1.00  0.00    -0.550 OA
ATOM      7  O   UNL     1       3.448   7.606   7.355  1.00  0.00    -0.550 OA
ENDBRANCH   4   5
ENDBRANCH   3   4
ENDBRANCH   2   3
ENDBRANCH   1   2
BRANCH   1   8
ATOM      8  C   UNL     1      -1.793   5.508   9.027  1.00  0.00     0.000 C 
BRANCH   8   9
ATOM      9  C   UNL     1      -1.250   4.332   9.857  1.00  0.00    -0.000 C 
BRANCH   9  10
ATOM     10  C   UNL     1      -1.507   2.972   9.189  1.00  0.00    -0.000 C 
BRANCH  10  11
ATOM     11  C   UNL     1      -2.645   2.185   9.861  1.00  0.00    -0.000 C 
BRANCH  11  12
ATOM     12  C   UNL     1      -3.936   2.191   9.028  1.00  0.00    -0.003 C 
ATOM     13  C   UNL     1      -4.886   3.322   9.422  1.00  0.00     0.004 C 
ENDBRANCH  11  12
ENDBRANCH  10  11
ENDBRANCH   9  10
ENDBRANCH   8   9
ENDBRANCH   1   8
TORSDOF 9
ENDMDL
MODEL 4
REMARK VINA RESULT:    -3.365      4.527      6.924
REMARK INTER + INTRA:          -5.846
REMARK INTER:                  -5.162
REMARK INTRA:                  -0.684
REMARK UNBOUND:                -0.710
REMARK SMILES CCCCCCCCCCC(=O)[O-]
REMARK SMILES IDX 7 1 8 2 9 3 10 4 11 5 12 6 13 7 6 8 5 9 4 10 3 11 2 12 1 13
REMARK H PARENT
REMARK Flexibility Score: inf
ROOT
ATOM      1  C   UNL     1       0.774   8.073   7.218  1.00  0.00     0.000 C 
ENDROOT
BRANCH   1   2
ATOM      2  C   UNL     1       2.174   8.652   6.932  1.00  0.00     0.000 C 
BRANCH   2   3
ATOM      3  C   UNL     1       3.343   7.885   7.575  1.00  0.00     0.006 C 
BRANCH   3   4
ATOM      4  C   UNL     1       3.888   8.575   8.832  1.00  0.00     0.053 C 
BRANCH   4   5
ATOM      5  C   UNL     1       5.346   8.868   8.676  1.00  0.00     0.041 C 
ATOM      6  O   UNL     1       5.992   8.376   7.713  1.00  0.00    -0.550 OA
ATOM      7  O   UNL     1       6.005   9.644   9.621  1.00  0.00    -0.550 OA
ENDBRANCH   4   5
ENDBRANCH   3   4
ENDBRANCH   2   3
ENDBRANCH   1   2
BRANCH   1   8
ATOM      8  C   UNL     1       0.029   8.708   8.407  1.00  0.00     0.000 C 
BRANCH   8   9
ATOM      9  C   UNL     1       0.121   7.863   9.689  1.00  0.00    -0.000 C 
BRANCH   9  10
ATOM     10  C   UNL     1       0.346   6.371   9.396  1.00  0.00    -0.000 C 
BRANCH  10  11
ATOM     11  C   UNL     1      -0.676   5.466  10.107  1.00  0.00    -0.000 C 
BRANCH  11  12
ATOM     12  C   UNL     1      -1.493   4.615   9.122  1.00  0.00    -0.003 C 
ATOM     13  C   UNL     1      -1.487   3.129   9.481  1.00  0.00     0.004 C 
ENDBRANCH  11  12
ENDBRANCH  10  11
ENDBRANCH   9  10
ENDBRANCH   8   9
ENDBRANCH   1   8
TORSDOF 9
ENDMDL
MODEL 5
REMARK VINA RESULT:    -3.350      1.708      2.420
REMARK INTER + INTRA:          -5.824
REMARK INTER:                  -5.401
REMARK INTRA:                  -0.422
REMARK UNBOUND:                -0.710
REMARK SMILES CCCCCCCCCCC(=O)[O-]
REMARK SMILES IDX 7 1 8 2 9 3 10 4 11 5 12 6 13 7 6 8 5 9 4 10 3 11 2 12 1 13
REMARK H PARENT
REMARK Flexibility Score: inf
ROOT
ATOM      1  C   UNL     1       0.252   7.456   9.427  1.00  0.00     0.000 C 
ENDROOT
BRANCH   1   2
ATOM      2  C   UNL     1      -0.885   6.551   8.910  1.00  0.00     0.000 C 
BRANCH   2   3
ATOM      3  C   UNL     1      -1.381   5.490   9.908  1.00  0.00     0.006 C 
BRANCH   3   4
ATOM      4  C   UNL     1      -2.157   4.353   9.232  1.00  0.00     0.053 C 
BRANCH   4   5
ATOM      5  C   UNL     1      -1.469   3.044   9.460  1.00  0.00     0.041 C 
ATOM      6  O   UNL     1      -0.299   3.016   9.924  1.00  0.00    -0.550 OA
ATOM      7  O   UNL     1      -2.101   1.857   9.113  1.00  0.00    -0.550 OA
ENDBRANCH   4   5
ENDBRANCH   3   4
ENDBRANCH   2   3
ENDBRANCH   1   2
BRANCH   1   8
ATOM      8  C   UNL     1       1.670   6.869   9.299  1.00  0.00     0.000 C 
BRANCH   8   9
ATOM      9  C   UNL     1       2.723   7.930   8.932  1.00  0.00    -0.000 C 
BRANCH   9  10
ATOM     10  C   UNL     1       2.307   8.780   7.722  1.00  0.00    -0.000 C 
BRANCH  10  11
ATOM     11  C   UNL     1       3.223   9.997   7.507  1.00  0.00    -0.000 C 
BRANCH  11  12
ATOM     12  C   UNL     1       4.326  10.098   8.572  1.00  0.00    -0.003 C 
ATOM     13  C   UNL     1       5.730  10.024   7.975  1.00  0.00     0.004 C 
ENDBRANCH  11  12
ENDBRANCH  10  11
ENDBRANCH   9  10
ENDBRANCH   8   9
ENDBRANCH   1   8
TORSDOF 9
ENDMDL
MODEL 6
REMARK VINA RESULT:    -3.342      1.514      2.303
REMARK INTER + INTRA:          -5.811
REMARK INTER:                  -5.367
REMARK INTRA:                  -0.444
REMARK UNBOUND:                -0.710
REMARK SMILES CCCCCCCCCCC(=O)[O-]
REMARK SMILES IDX 7 1 8 2 9 3 10 4 11 5 12 6 13 7 6 8 5 9 4 10 3 11 2 12 1 13
REMARK H PARENT
REMARK Flexibility Score: inf
ROOT
ATOM      1  C   UNL     1      -2.867   5.877   9.257  1.00  0.00     0.000 C 
ENDROOT
BRANCH   1   2
ATOM      2  C   UNL     1      -3.910   4.767   9.011  1.00  0.00     0.000 C 
BRANCH   2   3
ATOM      3  C   UNL     1      -3.899   3.622  10.038  1.00  0.00     0.006 C 
BRANCH   3   4
ATOM      4  C   UNL     1      -3.825   2.237   9.385  1.00  0.00     0.053 C 
BRANCH   4   5
ATOM      5  C   UNL     1      -2.418   1.919   8.991  1.00  0.00     0.041 C 
ATOM      6  O   UNL     1      -1.454   2.372   9.664  1.00  0.00    -0.550 OA
ATOM      7  O   UNL     1      -2.167   1.165   7.852  1.00  0.00    -0.550 OA
ENDBRANCH   4   5
ENDBRANCH   3   4
ENDBRANCH   2   3
ENDBRANCH   1   2
BRANCH   1   8
ATOM      8  C   UNL     1      -1.428   5.535   8.828  1.00  0.00     0.000 C 
BRANCH   8   9
ATOM      9  C   UNL     1      -0.401   6.579   9.299  1.00  0.00    -0.000 C 
BRANCH   9  10
ATOM     10  C   UNL     1      -0.829   8.018   8.967  1.00  0.00    -0.000 C 
BRANCH  10  11
ATOM     11  C   UNL     1       0.359   8.916   8.580  1.00  0.00    -0.000 C 
BRANCH  11  12
ATOM     12  C   UNL     1       1.160   8.355   7.395  1.00  0.00    -0.003 C 
ATOM     13  C   UNL     1       2.547   8.984   7.271  1.00  0.00     0.004 C 
ENDBRANCH  11  12
ENDBRANCH  10  11
ENDBRANCH   9  10
ENDBRANCH   8   9
ENDBRANCH   1   8
TORSDOF 9
ENDMDL
MODEL 7
REMARK VINA RESULT:    -3.327      4.173      6.828
REMARK INTER + INTRA:          -5.788
REMARK INTER:                  -5.434
REMARK INTRA:                  -0.354
REMARK UNBOUND:                -0.710
REMARK SMILES CCCCCCCCCCC(=O)[O-]
REMARK SMILES IDX 7 1 8 2 9 3 10 4 11 5 12 6 13 7 6 8 5 9 4 10 3 11 2 12 1 13
REMARK H PARENT
REMARK Flexibility Score: inf
ROOT
ATOM      1  C   UNL     1       0.397   7.430   8.337  1.00  0.00     0.000 C 
ENDROOT
BRANCH   1   2
ATOM      2  C   UNL     1       0.829   8.262   7.112  1.00  0.00     0.000 C 
BRANCH   2   3
ATOM      3  C   UNL     1       2.292   8.738   7.129  1.00  0.00     0.006 C 
BRANCH   3   4
ATOM      4  C   UNL     1       3.203   7.837   7.971  1.00  0.00     0.053 C 
BRANCH   4   5
ATOM      5  C   UNL     1       4.410   8.593   8.426  1.00  0.00     0.041 C 
ATOM      6  O   UNL     1       5.232   8.058   9.217  1.00  0.00    -0.550 OA
ATOM      7  O   UNL     1       4.604   9.906   8.017  1.00  0.00    -0.550 OA
ENDBRANCH   4   5
ENDBRANCH   3   4
ENDBRANCH   2   3
ENDBRANCH   1   2
BRANCH   1   8
ATOM      8  C   UNL     1      -0.850   7.947   9.077  1.00  0.00     0.000 C 
BRANCH   8   9
ATOM      9  C   UNL     1      -1.817   6.819   9.478  1.00  0.00    -0.000 C 
BRANCH   9  10
ATOM     10  C   UNL     1      -1.325   5.435   9.028  1.00  0.00    -0.000 C 
BRANCH  10  11
ATOM     11  C   UNL     1      -2.069   4.284   9.727  1.00  0.00    -0.000 C 
BRANCH  11  12
ATOM     12  C   UNL     1      -1.514   2.904   9.342  1.00  0.00    -0.003 C 
ATOM     13  C   UNL     1      -2.616   1.891   9.032  1.00  0.00     0.004 C 
ENDBRANCH  11  12
ENDBRANCH  10  11
ENDBRANCH   9  10
ENDBRANCH   8   9
ENDBRANCH   1   8
TORSDOF 9
ENDMDL
MODEL 8
REMARK VINA RESULT:    -3.203      1.844      3.294
REMARK INTER + INTRA:          -5.598
REMARK INTER:                  -5.316
REMARK INTRA:                  -0.282
REMARK UNBOUND:                -0.710
REMARK SMILES CCCCCCCCCCC(=O)[O-]
REMARK SMILES IDX 7 1 8 2 9 3 10 4 11 5 12 6 13 7 6 8 5 9 4 10 3 11 2 12 1 13
REMARK H PARENT
REMARK Flexibility Score: inf
ROOT
ATOM      1  C   UNL     1      -1.438   2.967   9.356  1.00  0.00     0.000 C 
ENDROOT
BRANCH   1   2
ATOM      2  C   UNL     1      -2.783   2.469   9.923  1.00  0.00     0.000 C 
BRANCH   2   3
ATOM      3  C   UNL     1      -3.579   1.536   8.993  1.00  0.00     0.006 C 
BRANCH   3   4
ATOM      4  C   UNL     1      -4.612   0.687   9.743  1.00  0.00     0.053 C 
BRANCH   4   5
ATOM      5  C   UNL     1      -5.995   1.022   9.284  1.00  0.00     0.041 C 
ATOM      6  O   UNL     1      -6.538   2.100   9.643  1.00  0.00    -0.550 OA
ATOM      7  O   UNL     1      -6.705   0.121   8.500  1.00  0.00    -0.550 OA
ENDBRANCH   4   5
ENDBRANCH   3   4
ENDBRANCH   2   3
ENDBRANCH   1   2
BRANCH   1   8
ATOM      8  C   UNL     1      -0.995   4.359   9.843  1.00  0.00     0.000 C 
BRANCH   8   9
ATOM      9  C   UNL     1      -1.319   5.475   8.835  1.00  0.00    -0.000 C 
BRANCH   9  10
ATOM     10  C   UNL     1      -1.057   6.878   9.404  1.00  0.00    -0.000 C 
BRANCH  10  11
ATOM     11  C   UNL     1      -0.317   7.793   8.413  1.00  0.00    -0.000 C 
BRANCH  11  12
ATOM     12  C   UNL     1       1.206   7.765   8.612  1.00  0.00    -0.003 C 
ATOM     13  C   UNL     1       1.964   8.407   7.450  1.00  0.00     0.004 C 
ENDBRANCH  11  12
ENDBRANCH  10  11
ENDBRANCH   9  10
ENDBRANCH   8   9
ENDBRANCH   1   8
TORSDOF 9
ENDMDL
MODEL 9
REMARK VINA RESULT:    -3.149      3.546      6.553
REMARK INTER + INTRA:          -5.516
REMARK INTER:                  -4.698
REMARK INTRA:                  -0.818
REMARK UNBOUND:                -0.710
REMARK SMILES CCCCCCCCCCC(=O)[O-]
REMARK SMILES IDX 7 1 8 2 9 3 10 4 11 5 12 6 13 7 6 8 5 9 4 10 3 11 2 12 1 13
REMARK H PARENT
REMARK Flexibility Score: inf
ROOT
ATOM      1  C   UNL     1      -1.254   4.722   9.822  1.00  0.00     0.000 C 
ENDROOT
BRANCH   1   2
ATOM      2  C   UNL     1      -1.155   5.798   8.721  1.00  0.00     0.000 C 
BRANCH   2   3
ATOM      3  C   UNL     1      -0.498   7.120   9.157  1.00  0.00     0.006 C 
BRANCH   3   4
ATOM      4  C   UNL     1       0.049   7.930   7.976  1.00  0.00     0.053 C 
BRANCH   4   5
ATOM      5  C   UNL     1       1.525   8.128   8.118  1.00  0.00     0.041 C 
ATOM      6  O   UNL     1       2.208   7.327   8.809  1.00  0.00    -0.550 OA
ATOM      7  O   UNL     1       2.139   9.226   7.529  1.00  0.00    -0.550 OA
ENDBRANCH   4   5
ENDBRANCH   3   4
ENDBRANCH   2   3
ENDBRANCH   1   2
BRANCH   1   8
ATOM      8  C   UNL     1      -1.517   3.290   9.320  1.00  0.00     0.000 C 
BRANCH   8   9
ATOM      9  C   UNL     1      -2.710   2.621  10.025  1.00  0.00    -0.000 C 
BRANCH   9  10
ATOM     10  C   UNL     1      -3.982   2.630   9.164  1.00  0.00    -0.000 C 
BRANCH  10  11
ATOM     11  C   UNL     1      -4.949   3.765   9.544  1.00  0.00    -0.000 C 
BRANCH  11  12
ATOM     12  C   UNL     1      -4.833   4.975   8.604  1.00  0.00    -0.003 C 
ATOM     13  C   UNL     1      -4.741   6.301   9.358  1.00  0.00     0.004 C 
ENDBRANCH  11  12
ENDBRANCH  10  11
ENDBRANCH   9  10
ENDBRANCH   8   9
ENDBRANCH   1   8
TORSDOF 9
ENDMDL
