MODEL 1
REMARK VINA RESULT:    -4.909      0.000      0.000
REMARK INTER + INTRA:          -8.345
REMARK INTER:                  -7.062
REMARK INTRA:                  -1.284
REMARK UNBOUND:                -1.284
REMARK SMILES CC(C)=CCCC(C)=CCCC(C)=CCO
REMARK SMILES IDX 10 1 9 2 7 3 8 4 6 5 5 6 4 7 1 8 2 9 3 10 11 11 12 12 14 13
REMARK SMILES IDX 13 14 15 15 16 16
REMARK H PARENT 16 17
REMARK Flexibility Score: inf
ROOT
ATOM      1  C   UNL     1      44.350  43.648  32.519  1.00  0.00     0.032 C 
ENDROOT
BRANCH   1   2
ATOM      2  C   UNL     1      44.968  43.832  33.883  1.00  0.00    -0.028 C 
ATOM      3  C   UNL     1      45.602  42.859  34.576  1.00  0.00    -0.077 C 
ATOM      4  C   UNL     1      45.723  41.449  34.048  1.00  0.00     0.039 C 
BRANCH   3   5
ATOM      5  C   UNL     1      46.189  43.187  35.935  1.00  0.00     0.034 C 
BRANCH   5   6
ATOM      6  C   UNL     1      47.638  42.697  36.067  1.00  0.00     0.032 C 
BRANCH   6   7
ATOM      7  C   UNL     1      47.980  42.339  37.494  1.00  0.00    -0.028 C 
ATOM      8  C   UNL     1      48.422  39.931  36.963  1.00  0.00     0.039 C 
ATOM      9  C   UNL     1      48.304  41.097  37.916  1.00  0.00    -0.080 C 
ATOM     10  C   UNL     1      48.570  40.886  39.384  1.00  0.00     0.039 C 
ENDBRANCH   6   7
ENDBRANCH   5   6
ENDBRANCH   3   5
ENDBRANCH   1   2
BRANCH   1  11
ATOM     11  C   UNL     1      45.176  44.358  31.442  1.00  0.00     0.034 C 
BRANCH  11  12
ATOM     12  C   UNL     1      46.341  43.493  31.000  1.00  0.00    -0.075 C 
ATOM     13  C   UNL     1      47.632  43.852  31.187  1.00  0.00    -0.000 C 
ATOM     14  C   UNL     1      46.054  42.153  30.376  1.00  0.00     0.039 C 
BRANCH  13  15
ATOM     15  C   UNL     1      48.074  45.150  31.805  1.00  0.00     0.183 C 
BRANCH  15  16
ATOM     16  O   UNL     1      48.079  45.034  33.201  1.00  0.00    -0.392 OA
ATOM     17  H   UNL     1      47.430  44.317  33.420  1.00  0.00     0.210 HD
ENDBRANCH  15  16
ENDBRANCH  13  15
ENDBRANCH  11  12
ENDBRANCH   1  11
TORSDOF 8
ENDMDL
MODEL 2
REMARK VINA RESULT:    -4.852      3.046      7.482
REMARK INTER + INTRA:          -8.263
REMARK INTER:                  -7.481
REMARK INTRA:                  -0.782
REMARK UNBOUND:                -1.284
REMARK SMILES CC(C)=CCCC(C)=CCCC(C)=CCO
REMARK SMILES IDX 10 1 9 2 7 3 8 4 6 5 5 6 4 7 1 8 2 9 3 10 11 11 12 12 14 13
REMARK SMILES IDX 13 14 15 15 16 16
REMARK H PARENT 16 17
REMARK Flexibility Score: inf
ROOT
ATOM      1  C   UNL     1      48.770  40.889  37.344  1.00  0.00     0.032 C 
ENDROOT
BRANCH   1   2
ATOM      2  C   UNL     1      47.975  41.941  36.610  1.00  0.00    -0.028 C 
ATOM      3  C   UNL     1      46.934  41.681  35.787  1.00  0.00    -0.077 C 
ATOM      4  C   UNL     1      46.479  40.271  35.492  1.00  0.00     0.039 C 
BRANCH   3   5
ATOM      5  C   UNL     1      46.215  42.838  35.122  1.00  0.00     0.034 C 
BRANCH   5   6
ATOM      6  C   UNL     1      47.127  43.592  34.143  1.00  0.00     0.032 C 
BRANCH   6   7
ATOM      7  C   UNL     1      46.838  43.220  32.708  1.00  0.00    -0.028 C 
ATOM      8  C   UNL     1      48.211  45.093  31.767  1.00  0.00     0.039 C 
ATOM      9  C   UNL     1      47.292  43.902  31.633  1.00  0.00    -0.080 C 
ATOM     10  C   UNL     1      46.874  43.438  30.261  1.00  0.00     0.039 C 
ENDBRANCH   6   7
ENDBRANCH   5   6
ENDBRANCH   3   5
ENDBRANCH   1   2
BRANCH   1  11
ATOM     11  C   UNL     1      48.581  41.017  38.859  1.00  0.00     0.034 C 
BRANCH  11  12
ATOM     12  C   UNL     1      48.003  39.740  39.438  1.00  0.00    -0.075 C 
ATOM     13  C   UNL     1      47.588  39.641  40.721  1.00  0.00    -0.000 C 
ATOM     14  C   UNL     1      47.833  38.546  38.536  1.00  0.00     0.039 C 
BRANCH  13  15
ATOM     15  C   UNL     1      47.682  40.748  41.735  1.00  0.00     0.183 C 
BRANCH  15  16
ATOM     16  O   UNL     1      48.380  40.300  42.864  1.00  0.00    -0.392 OA
ATOM     17  H   UNL     1      48.838  39.464  42.591  1.00  0.00     0.210 HD
ENDBRANCH  15  16
ENDBRANCH  13  15
ENDBRANCH  11  12
ENDBRANCH   1  11
TORSDOF 8
ENDMDL
MODEL 3
REMARK VINA RESULT:    -4.826      1.733      3.017
REMARK INTER + INTRA:          -8.225
REMARK INTER:                  -7.448
REMARK INTRA:                  -0.778
REMARK UNBOUND:                -1.284
REMARK SMILES CC(C)=CCCC(C)=CCCC(C)=CCO
REMARK SMILES IDX 10 1 9 2 7 3 8 4 6 5 5 6 4 7 1 8 2 9 3 10 11 11 12 12 14 13
REMARK SMILES IDX 13 14 15 15 16 16
REMARK H PARENT 16 17
REMARK Flexibility Score: inf
ROOT
ATOM      1  C   UNL     1      46.753  43.815  34.265  1.00  0.00     0.032 C 
ENDROOT
BRANCH   1   2
ATOM      2  C   UNL     1      46.858  42.367  34.676  1.00  0.00    -0.028 C 
ATOM      3  C   UNL     1      47.255  41.943  35.897  1.00  0.00    -0.077 C 
ATOM      4  C   UNL     1      47.675  42.906  36.982  1.00  0.00     0.039 C 
BRANCH   3   5
ATOM      5  C   UNL     1      47.304  40.454  36.179  1.00  0.00     0.034 C 
BRANCH   5   6
ATOM      6  C   UNL     1      48.405  40.097  37.187  1.00  0.00     0.032 C 
BRANCH   6   7
ATOM      7  C   UNL     1      47.875  39.247  38.318  1.00  0.00    -0.028 C 
ATOM      8  C   UNL     1      48.433  40.939  40.079  1.00  0.00     0.039 C 
ATOM      9  C   UNL     1      47.909  39.598  39.622  1.00  0.00    -0.080 C 
ATOM     10  C   UNL     1      47.388  38.618  40.642  1.00  0.00     0.039 C 
ENDBRANCH   6   7
ENDBRANCH   5   6
ENDBRANCH   3   5
ENDBRANCH   1   2
BRANCH   1  11
ATOM     11  C   UNL     1      46.106  43.948  32.883  1.00  0.00     0.034 C 
BRANCH  11  12
ATOM     12  C   UNL     1      47.164  44.074  31.804  1.00  0.00    -0.075 C 
ATOM     13  C   UNL     1      47.143  43.341  30.668  1.00  0.00    -0.000 C 
ATOM     14  C   UNL     1      48.258  45.095  31.977  1.00  0.00     0.039 C 
BRANCH  13  15
ATOM     15  C   UNL     1      46.111  42.294  30.348  1.00  0.00     0.183 C 
BRANCH  15  16
ATOM     16  O   UNL     1      46.433  41.096  30.998  1.00  0.00    -0.392 OA
ATOM     17  H   UNL     1      45.709  40.936  31.657  1.00  0.00     0.210 HD
ENDBRANCH  15  16
ENDBRANCH  13  15
ENDBRANCH  11  12
ENDBRANCH   1  11
TORSDOF 8
ENDMDL
MODEL 4
REMARK VINA RESULT:    -4.786      1.803      2.803
REMARK INTER + INTRA:          -8.168
REMARK INTER:                  -7.511
REMARK INTRA:                  -0.657
REMARK UNBOUND:                -1.284
REMARK SMILES CC(C)=CCCC(C)=CCCC(C)=CCO
REMARK SMILES IDX 10 1 9 2 7 3 8 4 6 5 5 6 4 7 1 8 2 9 3 10 11 11 12 12 14 13
REMARK SMILES IDX 13 14 15 15 16 16
REMARK H PARENT 16 17
REMARK Flexibility Score: inf
ROOT
ATOM      1  C   UNL     1      46.468  42.790  33.792  1.00  0.00     0.032 C 
ENDROOT
BRANCH   1   2
ATOM      2  C   UNL     1      47.146  42.975  35.127  1.00  0.00    -0.028 C 
ATOM      3  C   UNL     1      47.294  42.001  36.054  1.00  0.00    -0.077 C 
ATOM      4  C   UNL     1      46.746  40.609  35.847  1.00  0.00     0.039 C 
BRANCH   3   5
ATOM      5  C   UNL     1      48.008  42.323  37.351  1.00  0.00     0.034 C 
BRANCH   5   6
ATOM      6  C   UNL     1      48.689  41.086  37.954  1.00  0.00     0.032 C 
BRANCH   6   7
ATOM      7  C   UNL     1      48.438  40.975  39.439  1.00  0.00    -0.028 C 
ATOM      8  C   UNL     1      47.511  38.652  39.282  1.00  0.00     0.039 C 
ATOM      9  C   UNL     1      47.882  39.902  40.044  1.00  0.00    -0.080 C 
ATOM     10  C   UNL     1      47.647  39.961  41.532  1.00  0.00     0.039 C 
ENDBRANCH   6   7
ENDBRANCH   5   6
ENDBRANCH   3   5
ENDBRANCH   1   2
BRANCH   1  11
ATOM     11  C   UNL     1      46.190  44.141  33.126  1.00  0.00     0.034 C 
BRANCH  11  12
ATOM     12  C   UNL     1      47.088  44.341  31.921  1.00  0.00    -0.075 C 
ATOM     13  C   UNL     1      46.769  43.891  30.686  1.00  0.00    -0.000 C 
ATOM     14  C   UNL     1      48.366  45.121  32.090  1.00  0.00     0.039 C 
BRANCH  13  15
ATOM     15  C   UNL     1      45.525  43.109  30.360  1.00  0.00     0.183 C 
BRANCH  15  16
ATOM     16  O   UNL     1      44.535  43.973  29.875  1.00  0.00    -0.392 OA
ATOM     17  H   UNL     1      45.013  44.706  29.408  1.00  0.00     0.210 HD
ENDBRANCH  15  16
ENDBRANCH  13  15
ENDBRANCH  11  12
ENDBRANCH   1  11
TORSDOF 8
ENDMDL
MODEL 5
REMARK VINA RESULT:    -4.777      1.511      3.022
REMARK INTER + INTRA:          -8.156
REMARK INTER:                  -6.966
REMARK INTRA:                  -1.190
REMARK UNBOUND:                -1.284
REMARK SMILES CC(C)=CCCC(C)=CCCC(C)=CCO
REMARK SMILES IDX 10 1 9 2 7 3 8 4 6 5 5 6 4 7 1 8 2 9 3 10 11 11 12 12 14 13
REMARK SMILES IDX 13 14 15 15 16 16
REMARK H PARENT 16 17
REMARK Flexibility Score: inf
ROOT
ATOM      1  C   UNL     1      46.853  42.780  34.501  1.00  0.00     0.032 C 
ENDROOT
BRANCH   1   2
ATOM      2  C   UNL     1      47.586  42.886  35.816  1.00  0.00    -0.028 C 
ATOM      3  C   UNL     1      46.987  42.930  37.027  1.00  0.00    -0.077 C 
ATOM      4  C   UNL     1      45.484  42.911  37.178  1.00  0.00     0.039 C 
BRANCH   3   5
ATOM      5  C   UNL     1      47.848  43.026  38.271  1.00  0.00     0.034 C 
BRANCH   5   6
ATOM      6  C   UNL     1      47.870  41.706  39.056  1.00  0.00     0.032 C 
BRANCH   6   7
ATOM      7  C   UNL     1      48.541  40.601  38.275  1.00  0.00    -0.028 C 
ATOM      8  C   UNL     1      46.410  39.337  37.903  1.00  0.00     0.039 C 
ATOM      9  C   UNL     1      47.904  39.517  37.779  1.00  0.00    -0.080 C 
ATOM     10  C   UNL     1      48.721  38.471  37.065  1.00  0.00     0.039 C 
ENDBRANCH   6   7
ENDBRANCH   5   6
ENDBRANCH   3   5
ENDBRANCH   1   2
BRANCH   1  11
ATOM     11  C   UNL     1      46.766  44.144  33.810  1.00  0.00     0.034 C 
BRANCH  11  12
ATOM     12  C   UNL     1      45.395  44.347  33.194  1.00  0.00    -0.075 C 
ATOM     13  C   UNL     1      45.162  44.219  31.868  1.00  0.00    -0.000 C 
ATOM     14  C   UNL     1      44.231  44.653  34.100  1.00  0.00     0.039 C 
BRANCH  13  15
ATOM     15  C   UNL     1      46.217  43.906  30.843  1.00  0.00     0.183 C 
BRANCH  15  16
ATOM     16  O   UNL     1      46.557  45.069  30.140  1.00  0.00    -0.392 OA
ATOM     17  H   UNL     1      47.185  44.785  29.426  1.00  0.00     0.210 HD
ENDBRANCH  15  16
ENDBRANCH  13  15
ENDBRANCH  11  12
ENDBRANCH   1  11
TORSDOF 8
ENDMDL
MODEL 6
REMARK VINA RESULT:    -4.705      2.079      7.024
REMARK INTER + INTRA:          -8.051
REMARK INTER:                  -7.318
REMARK INTRA:                  -0.733
REMARK UNBOUND:                -1.284
REMARK SMILES CC(C)=CCCC(C)=CCCC(C)=CCO
REMARK SMILES IDX 10 1 9 2 7 3 8 4 6 5 5 6 4 7 1 8 2 9 3 10 11 11 12 12 14 13
REMARK SMILES IDX 13 14 15 15 16 16
REMARK H PARENT 16 17
REMARK Flexibility Score: inf
ROOT
ATOM      1  C   UNL     1      47.845  42.176  38.371  1.00  0.00     0.032 C 
ENDROOT
BRANCH   1   2
ATOM      2  C   UNL     1      47.947  42.415  36.885  1.00  0.00    -0.028 C 
ATOM      3  C   UNL     1      46.925  42.834  36.103  1.00  0.00    -0.077 C 
ATOM      4  C   UNL     1      45.540  43.074  36.656  1.00  0.00     0.039 C 
BRANCH   3   5
ATOM      5  C   UNL     1      47.171  43.045  34.622  1.00  0.00     0.034 C 
BRANCH   5   6
ATOM      6  C   UNL     1      46.284  44.158  34.047  1.00  0.00     0.032 C 
BRANCH   6   7
ATOM      7  C   UNL     1      45.994  43.942  32.581  1.00  0.00    -0.028 C 
ATOM      8  C   UNL     1      48.135  45.001  31.825  1.00  0.00     0.039 C 
ATOM      9  C   UNL     1      46.800  44.342  31.573  1.00  0.00    -0.080 C 
ATOM     10  C   UNL     1      46.348  44.101  30.155  1.00  0.00     0.039 C 
ENDBRANCH   6   7
ENDBRANCH   5   6
ENDBRANCH   3   5
ENDBRANCH   1   2
BRANCH   1  11
ATOM     11  C   UNL     1      48.756  41.024  38.805  1.00  0.00     0.034 C 
BRANCH  11  12
ATOM     12  C   UNL     1      47.940  39.787  39.129  1.00  0.00    -0.075 C 
ATOM     13  C   UNL     1      47.891  38.708  38.315  1.00  0.00    -0.000 C 
ATOM     14  C   UNL     1      47.194  39.732  40.436  1.00  0.00     0.039 C 
BRANCH  13  15
ATOM     15  C   UNL     1      48.591  38.611  36.987  1.00  0.00     0.183 C 
BRANCH  15  16
ATOM     16  O   UNL     1      47.722  39.006  35.962  1.00  0.00    -0.392 OA
ATOM     17  H   UNL     1      46.827  39.100  36.380  1.00  0.00     0.210 HD
ENDBRANCH  15  16
ENDBRANCH  13  15
ENDBRANCH  11  12
ENDBRANCH   1  11
TORSDOF 8
ENDMDL
MODEL 7
REMARK VINA RESULT:    -4.702      1.702      3.058
REMARK INTER + INTRA:          -8.047
REMARK INTER:                  -7.312
REMARK INTRA:                  -0.735
REMARK UNBOUND:                -1.284
REMARK SMILES CC(C)=CCCC(C)=CCCC(C)=CCO
REMARK SMILES IDX 10 1 9 2 7 3 8 4 6 5 5 6 4 7 1 8 2 9 3 10 11 11 12 12 14 13
REMARK SMILES IDX 13 14 15 15 16 16
REMARK H PARENT 16 17
REMARK Flexibility Score: inf
ROOT
ATOM      1  C   UNL     1      46.878  42.849  34.208  1.00  0.00     0.032 C 
ENDROOT
BRANCH   1   2
ATOM      2  C   UNL     1      47.411  42.919  35.617  1.00  0.00    -0.028 C 
ATOM      3  C   UNL     1      47.496  41.862  36.458  1.00  0.00    -0.077 C 
ATOM      4  C   UNL     1      47.020  40.484  36.063  1.00  0.00     0.039 C 
BRANCH   3   5
ATOM      5  C   UNL     1      48.064  42.072  37.848  1.00  0.00     0.034 C 
BRANCH   5   6
ATOM      6  C   UNL     1      48.785  40.820  38.368  1.00  0.00     0.032 C 
BRANCH   6   7
ATOM      7  C   UNL     1      48.235  40.370  39.701  1.00  0.00    -0.028 C 
ATOM      8  C   UNL     1      47.624  38.086  38.871  1.00  0.00     0.039 C 
ATOM      9  C   UNL     1      47.683  39.159  39.933  1.00  0.00    -0.080 C 
ATOM     10  C   UNL     1      47.130  38.875  41.306  1.00  0.00     0.039 C 
ENDBRANCH   6   7
ENDBRANCH   5   6
ENDBRANCH   3   5
ENDBRANCH   1   2
BRANCH   1  11
ATOM     11  C   UNL     1      46.679  44.253  33.627  1.00  0.00     0.034 C 
BRANCH  11  12
ATOM     12  C   UNL     1      45.283  44.405  33.054  1.00  0.00    -0.075 C 
ATOM     13  C   UNL     1      45.007  44.229  31.742  1.00  0.00    -0.000 C 
ATOM     14  C   UNL     1      44.144  44.712  33.991  1.00  0.00     0.039 C 
BRANCH  13  15
ATOM     15  C   UNL     1      46.033  43.908  30.691  1.00  0.00     0.183 C 
BRANCH  15  16
ATOM     16  O   UNL     1      46.584  45.093  30.187  1.00  0.00    -0.392 OA
ATOM     17  H   UNL     1      47.230  45.408  30.870  1.00  0.00     0.210 HD
ENDBRANCH  15  16
ENDBRANCH  13  15
ENDBRANCH  11  12
ENDBRANCH   1  11
TORSDOF 8
ENDMDL
MODEL 8
REMARK VINA RESULT:    -4.689      2.060      4.028
REMARK INTER + INTRA:          -8.028
REMARK INTER:                  -7.504
REMARK INTRA:                  -0.524
REMARK UNBOUND:                -1.284
REMARK SMILES CC(C)=CCCC(C)=CCCC(C)=CCO
REMARK SMILES IDX 10 1 9 2 7 3 8 4 6 5 5 6 4 7 1 8 2 9 3 10 11 11 12 12 14 13
REMARK SMILES IDX 13 14 15 15 16 16
REMARK H PARENT 16 17
REMARK Flexibility Score: inf
ROOT
ATOM      1  C   UNL     1      47.296  43.220  35.284  1.00  0.00     0.032 C 
ENDROOT
BRANCH   1   2
ATOM      2  C   UNL     1      47.787  42.025  36.063  1.00  0.00    -0.028 C 
ATOM      3  C   UNL     1      47.944  41.996  37.406  1.00  0.00    -0.077 C 
ATOM      4  C   UNL     1      47.668  43.204  38.270  1.00  0.00     0.039 C 
BRANCH   3   5
ATOM      5  C   UNL     1      48.436  40.721  38.062  1.00  0.00     0.034 C 
BRANCH   5   6
ATOM      6  C   UNL     1      48.663  40.903  39.570  1.00  0.00     0.032 C 
BRANCH   6   7
ATOM      7  C   UNL     1      47.821  39.948  40.383  1.00  0.00    -0.028 C 
ATOM      8  C   UNL     1      48.462  40.980  42.574  1.00  0.00     0.039 C 
ATOM      9  C   UNL     1      47.745  39.951  41.732  1.00  0.00    -0.080 C 
ATOM     10  C   UNL     1      46.900  38.900  42.405  1.00  0.00     0.039 C 
ENDBRANCH   6   7
ENDBRANCH   5   6
ENDBRANCH   3   5
ENDBRANCH   1   2
BRANCH   1  11
ATOM     11  C   UNL     1      46.546  42.782  34.022  1.00  0.00     0.034 C 
BRANCH  11  12
ATOM     12  C   UNL     1      46.404  43.939  33.052  1.00  0.00    -0.075 C 
ATOM     13  C   UNL     1      45.261  44.651  32.924  1.00  0.00    -0.000 C 
ATOM     14  C   UNL     1      47.599  44.351  32.234  1.00  0.00     0.039 C 
BRANCH  13  15
ATOM     15  C   UNL     1      43.991  44.367  33.680  1.00  0.00     0.183 C 
BRANCH  15  16
ATOM     16  O   UNL     1      43.700  45.436  34.538  1.00  0.00    -0.392 OA
ATOM     17  H   UNL     1      42.986  45.114  35.146  1.00  0.00     0.210 HD
ENDBRANCH  15  16
ENDBRANCH  13  15
ENDBRANCH  11  12
ENDBRANCH   1  11
TORSDOF 8
ENDMDL
MODEL 9
REMARK VINA RESULT:    -4.666      1.857      3.709
REMARK INTER + INTRA:          -7.996
REMARK INTER:                  -7.276
REMARK INTRA:                  -0.720
REMARK UNBOUND:                -1.284
REMARK SMILES CC(C)=CCCC(C)=CCCC(C)=CCO
REMARK SMILES IDX 10 1 9 2 7 3 8 4 6 5 5 6 4 7 1 8 2 9 3 10 11 11 12 12 14 13
REMARK SMILES IDX 13 14 15 15 16 16
REMARK H PARENT 16 17
REMARK Flexibility Score: inf
ROOT
ATOM      1  C   UNL     1      47.684  42.867  35.635  1.00  0.00     0.032 C 
ENDROOT
BRANCH   1   2
ATOM      2  C   UNL     1      47.444  42.789  37.123  1.00  0.00    -0.028 C 
ATOM      3  C   UNL     1      47.985  41.856  37.940  1.00  0.00    -0.077 C 
ATOM      4  C   UNL     1      48.877  40.755  37.417  1.00  0.00     0.039 C 
BRANCH   3   5
ATOM      5  C   UNL     1      47.668  41.903  39.421  1.00  0.00     0.034 C 
BRANCH   5   6
ATOM      6  C   UNL     1      48.612  41.009  40.238  1.00  0.00     0.032 C 
BRANCH   6   7
ATOM      7  C   UNL     1      47.872  40.244  41.310  1.00  0.00    -0.028 C 
ATOM      8  C   UNL     1      47.493  38.239  39.855  1.00  0.00     0.039 C 
ATOM      9  C   UNL     1      47.338  39.014  41.143  1.00  0.00    -0.080 C 
ATOM     10  C   UNL     1      46.581  38.399  42.292  1.00  0.00     0.039 C 
ENDBRANCH   6   7
ENDBRANCH   5   6
ENDBRANCH   3   5
ENDBRANCH   1   2
BRANCH   1  11
ATOM     11  C   UNL     1      46.489  43.504  34.920  1.00  0.00     0.034 C 
BRANCH  11  12
ATOM     12  C   UNL     1      46.308  42.905  33.538  1.00  0.00    -0.075 C 
ATOM     13  C   UNL     1      46.845  43.456  32.425  1.00  0.00    -0.000 C 
ATOM     14  C   UNL     1      45.544  41.615  33.402  1.00  0.00     0.039 C 
BRANCH  13  15
ATOM     15  C   UNL     1      47.641  44.732  32.405  1.00  0.00     0.183 C 
BRANCH  15  16
ATOM     16  O   UNL     1      47.762  45.196  31.088  1.00  0.00    -0.392 OA
ATOM     17  H   UNL     1      48.730  45.172  30.876  1.00  0.00     0.210 HD
ENDBRANCH  15  16
ENDBRANCH  13  15
ENDBRANCH  11  12
ENDBRANCH   1  11
TORSDOF 8
ENDMDL
