MODEL 1
REMARK VINA RESULT:     8.721      0.000      0.000
REMARK INTER + INTRA:          13.272
REMARK INTER:                  11.780
REMARK INTRA:                   1.492
REMARK UNBOUND:                 1.492
REMARK SMILES COc1ccc(-c2cc(=O)c3c(OC)c(OC)c(OC)c(OC)c3o2)cc1
REMARK SMILES IDX 7 1 8 2 9 3 10 4 11 5 24 6 25 7 21 8 18 9 15 10 12 11 6 12
REMARK SMILES IDX 3 13 4 14 27 15 5 16 26 17 2 18 1 19 22 20 23 21 13 22 14 23
REMARK SMILES IDX 19 24 20 25 16 26 17 27
REMARK H PARENT
REMARK Flexibility Score: inf
ROOT
ATOM      1  C   UNL     1      36.533 -30.942  -3.504  1.00  0.00     0.138 A 
ATOM      2  C   UNL     1      35.461 -30.076  -3.744  1.00  0.00     0.100 A 
ATOM      3  C   UNL     1      35.369 -29.428  -4.972  1.00  0.00     0.197 A 
ATOM      4  O   UNL     1      34.384 -28.672  -5.184  1.00  0.00    -0.289 OA
ATOM      5  C   UNL     1      36.364 -29.642  -5.953  1.00  0.00     0.115 A 
ATOM      6  C   UNL     1      37.402 -30.556  -5.653  1.00  0.00     0.188 A 
ATOM      7  O   UNL     1      37.433 -31.149  -4.462  1.00  0.00    -0.452 OA
ATOM      8  C   UNL     1      38.409 -30.822  -6.608  1.00  0.00     0.209 A 
ATOM      9  C   UNL     1      38.367 -30.200  -7.866  1.00  0.00     0.211 A 
ATOM     10  C   UNL     1      37.318 -29.303  -8.186  1.00  0.00     0.208 A 
ATOM     11  C   UNL     1      36.355 -28.982  -7.203  1.00  0.00     0.179 A 
ENDROOT
BRANCH   1  12
ATOM     12  C   UNL     1      36.687 -31.644  -2.206  1.00  0.00     0.018 A 
ATOM     13  C   UNL     1      37.009 -33.027   0.236  1.00  0.00     0.118 A 
ATOM     14  C   UNL     1      36.598 -33.706  -0.915  1.00  0.00     0.047 A 
ATOM     15  C   UNL     1      37.263 -31.645   0.161  1.00  0.00     0.047 A 
ATOM     16  C   UNL     1      36.442 -33.025  -2.125  1.00  0.00     0.016 A 
ATOM     17  C   UNL     1      37.106 -30.962  -1.048  1.00  0.00     0.016 A 
BRANCH  13  18
ATOM     18  O   UNL     1      37.153 -33.756   1.425  1.00  0.00    -0.497 OA
ATOM     19  C   UNL     1      36.722 -35.101   1.600  1.00  0.00     0.278 C 
ENDBRANCH  13  18
ENDBRANCH   1  12
BRANCH   8  20
ATOM     20  O   UNL     1      39.487 -31.699  -6.378  1.00  0.00    -0.490 OA
ATOM     21  C   UNL     1      39.405 -33.075  -6.029  1.00  0.00     0.278 C 
ENDBRANCH   8  20
BRANCH  11  22
ATOM     22  O   UNL     1      35.419 -27.975  -7.453  1.00  0.00    -0.492 OA
ATOM     23  C   UNL     1      34.140 -28.282  -7.996  1.00  0.00     0.278 C 
ENDBRANCH  11  22
BRANCH   9  24
ATOM     24  O   UNL     1      39.405 -30.534  -8.759  1.00  0.00    -0.490 OA
ATOM     25  C   UNL     1      39.555 -31.749  -9.483  1.00  0.00     0.279 C 
ENDBRANCH   9  24
BRANCH  10  26
ATOM     26  O   UNL     1      37.265 -28.751  -9.477  1.00  0.00    -0.490 OA
ATOM     27  C   UNL     1      36.095 -28.258 -10.123  1.00  0.00     0.278 C 
ENDBRANCH  10  26
TORSDOF 6
ENDMDL
MODEL 2
REMARK VINA RESULT:     9.133      2.619      4.580
REMARK INTER + INTRA:          13.829
REMARK INTER:                  13.304
REMARK INTRA:                   0.525
REMARK UNBOUND:                 1.492
REMARK SMILES COc1ccc(-c2cc(=O)c3c(OC)c(OC)c(OC)c(OC)c3o2)cc1
REMARK SMILES IDX 7 1 8 2 9 3 10 4 11 5 24 6 25 7 21 8 18 9 15 10 12 11 6 12
REMARK SMILES IDX 3 13 4 14 27 15 5 16 26 17 2 18 1 19 22 20 23 21 13 22 14 23
REMARK SMILES IDX 19 24 20 25 16 26 17 27
REMARK H PARENT
REMARK Flexibility Score: inf
ROOT
ATOM      1  C   UNL     1      37.631 -31.079  -4.743  1.00  0.00     0.138 A 
ATOM      2  C   UNL     1      37.961 -30.102  -5.689  1.00  0.00     0.100 A 
ATOM      3  C   UNL     1      38.470 -30.493  -6.925  1.00  0.00     0.197 A 
ATOM      4  O   UNL     1      38.736 -29.604  -7.776  1.00  0.00    -0.289 OA
ATOM      5  C   UNL     1      38.658 -31.866  -7.202  1.00  0.00     0.115 A 
ATOM      6  C   UNL     1      38.274 -32.799  -6.210  1.00  0.00     0.188 A 
ATOM      7  O   UNL     1      37.788 -32.364  -5.049  1.00  0.00    -0.452 OA
ATOM      8  C   UNL     1      38.422 -34.185  -6.446  1.00  0.00     0.209 A 
ATOM      9  C   UNL     1      38.927 -34.639  -7.674  1.00  0.00     0.211 A 
ATOM     10  C   UNL     1      39.292 -33.714  -8.684  1.00  0.00     0.208 A 
ATOM     11  C   UNL     1      39.213 -32.328  -8.418  1.00  0.00     0.179 A 
ENDROOT
BRANCH   1  12
ATOM     12  C   UNL     1      37.102 -30.715  -3.406  1.00  0.00     0.018 A 
ATOM     13  C   UNL     1      36.056 -29.979  -0.888  1.00  0.00     0.118 A 
ATOM     14  C   UNL     1      36.371 -29.002  -1.838  1.00  0.00     0.047 A 
ATOM     15  C   UNL     1      36.264 -31.334  -1.204  1.00  0.00     0.047 A 
ATOM     16  C   UNL     1      36.885 -29.364  -3.086  1.00  0.00     0.016 A 
ATOM     17  C   UNL     1      36.779 -31.697  -2.452  1.00  0.00     0.016 A 
BRANCH  13  18
ATOM     18  O   UNL     1      35.541 -29.565   0.349  1.00  0.00    -0.497 OA
ATOM     19  C   UNL     1      34.659 -28.461   0.524  1.00  0.00     0.278 C 
ENDBRANCH  13  18
ENDBRANCH   1  12
BRANCH   8  20
ATOM     20  O   UNL     1      38.084 -35.175  -5.502  1.00  0.00    -0.490 OA
ATOM     21  C   UNL     1      37.020 -36.114  -5.597  1.00  0.00     0.278 C 
ENDBRANCH   8  20
BRANCH  11  22
ATOM     22  O   UNL     1      39.727 -31.415  -9.341  1.00  0.00    -0.492 OA
ATOM     23  C   UNL     1      41.125 -31.161  -9.421  1.00  0.00     0.278 C 
ENDBRANCH  11  22
BRANCH   9  24
ATOM     24  O   UNL     1      39.028 -36.036  -7.826  1.00  0.00    -0.490 OA
ATOM     25  C   UNL     1      38.217 -36.871  -8.643  1.00  0.00     0.279 C 
ENDBRANCH   9  24
BRANCH  10  26
ATOM     26  O   UNL     1      39.728 -34.201  -9.927  1.00  0.00    -0.490 OA
ATOM     27  C   UNL     1      40.630 -35.286 -10.125  1.00  0.00     0.278 C 
ENDBRANCH  10  26
TORSDOF 6
ENDMDL
MODEL 3
REMARK VINA RESULT:     9.715      2.079      4.283
REMARK INTER + INTRA:          14.614
REMARK INTER:                  14.279
REMARK INTRA:                   0.335
REMARK UNBOUND:                 1.492
REMARK SMILES COc1ccc(-c2cc(=O)c3c(OC)c(OC)c(OC)c(OC)c3o2)cc1
REMARK SMILES IDX 7 1 8 2 9 3 10 4 11 5 24 6 25 7 21 8 18 9 15 10 12 11 6 12
REMARK SMILES IDX 3 13 4 14 27 15 5 16 26 17 2 18 1 19 22 20 23 21 13 22 14 23
REMARK SMILES IDX 19 24 20 25 16 26 17 27
REMARK H PARENT
REMARK Flexibility Score: inf
ROOT
ATOM      1  C   UNL     1      36.966 -30.536  -3.654  1.00  0.00     0.138 A 
ATOM      2  C   UNL     1      37.818 -31.643  -3.711  1.00  0.00     0.100 A 
ATOM      3  C   UNL     1      38.391 -32.000  -4.929  1.00  0.00     0.197 A 
ATOM      4  O   UNL     1      39.178 -32.983  -4.960  1.00  0.00    -0.289 OA
ATOM      5  C   UNL     1      38.096 -31.250  -6.089  1.00  0.00     0.115 A 
ATOM      6  C   UNL     1      37.250 -30.124  -5.949  1.00  0.00     0.188 A 
ATOM      7  O   UNL     1      36.736 -29.830  -4.758  1.00  0.00    -0.452 OA
ATOM      8  C   UNL     1      36.941 -29.328  -7.075  1.00  0.00     0.209 A 
ATOM      9  C   UNL     1      37.491 -29.637  -8.328  1.00  0.00     0.211 A 
ATOM     10  C   UNL     1      38.359 -30.748  -8.474  1.00  0.00     0.208 A 
ATOM     11  C   UNL     1      38.607 -31.585  -7.364  1.00  0.00     0.179 A 
ENDROOT
BRANCH   1  12
ATOM     12  C   UNL     1      36.316 -30.124  -2.385  1.00  0.00     0.018 A 
ATOM     13  C   UNL     1      35.044 -29.297  -0.002  1.00  0.00     0.118 A 
ATOM     14  C   UNL     1      35.501 -28.352  -0.927  1.00  0.00     0.047 A 
ATOM     15  C   UNL     1      35.224 -30.665  -0.276  1.00  0.00     0.047 A 
ATOM     16  C   UNL     1      36.127 -28.759  -2.109  1.00  0.00     0.016 A 
ATOM     17  C   UNL     1      35.851 -31.074  -1.457  1.00  0.00     0.016 A 
BRANCH  13  18
ATOM     18  O   UNL     1      34.421 -28.838   1.167  1.00  0.00    -0.497 OA
ATOM     19  C   UNL     1      34.442 -27.485   1.611  1.00  0.00     0.278 C 
ENDBRANCH  13  18
ENDBRANCH   1  12
BRANCH   8  20
ATOM     20  O   UNL     1      36.090 -28.205  -7.024  1.00  0.00    -0.490 OA
ATOM     21  C   UNL     1      34.689 -28.210  -6.779  1.00  0.00     0.278 C 
ENDBRANCH   8  20
BRANCH  11  22
ATOM     22  O   UNL     1      39.323 -32.772  -7.537  1.00  0.00    -0.492 OA
ATOM     23  C   UNL     1      38.677 -33.959  -7.984  1.00  0.00     0.278 C 
ENDBRANCH  11  22
BRANCH   9  24
ATOM     24  O   UNL     1      37.138 -28.781  -9.391  1.00  0.00    -0.490 OA
ATOM     25  C   UNL     1      35.832 -28.541  -9.901  1.00  0.00     0.279 C 
ENDBRANCH   9  24
BRANCH  10  26
ATOM     26  O   UNL     1      38.950 -30.990  -9.726  1.00  0.00    -0.490 OA
ATOM     27  C   UNL     1      40.323 -31.299  -9.951  1.00  0.00     0.278 C 
ENDBRANCH  10  26
TORSDOF 6
ENDMDL
MODEL 4
REMARK VINA RESULT:    10.949      4.811      6.808
REMARK INTER + INTRA:          16.281
REMARK INTER:                  15.294
REMARK INTRA:                   0.986
REMARK UNBOUND:                 1.492
REMARK SMILES COc1ccc(-c2cc(=O)c3c(OC)c(OC)c(OC)c(OC)c3o2)cc1
REMARK SMILES IDX 7 1 8 2 9 3 10 4 11 5 24 6 25 7 21 8 18 9 15 10 12 11 6 12
REMARK SMILES IDX 3 13 4 14 27 15 5 16 26 17 2 18 1 19 22 20 23 21 13 22 14 23
REMARK SMILES IDX 19 24 20 25 16 26 17 27
REMARK H PARENT
REMARK Flexibility Score: inf
ROOT
ATOM      1  C   UNL     1      35.900 -37.104  -5.210  1.00  0.00     0.138 A 
ATOM      2  C   UNL     1      35.907 -38.161  -6.126  1.00  0.00     0.100 A 
ATOM      3  C   UNL     1      36.668 -38.052  -7.287  1.00  0.00     0.197 A 
ATOM      4  O   UNL     1      36.687 -39.022  -8.090  1.00  0.00    -0.289 OA
ATOM      5  C   UNL     1      37.410 -36.873  -7.530  1.00  0.00     0.115 A 
ATOM      6  C   UNL     1      37.379 -35.859  -6.545  1.00  0.00     0.188 A 
ATOM      7  O   UNL     1      36.637 -36.023  -5.452  1.00  0.00    -0.452 OA
ATOM      8  C   UNL     1      38.121 -34.670  -6.730  1.00  0.00     0.209 A 
ATOM      9  C   UNL     1      38.908 -34.504  -7.879  1.00  0.00     0.211 A 
ATOM     10  C   UNL     1      38.966 -35.525  -8.861  1.00  0.00     0.208 A 
ATOM     11  C   UNL     1      38.166 -36.679  -8.709  1.00  0.00     0.179 A 
ENDROOT
BRANCH   1  12
ATOM     12  C   UNL     1      35.093 -37.163  -3.967  1.00  0.00     0.018 A 
ATOM     13  C   UNL     1      33.541 -37.214  -1.607  1.00  0.00     0.118 A 
ATOM     14  C   UNL     1      34.400 -36.141  -1.868  1.00  0.00     0.047 A 
ATOM     15  C   UNL     1      33.457 -38.266  -2.537  1.00  0.00     0.047 A 
ATOM     16  C   UNL     1      35.166 -36.112  -3.036  1.00  0.00     0.016 A 
ATOM     17  C   UNL     1      34.224 -38.239  -3.706  1.00  0.00     0.016 A 
BRANCH  13  18
ATOM     18  O   UNL     1      32.792 -37.196  -0.421  1.00  0.00    -0.497 OA
ATOM     19  C   UNL     1      31.622 -37.974  -0.197  1.00  0.00     0.278 C 
ENDBRANCH  13  18
ENDBRANCH   1  12
BRANCH   8  20
ATOM     20  O   UNL     1      38.125 -33.604  -5.808  1.00  0.00    -0.490 OA
ATOM     21  C   UNL     1      39.253 -32.845  -5.391  1.00  0.00     0.278 C 
ENDBRANCH   8  20
BRANCH  11  22
ATOM     22  O   UNL     1      38.088 -37.610  -9.748  1.00  0.00    -0.492 OA
ATOM     23  C   UNL     1      39.221 -38.385 -10.124  1.00  0.00     0.278 C 
ENDBRANCH  11  22
BRANCH   9  24
ATOM     24  O   UNL     1      39.623 -33.293  -7.974  1.00  0.00    -0.490 OA
ATOM     25  C   UNL     1      39.185 -32.084  -8.582  1.00  0.00     0.279 C 
ENDBRANCH   9  24
BRANCH  10  26
ATOM     26  O   UNL     1      39.818 -35.359  -9.966  1.00  0.00    -0.490 OA
ATOM     27  C   UNL     1      41.113 -35.934 -10.110  1.00  0.00     0.278 C 
ENDBRANCH  10  26
TORSDOF 6
ENDMDL
MODEL 5
REMARK VINA RESULT:    11.115      4.103      6.155
REMARK INTER + INTRA:          16.506
REMARK INTER:                  15.681
REMARK INTRA:                   0.825
REMARK UNBOUND:                 1.492
REMARK SMILES COc1ccc(-c2cc(=O)c3c(OC)c(OC)c(OC)c(OC)c3o2)cc1
REMARK SMILES IDX 7 1 8 2 9 3 10 4 11 5 24 6 25 7 21 8 18 9 15 10 12 11 6 12
REMARK SMILES IDX 3 13 4 14 27 15 5 16 26 17 2 18 1 19 22 20 23 21 13 22 14 23
REMARK SMILES IDX 19 24 20 25 16 26 17 27
REMARK H PARENT
REMARK Flexibility Score: inf
ROOT
ATOM      1  C   UNL     1      36.299 -36.528  -5.477  1.00  0.00     0.138 A 
ATOM      2  C   UNL     1      36.442 -37.361  -6.591  1.00  0.00     0.100 A 
ATOM      3  C   UNL     1      37.287 -36.975  -7.628  1.00  0.00     0.197 A 
ATOM      4  O   UNL     1      37.427 -37.748  -8.613  1.00  0.00    -0.289 OA
ATOM      5  C   UNL     1      37.976 -35.744  -7.548  1.00  0.00     0.115 A 
ATOM      6  C   UNL     1      37.807 -34.967  -6.378  1.00  0.00     0.188 A 
ATOM      7  O   UNL     1      36.990 -35.392  -5.417  1.00  0.00    -0.452 OA
ATOM      8  C   UNL     1      38.492 -33.738  -6.239  1.00  0.00     0.209 A 
ATOM      9  C   UNL     1      39.359 -33.298  -7.251  1.00  0.00     0.211 A 
ATOM     10  C   UNL     1      39.555 -34.080  -8.416  1.00  0.00     0.208 A 
ATOM     11  C   UNL     1      38.813 -35.271  -8.586  1.00  0.00     0.179 A 
ENDROOT
BRANCH   1  12
ATOM     12  C   UNL     1      35.399 -36.884  -4.353  1.00  0.00     0.018 A 
ATOM     13  C   UNL     1      33.663 -37.504  -2.213  1.00  0.00     0.118 A 
ATOM     14  C   UNL     1      34.411 -36.322  -2.200  1.00  0.00     0.047 A 
ATOM     15  C   UNL     1      33.785 -38.380  -3.307  1.00  0.00     0.047 A 
ATOM     16  C   UNL     1      35.267 -36.012  -3.260  1.00  0.00     0.016 A 
ATOM     17  C   UNL     1      34.642 -38.071  -4.368  1.00  0.00     0.016 A 
BRANCH  13  18
ATOM     18  O   UNL     1      32.817 -37.770  -1.126  1.00  0.00    -0.497 OA
ATOM     19  C   UNL     1      33.017 -37.266   0.190  1.00  0.00     0.278 C 
ENDBRANCH  13  18
ENDBRANCH   1  12
BRANCH   8  20
ATOM     20  O   UNL     1      38.360 -32.897  -5.117  1.00  0.00    -0.490 OA
ATOM     21  C   UNL     1      37.800 -31.590  -5.094  1.00  0.00     0.278 C 
ENDBRANCH   8  20
BRANCH  11  22
ATOM     22  O   UNL     1      38.874 -35.958  -9.800  1.00  0.00    -0.492 OA
ATOM     23  C   UNL     1      39.992 -36.777 -10.124  1.00  0.00     0.278 C 
ENDBRANCH  11  22
BRANCH   9  24
ATOM     24  O   UNL     1      40.008 -32.068  -7.022  1.00  0.00    -0.490 OA
ATOM     25  C   UNL     1      39.594 -30.783  -7.471  1.00  0.00     0.279 C 
ENDBRANCH   9  24
BRANCH  10  26
ATOM     26  O   UNL     1      40.482 -33.647  -9.379  1.00  0.00    -0.490 OA
ATOM     27  C   UNL     1      40.426 -32.415 -10.092  1.00  0.00     0.278 C 
ENDBRANCH  10  26
TORSDOF 6
ENDMDL
