MODEL 1
REMARK VINA RESULT:    -4.010      0.000      0.000
REMARK INTER + INTRA:          -4.779
REMARK INTER:                  -4.714
REMARK INTRA:                  -0.065
REMARK UNBOUND:                -0.065
REMARK SMILES O=C([O-])CCC(=O)[O-]
REMARK SMILES IDX 4 1 2 2 1 3 3 4 5 5 6 6 7 7 8 8
REMARK H PARENT
REMARK Flexibility Score: inf
ROOT
ATOM      1  C   UNL     1      41.309  65.896  25.468  1.00  0.00     0.059 C 
ENDROOT
BRANCH   1   2
ATOM      2  C   UNL     1      41.628  64.850  24.444  1.00  0.00     0.042 C 
ATOM      3  O   UNL     1      42.009  63.704  24.804  1.00  0.00    -0.550 OA
ATOM      4  O   UNL     1      41.540  65.152  23.091  1.00  0.00    -0.550 OA
ENDBRANCH   1   2
BRANCH   1   5
ATOM      5  C   UNL     1      40.730  67.159  24.823  1.00  0.00     0.059 C 
BRANCH   5   6
ATOM      6  C   UNL     1      39.242  67.069  24.671  1.00  0.00     0.042 C 
ATOM      7  O   UNL     1      38.738  66.759  23.559  1.00  0.00    -0.550 OA
ATOM      8  O   UNL     1      38.415  67.285  25.766  1.00  0.00    -0.550 OA
ENDBRANCH   5   6
ENDBRANCH   1   5
TORSDOF 3
ENDMDL
MODEL 2
REMARK VINA RESULT:    -4.010      0.813      3.594
REMARK INTER + INTRA:          -4.779
REMARK INTER:                  -4.840
REMARK INTRA:                   0.061
REMARK UNBOUND:                -0.065
REMARK SMILES O=C([O-])CCC(=O)[O-]
REMARK SMILES IDX 4 1 2 2 1 3 3 4 5 5 6 6 7 7 8 8
REMARK H PARENT
REMARK Flexibility Score: inf
ROOT
ATOM      1  C   UNL     1      40.260  66.939  25.457  1.00  0.00     0.059 C 
ENDROOT
BRANCH   1   2
ATOM      2  C   UNL     1      38.877  67.067  24.896  1.00  0.00     0.042 C 
ATOM      3  O   UNL     1      38.676  66.912  23.662  1.00  0.00    -0.550 OA
ATOM      4  O   UNL     1      37.816  67.395  25.730  1.00  0.00    -0.550 OA
ENDBRANCH   1   2
BRANCH   1   5
ATOM      5  C   UNL     1      41.318  66.903  24.349  1.00  0.00     0.059 C 
BRANCH   5   6
ATOM      6  C   UNL     1      41.498  65.521  23.801  1.00  0.00     0.042 C 
ATOM      7  O   UNL     1      41.340  65.303  22.571  1.00  0.00    -0.550 OA
ATOM      8  O   UNL     1      41.881  64.483  24.641  1.00  0.00    -0.550 OA
ENDBRANCH   5   6
ENDBRANCH   1   5
TORSDOF 3
ENDMDL
MODEL 3
REMARK VINA RESULT:    -3.975      2.001      2.625
REMARK INTER + INTRA:          -4.738
REMARK INTER:                  -4.759
REMARK INTRA:                   0.021
REMARK UNBOUND:                -0.065
REMARK SMILES O=C([O-])CCC(=O)[O-]
REMARK SMILES IDX 4 1 2 2 1 3 3 4 5 5 6 6 7 7 8 8
REMARK H PARENT
REMARK Flexibility Score: inf
ROOT
ATOM      1  C   UNL     1      41.246  66.084  25.492  1.00  0.00     0.059 C 
ENDROOT
BRANCH   1   2
ATOM      2  C   UNL     1      41.635  64.730  24.984  1.00  0.00     0.042 C 
ATOM      3  O   UNL     1      41.580  64.475  23.752  1.00  0.00    -0.550 OA
ATOM      4  O   UNL     1      42.021  63.737  25.876  1.00  0.00    -0.550 OA
ENDBRANCH   1   2
BRANCH   1   5
ATOM      5  C   UNL     1      40.455  66.875  24.444  1.00  0.00     0.059 C 
BRANCH   5   6
ATOM      6  C   UNL     1      41.362  67.647  23.535  1.00  0.00     0.042 C 
ATOM      7  O   UNL     1      42.185  68.471  24.014  1.00  0.00    -0.550 OA
ATOM      8  O   UNL     1      41.327  67.427  22.164  1.00  0.00    -0.550 OA
ENDBRANCH   5   6
ENDBRANCH   1   5
TORSDOF 3
ENDMDL
MODEL 4
REMARK VINA RESULT:    -3.974      2.036      2.447
REMARK INTER + INTRA:          -4.737
REMARK INTER:                  -4.772
REMARK INTRA:                   0.035
REMARK UNBOUND:                -0.065
REMARK SMILES O=C([O-])CCC(=O)[O-]
REMARK SMILES IDX 4 1 2 2 1 3 3 4 5 5 6 6 7 7 8 8
REMARK H PARENT
REMARK Flexibility Score: inf
ROOT
ATOM      1  C   UNL     1      41.317  66.069  25.471  1.00  0.00     0.059 C 
ENDROOT
BRANCH   1   2
ATOM      2  C   UNL     1      41.660  64.718  24.923  1.00  0.00     0.042 C 
ATOM      3  O   UNL     1      41.592  64.500  23.684  1.00  0.00    -0.550 OA
ATOM      4  O   UNL     1      42.018  63.689  25.785  1.00  0.00    -0.550 OA
ENDBRANCH   1   2
BRANCH   1   5
ATOM      5  C   UNL     1      40.538  66.910  24.453  1.00  0.00     0.059 C 
BRANCH   5   6
ATOM      6  C   UNL     1      41.456  67.683  23.556  1.00  0.00     0.042 C 
ATOM      7  O   UNL     1      41.421  67.504  22.310  1.00  0.00    -0.550 OA
ATOM      8  O   UNL     1      42.319  68.629  24.092  1.00  0.00    -0.550 OA
ENDBRANCH   5   6
ENDBRANCH   1   5
TORSDOF 3
ENDMDL
MODEL 5
REMARK VINA RESULT:    -3.967      2.029      3.519
REMARK INTER + INTRA:          -4.728
REMARK INTER:                  -4.746
REMARK INTRA:                   0.018
REMARK UNBOUND:                -0.065
REMARK SMILES O=C([O-])CCC(=O)[O-]
REMARK SMILES IDX 4 1 2 2 1 3 3 4 5 5 6 6 7 7 8 8
REMARK H PARENT
REMARK Flexibility Score: inf
ROOT
ATOM      1  C   UNL     1      40.471  66.811  24.439  1.00  0.00     0.059 C 
ENDROOT
BRANCH   1   2
ATOM      2  C   UNL     1      41.408  67.622  23.597  1.00  0.00     0.042 C 
ATOM      3  O   UNL     1      41.416  67.484  22.345  1.00  0.00    -0.550 OA
ATOM      4  O   UNL     1      42.299  68.502  24.198  1.00  0.00    -0.550 OA
ENDBRANCH   1   2
BRANCH   1   5
ATOM      5  C   UNL     1      41.219  66.041  25.533  1.00  0.00     0.059 C 
BRANCH   5   6
ATOM      6  C   UNL     1      41.689  64.705  25.044  1.00  0.00     0.042 C 
ATOM      7  O   UNL     1      41.693  64.448  23.811  1.00  0.00    -0.550 OA
ATOM      8  O   UNL     1      42.161  63.760  25.945  1.00  0.00    -0.550 OA
ENDBRANCH   5   6
ENDBRANCH   1   5
TORSDOF 3
ENDMDL
MODEL 6
REMARK VINA RESULT:    -3.966      2.043      3.693
REMARK INTER + INTRA:          -4.727
REMARK INTER:                  -4.816
REMARK INTRA:                   0.089
REMARK UNBOUND:                -0.065
REMARK SMILES O=C([O-])CCC(=O)[O-]
REMARK SMILES IDX 4 1 2 2 1 3 3 4 5 5 6 6 7 7 8 8
REMARK H PARENT
REMARK Flexibility Score: inf
ROOT
ATOM      1  C   UNL     1      40.272  67.080  25.518  1.00  0.00     0.059 C 
ENDROOT
BRANCH   1   2
ATOM      2  C   UNL     1      38.882  67.057  24.959  1.00  0.00     0.042 C 
ATOM      3  O   UNL     1      38.686  66.727  23.760  1.00  0.00    -0.550 OA
ATOM      4  O   UNL     1      37.808  67.438  25.754  1.00  0.00    -0.550 OA
ENDBRANCH   1   2
BRANCH   1   5
ATOM      5  C   UNL     1      41.299  66.577  24.497  1.00  0.00     0.059 C 
BRANCH   5   6
ATOM      6  C   UNL     1      41.668  67.645  23.513  1.00  0.00     0.042 C 
ATOM      7  O   UNL     1      42.267  68.683  23.901  1.00  0.00    -0.550 OA
ATOM      8  O   UNL     1      41.389  67.476  22.164  1.00  0.00    -0.550 OA
ENDBRANCH   5   6
ENDBRANCH   1   5
TORSDOF 3
ENDMDL
MODEL 7
REMARK VINA RESULT:    -3.932      2.149      2.743
REMARK INTER + INTRA:          -4.687
REMARK INTER:                  -4.792
REMARK INTRA:                   0.105
REMARK UNBOUND:                -0.065
REMARK SMILES O=C([O-])CCC(=O)[O-]
REMARK SMILES IDX 4 1 2 2 1 3 3 4 5 5 6 6 7 7 8 8
REMARK H PARENT
REMARK Flexibility Score: inf
ROOT
ATOM      1  C   UNL     1      41.453  67.494  25.357  1.00  0.00     0.059 C 
ENDROOT
BRANCH   1   2
ATOM      2  C   UNL     1      42.161  68.285  24.301  1.00  0.00     0.042 C 
ATOM      3  O   UNL     1      42.015  67.994  23.085  1.00  0.00    -0.550 OA
ATOM      4  O   UNL     1      43.013  69.321  24.663  1.00  0.00    -0.550 OA
ENDBRANCH   1   2
BRANCH   1   5
ATOM      5  C   UNL     1      40.688  66.309  24.757  1.00  0.00     0.059 C 
BRANCH   5   6
ATOM      6  C   UNL     1      39.362  66.730  24.202  1.00  0.00     0.042 C 
ATOM      7  O   UNL     1      39.140  66.652  22.965  1.00  0.00    -0.550 OA
ATOM      8  O   UNL     1      38.358  67.170  25.055  1.00  0.00    -0.550 OA
ENDBRANCH   5   6
ENDBRANCH   1   5
TORSDOF 3
ENDMDL
MODEL 8
REMARK VINA RESULT:    -3.904      2.646      3.429
REMARK INTER + INTRA:          -4.654
REMARK INTER:                  -4.552
REMARK INTRA:                  -0.103
REMARK UNBOUND:                -0.065
REMARK SMILES O=C([O-])CCC(=O)[O-]
REMARK SMILES IDX 4 1 2 2 1 3 3 4 5 5 6 6 7 7 8 8
REMARK H PARENT
REMARK Flexibility Score: inf
ROOT
ATOM      1  C   UNL     1      39.988  66.425  22.676  1.00  0.00     0.059 C 
ENDROOT
BRANCH   1   2
ATOM      2  C   UNL     1      40.589  66.638  21.321  1.00  0.00     0.042 C 
ATOM      3  O   UNL     1      41.697  66.116  21.029  1.00  0.00    -0.550 OA
ATOM      4  O   UNL     1      39.944  67.447  20.394  1.00  0.00    -0.550 OA
ENDBRANCH   1   2
BRANCH   1   5
ATOM      5  C   UNL     1      41.052  66.053  23.714  1.00  0.00     0.059 C 
BRANCH   5   6
ATOM      6  C   UNL     1      41.377  67.209  24.610  1.00  0.00     0.042 C 
ATOM      7  O   UNL     1      41.104  67.153  25.838  1.00  0.00    -0.550 OA
ATOM      8  O   UNL     1      42.019  68.328  24.098  1.00  0.00    -0.550 OA
ENDBRANCH   5   6
ENDBRANCH   1   5
TORSDOF 3
ENDMDL
MODEL 9
REMARK VINA RESULT:    -3.895      2.654      3.522
REMARK INTER + INTRA:          -4.643
REMARK INTER:                  -4.544
REMARK INTRA:                  -0.099
REMARK UNBOUND:                -0.065
REMARK SMILES O=C([O-])CCC(=O)[O-]
REMARK SMILES IDX 4 1 2 2 1 3 3 4 5 5 6 6 7 7 8 8
REMARK H PARENT
REMARK Flexibility Score: inf
ROOT
ATOM      1  C   UNL     1      41.095  66.027  23.664  1.00  0.00     0.059 C 
ENDROOT
BRANCH   1   2
ATOM      2  C   UNL     1      41.436  67.153  24.592  1.00  0.00     0.042 C 
ATOM      3  O   UNL     1      41.092  67.104  25.802  1.00  0.00    -0.550 OA
ATOM      4  O   UNL     1      42.101  68.273  24.109  1.00  0.00    -0.550 OA
ENDBRANCH   1   2
BRANCH   1   5
ATOM      5  C   UNL     1      40.013  66.432  22.658  1.00  0.00     0.059 C 
BRANCH   5   6
ATOM      6  C   UNL     1      40.587  66.669  21.294  1.00  0.00     0.042 C 
ATOM      7  O   UNL     1      41.655  66.097  20.950  1.00  0.00    -0.550 OA
ATOM      8  O   UNL     1      39.921  67.486  20.391  1.00  0.00    -0.550 OA
ENDBRANCH   5   6
ENDBRANCH   1   5
TORSDOF 3
ENDMDL
