MODEL 1
REMARK VINA RESULT:    -3.606      0.000      0.000
REMARK INTER + INTRA:          -5.188
REMARK INTER:                  -4.871
REMARK INTRA:                  -0.317
REMARK UNBOUND:                -0.317
REMARK SMILES CCCCCCCC(=O)[O-]
REMARK SMILES IDX 5 1 6 2 7 3 8 4 9 5 10 6 4 7 3 8 2 9 1 10
REMARK H PARENT
REMARK Flexibility Score: inf
ROOT
ATOM      1  C   UNL     1      -4.184   4.200 -13.440  1.00  0.00     0.000 C 
ENDROOT
BRANCH   1   2
ATOM      2  C   UNL     1      -3.704   3.421 -12.206  1.00  0.00     0.006 C 
BRANCH   2   3
ATOM      3  C   UNL     1      -2.300   2.851 -12.431  1.00  0.00     0.053 C 
BRANCH   3   4
ATOM      4  C   UNL     1      -1.445   3.069 -11.223  1.00  0.00     0.041 C 
ATOM      5  O   UNL     1      -1.015   2.085 -10.566  1.00  0.00    -0.550 OA
ATOM      6  O   UNL     1      -1.080   4.357 -10.852  1.00  0.00    -0.550 OA
ENDBRANCH   3   4
ENDBRANCH   2   3
ENDBRANCH   1   2
BRANCH   1   7
ATOM      7  C   UNL     1      -3.087   5.092 -14.044  1.00  0.00     0.000 C 
BRANCH   7   8
ATOM      8  C   UNL     1      -3.354   5.438 -15.519  1.00  0.00    -0.000 C 
BRANCH   8   9
ATOM      9  C   UNL     1      -4.690   4.870 -16.025  1.00  0.00    -0.003 C 
ATOM     10  C   UNL     1      -5.168   5.536 -17.315  1.00  0.00     0.004 C 
ENDBRANCH   8   9
ENDBRANCH   7   8
ENDBRANCH   1   7
TORSDOF 6
ENDMDL
MODEL 2
REMARK VINA RESULT:    -3.570     10.276     12.897
REMARK INTER + INTRA:          -5.138
REMARK INTER:                  -4.999
REMARK INTRA:                  -0.140
REMARK UNBOUND:                -0.317
REMARK SMILES CCCCCCCC(=O)[O-]
REMARK SMILES IDX 5 1 6 2 7 3 8 4 9 5 10 6 4 7 3 8 2 9 1 10
REMARK H PARENT
REMARK Flexibility Score: inf
ROOT
ATOM      1  C   UNL     1      -4.569  -4.166  -3.937  1.00  0.00     0.000 C 
ENDROOT
BRANCH   1   2
ATOM      2  C   UNL     1      -5.225  -3.390  -5.090  1.00  0.00     0.006 C 
BRANCH   2   3
ATOM      3  C   UNL     1      -4.166  -2.801  -6.026  1.00  0.00     0.053 C 
BRANCH   3   4
ATOM      4  C   UNL     1      -4.523  -1.398  -6.405  1.00  0.00     0.041 C 
ATOM      5  O   UNL     1      -5.727  -1.034  -6.422  1.00  0.00    -0.550 OA
ATOM      6  O   UNL     1      -3.521  -0.478  -6.692  1.00  0.00    -0.550 OA
ENDBRANCH   3   4
ENDBRANCH   2   3
ENDBRANCH   1   2
BRANCH   1   7
ATOM      7  C   UNL     1      -4.501  -3.351  -2.635  1.00  0.00     0.000 C 
BRANCH   7   8
ATOM      8  C   UNL     1      -5.590  -3.758  -1.628  1.00  0.00    -0.000 C 
BRANCH   8   9
ATOM      9  C   UNL     1      -5.452  -3.026  -0.284  1.00  0.00    -0.003 C 
ATOM     10  C   UNL     1      -6.802  -2.681   0.347  1.00  0.00     0.004 C 
ENDBRANCH   8   9
ENDBRANCH   7   8
ENDBRANCH   1   7
TORSDOF 6
ENDMDL
MODEL 3
REMARK VINA RESULT:    -3.560     20.249     21.471
REMARK INTER + INTRA:          -5.126
REMARK INTER:                  -4.856
REMARK INTRA:                  -0.270
REMARK UNBOUND:                -0.317
REMARK SMILES CCCCCCCC(=O)[O-]
REMARK SMILES IDX 5 1 6 2 7 3 8 4 9 5 10 6 4 7 3 8 2 9 1 10
REMARK H PARENT
REMARK Flexibility Score: inf
ROOT
ATOM      1  C   UNL     1     -17.272  -4.138  -2.296  1.00  0.00     0.000 C 
ENDROOT
BRANCH   1   2
ATOM      2  C   UNL     1     -17.036  -5.525  -2.912  1.00  0.00     0.006 C 
BRANCH   2   3
ATOM      3  C   UNL     1     -18.278  -6.006  -3.670  1.00  0.00     0.053 C 
BRANCH   3   4
ATOM      4  C   UNL     1     -17.961  -7.225  -4.477  1.00  0.00     0.041 C 
ATOM      5  O   UNL     1     -18.518  -7.410  -5.590  1.00  0.00    -0.550 OA
ATOM      6  O   UNL     1     -17.012  -8.133  -4.023  1.00  0.00    -0.550 OA
ENDBRANCH   3   4
ENDBRANCH   2   3
ENDBRANCH   1   2
BRANCH   1   7
ATOM      7  C   UNL     1     -18.389  -4.139  -1.240  1.00  0.00     0.000 C 
BRANCH   7   8
ATOM      8  C   UNL     1     -17.844  -4.028   0.195  1.00  0.00    -0.000 C 
BRANCH   8   9
ATOM      9  C   UNL     1     -17.463  -5.394   0.787  1.00  0.00    -0.003 C 
ATOM     10  C   UNL     1     -16.321  -5.305   1.799  1.00  0.00     0.004 C 
ENDBRANCH   8   9
ENDBRANCH   7   8
ENDBRANCH   1   7
TORSDOF 6
ENDMDL
MODEL 4
REMARK VINA RESULT:    -3.543      3.858      5.988
REMARK INTER + INTRA:          -5.103
REMARK INTER:                  -4.835
REMARK INTRA:                  -0.268
REMARK UNBOUND:                -0.317
REMARK SMILES CCCCCCCC(=O)[O-]
REMARK SMILES IDX 5 1 6 2 7 3 8 4 9 5 10 6 4 7 3 8 2 9 1 10
REMARK H PARENT
REMARK Flexibility Score: inf
ROOT
ATOM      1  C   UNL     1      -3.002   5.085 -14.103  1.00  0.00     0.000 C 
ENDROOT
BRANCH   1   2
ATOM      2  C   UNL     1      -3.371   5.446 -15.551  1.00  0.00     0.006 C 
BRANCH   2   3
ATOM      3  C   UNL     1      -4.726   4.844 -15.936  1.00  0.00     0.053 C 
BRANCH   3   4
ATOM      4  C   UNL     1      -5.152   5.331 -17.285  1.00  0.00     0.041 C 
ATOM      5  O   UNL     1      -4.611   6.349 -17.791  1.00  0.00    -0.550 OA
ATOM      6  O   UNL     1      -6.110   4.630 -18.007  1.00  0.00    -0.550 OA
ENDBRANCH   3   4
ENDBRANCH   2   3
ENDBRANCH   1   2
BRANCH   1   7
ATOM      7  C   UNL     1      -4.085   4.245 -13.406  1.00  0.00     0.000 C 
BRANCH   7   8
ATOM      8  C   UNL     1      -3.502   3.288 -12.352  1.00  0.00    -0.000 C 
BRANCH   8   9
ATOM      9  C   UNL     1      -1.988   3.471 -12.164  1.00  0.00    -0.003 C 
ATOM     10  C   UNL     1      -1.418   2.595 -11.048  1.00  0.00     0.004 C 
ENDBRANCH   8   9
ENDBRANCH   7   8
ENDBRANCH   1   7
TORSDOF 6
ENDMDL
MODEL 5
REMARK VINA RESULT:    -3.514      8.878     11.118
REMARK INTER + INTRA:          -5.063
REMARK INTER:                  -4.659
REMARK INTRA:                  -0.404
REMARK UNBOUND:                -0.317
REMARK SMILES CCCCCCCC(=O)[O-]
REMARK SMILES IDX 5 1 6 2 7 3 8 4 9 5 10 6 4 7 3 8 2 9 1 10
REMARK H PARENT
REMARK Flexibility Score: inf
ROOT
ATOM      1  C   UNL     1      -4.335  -2.677  -6.166  1.00  0.00     0.000 C 
ENDROOT
BRANCH   1   2
ATOM      2  C   UNL     1      -4.950  -1.319  -6.539  1.00  0.00     0.006 C 
BRANCH   2   3
ATOM      3  C   UNL     1      -4.157  -0.168  -5.912  1.00  0.00     0.053 C 
BRANCH   3   4
ATOM      4  C   UNL     1      -5.012   1.054  -5.791  1.00  0.00     0.041 C 
ATOM      5  O   UNL     1      -4.604   2.049  -5.136  1.00  0.00    -0.550 OA
ATOM      6  O   UNL     1      -6.238   1.113  -6.442  1.00  0.00    -0.550 OA
ENDBRANCH   3   4
ENDBRANCH   2   3
ENDBRANCH   1   2
BRANCH   1   7
ATOM      7  C   UNL     1      -5.137  -3.415  -5.082  1.00  0.00     0.000 C 
BRANCH   7   8
ATOM      8  C   UNL     1      -4.233  -4.125  -4.059  1.00  0.00    -0.000 C 
BRANCH   8   9
ATOM      9  C   UNL     1      -2.911  -3.378  -3.824  1.00  0.00    -0.003 C 
ATOM     10  C   UNL     1      -3.015  -2.317  -2.729  1.00  0.00     0.004 C 
ENDBRANCH   8   9
ENDBRANCH   7   8
ENDBRANCH   1   7
TORSDOF 6
ENDMDL
MODEL 6
REMARK VINA RESULT:    -3.511     12.822     15.145
REMARK INTER + INTRA:          -5.059
REMARK INTER:                  -4.599
REMARK INTRA:                  -0.460
REMARK UNBOUND:                -0.317
REMARK SMILES CCCCCCCC(=O)[O-]
REMARK SMILES IDX 5 1 6 2 7 3 8 4 9 5 10 6 4 7 3 8 2 9 1 10
REMARK H PARENT
REMARK Flexibility Score: inf
ROOT
ATOM      1  C   UNL     1      -5.108  -2.836  -0.652  1.00  0.00     0.000 C 
ENDROOT
BRANCH   1   2
ATOM      2  C   UNL     1      -4.558  -4.067  -1.390  1.00  0.00     0.006 C 
BRANCH   2   3
ATOM      3  C   UNL     1      -5.463  -4.451  -2.564  1.00  0.00     0.053 C 
BRANCH   3   4
ATOM      4  C   UNL     1      -4.850  -4.023  -3.860  1.00  0.00     0.041 C 
ATOM      5  O   UNL     1      -5.416  -3.152  -4.571  1.00  0.00    -0.550 OA
ATOM      6  O   UNL     1      -3.628  -4.549  -4.260  1.00  0.00    -0.550 OA
ENDBRANCH   3   4
ENDBRANCH   2   3
ENDBRANCH   1   2
BRANCH   1   7
ATOM      7  C   UNL     1      -6.096  -3.206   0.466  1.00  0.00     0.000 C 
BRANCH   7   8
ATOM      8  C   UNL     1      -7.556  -2.901   0.088  1.00  0.00    -0.000 C 
BRANCH   8   9
ATOM      9  C   UNL     1      -8.486  -4.103   0.316  1.00  0.00    -0.003 C 
ATOM     10  C   UNL     1      -7.752  -5.442   0.260  1.00  0.00     0.004 C 
ENDBRANCH   8   9
ENDBRANCH   7   8
ENDBRANCH   1   7
TORSDOF 6
ENDMDL
MODEL 7
REMARK VINA RESULT:    -3.504      1.359      1.994
REMARK INTER + INTRA:          -5.050
REMARK INTER:                  -4.608
REMARK INTRA:                  -0.442
REMARK UNBOUND:                -0.317
REMARK SMILES CCCCCCCC(=O)[O-]
REMARK SMILES IDX 5 1 6 2 7 3 8 4 9 5 10 6 4 7 3 8 2 9 1 10
REMARK H PARENT
REMARK Flexibility Score: inf
ROOT
ATOM      1  C   UNL     1      -2.644   5.546 -14.506  1.00  0.00     0.000 C 
ENDROOT
BRANCH   1   2
ATOM      2  C   UNL     1      -3.865   5.343 -13.596  1.00  0.00     0.006 C 
BRANCH   2   3
ATOM      3  C   UNL     1      -4.060   3.860 -13.266  1.00  0.00     0.053 C 
BRANCH   3   4
ATOM      4  C   UNL     1      -3.114   3.433 -12.189  1.00  0.00     0.041 C 
ATOM      5  O   UNL     1      -2.267   2.528 -12.412  1.00  0.00    -0.550 OA
ATOM      6  O   UNL     1      -3.132   4.069 -10.954  1.00  0.00    -0.550 OA
ENDBRANCH   3   4
ENDBRANCH   2   3
ENDBRANCH   1   2
BRANCH   1   7
ATOM      7  C   UNL     1      -2.962   6.398 -15.745  1.00  0.00     0.000 C 
BRANCH   7   8
ATOM      8  C   UNL     1      -3.365   5.545 -16.960  1.00  0.00    -0.000 C 
BRANCH   8   9
ATOM      9  C   UNL     1      -4.887   5.490 -17.163  1.00  0.00    -0.003 C 
ATOM     10  C   UNL     1      -5.416   4.064 -17.311  1.00  0.00     0.004 C 
ENDBRANCH   8   9
ENDBRANCH   7   8
ENDBRANCH   1   7
TORSDOF 6
ENDMDL
MODEL 8
REMARK VINA RESULT:    -3.478      1.810      3.168
REMARK INTER + INTRA:          -5.014
REMARK INTER:                  -4.434
REMARK INTRA:                  -0.580
REMARK UNBOUND:                -0.317
REMARK SMILES CCCCCCCC(=O)[O-]
REMARK SMILES IDX 5 1 6 2 7 3 8 4 9 5 10 6 4 7 3 8 2 9 1 10
REMARK H PARENT
REMARK Flexibility Score: inf
ROOT
ATOM      1  C   UNL     1      -4.004   4.563 -13.800  1.00  0.00     0.000 C 
ENDROOT
BRANCH   1   2
ATOM      2  C   UNL     1      -3.915   3.510 -12.686  1.00  0.00     0.006 C 
BRANCH   2   3
ATOM      3  C   UNL     1      -2.483   2.986 -12.541  1.00  0.00     0.053 C 
BRANCH   3   4
ATOM      4  C   UNL     1      -2.032   3.077 -11.117  1.00  0.00     0.041 C 
ATOM      5  O   UNL     1      -2.661   3.797 -10.298  1.00  0.00    -0.550 OA
ATOM      6  O   UNL     1      -0.947   2.326 -10.681  1.00  0.00    -0.550 OA
ENDBRANCH   3   4
ENDBRANCH   2   3
ENDBRANCH   1   2
BRANCH   1   7
ATOM      7  C   UNL     1      -3.047   5.745 -13.578  1.00  0.00     0.000 C 
BRANCH   7   8
ATOM      8  C   UNL     1      -3.576   6.746 -12.536  1.00  0.00    -0.000 C 
BRANCH   8   9
ATOM      9  C   UNL     1      -2.446   7.474 -11.792  1.00  0.00    -0.003 C 
ATOM     10  C   UNL     1      -1.147   6.669 -11.750  1.00  0.00     0.004 C 
ENDBRANCH   8   9
ENDBRANCH   7   8
ENDBRANCH   1   7
TORSDOF 6
ENDMDL
MODEL 9
REMARK VINA RESULT:    -3.423     11.528     13.983
REMARK INTER + INTRA:          -4.941
REMARK INTER:                  -4.729
REMARK INTRA:                  -0.212
REMARK UNBOUND:                -0.317
REMARK SMILES CCCCCCCC(=O)[O-]
REMARK SMILES IDX 5 1 6 2 7 3 8 4 9 5 10 6 4 7 3 8 2 9 1 10
REMARK H PARENT
REMARK Flexibility Score: inf
ROOT
ATOM      1  C   UNL     1      -5.462  -3.936  -2.064  1.00  0.00     0.000 C 
ENDROOT
BRANCH   1   2
ATOM      2  C   UNL     1      -4.490  -3.813  -3.248  1.00  0.00     0.006 C 
BRANCH   2   3
ATOM      3  C   UNL     1      -5.232  -3.407  -4.525  1.00  0.00     0.053 C 
BRANCH   3   4
ATOM      4  C   UNL     1      -4.464  -2.360  -5.268  1.00  0.00     0.041 C 
ATOM      5  O   UNL     1      -3.220  -2.254  -5.108  1.00  0.00    -0.550 OA
ATOM      6  O   UNL     1      -5.114  -1.533  -6.176  1.00  0.00    -0.550 OA
ENDBRANCH   3   4
ENDBRANCH   2   3
ENDBRANCH   1   2
BRANCH   1   7
ATOM      7  C   UNL     1      -5.072  -3.037  -0.880  1.00  0.00     0.000 C 
BRANCH   7   8
ATOM      8  C   UNL     1      -6.028  -3.190   0.316  1.00  0.00    -0.000 C 
BRANCH   8   9
ATOM      9  C   UNL     1      -7.493  -2.923  -0.063  1.00  0.00    -0.003 C 
ATOM     10  C   UNL     1      -8.433  -4.048   0.370  1.00  0.00     0.004 C 
ENDBRANCH   8   9
ENDBRANCH   7   8
ENDBRANCH   1   7
TORSDOF 6
ENDMDL
