MODEL 1
REMARK VINA RESULT:    -2.187      0.000      0.000
REMARK INTER + INTRA:          -3.823
REMARK INTER:                  -3.146
REMARK INTRA:                  -0.677
REMARK UNBOUND:                -0.677
REMARK SMILES CCCCCCCCCO
REMARK SMILES IDX 6 1 5 2 4 3 3 4 2 5 1 6 7 7 8 8 9 9 10 10
REMARK H PARENT 10 11
REMARK Flexibility Score: inf
ROOT
ATOM      1  C   UNL     1     142.523 144.121 139.623  1.00  0.00     0.000 C 
ENDROOT
BRANCH   1   2
ATOM      2  C   UNL     1     144.048 144.293 139.700  1.00  0.00     0.000 C 
BRANCH   2   3
ATOM      3  C   UNL     1     144.513 145.674 139.213  1.00  0.00    -0.000 C 
BRANCH   3   4
ATOM      4  C   UNL     1     143.589 146.809 139.679  1.00  0.00    -0.000 C 
BRANCH   4   5
ATOM      5  C   UNL     1     143.238 147.744 138.515  1.00  0.00    -0.003 C 
ATOM      6  C   UNL     1     143.877 147.269 137.214  1.00  0.00     0.004 C 
ENDBRANCH   4   5
ENDBRANCH   3   4
ENDBRANCH   2   3
ENDBRANCH   1   2
BRANCH   1   7
ATOM      7  C   UNL     1     142.102 143.575 138.249  1.00  0.00     0.002 C 
BRANCH   7   8
ATOM      8  C   UNL     1     141.320 144.605 137.415  1.00  0.00     0.028 C 
BRANCH   8   9
ATOM      9  C   UNL     1     140.361 143.972 136.401  1.00  0.00     0.156 C 
BRANCH   9  10
ATOM     10  O   UNL     1     139.888 144.943 135.508  1.00  0.00    -0.396 OA
ATOM     11  H   UNL     1     139.362 145.584 136.052  1.00  0.00     0.210 HD
ENDBRANCH   9  10
ENDBRANCH   8   9
ENDBRANCH   7   8
ENDBRANCH   1   7
TORSDOF 8
ENDMDL
MODEL 2
REMARK VINA RESULT:    -2.163      9.203     10.506
REMARK INTER + INTRA:          -3.788
REMARK INTER:                  -3.086
REMARK INTRA:                  -0.701
REMARK UNBOUND:                -0.677
REMARK SMILES CCCCCCCCCO
REMARK SMILES IDX 6 1 5 2 4 3 3 4 2 5 1 6 7 7 8 8 9 9 10 10
REMARK H PARENT 10 11
REMARK Flexibility Score: inf
ROOT
ATOM      1  C   UNL     1     133.532 144.467 139.944  1.00  0.00     0.000 C 
ENDROOT
BRANCH   1   2
ATOM      2  C   UNL     1     133.765 145.986 139.972  1.00  0.00     0.000 C 
BRANCH   2   3
ATOM      3  C   UNL     1     132.567 146.778 139.425  1.00  0.00    -0.000 C 
BRANCH   3   4
ATOM      4  C   UNL     1     131.222 146.261 139.957  1.00  0.00    -0.000 C 
BRANCH   4   5
ATOM      5  C   UNL     1     130.228 146.039 138.811  1.00  0.00    -0.003 C 
ATOM      6  C   UNL     1     130.876 146.313 137.457  1.00  0.00     0.004 C 
ENDBRANCH   4   5
ENDBRANCH   3   4
ENDBRANCH   2   3
ENDBRANCH   1   2
BRANCH   1   7
ATOM      7  C   UNL     1     133.828 143.893 138.550  1.00  0.00     0.002 C 
BRANCH   7   8
ATOM      8  C   UNL     1     132.629 143.137 137.952  1.00  0.00     0.028 C 
BRANCH   8   9
ATOM      9  C   UNL     1     132.933 142.465 136.610  1.00  0.00     0.156 C 
BRANCH   9  10
ATOM     10  O   UNL     1     131.837 142.586 135.745  1.00  0.00    -0.396 OA
ATOM     11  H   UNL     1     132.191 142.979 134.906  1.00  0.00     0.210 HD
ENDBRANCH   9  10
ENDBRANCH   8   9
ENDBRANCH   7   8
ENDBRANCH   1   7
TORSDOF 8
ENDMDL
MODEL 3
REMARK VINA RESULT:    -2.149      1.572      2.771
REMARK INTER + INTRA:          -3.768
REMARK INTER:                  -3.133
REMARK INTRA:                  -0.635
REMARK UNBOUND:                -0.677
REMARK SMILES CCCCCCCCCO
REMARK SMILES IDX 6 1 5 2 4 3 3 4 2 5 1 6 7 7 8 8 9 9 10 10
REMARK H PARENT 10 11
REMARK Flexibility Score: inf
ROOT
ATOM      1  C   UNL     1     140.590 147.596 138.977  1.00  0.00     0.000 C 
ENDROOT
BRANCH   1   2
ATOM      2  C   UNL     1     142.047 147.634 139.462  1.00  0.00     0.000 C 
BRANCH   2   3
ATOM      3  C   UNL     1     143.047 147.869 138.318  1.00  0.00    -0.000 C 
BRANCH   3   4
ATOM      4  C   UNL     1     143.708 146.570 137.835  1.00  0.00    -0.000 C 
BRANCH   4   5
ATOM      5  C   UNL     1     143.766 145.531 138.961  1.00  0.00    -0.003 C 
ATOM      6  C   UNL     1     145.161 145.458 139.574  1.00  0.00     0.004 C 
ENDBRANCH   4   5
ENDBRANCH   3   4
ENDBRANCH   2   3
ENDBRANCH   1   2
BRANCH   1   7
ATOM      7  C   UNL     1     140.010 146.178 139.099  1.00  0.00     0.002 C 
BRANCH   7   8
ATOM      8  C   UNL     1     139.606 145.582 137.739  1.00  0.00     0.028 C 
BRANCH   8   9
ATOM      9  C   UNL     1     140.593 144.538 137.208  1.00  0.00     0.156 C 
BRANCH   9  10
ATOM     10  O   UNL     1     140.959 144.841 135.890  1.00  0.00    -0.396 OA
ATOM     11  H   UNL     1     141.169 145.810 135.878  1.00  0.00     0.210 HD
ENDBRANCH   9  10
ENDBRANCH   8   9
ENDBRANCH   7   8
ENDBRANCH   1   7
TORSDOF 8
ENDMDL
MODEL 4
REMARK VINA RESULT:    -2.137     10.550     12.588
REMARK INTER + INTRA:          -3.750
REMARK INTER:                  -3.006
REMARK INTRA:                  -0.744
REMARK UNBOUND:                -0.677
REMARK SMILES CCCCCCCCCO
REMARK SMILES IDX 6 1 5 2 4 3 3 4 2 5 1 6 7 7 8 8 9 9 10 10
REMARK H PARENT 10 11
REMARK Flexibility Score: inf
ROOT
ATOM      1  C   UNL     1     129.150 145.593 139.307  1.00  0.00     0.000 C 
ENDROOT
BRANCH   1   2
ATOM      2  C   UNL     1     129.533 146.248 137.971  1.00  0.00     0.000 C 
BRANCH   2   3
ATOM      3  C   UNL     1     131.039 146.159 137.678  1.00  0.00    -0.000 C 
BRANCH   3   4
ATOM      4  C   UNL     1     131.887 146.072 138.955  1.00  0.00    -0.000 C 
BRANCH   4   5
ATOM      5  C   UNL     1     132.751 144.805 138.956  1.00  0.00    -0.003 C 
ATOM      6  C   UNL     1     132.382 143.885 137.796  1.00  0.00     0.004 C 
ENDBRANCH   4   5
ENDBRANCH   3   4
ENDBRANCH   2   3
ENDBRANCH   1   2
BRANCH   1   7
ATOM      7  C   UNL     1     128.447 144.247 139.075  1.00  0.00     0.002 C 
BRANCH   7   8
ATOM      8  C   UNL     1     129.202 143.065 139.708  1.00  0.00     0.028 C 
BRANCH   8   9
ATOM      9  C   UNL     1     129.180 141.793 138.854  1.00  0.00     0.156 C 
BRANCH   9  10
ATOM     10  O   UNL     1     129.335 142.115 137.499  1.00  0.00    -0.396 OA
ATOM     11  H   UNL     1     129.790 141.338 137.082  1.00  0.00     0.210 HD
ENDBRANCH   9  10
ENDBRANCH   8   9
ENDBRANCH   7   8
ENDBRANCH   1   7
TORSDOF 8
ENDMDL
MODEL 5
REMARK VINA RESULT:    -2.135     10.382     12.039
REMARK INTER + INTRA:          -3.749
REMARK INTER:                  -3.122
REMARK INTRA:                  -0.627
REMARK UNBOUND:                -0.677
REMARK SMILES CCCCCCCCCO
REMARK SMILES IDX 6 1 5 2 4 3 3 4 2 5 1 6 7 7 8 8 9 9 10 10
REMARK H PARENT 10 11
REMARK Flexibility Score: inf
ROOT
ATOM      1  C   UNL     1     132.630 144.441 138.873  1.00  0.00     0.000 C 
ENDROOT
BRANCH   1   2
ATOM      2  C   UNL     1     132.299 145.940 138.903  1.00  0.00     0.000 C 
BRANCH   2   3
ATOM      3  C   UNL     1     130.999 146.275 138.155  1.00  0.00    -0.000 C 
BRANCH   3   4
ATOM      4  C   UNL     1     129.766 146.255 139.071  1.00  0.00    -0.000 C 
BRANCH   4   5
ATOM      5  C   UNL     1     128.634 145.428 138.450  1.00  0.00    -0.003 C 
ATOM      6  C   UNL     1     128.509 144.066 139.126  1.00  0.00     0.004 C 
ENDBRANCH   4   5
ENDBRANCH   3   4
ENDBRANCH   2   3
ENDBRANCH   1   2
BRANCH   1   7
ATOM      7  C   UNL     1     132.144 143.798 137.565  1.00  0.00     0.002 C 
BRANCH   7   8
ATOM      8  C   UNL     1     131.501 142.417 137.784  1.00  0.00     0.028 C 
BRANCH   8   9
ATOM      9  C   UNL     1     131.816 141.410 136.674  1.00  0.00     0.156 C 
BRANCH   9  10
ATOM     10  O   UNL     1     131.257 141.832 135.460  1.00  0.00    -0.396 OA
ATOM     11  H   UNL     1     131.920 142.445 135.050  1.00  0.00     0.210 HD
ENDBRANCH   9  10
ENDBRANCH   8   9
ENDBRANCH   7   8
ENDBRANCH   1   7
TORSDOF 8
ENDMDL
MODEL 6
REMARK VINA RESULT:    -2.135     10.495     12.091
REMARK INTER + INTRA:          -3.748
REMARK INTER:                  -2.987
REMARK INTRA:                  -0.760
REMARK UNBOUND:                -0.677
REMARK SMILES CCCCCCCCCO
REMARK SMILES IDX 6 1 5 2 4 3 3 4 2 5 1 6 7 7 8 8 9 9 10 10
REMARK H PARENT 10 11
REMARK Flexibility Score: inf
ROOT
ATOM      1  C   UNL     1     132.662 146.986 139.413  1.00  0.00     0.000 C 
ENDROOT
BRANCH   1   2
ATOM      2  C   UNL     1     132.558 147.334 140.906  1.00  0.00     0.000 C 
BRANCH   2   3
ATOM      3  C   UNL     1     131.269 148.099 141.247  1.00  0.00    -0.000 C 
BRANCH   3   4
ATOM      4  C   UNL     1     130.177 147.190 141.831  1.00  0.00    -0.000 C 
BRANCH   4   5
ATOM      5  C   UNL     1     128.991 147.069 140.867  1.00  0.00    -0.003 C 
ATOM      6  C   UNL     1     128.566 145.614 140.694  1.00  0.00     0.004 C 
ENDBRANCH   4   5
ENDBRANCH   3   4
ENDBRANCH   2   3
ENDBRANCH   1   2
BRANCH   1   7
ATOM      7  C   UNL     1     132.437 145.483 139.184  1.00  0.00     0.002 C 
BRANCH   7   8
ATOM      8  C   UNL     1     131.314 145.199 138.170  1.00  0.00     0.028 C 
BRANCH   8   9
ATOM      9  C   UNL     1     130.656 146.464 137.611  1.00  0.00     0.156 C 
BRANCH   9  10
ATOM     10  O   UNL     1     130.862 146.549 136.227  1.00  0.00    -0.396 OA
ATOM     11  H   UNL     1     130.703 145.638 135.870  1.00  0.00     0.210 HD
ENDBRANCH   9  10
ENDBRANCH   8   9
ENDBRANCH   7   8
ENDBRANCH   1   7
TORSDOF 8
ENDMDL
MODEL 7
REMARK VINA RESULT:    -2.135      1.313      2.110
REMARK INTER + INTRA:          -3.747
REMARK INTER:                  -3.396
REMARK INTRA:                  -0.351
REMARK UNBOUND:                -0.677
REMARK SMILES CCCCCCCCCO
REMARK SMILES IDX 6 1 5 2 4 3 3 4 2 5 1 6 7 7 8 8 9 9 10 10
REMARK H PARENT 10 11
REMARK Flexibility Score: inf
ROOT
ATOM      1  C   UNL     1     142.423 144.456 138.775  1.00  0.00     0.000 C 
ENDROOT
BRANCH   1   2
ATOM      2  C   UNL     1     142.799 145.738 138.018  1.00  0.00     0.000 C 
BRANCH   2   3
ATOM      3  C   UNL     1     144.027 146.442 138.619  1.00  0.00    -0.000 C 
BRANCH   3   4
ATOM      4  C   UNL     1     144.930 145.485 139.411  1.00  0.00    -0.000 C 
BRANCH   4   5
ATOM      5  C   UNL     1     145.825 146.258 140.387  1.00  0.00    -0.003 C 
ATOM      6  C   UNL     1     145.040 147.345 141.114  1.00  0.00     0.004 C 
ENDBRANCH   4   5
ENDBRANCH   3   4
ENDBRANCH   2   3
ENDBRANCH   1   2
BRANCH   1   7
ATOM      7  C   UNL     1     141.274 143.720 138.069  1.00  0.00     0.002 C 
BRANCH   7   8
ATOM      8  C   UNL     1     140.935 144.326 136.696  1.00  0.00     0.028 C 
BRANCH   8   9
ATOM      9  C   UNL     1     139.450 144.659 136.521  1.00  0.00     0.156 C 
BRANCH   9  10
ATOM     10  O   UNL     1     139.253 145.401 135.349  1.00  0.00    -0.396 OA
ATOM     11  H   UNL     1     138.413 145.911 135.485  1.00  0.00     0.210 HD
ENDBRANCH   9  10
ENDBRANCH   8   9
ENDBRANCH   7   8
ENDBRANCH   1   7
TORSDOF 8
ENDMDL
MODEL 8
REMARK VINA RESULT:    -2.110     10.641     12.150
REMARK INTER + INTRA:          -3.712
REMARK INTER:                  -3.184
REMARK INTRA:                  -0.528
REMARK UNBOUND:                -0.677
REMARK SMILES CCCCCCCCCO
REMARK SMILES IDX 6 1 5 2 4 3 3 4 2 5 1 6 7 7 8 8 9 9 10 10
REMARK H PARENT 10 11
REMARK Flexibility Score: inf
ROOT
ATOM      1  C   UNL     1     128.821 143.172 138.624  1.00  0.00     0.000 C 
ENDROOT
BRANCH   1   2
ATOM      2  C   UNL     1     129.638 144.321 139.235  1.00  0.00     0.000 C 
BRANCH   2   3
ATOM      3  C   UNL     1     129.483 145.637 138.456  1.00  0.00    -0.000 C 
BRANCH   3   4
ATOM      4  C   UNL     1     130.804 146.118 137.838  1.00  0.00    -0.000 C 
BRANCH   4   5
ATOM      5  C   UNL     1     131.986 145.823 138.770  1.00  0.00    -0.003 C 
ATOM      6  C   UNL     1     132.392 147.066 139.556  1.00  0.00     0.004 C 
ENDBRANCH   4   5
ENDBRANCH   3   4
ENDBRANCH   2   3
ENDBRANCH   1   2
BRANCH   1   7
ATOM      7  C   UNL     1     129.693 141.921 138.433  1.00  0.00     0.002 C 
BRANCH   7   8
ATOM      8  C   UNL     1     131.154 142.261 138.091  1.00  0.00     0.028 C 
BRANCH   8   9
ATOM      9  C   UNL     1     131.592 141.767 136.708  1.00  0.00     0.156 C 
BRANCH   9  10
ATOM     10  O   UNL     1     131.845 142.854 135.861  1.00  0.00    -0.396 OA
ATOM     11  H   UNL     1     130.968 143.292 135.706  1.00  0.00     0.210 HD
ENDBRANCH   9  10
ENDBRANCH   8   9
ENDBRANCH   7   8
ENDBRANCH   1   7
TORSDOF 8
ENDMDL
MODEL 9
REMARK VINA RESULT:    -2.084     10.686     12.262
REMARK INTER + INTRA:          -3.675
REMARK INTER:                  -2.898
REMARK INTRA:                  -0.778
REMARK UNBOUND:                -0.677
REMARK SMILES CCCCCCCCCO
REMARK SMILES IDX 6 1 5 2 4 3 3 4 2 5 1 6 7 7 8 8 9 9 10 10
REMARK H PARENT 10 11
REMARK Flexibility Score: inf
ROOT
ATOM      1  C   UNL     1     130.871 146.257 137.733  1.00  0.00     0.000 C 
ENDROOT
BRANCH   1   2
ATOM      2  C   UNL     1     131.811 145.567 138.734  1.00  0.00     0.000 C 
BRANCH   2   3
ATOM      3  C   UNL     1     132.816 146.540 139.370  1.00  0.00    -0.000 C 
BRANCH   3   4
ATOM      4  C   UNL     1     132.471 146.877 140.829  1.00  0.00    -0.000 C 
BRANCH   4   5
ATOM      5  C   UNL     1     131.582 148.125 140.908  1.00  0.00    -0.003 C 
ATOM      6  C   UNL     1     130.309 147.845 141.700  1.00  0.00     0.004 C 
ENDBRANCH   4   5
ENDBRANCH   3   4
ENDBRANCH   2   3
ENDBRANCH   1   2
BRANCH   1   7
ATOM      7  C   UNL     1     129.414 146.189 138.215  1.00  0.00     0.002 C 
BRANCH   7   8
ATOM      8  C   UNL     1     129.204 145.150 139.331  1.00  0.00     0.028 C 
BRANCH   8   9
ATOM      9  C   UNL     1     128.310 143.977 138.917  1.00  0.00     0.156 C 
BRANCH   9  10
ATOM     10  O   UNL     1     129.028 143.074 138.122  1.00  0.00    -0.396 OA
ATOM     11  H   UNL     1     128.961 142.194 138.575  1.00  0.00     0.210 HD
ENDBRANCH   9  10
ENDBRANCH   8   9
ENDBRANCH   7   8
ENDBRANCH   1   7
TORSDOF 8
ENDMDL
