MODEL 1
REMARK VINA RESULT:    -6.072      0.000      0.000
REMARK INTER + INTRA:          -9.419
REMARK INTER:                  -8.202
REMARK INTRA:                  -1.217
REMARK UNBOUND:                -1.217
REMARK SMILES O=c1c(-c2ccc(O)cc2)coc2c([C@@H]3O[C@@H](CO)[C@@H](O)[C@H](O)[C@@H]3O)c(O)ccc12
REMARK SMILES IDX 3 1 11 2 12 3 13 4 30 5 2 6 1 7 29 8 28 9 26 10 14 11 4 12
REMARK SMILES IDX 5 13 6 14 7 15 10 16 9 17 8 18 15 20 24 21 16 22 22 23 17 24
REMARK SMILES IDX 20 25 25 26 23 28 18 30 19 31 21 33 27 35
REMARK H PARENT 8 19 25 27 23 29 19 32 21 34 27 36
REMARK Flexibility Score: inf
ROOT
ATOM      1  C   UNL     1      -0.417 -27.432  -9.672  1.00  0.00     0.065 A 
ATOM      2  C   UNL     1      -0.033 -28.390 -10.619  1.00  0.00     0.208 A 
ATOM      3  O   UNL     1      -0.197 -29.684 -10.379  1.00  0.00    -0.463 OA
ATOM      4  C   UNL     1      -0.729 -30.166  -9.256  1.00  0.00     0.147 A 
ATOM      5  C   UNL     1      -1.183 -29.258  -8.266  1.00  0.00     0.066 A 
ATOM      6  C   UNL     1      -1.012 -27.880  -8.481  1.00  0.00     0.200 A 
ATOM      7  O   UNL     1      -1.376 -27.047  -7.609  1.00  0.00    -0.288 OA
ATOM      8  C   UNL     1      -1.798 -29.743  -7.105  1.00  0.00     0.020 A 
ATOM      9  C   UNL     1      -1.931 -31.112  -6.906  1.00  0.00     0.047 A 
ATOM     10  C   UNL     1      -1.428 -32.027  -7.834  1.00  0.00     0.125 A 
ATOM     11  C   UNL     1      -0.838 -31.574  -9.046  1.00  0.00     0.069 A 
ENDROOT
BRANCH   1  12
ATOM     12  C   UNL     1      -0.162 -25.995  -9.928  1.00  0.00    -0.011 A 
ATOM     13  C   UNL     1      -1.139 -25.211 -10.565  1.00  0.00     0.013 A 
ATOM     14  C   UNL     1      -0.908 -23.855 -10.817  1.00  0.00     0.047 A 
ATOM     15  C   UNL     1       0.291 -23.260 -10.411  1.00  0.00     0.115 A 
ATOM     16  C   UNL     1       1.046 -25.400  -9.532  1.00  0.00     0.013 A 
ATOM     17  C   UNL     1       1.270 -24.039  -9.771  1.00  0.00     0.047 A 
BRANCH  15  18
ATOM     18  O   UNL     1       0.493 -21.900 -10.634  1.00  0.00    -0.508 OA
ATOM     19  H   UNL     1       0.500 -21.247  -9.862  1.00  0.00     0.293 HD
ENDBRANCH  15  18
ENDBRANCH   1  12
BRANCH  11  20
ATOM     20  C   UNL     1      -0.420 -32.589 -10.120  1.00  0.00     0.188 C 
ATOM     21  C   UNL     1       1.023 -33.086  -9.846  1.00  0.00     0.179 C 
ATOM     22  O   UNL     1      -1.331 -33.683 -10.187  1.00  0.00    -0.362 OA
ATOM     23  C   UNL     1       1.447 -34.099 -10.920  1.00  0.00     0.177 C 
ATOM     24  C   UNL     1      -1.021 -34.620 -11.210  1.00  0.00     0.176 C 
ATOM     25  C   UNL     1       0.395 -35.219 -11.029  1.00  0.00     0.177 C 
BRANCH  21  26
ATOM     26  O   UNL     1       1.094 -33.671  -8.567  1.00  0.00    -0.387 OA
ATOM     27  H   UNL     1       0.201 -34.070  -8.383  1.00  0.00     0.211 HD
ENDBRANCH  21  26
BRANCH  23  28
ATOM     28  O   UNL     1       2.699 -34.648 -10.574  1.00  0.00    -0.387 OA
ATOM     29  H   UNL     1       3.357 -34.348 -11.255  1.00  0.00     0.211 HD
ENDBRANCH  23  28
BRANCH  24  30
ATOM     30  C   UNL     1      -1.303 -34.044 -12.617  1.00  0.00     0.191 C 
BRANCH  30  31
ATOM     31  O   UNL     1      -1.607 -35.079 -13.511  1.00  0.00    -0.394 OA
ATOM     32  H   UNL     1      -1.158 -35.893 -13.161  1.00  0.00     0.210 HD
ENDBRANCH  30  31
ENDBRANCH  24  30
BRANCH  25  33
ATOM     33  O   UNL     1       0.686 -36.096 -12.090  1.00  0.00    -0.388 OA
ATOM     34  H   UNL     1       1.269 -36.815 -11.736  1.00  0.00     0.211 HD
ENDBRANCH  25  33
ENDBRANCH  11  20
BRANCH  10  35
ATOM     35  O   UNL     1      -1.518 -33.383  -7.501  1.00  0.00    -0.507 OA
ATOM     36  H   UNL     1      -2.391 -33.897  -7.431  1.00  0.00     0.293 HD
ENDBRANCH  10  35
TORSDOF 9
ENDMDL
MODEL 2
REMARK VINA RESULT:    -6.057      2.094      9.247
REMARK INTER + INTRA:          -9.399
REMARK INTER:                  -8.551
REMARK INTRA:                  -0.848
REMARK UNBOUND:                -1.217
REMARK SMILES O=c1c(-c2ccc(O)cc2)coc2c([C@@H]3O[C@@H](CO)[C@@H](O)[C@H](O)[C@@H]3O)c(O)ccc12
REMARK SMILES IDX 3 1 11 2 12 3 13 4 30 5 2 6 1 7 29 8 28 9 26 10 14 11 4 12
REMARK SMILES IDX 5 13 6 14 7 15 10 16 9 17 8 18 15 20 24 21 16 22 22 23 17 24
REMARK SMILES IDX 20 25 25 26 23 28 18 30 19 31 21 33 27 35
REMARK H PARENT 8 19 25 27 23 29 19 32 21 34 27 36
REMARK Flexibility Score: inf
ROOT
ATOM      1  C   UNL     1      -0.272 -28.811  -9.551  1.00  0.00     0.065 A 
ATOM      2  C   UNL     1       0.332 -27.784 -10.287  1.00  0.00     0.208 A 
ATOM      3  O   UNL     1       0.146 -26.513  -9.958  1.00  0.00    -0.463 OA
ATOM      4  C   UNL     1      -0.603 -26.118  -8.928  1.00  0.00     0.147 A 
ATOM      5  C   UNL     1      -1.214 -27.100  -8.107  1.00  0.00     0.066 A 
ATOM      6  C   UNL     1      -1.049 -28.456  -8.435  1.00  0.00     0.200 A 
ATOM      7  O   UNL     1      -1.602 -29.353  -7.745  1.00  0.00    -0.288 OA
ATOM      8  C   UNL     1      -1.957 -26.706  -6.986  1.00  0.00     0.020 A 
ATOM      9  C   UNL     1      -2.125 -25.358  -6.699  1.00  0.00     0.047 A 
ATOM     10  C   UNL     1      -1.593 -24.372  -7.534  1.00  0.00     0.125 A 
ATOM     11  C   UNL     1      -0.795 -24.731  -8.654  1.00  0.00     0.069 A 
ENDROOT
BRANCH   1  12
ATOM     12  C   UNL     1      -0.109 -30.221  -9.975  1.00  0.00    -0.011 A 
ATOM     13  C   UNL     1      -0.970 -30.768 -10.941  1.00  0.00     0.013 A 
ATOM     14  C   UNL     1      -0.828 -32.099 -11.346  1.00  0.00     0.047 A 
ATOM     15  C   UNL     1       0.192 -32.892 -10.809  1.00  0.00     0.115 A 
ATOM     16  C   UNL     1       0.907 -31.021  -9.428  1.00  0.00     0.013 A 
ATOM     17  C   UNL     1       1.057 -32.348  -9.845  1.00  0.00     0.047 A 
BRANCH  15  18
ATOM     18  O   UNL     1       0.345 -34.204 -11.248  1.00  0.00    -0.508 OA
ATOM     19  H   UNL     1       1.160 -34.477 -11.781  1.00  0.00     0.293 HD
ENDBRANCH  15  18
ENDBRANCH   1  12
BRANCH  11  20
ATOM     20  C   UNL     1      -0.098 -23.638  -9.479  1.00  0.00     0.188 C 
ATOM     21  C   UNL     1      -0.751 -23.535 -10.881  1.00  0.00     0.179 C 
ATOM     22  O   UNL     1      -0.129 -22.380  -8.810  1.00  0.00    -0.362 OA
ATOM     23  C   UNL     1      -0.055 -22.446 -11.711  1.00  0.00     0.177 C 
ATOM     24  C   UNL     1       0.560 -21.348  -9.506  1.00  0.00     0.176 C 
ATOM     25  C   UNL     1      -0.025 -21.123 -10.921  1.00  0.00     0.177 C 
BRANCH  21  26
ATOM     26  O   UNL     1      -2.123 -23.248 -10.752  1.00  0.00    -0.387 OA
ATOM     27  H   UNL     1      -2.192 -22.300 -10.457  1.00  0.00     0.211 HD
ENDBRANCH  21  26
BRANCH  23  28
ATOM     28  O   UNL     1      -0.753 -22.265 -12.923  1.00  0.00    -0.387 OA
ATOM     29  H   UNL     1      -1.603 -22.775 -12.859  1.00  0.00     0.211 HD
ENDBRANCH  23  28
BRANCH  24  30
ATOM     30  C   UNL     1       2.092 -21.554  -9.465  1.00  0.00     0.191 C 
BRANCH  30  31
ATOM     31  O   UNL     1       2.743 -20.320  -9.342  1.00  0.00    -0.394 OA
ATOM     32  H   UNL     1       2.603 -20.022  -8.404  1.00  0.00     0.210 HD
ENDBRANCH  30  31
ENDBRANCH  24  30
BRANCH  25  33
ATOM     33  O   UNL     1       0.717 -20.137 -11.597  1.00  0.00    -0.388 OA
ATOM     34  H   UNL     1       0.329 -20.035 -12.502  1.00  0.00     0.211 HD
ENDBRANCH  25  33
ENDBRANCH  11  20
BRANCH  10  35
ATOM     35  O   UNL     1      -1.899 -23.043  -7.221  1.00  0.00    -0.507 OA
ATOM     36  H   UNL     1      -1.293 -22.254  -7.424  1.00  0.00     0.293 HD
ENDBRANCH  10  35
TORSDOF 9
ENDMDL
MODEL 3
REMARK VINA RESULT:    -5.701      2.074      8.649
REMARK INTER + INTRA:          -8.919
REMARK INTER:                  -8.459
REMARK INTRA:                  -0.460
REMARK UNBOUND:                -1.217
REMARK SMILES O=c1c(-c2ccc(O)cc2)coc2c([C@@H]3O[C@@H](CO)[C@@H](O)[C@H](O)[C@@H]3O)c(O)ccc12
REMARK SMILES IDX 3 1 11 2 12 3 13 4 30 5 2 6 1 7 29 8 28 9 26 10 14 11 4 12
REMARK SMILES IDX 5 13 6 14 7 15 10 16 9 17 8 18 15 20 24 21 16 22 22 23 17 24
REMARK SMILES IDX 20 25 25 26 23 28 18 30 19 31 21 33 27 35
REMARK H PARENT 8 19 25 27 23 29 19 32 21 34 27 36
REMARK Flexibility Score: inf
ROOT
ATOM      1  C   UNL     1      -0.548 -28.973  -9.641  1.00  0.00     0.065 A 
ATOM      2  C   UNL     1      -0.187 -27.868 -10.422  1.00  0.00     0.208 A 
ATOM      3  O   UNL     1      -0.403 -26.633  -9.991  1.00  0.00    -0.463 OA
ATOM      4  C   UNL     1      -0.959 -26.348  -8.812  1.00  0.00     0.147 A 
ATOM      5  C   UNL     1      -1.313 -27.412  -7.945  1.00  0.00     0.066 A 
ATOM      6  C   UNL     1      -1.111 -28.734  -8.376  1.00  0.00     0.200 A 
ATOM      7  O   UNL     1      -1.442 -29.703  -7.643  1.00  0.00    -0.288 OA
ATOM      8  C   UNL     1      -1.844 -27.132  -6.679  1.00  0.00     0.020 A 
ATOM      9  C   UNL     1      -2.058 -25.816  -6.289  1.00  0.00     0.047 A 
ATOM     10  C   UNL     1      -1.783 -24.754  -7.154  1.00  0.00     0.125 A 
ATOM     11  C   UNL     1      -1.201 -24.995  -8.428  1.00  0.00     0.069 A 
ENDROOT
BRANCH   1  12
ATOM     12  C   UNL     1      -0.362 -30.345 -10.169  1.00  0.00    -0.011 A 
ATOM     13  C   UNL     1      -1.153 -30.799 -11.238  1.00  0.00     0.013 A 
ATOM     14  C   UNL     1      -0.990 -32.094 -11.742  1.00  0.00     0.047 A 
ATOM     15  C   UNL     1      -0.017 -32.941 -11.200  1.00  0.00     0.115 A 
ATOM     16  C   UNL     1       0.605 -31.200  -9.618  1.00  0.00     0.013 A 
ATOM     17  C   UNL     1       0.778 -32.490 -10.133  1.00  0.00     0.047 A 
BRANCH  15  18
ATOM     18  O   UNL     1       0.160 -34.214 -11.735  1.00  0.00    -0.508 OA
ATOM     19  H   UNL     1       1.049 -34.689 -11.651  1.00  0.00     0.293 HD
ENDBRANCH  15  18
ENDBRANCH   1  12
BRANCH  11  20
ATOM     20  C   UNL     1      -0.772 -23.812  -9.309  1.00  0.00     0.188 C 
ATOM     21  C   UNL     1       0.758 -23.592  -9.192  1.00  0.00     0.179 C 
ATOM     22  O   UNL     1      -1.155 -24.007 -10.668  1.00  0.00    -0.362 OA
ATOM     23  C   UNL     1       1.192 -22.408 -10.069  1.00  0.00     0.177 C 
ATOM     24  C   UNL     1      -0.835 -22.909 -11.513  1.00  0.00     0.176 C 
ATOM     25  C   UNL     1       0.683 -22.608 -11.509  1.00  0.00     0.177 C 
BRANCH  21  26
ATOM     26  O   UNL     1       1.442 -24.761  -9.578  1.00  0.00    -0.387 OA
ATOM     27  H   UNL     1       0.972 -25.525  -9.147  1.00  0.00     0.211 HD
ENDBRANCH  21  26
BRANCH  23  28
ATOM     28  O   UNL     1       2.599 -22.316 -10.065  1.00  0.00    -0.387 OA
ATOM     29  H   UNL     1       2.945 -23.010  -9.443  1.00  0.00     0.211 HD
ENDBRANCH  23  28
BRANCH  24  30
ATOM     30  C   UNL     1      -1.737 -21.686 -11.228  1.00  0.00     0.191 C 
BRANCH  30  31
ATOM     31  O   UNL     1      -1.795 -20.855 -12.355  1.00  0.00    -0.394 OA
ATOM     32  H   UNL     1      -2.585 -20.267 -12.229  1.00  0.00     0.210 HD
ENDBRANCH  30  31
ENDBRANCH  24  30
BRANCH  25  33
ATOM     33  O   UNL     1       0.952 -21.482 -12.310  1.00  0.00    -0.388 OA
ATOM     34  H   UNL     1       1.652 -21.737 -12.963  1.00  0.00     0.211 HD
ENDBRANCH  25  33
ENDBRANCH  11  20
BRANCH  10  35
ATOM     35  O   UNL     1      -2.125 -23.471  -6.712  1.00  0.00    -0.507 OA
ATOM     36  H   UNL     1      -1.766 -23.046  -5.861  1.00  0.00     0.293 HD
ENDBRANCH  10  35
TORSDOF 9
ENDMDL
MODEL 4
REMARK VINA RESULT:    -5.480      0.935      2.134
REMARK INTER + INTRA:          -8.619
REMARK INTER:                  -8.137
REMARK INTRA:                  -0.482
REMARK UNBOUND:                -1.217
REMARK SMILES O=c1c(-c2ccc(O)cc2)coc2c([C@@H]3O[C@@H](CO)[C@@H](O)[C@H](O)[C@@H]3O)c(O)ccc12
REMARK SMILES IDX 3 1 11 2 12 3 13 4 30 5 2 6 1 7 29 8 28 9 26 10 14 11 4 12
REMARK SMILES IDX 5 13 6 14 7 15 10 16 9 17 8 18 15 20 24 21 16 22 22 23 17 24
REMARK SMILES IDX 20 25 25 26 23 28 18 30 19 31 21 33 27 35
REMARK H PARENT 8 19 25 27 23 29 19 32 21 34 27 36
REMARK Flexibility Score: inf
ROOT
ATOM      1  C   UNL     1      -0.544 -28.048  -9.534  1.00  0.00     0.065 A 
ATOM      2  C   UNL     1      -0.076 -29.045 -10.399  1.00  0.00     0.208 A 
ATOM      3  O   UNL     1      -0.219 -30.328 -10.095  1.00  0.00    -0.463 OA
ATOM      4  C   UNL     1      -0.806 -30.763  -8.980  1.00  0.00     0.147 A 
ATOM      5  C   UNL     1      -1.345 -29.814  -8.073  1.00  0.00     0.066 A 
ATOM      6  C   UNL     1      -1.199 -28.446  -8.357  1.00  0.00     0.200 A 
ATOM      7  O   UNL     1      -1.640 -27.577  -7.559  1.00  0.00    -0.288 OA
ATOM      8  C   UNL     1      -2.018 -30.253  -6.925  1.00  0.00     0.020 A 
ATOM      9  C   UNL     1      -2.125 -31.611  -6.656  1.00  0.00     0.047 A 
ATOM     10  C   UNL     1      -1.540 -32.561  -7.497  1.00  0.00     0.125 A 
ATOM     11  C   UNL     1      -0.889 -32.159  -8.695  1.00  0.00     0.069 A 
ENDROOT
BRANCH   1  12
ATOM     12  C   UNL     1      -0.314 -26.620  -9.858  1.00  0.00    -0.011 A 
ATOM     13  C   UNL     1      -1.288 -25.893 -10.563  1.00  0.00     0.013 A 
ATOM     14  C   UNL     1      -1.079 -24.546 -10.877  1.00  0.00     0.047 A 
ATOM     15  C   UNL     1       0.093 -23.903 -10.468  1.00  0.00     0.115 A 
ATOM     16  C   UNL     1       0.869 -25.977  -9.458  1.00  0.00     0.013 A 
ATOM     17  C   UNL     1       1.069 -24.625  -9.761  1.00  0.00     0.047 A 
BRANCH  15  18
ATOM     18  O   UNL     1       0.272 -22.553 -10.756  1.00  0.00    -0.508 OA
ATOM     19  H   UNL     1      -0.235 -21.845 -10.241  1.00  0.00     0.293 HD
ENDBRANCH  15  18
ENDBRANCH   1  12
BRANCH  11  20
ATOM     20  C   UNL     1      -0.378 -33.219  -9.682  1.00  0.00     0.188 C 
ATOM     21  C   UNL     1      -1.415 -33.433 -10.814  1.00  0.00     0.179 C 
ATOM     22  O   UNL     1       0.894 -32.864 -10.217  1.00  0.00    -0.362 OA
ATOM     23  C   UNL     1      -0.909 -34.495 -11.802  1.00  0.00     0.177 C 
ATOM     24  C   UNL     1       1.439 -33.846 -11.089  1.00  0.00     0.176 C 
ATOM     25  C   UNL     1       0.505 -34.127 -12.290  1.00  0.00     0.177 C 
BRANCH  21  26
ATOM     26  O   UNL     1      -1.650 -32.217 -11.484  1.00  0.00    -0.387 OA
ATOM     27  H   UNL     1      -2.634 -32.067 -11.471  1.00  0.00     0.211 HD
ENDBRANCH  21  26
BRANCH  23  28
ATOM     28  O   UNL     1      -1.792 -34.570 -12.899  1.00  0.00    -0.387 OA
ATOM     29  H   UNL     1      -1.242 -34.651 -13.722  1.00  0.00     0.211 HD
ENDBRANCH  23  28
BRANCH  24  30
ATOM     30  C   UNL     1       1.896 -35.106 -10.317  1.00  0.00     0.191 C 
BRANCH  30  31
ATOM     31  O   UNL     1       3.134 -34.875  -9.702  1.00  0.00    -0.394 OA
ATOM     32  H   UNL     1       3.815 -34.906 -10.424  1.00  0.00     0.210 HD
ENDBRANCH  30  31
ENDBRANCH  24  30
BRANCH  25  33
ATOM     33  O   UNL     1       1.051 -35.143 -13.097  1.00  0.00    -0.388 OA
ATOM     34  H   UNL     1       0.309 -35.738 -13.375  1.00  0.00     0.211 HD
ENDBRANCH  25  33
ENDBRANCH  11  20
BRANCH  10  35
ATOM     35  O   UNL     1      -1.613 -33.898  -7.092  1.00  0.00    -0.507 OA
ATOM     36  H   UNL     1      -0.846 -34.561  -7.167  1.00  0.00     0.293 HD
ENDBRANCH  10  35
TORSDOF 9
ENDMDL
MODEL 5
REMARK VINA RESULT:    -5.083      3.306     10.435
REMARK INTER + INTRA:          -8.084
REMARK INTER:                  -7.155
REMARK INTRA:                  -0.929
REMARK UNBOUND:                -1.217
REMARK SMILES O=c1c(-c2ccc(O)cc2)coc2c([C@@H]3O[C@@H](CO)[C@@H](O)[C@H](O)[C@@H]3O)c(O)ccc12
REMARK SMILES IDX 3 1 11 2 12 3 13 4 30 5 2 6 1 7 29 8 28 9 26 10 14 11 4 12
REMARK SMILES IDX 5 13 6 14 7 15 10 16 9 17 8 18 15 20 24 21 16 22 22 23 17 24
REMARK SMILES IDX 20 25 25 26 23 28 18 30 19 31 21 33 27 35
REMARK H PARENT 8 19 25 27 23 29 19 32 21 34 27 36
REMARK Flexibility Score: inf
ROOT
ATOM      1  C   UNL     1      -1.341 -26.931  -9.648  1.00  0.00     0.065 A 
ATOM      2  C   UNL     1      -0.989 -25.750  -8.983  1.00  0.00     0.208 A 
ATOM      3  O   UNL     1      -0.987 -24.588  -9.620  1.00  0.00    -0.463 OA
ATOM      4  C   UNL     1      -1.314 -24.448 -10.906  1.00  0.00     0.147 A 
ATOM      5  C   UNL     1      -1.723 -25.592 -11.638  1.00  0.00     0.066 A 
ATOM      6  C   UNL     1      -1.723 -26.843 -10.997  1.00  0.00     0.200 A 
ATOM      7  O   UNL     1      -2.052 -27.883 -11.626  1.00  0.00    -0.288 OA
ATOM      8  C   UNL     1      -2.125 -25.457 -12.973  1.00  0.00     0.020 A 
ATOM      9  C   UNL     1      -2.090 -24.213 -13.590  1.00  0.00     0.047 A 
ATOM     10  C   UNL     1      -1.623 -23.084 -12.910  1.00  0.00     0.125 A 
ATOM     11  C   UNL     1      -1.249 -23.172 -11.542  1.00  0.00     0.069 A 
ENDROOT
BRANCH   1  12
ATOM     12  C   UNL     1      -1.271 -28.230  -8.938  1.00  0.00    -0.011 A 
ATOM     13  C   UNL     1      -0.461 -29.263  -9.440  1.00  0.00     0.013 A 
ATOM     14  C   UNL     1      -0.391 -30.494  -8.780  1.00  0.00     0.047 A 
ATOM     15  C   UNL     1      -1.109 -30.699  -7.597  1.00  0.00     0.115 A 
ATOM     16  C   UNL     1      -2.001 -28.441  -7.757  1.00  0.00     0.013 A 
ATOM     17  C   UNL     1      -1.918 -29.668  -7.090  1.00  0.00     0.047 A 
BRANCH  15  18
ATOM     18  O   UNL     1      -1.001 -31.917  -6.931  1.00  0.00    -0.508 OA
ATOM     19  H   UNL     1      -1.197 -32.785  -7.411  1.00  0.00     0.293 HD
ENDBRANCH  15  18
ENDBRANCH   1  12
BRANCH  11  20
ATOM     20  C   UNL     1      -0.875 -21.899 -10.768  1.00  0.00     0.188 C 
ATOM     21  C   UNL     1       0.651 -21.645 -10.871  1.00  0.00     0.179 C 
ATOM     22  O   UNL     1      -1.612 -20.770 -11.232  1.00  0.00    -0.362 OA
ATOM     23  C   UNL     1       1.030 -20.374 -10.096  1.00  0.00     0.177 C 
ATOM     24  C   UNL     1      -1.346 -19.579 -10.504  1.00  0.00     0.176 C 
ATOM     25  C   UNL     1       0.153 -19.196 -10.559  1.00  0.00     0.177 C 
BRANCH  21  26
ATOM     26  O   UNL     1       1.025 -21.522 -12.223  1.00  0.00    -0.387 OA
ATOM     27  H   UNL     1       1.917 -21.954 -12.315  1.00  0.00     0.211 HD
ENDBRANCH  21  26
BRANCH  23  28
ATOM     28  O   UNL     1       2.390 -20.078 -10.323  1.00  0.00    -0.387 OA
ATOM     29  H   UNL     1       2.738 -19.623  -9.511  1.00  0.00     0.211 HD
ENDBRANCH  23  28
BRANCH  24  30
ATOM     30  C   UNL     1      -1.947 -19.632  -9.080  1.00  0.00     0.191 C 
BRANCH  30  31
ATOM     31  O   UNL     1      -1.974 -18.349  -8.518  1.00  0.00    -0.394 OA
ATOM     32  H   UNL     1      -2.886 -18.226  -8.144  1.00  0.00     0.210 HD
ENDBRANCH  30  31
ENDBRANCH  24  30
BRANCH  25  33
ATOM     33  O   UNL     1       0.384 -18.045  -9.781  1.00  0.00    -0.388 OA
ATOM     34  H   UNL     1       0.837 -17.379 -10.357  1.00  0.00     0.211 HD
ENDBRANCH  25  33
ENDBRANCH  11  20
BRANCH  10  35
ATOM     35  O   UNL     1      -1.528 -21.897 -13.643  1.00  0.00    -0.507 OA
ATOM     36  H   UNL     1      -1.838 -21.793 -14.606  1.00  0.00     0.293 HD
ENDBRANCH  10  35
TORSDOF 9
ENDMDL
MODEL 6
REMARK VINA RESULT:    -5.019      2.110      3.538
REMARK INTER + INTRA:          -7.997
REMARK INTER:                  -8.053
REMARK INTRA:                   0.057
REMARK UNBOUND:                -1.217
REMARK SMILES O=c1c(-c2ccc(O)cc2)coc2c([C@@H]3O[C@@H](CO)[C@@H](O)[C@H](O)[C@@H]3O)c(O)ccc12
REMARK SMILES IDX 3 1 11 2 12 3 13 4 30 5 2 6 1 7 29 8 28 9 26 10 14 11 4 12
REMARK SMILES IDX 5 13 6 14 7 15 10 16 9 17 8 18 15 20 24 21 16 22 22 23 17 24
REMARK SMILES IDX 20 25 25 26 23 28 18 30 19 31 21 33 27 35
REMARK H PARENT 8 19 25 27 23 29 19 32 21 34 27 36
REMARK Flexibility Score: inf
ROOT
ATOM      1  C   UNL     1      -1.139 -28.351  -9.317  1.00  0.00     0.065 A 
ATOM      2  C   UNL     1      -0.730 -29.499  -8.625  1.00  0.00     0.208 A 
ATOM      3  O   UNL     1      -0.596 -30.658  -9.254  1.00  0.00    -0.463 OA
ATOM      4  C   UNL     1      -0.826 -30.823 -10.557  1.00  0.00     0.147 A 
ATOM      5  C   UNL     1      -1.202 -29.700 -11.336  1.00  0.00     0.066 A 
ATOM      6  C   UNL     1      -1.367 -28.458 -10.699  1.00  0.00     0.200 A 
ATOM      7  O   UNL     1      -1.730 -27.446 -11.355  1.00  0.00    -0.288 OA
ATOM      8  C   UNL     1      -1.391 -29.841 -12.716  1.00  0.00     0.020 A 
ATOM      9  C   UNL     1      -1.246 -31.086 -13.316  1.00  0.00     0.047 A 
ATOM     10  C   UNL     1      -0.946 -32.221 -12.558  1.00  0.00     0.125 A 
ATOM     11  C   UNL     1      -0.702 -32.110 -11.162  1.00  0.00     0.069 A 
ENDROOT
BRANCH   1  12
ATOM     12  C   UNL     1      -1.351 -27.081  -8.584  1.00  0.00    -0.011 A 
ATOM     13  C   UNL     1      -0.990 -25.859  -9.177  1.00  0.00     0.013 A 
ATOM     14  C   UNL     1      -1.181 -24.655  -8.493  1.00  0.00     0.047 A 
ATOM     15  C   UNL     1      -1.758 -24.654  -7.219  1.00  0.00     0.115 A 
ATOM     16  C   UNL     1      -1.919 -27.081  -7.300  1.00  0.00     0.013 A 
ATOM     17  C   UNL     1      -2.123 -25.873  -6.623  1.00  0.00     0.047 A 
BRANCH  15  18
ATOM     18  O   UNL     1      -1.976 -23.444  -6.564  1.00  0.00    -0.508 OA
ATOM     19  H   UNL     1      -1.431 -23.194  -5.750  1.00  0.00     0.293 HD
ENDBRANCH  15  18
ENDBRANCH   1  12
BRANCH  11  20
ATOM     20  C   UNL     1      -0.232 -33.338 -10.368  1.00  0.00     0.188 C 
ATOM     21  C   UNL     1       1.309 -33.474 -10.464  1.00  0.00     0.179 C 
ATOM     22  O   UNL     1      -0.653 -33.273  -9.008  1.00  0.00    -0.362 OA
ATOM     23  C   UNL     1       1.783 -34.703  -9.674  1.00  0.00     0.177 C 
ATOM     24  C   UNL     1      -0.297 -34.419  -8.246  1.00  0.00     0.176 C 
ATOM     25  C   UNL     1       1.235 -34.645  -8.236  1.00  0.00     0.177 C 
BRANCH  21  26
ATOM     26  O   UNL     1       1.925 -32.308  -9.969  1.00  0.00    -0.387 OA
ATOM     27  H   UNL     1       1.194 -31.676  -9.729  1.00  0.00     0.211 HD
ENDBRANCH  21  26
BRANCH  23  28
ATOM     28  O   UNL     1       3.193 -34.726  -9.650  1.00  0.00    -0.387 OA
ATOM     29  H   UNL     1       3.473 -35.043  -8.751  1.00  0.00     0.211 HD
ENDBRANCH  23  28
BRANCH  24  30
ATOM     30  C   UNL     1      -1.130 -35.657  -8.650  1.00  0.00     0.191 C 
BRANCH  30  31
ATOM     31  O   UNL     1      -1.998 -36.016  -7.610  1.00  0.00    -0.394 OA
ATOM     32  H   UNL     1      -2.831 -36.342  -8.041  1.00  0.00     0.210 HD
ENDBRANCH  30  31
ENDBRANCH  24  30
BRANCH  25  33
ATOM     33  O   UNL     1       1.543 -35.818  -7.521  1.00  0.00    -0.388 OA
ATOM     34  H   UNL     1       2.381 -35.654  -7.019  1.00  0.00     0.211 HD
ENDBRANCH  25  33
ENDBRANCH  11  20
BRANCH  10  35
ATOM     35  O   UNL     1      -0.920 -33.446 -13.233  1.00  0.00    -0.507 OA
ATOM     36  H   UNL     1      -1.749 -33.947 -13.539  1.00  0.00     0.293 HD
ENDBRANCH  10  35
TORSDOF 9
ENDMDL
MODEL 7
REMARK VINA RESULT:    -4.950      3.024      7.482
REMARK INTER + INTRA:          -7.903
REMARK INTER:                  -7.341
REMARK INTRA:                  -0.562
REMARK UNBOUND:                -1.217
REMARK SMILES O=c1c(-c2ccc(O)cc2)coc2c([C@@H]3O[C@@H](CO)[C@@H](O)[C@H](O)[C@@H]3O)c(O)ccc12
REMARK SMILES IDX 3 1 11 2 12 3 13 4 30 5 2 6 1 7 29 8 28 9 26 10 14 11 4 12
REMARK SMILES IDX 5 13 6 14 7 15 10 16 9 17 8 18 15 20 24 21 16 22 22 23 17 24
REMARK SMILES IDX 20 25 25 26 23 28 18 30 19 31 21 33 27 35
REMARK H PARENT 8 19 25 27 23 29 19 32 21 34 27 36
REMARK Flexibility Score: inf
ROOT
ATOM      1  C   UNL     1      -0.905 -32.287 -14.330  1.00  0.00     0.065 A 
ATOM      2  C   UNL     1      -0.639 -31.073 -13.683  1.00  0.00     0.208 A 
ATOM      3  O   UNL     1      -0.773 -30.962 -12.369  1.00  0.00    -0.463 OA
ATOM      4  C   UNL     1      -1.153 -31.965 -11.577  1.00  0.00     0.147 A 
ATOM      5  C   UNL     1      -1.399 -33.238 -12.151  1.00  0.00     0.066 A 
ATOM      6  C   UNL     1      -1.281 -33.388 -13.543  1.00  0.00     0.200 A 
ATOM      7  O   UNL     1      -1.521 -34.497 -14.089  1.00  0.00    -0.288 OA
ATOM      8  C   UNL     1      -1.743 -34.319 -11.328  1.00  0.00     0.020 A 
ATOM      9  C   UNL     1      -1.878 -34.136  -9.958  1.00  0.00     0.047 A 
ATOM     10  C   UNL     1      -1.711 -32.876  -9.379  1.00  0.00     0.125 A 
ATOM     11  C   UNL     1      -1.317 -31.765 -10.173  1.00  0.00     0.069 A 
ENDROOT
BRANCH   1  12
ATOM     12  C   UNL     1      -0.817 -32.373 -15.807  1.00  0.00    -0.011 A 
ATOM     13  C   UNL     1      -1.935 -32.057 -16.597  1.00  0.00     0.013 A 
ATOM     14  C   UNL     1      -1.865 -32.139 -17.991  1.00  0.00     0.047 A 
ATOM     15  C   UNL     1      -0.670 -32.513 -18.614  1.00  0.00     0.115 A 
ATOM     16  C   UNL     1       0.379 -32.760 -16.432  1.00  0.00     0.013 A 
ATOM     17  C   UNL     1       0.452 -32.828 -17.829  1.00  0.00     0.047 A 
BRANCH  15  18
ATOM     18  O   UNL     1      -0.604 -32.556 -20.004  1.00  0.00    -0.508 OA
ATOM     19  H   UNL     1      -0.732 -33.428 -20.499  1.00  0.00     0.293 HD
ENDBRANCH  15  18
ENDBRANCH   1  12
BRANCH  11  20
ATOM     20  C   UNL     1      -0.997 -30.420  -9.503  1.00  0.00     0.188 C 
ATOM     21  C   UNL     1       0.438 -30.448  -8.918  1.00  0.00     0.179 C 
ATOM     22  O   UNL     1      -1.155 -29.333 -10.411  1.00  0.00    -0.362 OA
ATOM     23  C   UNL     1       0.762 -29.107  -8.243  1.00  0.00     0.177 C 
ATOM     24  C   UNL     1      -0.930 -28.060  -9.820  1.00  0.00     0.176 C 
ATOM     25  C   UNL     1       0.494 -27.949  -9.223  1.00  0.00     0.177 C 
BRANCH  21  26
ATOM     26  O   UNL     1       1.368 -30.717  -9.941  1.00  0.00    -0.387 OA
ATOM     27  H   UNL     1       2.202 -30.226  -9.709  1.00  0.00     0.211 HD
ENDBRANCH  21  26
BRANCH  23  28
ATOM     28  O   UNL     1       2.116 -29.098  -7.849  1.00  0.00    -0.387 OA
ATOM     29  H   UNL     1       2.300 -29.957  -7.385  1.00  0.00     0.211 HD
ENDBRANCH  23  28
BRANCH  24  30
ATOM     30  C   UNL     1      -2.069 -27.671  -8.849  1.00  0.00     0.191 C 
BRANCH  30  31
ATOM     31  O   UNL     1      -2.045 -26.292  -8.602  1.00  0.00    -0.394 OA
ATOM     32  H   UNL     1      -1.087 -26.034  -8.549  1.00  0.00     0.210 HD
ENDBRANCH  30  31
ENDBRANCH  24  30
BRANCH  25  33
ATOM     33  O   UNL     1       0.657 -26.698  -8.598  1.00  0.00    -0.388 OA
ATOM     34  H   UNL     1       1.151 -26.111  -9.224  1.00  0.00     0.211 HD
ENDBRANCH  25  33
ENDBRANCH  11  20
BRANCH  10  35
ATOM     35  O   UNL     1      -1.967 -32.769  -8.008  1.00  0.00    -0.507 OA
ATOM     36  H   UNL     1      -1.289 -32.445  -7.323  1.00  0.00     0.293 HD
ENDBRANCH  10  35
TORSDOF 9
ENDMDL
MODEL 8
REMARK VINA RESULT:    -4.732      3.138     10.840
REMARK INTER + INTRA:          -7.609
REMARK INTER:                  -6.862
REMARK INTRA:                  -0.747
REMARK UNBOUND:                -1.217
REMARK SMILES O=c1c(-c2ccc(O)cc2)coc2c([C@@H]3O[C@@H](CO)[C@@H](O)[C@H](O)[C@@H]3O)c(O)ccc12
REMARK SMILES IDX 3 1 11 2 12 3 13 4 30 5 2 6 1 7 29 8 28 9 26 10 14 11 4 12
REMARK SMILES IDX 5 13 6 14 7 15 10 16 9 17 8 18 15 20 24 21 16 22 22 23 17 24
REMARK SMILES IDX 20 25 25 26 23 28 18 30 19 31 21 33 27 35
REMARK H PARENT 8 19 25 27 23 29 19 32 21 34 27 36
REMARK Flexibility Score: inf
ROOT
ATOM      1  C   UNL     1      -0.531 -25.953  -9.475  1.00  0.00     0.065 A 
ATOM      2  C   UNL     1       0.103 -24.996 -10.278  1.00  0.00     0.208 A 
ATOM      3  O   UNL     1      -0.009 -23.703 -10.007  1.00  0.00    -0.463 OA
ATOM      4  C   UNL     1      -0.708 -23.220  -8.979  1.00  0.00     0.147 A 
ATOM      5  C   UNL     1      -1.344 -24.128  -8.095  1.00  0.00     0.066 A 
ATOM      6  C   UNL     1      -1.257 -25.505  -8.359  1.00  0.00     0.200 A 
ATOM      7  O   UNL     1      -1.836 -26.337  -7.611  1.00  0.00    -0.288 OA
ATOM      8  C   UNL     1      -2.033 -23.642  -6.976  1.00  0.00     0.020 A 
ATOM      9  C   UNL     1      -2.125 -22.274  -6.753  1.00  0.00     0.047 A 
ATOM     10  C   UNL     1      -1.567 -21.359  -7.649  1.00  0.00     0.125 A 
ATOM     11  C   UNL     1      -0.821 -21.812  -8.770  1.00  0.00     0.069 A 
ENDROOT
BRANCH   1  12
ATOM     12  C   UNL     1      -0.452 -27.389  -9.833  1.00  0.00    -0.011 A 
ATOM     13  C   UNL     1      -1.297 -27.913 -10.826  1.00  0.00     0.013 A 
ATOM     14  C   UNL     1      -1.234 -29.268 -11.168  1.00  0.00     0.047 A 
ATOM     15  C   UNL     1      -0.308 -30.108 -10.541  1.00  0.00     0.115 A 
ATOM     16  C   UNL     1       0.469 -28.236  -9.196  1.00  0.00     0.013 A 
ATOM     17  C   UNL     1       0.541 -29.588  -9.550  1.00  0.00     0.047 A 
BRANCH  15  18
ATOM     18  O   UNL     1      -0.231 -31.446 -10.918  1.00  0.00    -0.508 OA
ATOM     19  H   UNL     1      -0.687 -32.163 -10.370  1.00  0.00     0.293 HD
ENDBRANCH  15  18
ENDBRANCH   1  12
BRANCH  11  20
ATOM     20  C   UNL     1      -0.093 -20.798  -9.666  1.00  0.00     0.188 C 
ATOM     21  C   UNL     1      -1.098 -20.139 -10.645  1.00  0.00     0.179 C 
ATOM     22  O   UNL     1       0.586 -19.812  -8.893  1.00  0.00    -0.362 OA
ATOM     23  C   UNL     1      -0.374 -19.127 -11.545  1.00  0.00     0.177 C 
ATOM     24  C   UNL     1       1.327 -18.886  -9.676  1.00  0.00     0.176 C 
ATOM     25  C   UNL     1       0.422 -18.131 -10.680  1.00  0.00     0.177 C 
BRANCH  21  26
ATOM     26  O   UNL     1      -2.125 -19.503  -9.922  1.00  0.00    -0.387 OA
ATOM     27  H   UNL     1      -1.683 -18.914  -9.252  1.00  0.00     0.211 HD
ENDBRANCH  21  26
BRANCH  23  28
ATOM     28  O   UNL     1      -1.324 -18.433 -12.324  1.00  0.00    -0.387 OA
ATOM     29  H   UNL     1      -1.541 -17.587 -11.850  1.00  0.00     0.211 HD
ENDBRANCH  23  28
BRANCH  24  30
ATOM     30  C   UNL     1       2.580 -19.540 -10.303  1.00  0.00     0.191 C 
BRANCH  30  31
ATOM     31  O   UNL     1       3.724 -18.795  -9.988  1.00  0.00    -0.394 OA
ATOM     32  H   UNL     1       3.998 -18.335 -10.825  1.00  0.00     0.210 HD
ENDBRANCH  30  31
ENDBRANCH  24  30
BRANCH  25  33
ATOM     33  O   UNL     1       1.200 -17.268 -11.474  1.00  0.00    -0.388 OA
ATOM     34  H   UNL     1       1.658 -16.632 -10.869  1.00  0.00     0.211 HD
ENDBRANCH  25  33
ENDBRANCH  11  20
BRANCH  10  35
ATOM     35  O   UNL     1      -1.797 -20.002  -7.395  1.00  0.00    -0.507 OA
ATOM     36  H   UNL     1      -2.327 -19.651  -6.602  1.00  0.00     0.293 HD
ENDBRANCH  10  35
TORSDOF 9
ENDMDL
