MODEL 1
REMARK VINA RESULT:    -3.351      0.000      0.000
REMARK INTER + INTRA:          -6.712
REMARK INTER:                  -5.408
REMARK INTRA:                  -1.304
REMARK UNBOUND:                -1.304
REMARK SMILES CCCCCCCCCCCCO
REMARK SMILES IDX 7 1 6 2 5 3 4 4 3 5 2 6 1 7 8 8 9 9 10 10 11 11 12 12 13 13
REMARK H PARENT 13 14
REMARK Flexibility Score: inf
ROOT
ATOM      1  C   UNL     1     165.474 177.639 166.952  1.00  0.00     0.000 C 
ENDROOT
BRANCH   1   2
ATOM      2  C   UNL     1     164.697 176.667 166.044  1.00  0.00    -0.000 C 
BRANCH   2   3
ATOM      3  C   UNL     1     164.292 177.236 164.672  1.00  0.00    -0.000 C 
BRANCH   3   4
ATOM      4  C   UNL     1     162.769 177.229 164.419  1.00  0.00    -0.000 C 
BRANCH   4   5
ATOM      5  C   UNL     1     162.022 176.272 165.366  1.00  0.00    -0.000 C 
BRANCH   5   6
ATOM      6  C   UNL     1     160.741 176.897 165.942  1.00  0.00    -0.003 C 
ATOM      7  C   UNL     1     160.475 178.302 165.403  1.00  0.00     0.004 C 
ENDBRANCH   5   6
ENDBRANCH   4   5
ENDBRANCH   3   4
ENDBRANCH   2   3
ENDBRANCH   1   2
BRANCH   1   8
ATOM      8  C   UNL     1     164.698 178.135 168.186  1.00  0.00     0.000 C 
BRANCH   8   9
ATOM      9  C   UNL     1     163.895 179.414 167.913  1.00  0.00     0.000 C 
BRANCH   9  10
ATOM     10  C   UNL     1     162.425 179.237 168.312  1.00  0.00     0.002 C 
BRANCH  10  11
ATOM     11  C   UNL     1     162.272 178.155 169.387  1.00  0.00     0.028 C 
BRANCH  11  12
ATOM     12  C   UNL     1     160.797 177.824 169.630  1.00  0.00     0.156 C 
BRANCH  12  13
ATOM     13  O   UNL     1     160.375 178.365 170.853  1.00  0.00    -0.396 OA
ATOM     14  H   UNL     1     160.031 179.275 170.658  1.00  0.00     0.210 HD
ENDBRANCH  12  13
ENDBRANCH  11  12
ENDBRANCH  10  11
ENDBRANCH   9  10
ENDBRANCH   8   9
ENDBRANCH   1   8
TORSDOF 11
ENDMDL
MODEL 2
REMARK VINA RESULT:    -3.228      1.512      3.522
REMARK INTER + INTRA:          -6.513
REMARK INTER:                  -5.096
REMARK INTRA:                  -1.418
REMARK UNBOUND:                -1.304
REMARK SMILES CCCCCCCCCCCCO
REMARK SMILES IDX 7 1 6 2 5 3 4 4 3 5 2 6 1 7 8 8 9 9 10 10 11 11 12 12 13 13
REMARK H PARENT 13 14
REMARK Flexibility Score: inf
ROOT
ATOM      1  C   UNL     1     163.461 178.847 164.689  1.00  0.00     0.000 C 
ENDROOT
BRANCH   1   2
ATOM      2  C   UNL     1     164.713 179.714 164.920  1.00  0.00    -0.000 C 
BRANCH   2   3
ATOM      3  C   UNL     1     164.592 180.749 166.054  1.00  0.00    -0.000 C 
BRANCH   3   4
ATOM      4  C   UNL     1     165.166 180.264 167.403  1.00  0.00    -0.000 C 
BRANCH   4   5
ATOM      5  C   UNL     1     165.923 178.930 167.274  1.00  0.00    -0.000 C 
BRANCH   5   6
ATOM      6  C   UNL     1     165.141 177.750 167.871  1.00  0.00    -0.003 C 
ATOM      7  C   UNL     1     165.119 176.530 166.950  1.00  0.00     0.004 C 
ENDBRANCH   5   6
ENDBRANCH   4   5
ENDBRANCH   3   4
ENDBRANCH   2   3
ENDBRANCH   1   2
BRANCH   1   8
ATOM      8  C   UNL     1     162.174 179.377 165.348  1.00  0.00     0.000 C 
BRANCH   8   9
ATOM      9  C   UNL     1     161.704 178.513 166.526  1.00  0.00     0.000 C 
BRANCH   9  10
ATOM     10  C   UNL     1     161.546 179.356 167.797  1.00  0.00     0.002 C 
BRANCH  10  11
ATOM     11  C   UNL     1     161.839 178.524 169.051  1.00  0.00     0.028 C 
BRANCH  11  12
ATOM     12  C   UNL     1     160.555 177.921 169.626  1.00  0.00     0.156 C 
BRANCH  12  13
ATOM     13  O   UNL     1     160.365 178.356 170.946  1.00  0.00    -0.396 OA
ATOM     14  H   UNL     1     159.516 177.949 171.259  1.00  0.00     0.210 HD
ENDBRANCH  12  13
ENDBRANCH  11  12
ENDBRANCH  10  11
ENDBRANCH   9  10
ENDBRANCH   8   9
ENDBRANCH   1   8
TORSDOF 11
ENDMDL
MODEL 3
REMARK VINA RESULT:    -3.220      1.371      2.072
REMARK INTER + INTRA:          -6.501
REMARK INTER:                  -5.064
REMARK INTRA:                  -1.436
REMARK UNBOUND:                -1.304
REMARK SMILES CCCCCCCCCCCCO
REMARK SMILES IDX 7 1 6 2 5 3 4 4 3 5 2 6 1 7 8 8 9 9 10 10 11 11 12 12 13 13
REMARK H PARENT 13 14
REMARK Flexibility Score: inf
ROOT
ATOM      1  C   UNL     1     165.183 178.997 167.920  1.00  0.00     0.000 C 
ENDROOT
BRANCH   1   2
ATOM      2  C   UNL     1     165.843 177.943 167.012  1.00  0.00    -0.000 C 
BRANCH   2   3
ATOM      3  C   UNL     1     164.948 176.744 166.644  1.00  0.00    -0.000 C 
BRANCH   3   4
ATOM      4  C   UNL     1     164.459 176.760 165.180  1.00  0.00    -0.000 C 
BRANCH   4   5
ATOM      5  C   UNL     1     162.967 177.120 165.063  1.00  0.00    -0.000 C 
BRANCH   5   6
ATOM      6  C   UNL     1     162.713 178.250 164.053  1.00  0.00    -0.003 C 
ATOM      7  C   UNL     1     163.993 178.984 163.653  1.00  0.00     0.004 C 
ENDBRANCH   5   6
ENDBRANCH   4   5
ENDBRANCH   3   4
ENDBRANCH   2   3
ENDBRANCH   1   2
BRANCH   1   8
ATOM      8  C   UNL     1     164.459 180.134 167.174  1.00  0.00     0.000 C 
BRANCH   8   9
ATOM      9  C   UNL     1     162.931 180.042 167.282  1.00  0.00     0.000 C 
BRANCH   9  10
ATOM     10  C   UNL     1     162.516 179.128 168.442  1.00  0.00     0.002 C 
BRANCH  10  11
ATOM     11  C   UNL     1     161.021 178.794 168.373  1.00  0.00     0.028 C 
BRANCH  11  12
ATOM     12  C   UNL     1     160.672 177.633 169.307  1.00  0.00     0.156 C 
BRANCH  12  13
ATOM     13  O   UNL     1     161.802 177.244 170.040  1.00  0.00    -0.396 OA
ATOM     14  H   UNL     1     162.071 178.029 170.585  1.00  0.00     0.210 HD
ENDBRANCH  12  13
ENDBRANCH  11  12
ENDBRANCH  10  11
ENDBRANCH   9  10
ENDBRANCH   8   9
ENDBRANCH   1   8
TORSDOF 11
ENDMDL
MODEL 4
REMARK VINA RESULT:    -3.178      1.458      2.119
REMARK INTER + INTRA:          -6.432
REMARK INTER:                  -5.016
REMARK INTRA:                  -1.416
REMARK UNBOUND:                -1.304
REMARK SMILES CCCCCCCCCCCCO
REMARK SMILES IDX 7 1 6 2 5 3 4 4 3 5 2 6 1 7 8 8 9 9 10 10 11 11 12 12 13 13
REMARK H PARENT 13 14
REMARK Flexibility Score: inf
ROOT
ATOM      1  C   UNL     1     165.054 176.825 167.104  1.00  0.00     0.000 C 
ENDROOT
BRANCH   1   2
ATOM      2  C   UNL     1     164.627 176.925 165.628  1.00  0.00    -0.000 C 
BRANCH   2   3
ATOM      3  C   UNL     1     163.106 176.948 165.388  1.00  0.00    -0.000 C 
BRANCH   3   4
ATOM      4  C   UNL     1     162.679 177.812 164.182  1.00  0.00    -0.000 C 
BRANCH   4   5
ATOM      5  C   UNL     1     163.496 179.112 164.072  1.00  0.00    -0.000 C 
BRANCH   5   6
ATOM      6  C   UNL     1     162.984 180.211 165.017  1.00  0.00    -0.003 C 
ATOM      7  C   UNL     1     164.117 180.998 165.675  1.00  0.00     0.004 C 
ENDBRANCH   5   6
ENDBRANCH   4   5
ENDBRANCH   3   4
ENDBRANCH   2   3
ENDBRANCH   1   2
BRANCH   1   8
ATOM      8  C   UNL     1     164.858 178.113 167.926  1.00  0.00     0.000 C 
BRANCH   8   9
ATOM      9  C   UNL     1     163.640 178.048 168.857  1.00  0.00     0.000 C 
BRANCH   9  10
ATOM     10  C   UNL     1     162.595 179.102 168.471  1.00  0.00     0.002 C 
BRANCH  10  11
ATOM     11  C   UNL     1     161.202 178.476 168.342  1.00  0.00     0.028 C 
BRANCH  11  12
ATOM     12  C   UNL     1     160.849 177.655 169.584  1.00  0.00     0.156 C 
BRANCH  12  13
ATOM     13  O   UNL     1     160.588 178.504 170.669  1.00  0.00    -0.396 OA
ATOM     14  H   UNL     1     160.824 179.422 170.375  1.00  0.00     0.210 HD
ENDBRANCH  12  13
ENDBRANCH  11  12
ENDBRANCH  10  11
ENDBRANCH   9  10
ENDBRANCH   8   9
ENDBRANCH   1   8
TORSDOF 11
ENDMDL
MODEL 5
REMARK VINA RESULT:    -3.155      1.729      3.915
REMARK INTER + INTRA:          -6.395
REMARK INTER:                  -5.237
REMARK INTRA:                  -1.158
REMARK UNBOUND:                -1.304
REMARK SMILES CCCCCCCCCCCCO
REMARK SMILES IDX 7 1 6 2 5 3 4 4 3 5 2 6 1 7 8 8 9 9 10 10 11 11 12 12 13 13
REMARK H PARENT 13 14
REMARK Flexibility Score: inf
ROOT
ATOM      1  C   UNL     1     165.476 177.637 167.035  1.00  0.00     0.000 C 
ENDROOT
BRANCH   1   2
ATOM      2  C   UNL     1     164.694 178.248 168.213  1.00  0.00    -0.000 C 
BRANCH   2   3
ATOM      3  C   UNL     1     163.759 179.415 167.841  1.00  0.00    -0.000 C 
BRANCH   3   4
ATOM      4  C   UNL     1     162.319 179.252 168.372  1.00  0.00    -0.000 C 
BRANCH   4   5
ATOM      5  C   UNL     1     162.188 178.086 169.369  1.00  0.00    -0.000 C 
BRANCH   5   6
ATOM      6  C   UNL     1     160.724 177.731 169.670  1.00  0.00    -0.003 C 
ATOM      7  C   UNL     1     159.734 178.622 168.920  1.00  0.00     0.004 C 
ENDBRANCH   5   6
ENDBRANCH   4   5
ENDBRANCH   3   4
ENDBRANCH   2   3
ENDBRANCH   1   2
BRANCH   1   8
ATOM      8  C   UNL     1     164.679 176.637 166.175  1.00  0.00     0.000 C 
BRANCH   8   9
ATOM      9  C   UNL     1     164.272 177.213 164.812  1.00  0.00     0.000 C 
BRANCH   9  10
ATOM     10  C   UNL     1     162.868 176.743 164.413  1.00  0.00     0.002 C 
BRANCH  10  11
ATOM     11  C   UNL     1     161.788 177.584 165.104  1.00  0.00     0.028 C 
BRANCH  11  12
ATOM     12  C   UNL     1     160.899 176.715 165.996  1.00  0.00     0.156 C 
BRANCH  12  13
ATOM     13  O   UNL     1     161.291 175.372 165.910  1.00  0.00    -0.396 OA
ATOM     14  H   UNL     1     161.052 174.950 166.776  1.00  0.00     0.210 HD
ENDBRANCH  12  13
ENDBRANCH  11  12
ENDBRANCH  10  11
ENDBRANCH   9  10
ENDBRANCH   8   9
ENDBRANCH   1   8
TORSDOF 11
ENDMDL
MODEL 6
REMARK VINA RESULT:    -3.151      1.990      2.931
REMARK INTER + INTRA:          -6.389
REMARK INTER:                  -4.800
REMARK INTRA:                  -1.590
REMARK UNBOUND:                -1.304
REMARK SMILES CCCCCCCCCCCCO
REMARK SMILES IDX 7 1 6 2 5 3 4 4 3 5 2 6 1 7 8 8 9 9 10 10 11 11 12 12 13 13
REMARK H PARENT 13 14
REMARK Flexibility Score: inf
ROOT
ATOM      1  C   UNL     1     165.957 180.101 167.528  1.00  0.00     0.000 C 
ENDROOT
BRANCH   1   2
ATOM      2  C   UNL     1     166.037 181.021 166.296  1.00  0.00    -0.000 C 
BRANCH   2   3
ATOM      3  C   UNL     1     165.566 180.386 164.974  1.00  0.00    -0.000 C 
BRANCH   3   4
ATOM      4  C   UNL     1     164.058 180.566 164.699  1.00  0.00    -0.000 C 
BRANCH   4   5
ATOM      5  C   UNL     1     163.356 179.235 164.376  1.00  0.00    -0.000 C 
BRANCH   5   6
ATOM      6  C   UNL     1     164.351 178.106 164.066  1.00  0.00    -0.003 C 
ATOM      7  C   UNL     1     163.807 176.724 164.428  1.00  0.00     0.004 C 
ENDBRANCH   5   6
ENDBRANCH   4   5
ENDBRANCH   3   4
ENDBRANCH   2   3
ENDBRANCH   1   2
BRANCH   1   8
ATOM      8  C   UNL     1     166.052 178.595 167.221  1.00  0.00     0.000 C 
BRANCH   8   9
ATOM      9  C   UNL     1     164.889 177.789 167.815  1.00  0.00     0.000 C 
BRANCH   9  10
ATOM     10  C   UNL     1     163.763 178.715 168.290  1.00  0.00     0.002 C 
BRANCH  10  11
ATOM     11  C   UNL     1     162.391 178.178 167.867  1.00  0.00     0.028 C 
BRANCH  11  12
ATOM     12  C   UNL     1     161.394 178.239 169.026  1.00  0.00     0.156 C 
BRANCH  12  13
ATOM     13  O   UNL     1     161.731 177.295 170.007  1.00  0.00    -0.396 OA
ATOM     14  H   UNL     1     161.731 176.410 169.560  1.00  0.00     0.210 HD
ENDBRANCH  12  13
ENDBRANCH  11  12
ENDBRANCH  10  11
ENDBRANCH   9  10
ENDBRANCH   8   9
ENDBRANCH   1   8
TORSDOF 11
ENDMDL
MODEL 7
REMARK VINA RESULT:    -3.112      9.521     11.025
REMARK INTER + INTRA:          -6.326
REMARK INTER:                  -4.933
REMARK INTRA:                  -1.393
REMARK UNBOUND:                -1.304
REMARK SMILES CCCCCCCCCCCCO
REMARK SMILES IDX 7 1 6 2 5 3 4 4 3 5 2 6 1 7 8 8 9 9 10 10 11 11 12 12 13 13
REMARK H PARENT 13 14
REMARK Flexibility Score: inf
ROOT
ATOM      1  C   UNL     1     170.536 172.951 163.481  1.00  0.00     0.000 C 
ENDROOT
BRANCH   1   2
ATOM      2  C   UNL     1     170.123 173.481 162.094  1.00  0.00    -0.000 C 
BRANCH   2   3
ATOM      3  C   UNL     1     168.679 173.152 161.672  1.00  0.00    -0.000 C 
BRANCH   3   4
ATOM      4  C   UNL     1     168.520 171.757 161.031  1.00  0.00    -0.000 C 
BRANCH   4   5
ATOM      5  C   UNL     1     167.290 171.001 161.566  1.00  0.00    -0.000 C 
BRANCH   5   6
ATOM      6  C   UNL     1     166.663 171.690 162.789  1.00  0.00    -0.003 C 
ATOM      7  C   UNL     1     166.253 170.699 163.878  1.00  0.00     0.004 C 
ENDBRANCH   5   6
ENDBRANCH   4   5
ENDBRANCH   3   4
ENDBRANCH   2   3
ENDBRANCH   1   2
BRANCH   1   8
ATOM      8  C   UNL     1     171.808 172.083 163.491  1.00  0.00     0.000 C 
BRANCH   8   9
ATOM      9  C   UNL     1     171.526 170.613 163.833  1.00  0.00     0.000 C 
BRANCH   9  10
ATOM     10  C   UNL     1     170.051 170.406 164.199  1.00  0.00     0.002 C 
BRANCH  10  11
ATOM     11  C   UNL     1     169.554 169.035 163.728  1.00  0.00     0.028 C 
BRANCH  11  12
ATOM     12  C   UNL     1     170.467 168.459 162.644  1.00  0.00     0.156 C 
BRANCH  12  13
ATOM     13  O   UNL     1     171.070 167.276 163.096  1.00  0.00    -0.396 OA
ATOM     14  H   UNL     1     171.350 167.440 164.033  1.00  0.00     0.210 HD
ENDBRANCH  12  13
ENDBRANCH  11  12
ENDBRANCH  10  11
ENDBRANCH   9  10
ENDBRANCH   8   9
ENDBRANCH   1   8
TORSDOF 11
ENDMDL
MODEL 8
REMARK VINA RESULT:    -3.096     10.984     12.971
REMARK INTER + INTRA:          -6.301
REMARK INTER:                  -5.594
REMARK INTRA:                  -0.707
REMARK UNBOUND:                -1.304
REMARK SMILES CCCCCCCCCCCCO
REMARK SMILES IDX 7 1 6 2 5 3 4 4 3 5 2 6 1 7 8 8 9 9 10 10 11 11 12 12 13 13
REMARK H PARENT 13 14
REMARK Flexibility Score: inf
ROOT
ATOM      1  C   UNL     1     169.418 168.198 163.772  1.00  0.00     0.000 C 
ENDROOT
BRANCH   1   2
ATOM      2  C   UNL     1     169.377 169.667 163.313  1.00  0.00    -0.000 C 
BRANCH   2   3
ATOM      3  C   UNL     1     168.792 170.657 164.338  1.00  0.00    -0.000 C 
BRANCH   3   4
ATOM      4  C   UNL     1     167.612 171.491 163.793  1.00  0.00    -0.000 C 
BRANCH   4   5
ATOM      5  C   UNL     1     166.279 170.722 163.838  1.00  0.00    -0.000 C 
BRANCH   5   6
ATOM      6  C   UNL     1     165.562 170.708 162.479  1.00  0.00    -0.003 C 
ATOM      7  C   UNL     1     166.426 171.271 161.350  1.00  0.00     0.004 C 
ENDBRANCH   5   6
ENDBRANCH   4   5
ENDBRANCH   3   4
ENDBRANCH   2   3
ENDBRANCH   1   2
BRANCH   1   8
ATOM      8  C   UNL     1     170.325 167.280 162.931  1.00  0.00     0.000 C 
BRANCH   8   9
ATOM      9  C   UNL     1     170.719 167.900 161.584  1.00  0.00     0.000 C 
BRANCH   9  10
ATOM     10  C   UNL     1     170.289 167.001 160.418  1.00  0.00     0.002 C 
BRANCH  10  11
ATOM     11  C   UNL     1     169.855 165.618 160.918  1.00  0.00     0.028 C 
BRANCH  11  12
ATOM     12  C   UNL     1     168.880 164.959 159.940  1.00  0.00     0.156 C 
BRANCH  12  13
ATOM     13  O   UNL     1     168.552 165.850 158.908  1.00  0.00    -0.396 OA
ATOM     14  H   UNL     1     168.372 165.297 158.103  1.00  0.00     0.210 HD
ENDBRANCH  12  13
ENDBRANCH  11  12
ENDBRANCH  10  11
ENDBRANCH   9  10
ENDBRANCH   8   9
ENDBRANCH   1   8
TORSDOF 11
ENDMDL
MODEL 9
REMARK VINA RESULT:    -3.057      9.720     11.804
REMARK INTER + INTRA:          -6.238
REMARK INTER:                  -4.720
REMARK INTRA:                  -1.518
REMARK UNBOUND:                -1.304
REMARK SMILES CCCCCCCCCCCCO
REMARK SMILES IDX 7 1 6 2 5 3 4 4 3 5 2 6 1 7 8 8 9 9 10 10 11 11 12 12 13 13
REMARK H PARENT 13 14
REMARK Flexibility Score: inf
ROOT
ATOM      1  C   UNL     1     169.769 167.802 163.849  1.00  0.00     0.000 C 
ENDROOT
BRANCH   1   2
ATOM      2  C   UNL     1     170.369 167.309 162.519  1.00  0.00    -0.000 C 
BRANCH   2   3
ATOM      3  C   UNL     1     171.536 168.156 161.976  1.00  0.00    -0.000 C 
BRANCH   3   4
ATOM      4  C   UNL     1     171.119 169.158 160.878  1.00  0.00    -0.000 C 
BRANCH   4   5
ATOM      5  C   UNL     1     171.638 170.581 161.154  1.00  0.00    -0.000 C 
BRANCH   5   6
ATOM      6  C   UNL     1     172.521 170.652 162.410  1.00  0.00    -0.003 C 
ATOM      7  C   UNL     1     172.499 172.031 163.069  1.00  0.00     0.004 C 
ENDBRANCH   5   6
ENDBRANCH   4   5
ENDBRANCH   3   4
ENDBRANCH   2   3
ENDBRANCH   1   2
BRANCH   1   8
ATOM      8  C   UNL     1     168.890 169.062 163.738  1.00  0.00     0.000 C 
BRANCH   8   9
ATOM      9  C   UNL     1     169.488 170.274 164.465  1.00  0.00     0.000 C 
BRANCH   9  10
ATOM     10  C   UNL     1     168.887 171.583 163.939  1.00  0.00     0.002 C 
BRANCH  10  11
ATOM     11  C   UNL     1     168.171 171.363 162.601  1.00  0.00     0.028 C 
BRANCH  11  12
ATOM     12  C   UNL     1     166.737 171.895 162.648  1.00  0.00     0.156 C 
BRANCH  12  13
ATOM     13  O   UNL     1     166.085 171.429 163.799  1.00  0.00    -0.396 OA
ATOM     14  H   UNL     1     165.153 171.217 163.531  1.00  0.00     0.210 HD
ENDBRANCH  12  13
ENDBRANCH  11  12
ENDBRANCH  10  11
ENDBRANCH   9  10
ENDBRANCH   8   9
ENDBRANCH   1   8
TORSDOF 11
ENDMDL
