MODEL 1
REMARK VINA RESULT:    -4.236      0.000      0.000
REMARK INTER + INTRA:          -5.189
REMARK INTER:                  -6.464
REMARK INTRA:                   1.276
REMARK UNBOUND:                 1.276
REMARK SMILES CC1=CCC[C@H](C)C(=O)C[C@H](C(C)C)C(=O)C1
REMARK SMILES IDX 8 1 9 2 6 3 7 4 5 5 4 6 3 7 2 8 1 9 10 11 11 12 15 13 16 14
REMARK SMILES IDX 17 15 12 17 13 18 14 19
REMARK H PARENT
REMARK Flexibility Score: 70.00
ROOT
ATOM      1  C   UNL     1      81.874   5.979  28.346  1.00  0.00     0.136 C 
ATOM      2  O   UNL     1      81.666   7.125  28.721  1.00  0.00    -0.299 OA
ENDROOT
BRANCH   1   3
ATOM      3  C   UNL     1      81.400   5.555  26.969  1.00  0.00     0.053 C 
ATOM      4  C   UNL     1      80.291   6.488  26.465  1.00  0.00     0.016 C 
BRANCH   3   5
ATOM      5  C   UNL     1      82.608   5.527  25.992  1.00  0.00     0.015 C 
BRANCH   5   6
ATOM      6  C   UNL     1      83.447   4.237  26.032  1.00  0.00     0.028 C 
BRANCH   6   7
ATOM      7  C   UNL     1      84.795   4.339  26.717  1.00  0.00    -0.028 C 
ATOM      8  C   UNL     1      85.198   3.653  27.815  1.00  0.00    -0.070 CG0
ATOM      9  C   UNL     1      86.558   3.966  28.387  1.00  0.00     0.039 C 
ATOM     10  G   UNL     1      84.385   2.546  28.456  1.00  0.00     0.000 G0
ENDBRANCH   6   7
ENDBRANCH   5   6
ENDBRANCH   3   5
ENDBRANCH   1   3
BRANCH   1  11
ATOM     11  C   UNL     1      82.602   5.029  29.275  1.00  0.00     0.087 C 
BRANCH  11  12
ATOM     12  C   UNL     1      82.052   3.575  29.247  1.00  0.00     0.066 C 
BRANCH  12  13
ATOM     13  C   UNL     1      82.891   2.654  28.361  1.00  0.00     0.140 C 
ATOM     14  O   UNL     1      82.329   2.000  27.494  1.00  0.00    -0.299 OA
BRANCH  13  15
ATOM     15  C   UNL     1      84.401   2.521  28.477  1.00  0.00     0.106 CG0
ATOM     16  G   UNL     1      85.183   3.626  27.795  1.00  0.00     0.000 G0
ENDBRANCH  13  15
ENDBRANCH  12  13
BRANCH  12  17
ATOM     17  C   UNL     1      81.851   2.948  30.662  1.00  0.00    -0.006 C 
ATOM     18  C   UNL     1      80.782   1.844  30.649  1.00  0.00     0.008 C 
ATOM     19  C   UNL     1      81.536   3.968  31.772  1.00  0.00     0.008 C 
ENDBRANCH  12  17
ENDBRANCH  11  12
ENDBRANCH   1  11
TORSDOF 1
ENDMDL
MODEL 2
REMARK VINA RESULT:    -4.018      1.657      4.697
REMARK INTER + INTRA:          -4.857
REMARK INTER:                  -6.494
REMARK INTRA:                   1.637
REMARK UNBOUND:                 1.276
REMARK SMILES CC1=CCC[C@H](C)C(=O)C[C@H](C(C)C)C(=O)C1
REMARK SMILES IDX 8 1 9 2 6 3 7 4 5 5 4 6 3 7 2 8 1 9 10 11 11 12 15 13 16 14
REMARK SMILES IDX 17 15 12 17 13 18 14 19
REMARK H PARENT
REMARK Flexibility Score: 70.00
ROOT
ATOM      1  C   UNL     1      84.702   4.260  26.890  1.00  0.00     0.136 C 
ATOM      2  O   UNL     1      84.596   4.091  25.683  1.00  0.00    -0.299 OA
ENDROOT
BRANCH   1   3
ATOM      3  C   UNL     1      85.419   3.213  27.722  1.00  0.00     0.053 C 
ATOM      4  C   UNL     1      86.664   3.810  28.391  1.00  0.00     0.016 C 
BRANCH   3   5
ATOM      5  C   UNL     1      84.436   2.626  28.772  1.00  0.00     0.015 C 
BRANCH   5   6
ATOM      6  C   UNL     1      82.991   2.432  28.273  1.00  0.00     0.028 C 
BRANCH   6   7
ATOM      7  C   UNL     1      81.911   2.444  29.336  1.00  0.00    -0.028 C 
ATOM      8  C   UNL     1      81.713   3.400  30.275  1.00  0.00    -0.070 CG0
ATOM      9  C   UNL     1      80.625   3.176  31.296  1.00  0.00     0.039 C 
ATOM     10  G   UNL     1      82.479   4.707  30.315  1.00  0.00     0.000 G0
ENDBRANCH   6   7
ENDBRANCH   5   6
ENDBRANCH   3   5
ENDBRANCH   1   3
BRANCH   1  11
ATOM     11  C   UNL     1      84.114   5.513  27.506  1.00  0.00     0.087 C 
BRANCH  11  12
ATOM     12  C   UNL     1      82.580   5.437  27.748  1.00  0.00     0.066 C 
BRANCH  12  13
ATOM     13  C   UNL     1      82.210   5.691  29.209  1.00  0.00     0.140 C 
ATOM     14  O   UNL     1      81.633   6.730  29.499  1.00  0.00    -0.299 OA
BRANCH  13  15
ATOM     15  C   UNL     1      82.497   4.708  30.334  1.00  0.00     0.106 CG0
ATOM     16  G   UNL     1      81.700   3.421  30.260  1.00  0.00     0.000 G0
ENDBRANCH  13  15
ENDBRANCH  12  13
BRANCH  12  17
ATOM     17  C   UNL     1      81.744   6.351  26.799  1.00  0.00    -0.006 C 
ATOM     18  C   UNL     1      80.282   6.462  27.258  1.00  0.00     0.008 C 
ATOM     19  C   UNL     1      81.797   5.946  25.315  1.00  0.00     0.008 C 
ENDBRANCH  12  17
ENDBRANCH  11  12
ENDBRANCH   1  11
TORSDOF 1
ENDMDL
MODEL 3
REMARK VINA RESULT:    -3.818     11.916     13.585
REMARK INTER + INTRA:          -4.551
REMARK INTER:                  -4.863
REMARK INTRA:                   0.312
REMARK UNBOUND:                 1.276
REMARK SMILES CC1=CCC[C@H](C)C(=O)C[C@H](C(C)C)C(=O)C1
REMARK SMILES IDX 8 1 9 2 6 3 7 4 5 5 4 6 3 7 2 8 1 9 10 11 11 12 15 13 16 14
REMARK SMILES IDX 17 15 12 17 13 18 14 19
REMARK H PARENT
REMARK Flexibility Score: 70.00
ROOT
ATOM      1  C   UNL     1      84.867  -7.558  29.225  1.00  0.00     0.136 C 
ATOM      2  O   UNL     1      84.773  -6.627  30.012  1.00  0.00    -0.299 OA
ENDROOT
BRANCH   1   3
ATOM      3  C   UNL     1      85.624  -8.805  29.643  1.00  0.00     0.053 C 
ATOM      4  C   UNL     1      86.763  -8.451  30.608  1.00  0.00     0.016 C 
BRANCH   3   5
ATOM      5  C   UNL     1      84.635  -9.821  30.279  1.00  0.00     0.015 C 
BRANCH   5   6
ATOM      6  C   UNL     1      83.715  -9.239  31.367  1.00  0.00     0.028 C 
BRANCH   6   7
ATOM      7  C   UNL     1      82.251  -9.620  31.277  1.00  0.00    -0.028 C 
ATOM      8  C   UNL     1      81.309  -9.032  30.501  1.00  0.00    -0.070 CG0
ATOM      9  C   UNL     1      79.886  -9.517  30.623  1.00  0.00     0.039 C 
ATOM     10  G   UNL     1      81.619  -7.962  29.473  1.00  0.00     0.000 G0
ENDBRANCH   6   7
ENDBRANCH   5   6
ENDBRANCH   3   5
ENDBRANCH   1   3
BRANCH   1  11
ATOM     11  C   UNL     1      84.222  -7.429  27.861  1.00  0.00     0.087 C 
BRANCH  11  12
ATOM     12  C   UNL     1      83.287  -8.615  27.490  1.00  0.00     0.066 C 
BRANCH  12  13
ATOM     13  C   UNL     1      81.883  -8.451  28.074  1.00  0.00     0.140 C 
ATOM     14  O   UNL     1      80.920  -8.762  27.388  1.00  0.00    -0.299 OA
BRANCH  13  15
ATOM     15  C   UNL     1      81.611  -7.943  29.481  1.00  0.00     0.106 CG0
ATOM     16  G   UNL     1      81.310  -9.030  30.494  1.00  0.00     0.000 G0
ENDBRANCH  13  15
ENDBRANCH  12  13
BRANCH  12  17
ATOM     17  C   UNL     1      83.218  -8.911  25.959  1.00  0.00    -0.006 C 
ATOM     18  C   UNL     1      84.473  -9.648  25.465  1.00  0.00     0.008 C 
ATOM     19  C   UNL     1      82.959  -7.673  25.082  1.00  0.00     0.008 C 
ENDBRANCH  12  17
ENDBRANCH  11  12
ENDBRANCH   1  11
TORSDOF 1
ENDMDL
MODEL 4
REMARK VINA RESULT:    -3.792      2.009      4.616
REMARK INTER + INTRA:          -4.512
REMARK INTER:                  -5.716
REMARK INTRA:                   1.204
REMARK UNBOUND:                 1.276
REMARK SMILES CC1=CCC[C@H](C)C(=O)C[C@H](C(C)C)C(=O)C1
REMARK SMILES IDX 8 1 9 2 6 3 7 4 5 5 4 6 3 7 2 8 1 9 10 11 11 12 15 13 16 14
REMARK SMILES IDX 17 15 12 17 13 18 14 19
REMARK H PARENT
REMARK Flexibility Score: 70.00
ROOT
ATOM      1  C   UNL     1      82.478   2.754  28.969  1.00  0.00     0.136 C 
ATOM      2  O   UNL     1      83.284   2.009  29.509  1.00  0.00    -0.299 OA
ENDROOT
BRANCH   1   3
ATOM      3  C   UNL     1      81.507   3.540  29.829  1.00  0.00     0.053 C 
ATOM      4  C   UNL     1      80.914   2.651  30.930  1.00  0.00     0.016 C 
BRANCH   3   5
ATOM      5  C   UNL     1      82.232   4.777  30.428  1.00  0.00     0.015 C 
BRANCH   5   6
ATOM      6  C   UNL     1      82.297   6.005  29.500  1.00  0.00     0.028 C 
BRANCH   6   7
ATOM      7  C   UNL     1      81.268   6.055  28.388  1.00  0.00    -0.028 C 
ATOM      8  C   UNL     1      81.518   6.163  27.061  1.00  0.00    -0.070 CG0
ATOM      9  C   UNL     1      80.340   6.279  26.126  1.00  0.00     0.039 C 
ATOM     10  G   UNL     1      82.909   6.107  26.462  1.00  0.00     0.000 G0
ENDBRANCH   6   7
ENDBRANCH   5   6
ENDBRANCH   3   5
ENDBRANCH   1   3
BRANCH   1  11
ATOM     11  C   UNL     1      82.484   2.862  27.458  1.00  0.00     0.087 C 
BRANCH  11  12
ATOM     12  C   UNL     1      83.731   3.590  26.882  1.00  0.00     0.066 C 
BRANCH  12  13
ATOM     13  C   UNL     1      83.353   4.747  25.958  1.00  0.00     0.140 C 
ATOM     14  O   UNL     1      83.383   4.570  24.748  1.00  0.00    -0.299 OA
BRANCH  13  15
ATOM     15  C   UNL     1      82.912   6.114  26.458  1.00  0.00     0.106 CG0
ATOM     16  G   UNL     1      81.516   6.146  27.048  1.00  0.00     0.000 G0
ENDBRANCH  13  15
ENDBRANCH  12  13
BRANCH  12  17
ATOM     17  C   UNL     1      84.748   4.060  27.969  1.00  0.00    -0.006 C 
ATOM     18  C   UNL     1      85.136   5.536  27.786  1.00  0.00     0.008 C 
ATOM     19  C   UNL     1      86.017   3.194  28.070  1.00  0.00     0.008 C 
ENDBRANCH  12  17
ENDBRANCH  11  12
ENDBRANCH   1  11
TORSDOF 1
ENDMDL
MODEL 5
REMARK VINA RESULT:    -3.487      1.503      3.542
REMARK INTER + INTRA:          -4.047
REMARK INTER:                  -4.908
REMARK INTRA:                   0.862
REMARK UNBOUND:                 1.276
REMARK SMILES CC1=CCC[C@H](C)C(=O)C[C@H](C(C)C)C(=O)C1
REMARK SMILES IDX 8 1 9 2 6 3 7 4 5 5 4 6 3 7 2 8 1 9 10 11 11 12 15 13 16 14
REMARK SMILES IDX 17 15 12 17 13 18 14 19
REMARK H PARENT
REMARK Flexibility Score: 70.00
ROOT
ATOM      1  C   UNL     1      82.374   5.605  29.720  1.00  0.00     0.136 C 
ATOM      2  O   UNL     1      81.485   6.407  29.969  1.00  0.00    -0.299 OA
ENDROOT
BRANCH   1   3
ATOM      3  C   UNL     1      82.306   4.216  30.327  1.00  0.00     0.053 C 
ATOM      4  C   UNL     1      81.484   4.229  31.623  1.00  0.00     0.016 C 
BRANCH   3   5
ATOM      5  C   UNL     1      81.713   3.225  29.288  1.00  0.00     0.015 C 
BRANCH   5   6
ATOM      6  C   UNL     1      82.728   2.247  28.668  1.00  0.00     0.028 C 
BRANCH   6   7
ATOM      7  C   UNL     1      84.183   2.670  28.728  1.00  0.00    -0.028 C 
ATOM      8  C   UNL     1      84.874   3.325  27.764  1.00  0.00    -0.070 CG0
ATOM      9  C   UNL     1      86.343   3.579  27.994  1.00  0.00     0.039 C 
ATOM     10  G   UNL     1      84.238   3.873  26.502  1.00  0.00     0.000 G0
ENDBRANCH   6   7
ENDBRANCH   5   6
ENDBRANCH   3   5
ENDBRANCH   1   3
BRANCH   1  11
ATOM     11  C   UNL     1      83.508   6.031  28.811  1.00  0.00     0.087 C 
BRANCH  11  12
ATOM     12  C   UNL     1      83.108   6.146  27.313  1.00  0.00     0.066 C 
BRANCH  12  13
ATOM     13  C   UNL     1      84.039   5.347  26.401  1.00  0.00     0.140 C 
ATOM     14  O   UNL     1      84.700   5.945  25.564  1.00  0.00    -0.299 OA
BRANCH  13  15
ATOM     15  C   UNL     1      84.213   3.839  26.489  1.00  0.00     0.106 CG0
ATOM     16  G   UNL     1      84.886   3.358  27.759  1.00  0.00     0.000 G0
ENDBRANCH  13  15
ENDBRANCH  12  13
BRANCH  12  17
ATOM     17  C   UNL     1      81.615   5.790  27.028  1.00  0.00    -0.006 C 
ATOM     18  C   UNL     1      81.466   4.927  25.765  1.00  0.00     0.008 C 
ATOM     19  C   UNL     1      80.676   7.006  26.944  1.00  0.00     0.008 C 
ENDBRANCH  12  17
ENDBRANCH  11  12
ENDBRANCH   1  11
TORSDOF 1
ENDMDL
MODEL 6
REMARK VINA RESULT:    -3.367     11.600     12.886
REMARK INTER + INTRA:          -3.863
REMARK INTER:                  -4.027
REMARK INTRA:                   0.164
REMARK UNBOUND:                 1.276
REMARK SMILES CC1=CCC[C@H](C)C(=O)C[C@H](C(C)C)C(=O)C1
REMARK SMILES IDX 8 1 9 2 6 3 7 4 5 5 4 6 3 7 2 8 1 9 10 11 11 12 15 13 16 14
REMARK SMILES IDX 17 15 12 17 13 18 14 19
REMARK H PARENT
REMARK Flexibility Score: 70.00
ROOT
ATOM      1  C   UNL     1      82.387  -8.352  26.451  1.00  0.00     0.136 C 
ATOM      2  O   UNL     1      81.972  -7.793  25.445  1.00  0.00    -0.299 OA
ENDROOT
BRANCH   1   3
ATOM      3  C   UNL     1      83.700  -9.110  26.386  1.00  0.00     0.053 C 
ATOM      4  C   UNL     1      83.882  -9.766  25.011  1.00  0.00     0.016 C 
BRANCH   3   5
ATOM      5  C   UNL     1      84.871  -8.142  26.713  1.00  0.00     0.015 C 
BRANCH   5   6
ATOM      6  C   UNL     1      84.509  -6.977  27.654  1.00  0.00     0.028 C 
BRANCH   6   7
ATOM      7  C   UNL     1      85.122  -7.024  29.039  1.00  0.00    -0.028 C 
ATOM      8  C   UNL     1      84.466  -7.234  30.206  1.00  0.00    -0.070 CG0
ATOM      9  C   UNL     1      85.258  -7.160  31.487  1.00  0.00     0.039 C 
ATOM     10  G   UNL     1      82.998  -7.604  30.287  1.00  0.00     0.000 G0
ENDBRANCH   6   7
ENDBRANCH   5   6
ENDBRANCH   3   5
ENDBRANCH   1   3
BRANCH   1  11
ATOM     11  C   UNL     1      81.571  -8.264  27.724  1.00  0.00     0.087 C 
BRANCH  11  12
ATOM     12  C   UNL     1      81.802  -9.448  28.705  1.00  0.00     0.066 C 
BRANCH  12  13
ATOM     13  C   UNL     1      82.689  -9.057  29.887  1.00  0.00     0.140 C 
ATOM     14  O   UNL     1      83.213  -9.943  30.549  1.00  0.00    -0.299 OA
BRANCH  13  15
ATOM     15  C   UNL     1      82.984  -7.618  30.279  1.00  0.00     0.106 CG0
ATOM     16  G   UNL     1      84.448  -7.233  30.200  1.00  0.00     0.000 G0
ENDBRANCH  13  15
ENDBRANCH  12  13
BRANCH  12  17
ATOM     17  C   UNL     1      80.486 -10.125  29.201  1.00  0.00    -0.006 C 
ATOM     18  C   UNL     1      79.386 -10.085  28.128  1.00  0.00     0.008 C 
ATOM     19  C   UNL     1      79.943  -9.564  30.528  1.00  0.00     0.008 C 
ENDBRANCH  12  17
ENDBRANCH  11  12
ENDBRANCH   1  11
TORSDOF 1
ENDMDL
MODEL 7
REMARK VINA RESULT:    -3.267      1.675      3.876
REMARK INTER + INTRA:          -3.710
REMARK INTER:                  -5.862
REMARK INTRA:                   2.151
REMARK UNBOUND:                 1.276
REMARK SMILES CC1=CCC[C@H](C)C(=O)C[C@H](C(C)C)C(=O)C1
REMARK SMILES IDX 8 1 9 2 6 3 7 4 5 5 4 6 3 7 2 8 1 9 10 11 11 12 15 13 16 14
REMARK SMILES IDX 17 15 12 17 13 18 14 19
REMARK H PARENT
REMARK Flexibility Score: 70.00
ROOT
ATOM      1  C   UNL     1      83.618   3.181  27.895  1.00  0.00     0.136 C 
ATOM      2  O   UNL     1      83.121   2.839  26.831  1.00  0.00    -0.299 OA
ENDROOT
BRANCH   1   3
ATOM      3  C   UNL     1      84.790   4.145  27.886  1.00  0.00     0.053 C 
ATOM      4  C   UNL     1      86.121   3.382  27.916  1.00  0.00     0.016 C 
BRANCH   3   5
ATOM      5  C   UNL     1      84.691   5.068  26.640  1.00  0.00     0.015 C 
BRANCH   5   6
ATOM      6  C   UNL     1      83.347   5.007  25.891  1.00  0.00     0.028 C 
BRANCH   6   7
ATOM      7  C   UNL     1      82.376   6.136  26.171  1.00  0.00    -0.028 C 
ATOM      8  C   UNL     1      81.334   6.110  27.038  1.00  0.00    -0.070 CG0
ATOM      9  C   UNL     1      80.438   7.322  27.105  1.00  0.00     0.039 C 
ATOM     10  G   UNL     1      81.062   4.960  27.986  1.00  0.00     0.000 G0
ENDBRANCH   6   7
ENDBRANCH   5   6
ENDBRANCH   3   5
ENDBRANCH   1   3
BRANCH   1  11
ATOM     11  C   UNL     1      83.041   2.629  29.182  1.00  0.00     0.087 C 
BRANCH  11  12
ATOM     12  C   UNL     1      82.262   3.677  30.025  1.00  0.00     0.066 C 
BRANCH  12  13
ATOM     13  C   UNL     1      81.950   4.945  29.231  1.00  0.00     0.140 C 
ATOM     14  O   UNL     1      82.458   6.000  29.582  1.00  0.00    -0.299 OA
BRANCH  13  15
ATOM     15  C   UNL     1      81.056   4.969  28.000  1.00  0.00     0.106 CG0
ATOM     16  G   UNL     1      81.337   6.111  27.044  1.00  0.00     0.000 G0
ENDBRANCH  13  15
ENDBRANCH  12  13
BRANCH  12  17
ATOM     17  C   UNL     1      80.970   3.114  30.698  1.00  0.00    -0.006 C 
ATOM     18  C   UNL     1      80.749   3.714  32.095  1.00  0.00     0.008 C 
ATOM     19  C   UNL     1      80.910   1.578  30.773  1.00  0.00     0.008 C 
ENDBRANCH  12  17
ENDBRANCH  11  12
ENDBRANCH   1  11
TORSDOF 1
ENDMDL
MODEL 8
REMARK VINA RESULT:    -2.646      1.831      4.119
REMARK INTER + INTRA:          -2.763
REMARK INTER:                  -4.006
REMARK INTRA:                   1.243
REMARK UNBOUND:                 1.276
REMARK SMILES CC1=CCC[C@H](C)C(=O)C[C@H](C(C)C)C(=O)C1
REMARK SMILES IDX 8 1 9 2 6 3 7 4 5 5 4 6 3 7 2 8 1 9 10 11 11 12 15 13 16 14
REMARK SMILES IDX 17 15 12 17 13 18 14 19
REMARK H PARENT
REMARK Flexibility Score: 70.00
ROOT
ATOM      1  C   UNL     1      82.195   3.637  29.027  1.00  0.00     0.136 C 
ATOM      2  O   UNL     1      82.283   4.201  30.108  1.00  0.00    -0.299 OA
ENDROOT
BRANCH   1   3
ATOM      3  C   UNL     1      82.786   2.249  28.868  1.00  0.00     0.053 C 
ATOM      4  C   UNL     1      82.342   1.618  27.542  1.00  0.00     0.016 C 
BRANCH   3   5
ATOM      5  C   UNL     1      84.334   2.331  28.967  1.00  0.00     0.015 C 
BRANCH   5   6
ATOM      6  C   UNL     1      84.960   3.594  28.345  1.00  0.00     0.028 C 
BRANCH   6   7
ATOM      7  C   UNL     1      84.831   3.730  26.842  1.00  0.00    -0.028 C 
ATOM      8  C   UNL     1      84.454   4.839  26.160  1.00  0.00    -0.070 CG0
ATOM      9  C   UNL     1      84.312   4.735  24.662  1.00  0.00     0.039 C 
ATOM     10  G   UNL     1      84.233   6.189  26.812  1.00  0.00     0.000 G0
ENDBRANCH   6   7
ENDBRANCH   5   6
ENDBRANCH   3   5
ENDBRANCH   1   3
BRANCH   1  11
ATOM     11  C   UNL     1      81.497   4.349  27.887  1.00  0.00     0.087 C 
BRANCH  11  12
ATOM     12  C   UNL     1      81.780   5.877  27.828  1.00  0.00     0.066 C 
BRANCH  12  13
ATOM     13  C   UNL     1      83.269   6.196  27.970  1.00  0.00     0.140 C 
ATOM     14  O   UNL     1      83.713   6.451  29.081  1.00  0.00    -0.299 OA
BRANCH  13  15
ATOM     15  C   UNL     1      84.246   6.191  26.805  1.00  0.00     0.106 CG0
ATOM     16  G   UNL     1      84.444   4.835  26.159  1.00  0.00     0.000 G0
ENDBRANCH  13  15
ENDBRANCH  12  13
BRANCH  12  17
ATOM     17  C   UNL     1      81.180   6.584  26.573  1.00  0.00    -0.006 C 
ATOM     18  C   UNL     1      80.000   7.496  26.943  1.00  0.00     0.008 C 
ATOM     19  C   UNL     1      80.767   5.627  25.440  1.00  0.00     0.008 C 
ENDBRANCH  12  17
ENDBRANCH  11  12
ENDBRANCH   1  11
TORSDOF 1
ENDMDL
MODEL 9
REMARK VINA RESULT:    -2.275      1.982      4.981
REMARK INTER + INTRA:          -2.196
REMARK INTER:                  -2.716
REMARK INTRA:                   0.520
REMARK UNBOUND:                 1.276
REMARK SMILES CC1=CCC[C@H](C)C(=O)C[C@H](C(C)C)C(=O)C1
REMARK SMILES IDX 8 1 9 2 6 3 7 4 5 5 4 6 3 7 2 8 1 9 10 11 11 12 15 13 16 14
REMARK SMILES IDX 17 15 12 17 13 18 14 19
REMARK H PARENT
REMARK Flexibility Score: 70.00
ROOT
ATOM      1  C   UNL     1      83.895   3.171  28.029  1.00  0.00     0.136 C 
ATOM      2  O   UNL     1      84.855   2.735  28.648  1.00  0.00    -0.299 OA
ENDROOT
BRANCH   1   3
ATOM      3  C   UNL     1      82.566   2.443  28.118  1.00  0.00     0.053 C 
ATOM      4  C   UNL     1      82.584   1.173  27.259  1.00  0.00     0.016 C 
BRANCH   3   5
ATOM      5  C   UNL     1      82.254   2.119  29.606  1.00  0.00     0.015 C 
BRANCH   5   6
ATOM      6  C   UNL     1      81.447   3.198  30.351  1.00  0.00     0.028 C 
BRANCH   6   7
ATOM      7  C   UNL     1      82.101   4.561  30.463  1.00  0.00    -0.028 C 
ATOM      8  C   UNL     1      82.045   5.561  29.551  1.00  0.00    -0.070 CG0
ATOM      9  C   UNL     1      82.839   6.814  29.824  1.00  0.00     0.039 C 
ATOM     10  G   UNL     1      81.179   5.514  28.308  1.00  0.00     0.000 G0
ENDBRANCH   6   7
ENDBRANCH   5   6
ENDBRANCH   3   5
ENDBRANCH   1   3
BRANCH   1  11
ATOM     11  C   UNL     1      84.071   4.424  27.196  1.00  0.00     0.087 C 
BRANCH  11  12
ATOM     12  C   UNL     1      82.835   4.780  26.323  1.00  0.00     0.066 C 
BRANCH  12  13
ATOM     13  C   UNL     1      81.915   5.793  27.005  1.00  0.00     0.140 C 
ATOM     14  O   UNL     1      81.740   6.881  26.475  1.00  0.00    -0.299 OA
BRANCH  13  15
ATOM     15  C   UNL     1      81.177   5.516  28.306  1.00  0.00     0.106 CG0
ATOM     16  G   UNL     1      82.046   5.575  29.546  1.00  0.00     0.000 G0
ENDBRANCH  13  15
ENDBRANCH  12  13
BRANCH  12  17
ATOM     17  C   UNL     1      83.194   5.246  24.877  1.00  0.00    -0.006 C 
ATOM     18  C   UNL     1      82.039   4.999  23.895  1.00  0.00     0.008 C 
ATOM     19  C   UNL     1      84.495   4.641  24.318  1.00  0.00     0.008 C 
ENDBRANCH  12  17
ENDBRANCH  11  12
ENDBRANCH   1  11
TORSDOF 1
ENDMDL
