MODEL 1
REMARK VINA RESULT:    20.939      0.000      0.000
REMARK INTER + INTRA:          44.410
REMARK INTER:                  45.421
REMARK INTRA:                  -1.011
REMARK UNBOUND:                -1.011
REMARK SMILES CCCCCCCCCCCCCCCCCCCCCC(=O)[O-]
REMARK SMILES IDX 12 1 11 2 10 3 9 4 8 5 7 6 6 7 5 8 4 9 3 10 2 11 1 12 13 13
REMARK SMILES IDX 14 14 15 15 16 16 17 17 18 18 19 19 20 20 21 21 22 22 23 23
REMARK SMILES IDX 24 24
REMARK H PARENT
REMARK Flexibility Score: inf
ROOT
ATOM      1  C   UNL     1      -8.022  13.633 -21.132  1.00  0.00     0.000 C 
ENDROOT
BRANCH   1   2
ATOM      2  C   UNL     1      -9.342  13.574 -20.346  1.00  0.00     0.000 C 
BRANCH   2   3
ATOM      3  C   UNL     1      -9.122  13.316 -18.839  1.00  0.00     0.000 C 
BRANCH   3   4
ATOM      4  C   UNL     1      -8.563  14.531 -18.074  1.00  0.00    -0.000 C 
BRANCH   4   5
ATOM      5  C   UNL     1      -9.616  15.554 -17.609  1.00  0.00    -0.000 C 
BRANCH   5   6
ATOM      6  C   UNL     1      -9.566  16.913 -18.333  1.00  0.00    -0.000 C 
BRANCH   6   7
ATOM      7  C   UNL     1     -10.465  17.973 -17.678  1.00  0.00    -0.000 C 
BRANCH   7   8
ATOM      8  C   UNL     1      -9.629  19.005 -16.913  1.00  0.00    -0.000 C 
BRANCH   8   9
ATOM      9  C   UNL     1      -8.245  18.441 -16.558  1.00  0.00    -0.000 C 
BRANCH   9  10
ATOM     10  C   UNL     1      -7.296  19.525 -16.005  1.00  0.00    -0.000 C 
BRANCH  10  11
ATOM     11  C   UNL     1      -7.142  19.487 -14.474  1.00  0.00    -0.003 C 
ATOM     12  C   UNL     1      -5.880  20.189 -13.981  1.00  0.00     0.004 C 
ENDBRANCH  10  11
ENDBRANCH   9  10
ENDBRANCH   8   9
ENDBRANCH   7   8
ENDBRANCH   6   7
ENDBRANCH   5   6
ENDBRANCH   4   5
ENDBRANCH   3   4
ENDBRANCH   2   3
ENDBRANCH   1   2
BRANCH   1  13
ATOM     13  C   UNL     1      -7.896  12.495 -22.157  1.00  0.00     0.000 C 
BRANCH  13  14
ATOM     14  C   UNL     1      -6.607  12.597 -22.992  1.00  0.00     0.000 C 
BRANCH  14  15
ATOM     15  C   UNL     1      -6.767  12.006 -24.402  1.00  0.00     0.000 C 
BRANCH  15  16
ATOM     16  C   UNL     1      -6.483  13.032 -25.513  1.00  0.00     0.000 C 
BRANCH  16  17
ATOM     17  C   UNL     1      -5.418  14.063 -25.108  1.00  0.00     0.000 C 
BRANCH  17  18
ATOM     18  C   UNL     1      -4.766  14.748 -26.319  1.00  0.00     0.000 C 
BRANCH  18  19
ATOM     19  C   UNL     1      -5.518  16.030 -26.695  1.00  0.00     0.000 C 
BRANCH  19  20
ATOM     20  C   UNL     1      -4.789  17.272 -26.160  1.00  0.00     0.006 C 
BRANCH  20  21
ATOM     21  C   UNL     1      -5.763  18.342 -25.651  1.00  0.00     0.053 C 
BRANCH  21  22
ATOM     22  C   UNL     1      -5.771  18.419 -24.155  1.00  0.00     0.041 C 
ATOM     23  O   UNL     1      -6.658  19.085 -23.559  1.00  0.00    -0.550 OA
ATOM     24  O   UNL     1      -4.816  17.729 -23.418  1.00  0.00    -0.550 OA
ENDBRANCH  21  22
ENDBRANCH  20  21
ENDBRANCH  19  20
ENDBRANCH  18  19
ENDBRANCH  17  18
ENDBRANCH  16  17
ENDBRANCH  15  16
ENDBRANCH  14  15
ENDBRANCH  13  14
ENDBRANCH   1  13
TORSDOF 20
ENDMDL
MODEL 2
REMARK VINA RESULT:    21.236      5.379      9.376
REMARK INTER + INTRA:          45.053
REMARK INTER:                  44.776
REMARK INTRA:                   0.278
REMARK UNBOUND:                -1.011
REMARK SMILES CCCCCCCCCCCCCCCCCCCCCC(=O)[O-]
REMARK SMILES IDX 12 1 11 2 10 3 9 4 8 5 7 6 6 7 5 8 4 9 3 10 2 11 1 12 13 13
REMARK SMILES IDX 14 14 15 15 16 16 17 17 18 18 19 19 20 20 21 21 22 22 23 23
REMARK SMILES IDX 24 24
REMARK H PARENT
REMARK Flexibility Score: inf
ROOT
ATOM      1  C   UNL     1      -5.735   9.036 -24.957  1.00  0.00     0.000 C 
ENDROOT
BRANCH   1   2
ATOM      2  C   UNL     1      -4.441   8.639 -24.228  1.00  0.00     0.000 C 
BRANCH   2   3
ATOM      3  C   UNL     1      -4.696   7.664 -23.058  1.00  0.00     0.000 C 
BRANCH   3   4
ATOM      4  C   UNL     1      -3.431   6.937 -22.564  1.00  0.00    -0.000 C 
BRANCH   4   5
ATOM      5  C   UNL     1      -2.979   7.303 -21.139  1.00  0.00    -0.000 C 
BRANCH   5   6
ATOM      6  C   UNL     1      -1.506   7.741 -21.016  1.00  0.00    -0.000 C 
BRANCH   6   7
ATOM      7  C   UNL     1      -1.134   8.868 -21.991  1.00  0.00    -0.000 C 
BRANCH   7   8
ATOM      8  C   UNL     1      -0.569   8.298 -23.298  1.00  0.00    -0.000 C 
BRANCH   8   9
ATOM      9  C   UNL     1      -1.353   8.820 -24.512  1.00  0.00    -0.000 C 
BRANCH   9  10
ATOM     10  C   UNL     1      -0.468   9.652 -25.465  1.00  0.00    -0.000 C 
BRANCH  10  11
ATOM     11  C   UNL     1       0.457   8.798 -26.349  1.00  0.00    -0.003 C 
ATOM     12  C   UNL     1       0.672   7.389 -25.807  1.00  0.00     0.004 C 
ENDBRANCH  10  11
ENDBRANCH   9  10
ENDBRANCH   8   9
ENDBRANCH   7   8
ENDBRANCH   6   7
ENDBRANCH   5   6
ENDBRANCH   4   5
ENDBRANCH   3   4
ENDBRANCH   2   3
ENDBRANCH   1   2
BRANCH   1  13
ATOM     13  C   UNL     1      -5.839  10.552 -25.189  1.00  0.00     0.000 C 
BRANCH  13  14
ATOM     14  C   UNL     1      -6.125  11.325 -23.890  1.00  0.00     0.000 C 
BRANCH  14  15
ATOM     15  C   UNL     1      -6.394  12.819 -24.137  1.00  0.00     0.000 C 
BRANCH  15  16
ATOM     16  C   UNL     1      -6.149  13.233 -25.598  1.00  0.00     0.000 C 
BRANCH  16  17
ATOM     17  C   UNL     1      -5.089  14.338 -25.731  1.00  0.00     0.000 C 
BRANCH  17  18
ATOM     18  C   UNL     1      -5.205  15.114 -27.052  1.00  0.00     0.000 C 
BRANCH  18  19
ATOM     19  C   UNL     1      -5.986  16.418 -26.856  1.00  0.00     0.000 C 
BRANCH  19  20
ATOM     20  C   UNL     1      -5.100  17.502 -26.224  1.00  0.00     0.006 C 
BRANCH  20  21
ATOM     21  C   UNL     1      -4.657  17.135 -24.802  1.00  0.00     0.053 C 
BRANCH  21  22
ATOM     22  C   UNL     1      -5.232  18.070 -23.783  1.00  0.00     0.041 C 
ATOM     23  O   UNL     1      -6.041  18.969 -24.132  1.00  0.00    -0.550 OA
ATOM     24  O   UNL     1      -4.895  17.930 -22.442  1.00  0.00    -0.550 OA
ENDBRANCH  21  22
ENDBRANCH  20  21
ENDBRANCH  19  20
ENDBRANCH  18  19
ENDBRANCH  17  18
ENDBRANCH  16  17
ENDBRANCH  15  16
ENDBRANCH  14  15
ENDBRANCH  13  14
ENDBRANCH   1  13
TORSDOF 20
ENDMDL
MODEL 3
REMARK VINA RESULT:    21.969      0.852      1.181
REMARK INTER + INTRA:          46.644
REMARK INTER:                  47.713
REMARK INTRA:                  -1.069
REMARK UNBOUND:                -1.011
REMARK SMILES CCCCCCCCCCCCCCCCCCCCCC(=O)[O-]
REMARK SMILES IDX 12 1 11 2 10 3 9 4 8 5 7 6 6 7 5 8 4 9 3 10 2 11 1 12 13 13
REMARK SMILES IDX 14 14 15 15 16 16 17 17 18 18 19 19 20 20 21 21 22 22 23 23
REMARK SMILES IDX 24 24
REMARK H PARENT
REMARK Flexibility Score: inf
ROOT
ATOM      1  C   UNL     1      -8.005  14.147 -21.147  1.00  0.00     0.000 C 
ENDROOT
BRANCH   1   2
ATOM      2  C   UNL     1      -8.654  14.644 -19.844  1.00  0.00     0.000 C 
BRANCH   2   3
ATOM      3  C   UNL     1      -8.971  13.493 -18.865  1.00  0.00     0.000 C 
BRANCH   3   4
ATOM      4  C   UNL     1      -9.360  13.966 -17.452  1.00  0.00    -0.000 C 
BRANCH   4   5
ATOM      5  C   UNL     1      -9.071  15.449 -17.154  1.00  0.00    -0.000 C 
BRANCH   5   6
ATOM      6  C   UNL     1     -10.204  16.422 -17.535  1.00  0.00    -0.000 C 
BRANCH   6   7
ATOM      7  C   UNL     1      -9.684  17.756 -18.092  1.00  0.00    -0.000 C 
BRANCH   7   8
ATOM      8  C   UNL     1      -9.527  18.794 -16.975  1.00  0.00    -0.000 C 
BRANCH   8   9
ATOM      9  C   UNL     1      -8.045  19.065 -16.677  1.00  0.00    -0.000 C 
BRANCH   9  10
ATOM     10  C   UNL     1      -7.763  19.172 -15.163  1.00  0.00    -0.000 C 
BRANCH  10  11
ATOM     11  C   UNL     1      -6.890  20.381 -14.783  1.00  0.00    -0.003 C 
ATOM     12  C   UNL     1      -5.784  20.033 -13.791  1.00  0.00     0.004 C 
ENDBRANCH  10  11
ENDBRANCH   9  10
ENDBRANCH   8   9
ENDBRANCH   7   8
ENDBRANCH   6   7
ENDBRANCH   5   6
ENDBRANCH   4   5
ENDBRANCH   3   4
ENDBRANCH   2   3
ENDBRANCH   1   2
BRANCH   1  13
ATOM     13  C   UNL     1      -8.529  12.767 -21.577  1.00  0.00     0.000 C 
BRANCH  13  14
ATOM     14  C   UNL     1      -7.458  11.932 -22.299  1.00  0.00     0.000 C 
BRANCH  14  15
ATOM     15  C   UNL     1      -6.625  12.765 -23.288  1.00  0.00     0.000 C 
BRANCH  15  16
ATOM     16  C   UNL     1      -6.418  12.055 -24.637  1.00  0.00     0.000 C 
BRANCH  16  17
ATOM     17  C   UNL     1      -6.322  13.038 -25.814  1.00  0.00     0.000 C 
BRANCH  17  18
ATOM     18  C   UNL     1      -5.484  14.281 -25.482  1.00  0.00     0.000 C 
BRANCH  18  19
ATOM     19  C   UNL     1      -5.256  15.141 -26.730  1.00  0.00     0.000 C 
BRANCH  19  20
ATOM     20  C   UNL     1      -5.062  16.618 -26.355  1.00  0.00     0.006 C 
BRANCH  20  21
ATOM     21  C   UNL     1      -4.513  16.788 -24.933  1.00  0.00     0.053 C 
BRANCH  21  22
ATOM     22  C   UNL     1      -5.209  17.891 -24.197  1.00  0.00     0.041 C 
ATOM     23  O   UNL     1      -5.257  17.882 -22.938  1.00  0.00    -0.550 OA
ATOM     24  O   UNL     1      -5.779  18.945 -24.900  1.00  0.00    -0.550 OA
ENDBRANCH  21  22
ENDBRANCH  20  21
ENDBRANCH  19  20
ENDBRANCH  18  19
ENDBRANCH  17  18
ENDBRANCH  16  17
ENDBRANCH  15  16
ENDBRANCH  14  15
ENDBRANCH  13  14
ENDBRANCH   1  13
TORSDOF 20
ENDMDL
MODEL 4
REMARK VINA RESULT:    22.323      4.403      5.670
REMARK INTER + INTRA:          47.411
REMARK INTER:                  48.104
REMARK INTRA:                  -0.692
REMARK UNBOUND:                -1.011
REMARK SMILES CCCCCCCCCCCCCCCCCCCCCC(=O)[O-]
REMARK SMILES IDX 12 1 11 2 10 3 9 4 8 5 7 6 6 7 5 8 4 9 3 10 2 11 1 12 13 13
REMARK SMILES IDX 14 14 15 15 16 16 17 17 18 18 19 19 20 20 21 21 22 22 23 23
REMARK SMILES IDX 24 24
REMARK H PARENT
REMARK Flexibility Score: inf
ROOT
ATOM      1  C   UNL     1      -8.380  13.191 -21.789  1.00  0.00     0.000 C 
ENDROOT
BRANCH   1   2
ATOM      2  C   UNL     1      -8.855  13.031 -20.335  1.00  0.00     0.000 C 
BRANCH   2   3
ATOM      3  C   UNL     1      -8.513  14.259 -19.463  1.00  0.00     0.000 C 
BRANCH   3   4
ATOM      4  C   UNL     1      -9.144  14.221 -18.058  1.00  0.00    -0.000 C 
BRANCH   4   5
ATOM      5  C   UNL     1      -9.734  15.556 -17.568  1.00  0.00    -0.000 C 
BRANCH   5   6
ATOM      6  C   UNL     1      -9.517  16.750 -18.517  1.00  0.00    -0.000 C 
BRANCH   6   7
ATOM      7  C   UNL     1     -10.226  18.028 -18.043  1.00  0.00    -0.000 C 
BRANCH   7   8
ATOM      8  C   UNL     1      -9.808  18.389 -16.613  1.00  0.00    -0.000 C 
BRANCH   8   9
ATOM      9  C   UNL     1      -8.279  18.373 -16.464  1.00  0.00    -0.000 C 
BRANCH   9  10
ATOM     10  C   UNL     1      -7.747  19.639 -15.760  1.00  0.00    -0.000 C 
BRANCH  10  11
ATOM     11  C   UNL     1      -7.025  19.349 -14.432  1.00  0.00    -0.003 C 
ATOM     12  C   UNL     1      -5.975  20.397 -14.079  1.00  0.00     0.004 C 
ENDBRANCH  10  11
ENDBRANCH   9  10
ENDBRANCH   8   9
ENDBRANCH   7   8
ENDBRANCH   6   7
ENDBRANCH   5   6
ENDBRANCH   4   5
ENDBRANCH   3   4
ENDBRANCH   2   3
ENDBRANCH   1   2
BRANCH   1  13
ATOM     13  C   UNL     1      -7.319  12.149 -22.179  1.00  0.00     0.000 C 
BRANCH  13  14
ATOM     14  C   UNL     1      -6.593  12.514 -23.486  1.00  0.00     0.000 C 
BRANCH  14  15
ATOM     15  C   UNL     1      -6.461  11.317 -24.443  1.00  0.00     0.000 C 
BRANCH  15  16
ATOM     16  C   UNL     1      -5.347  10.342 -24.026  1.00  0.00     0.000 C 
BRANCH  16  17
ATOM     17  C   UNL     1      -5.112   9.233 -25.063  1.00  0.00     0.000 C 
BRANCH  17  18
ATOM     18  C   UNL     1      -3.621   8.965 -25.316  1.00  0.00     0.000 C 
BRANCH  18  19
ATOM     19  C   UNL     1      -2.865   8.777 -23.995  1.00  0.00     0.000 C 
BRANCH  19  20
ATOM     20  C   UNL     1      -1.381   8.471 -24.249  1.00  0.00     0.006 C 
BRANCH  20  21
ATOM     21  C   UNL     1      -0.735   9.481 -25.206  1.00  0.00     0.053 C 
BRANCH  21  22
ATOM     22  C   UNL     1       0.269   8.829 -26.107  1.00  0.00     0.041 C 
ATOM     23  O   UNL     1       0.697   9.437 -27.123  1.00  0.00    -0.550 OA
ATOM     24  O   UNL     1       0.754   7.563 -25.806  1.00  0.00    -0.550 OA
ENDBRANCH  21  22
ENDBRANCH  20  21
ENDBRANCH  19  20
ENDBRANCH  18  19
ENDBRANCH  17  18
ENDBRANCH  16  17
ENDBRANCH  15  16
ENDBRANCH  14  15
ENDBRANCH  13  14
ENDBRANCH   1  13
TORSDOF 20
ENDMDL
MODEL 5
REMARK VINA RESULT:    22.363      4.275     10.563
REMARK INTER + INTRA:          47.499
REMARK INTER:                  48.424
REMARK INTRA:                  -0.925
REMARK UNBOUND:                -1.011
REMARK SMILES CCCCCCCCCCCCCCCCCCCCCC(=O)[O-]
REMARK SMILES IDX 12 1 11 2 10 3 9 4 8 5 7 6 6 7 5 8 4 9 3 10 2 11 1 12 13 13
REMARK SMILES IDX 14 14 15 15 16 16 17 17 18 18 19 19 20 20 21 21 22 22 23 23
REMARK SMILES IDX 24 24
REMARK H PARENT
REMARK Flexibility Score: inf
ROOT
ATOM      1  C   UNL     1      -7.944  13.844 -21.481  1.00  0.00     0.000 C 
ENDROOT
BRANCH   1   2
ATOM      2  C   UNL     1      -7.720  12.524 -22.238  1.00  0.00     0.000 C 
BRANCH   2   3
ATOM      3  C   UNL     1      -6.512  12.590 -23.197  1.00  0.00     0.000 C 
BRANCH   3   4
ATOM      4  C   UNL     1      -6.509  11.489 -24.274  1.00  0.00    -0.000 C 
BRANCH   4   5
ATOM      5  C   UNL     1      -5.441  10.395 -24.090  1.00  0.00    -0.000 C 
BRANCH   5   6
ATOM      6  C   UNL     1      -5.314   9.405 -25.264  1.00  0.00    -0.000 C 
BRANCH   6   7
ATOM      7  C   UNL     1      -3.950   8.701 -25.308  1.00  0.00    -0.000 C 
BRANCH   7   8
ATOM      8  C   UNL     1      -2.942   9.400 -24.388  1.00  0.00    -0.000 C 
BRANCH   8   9
ATOM      9  C   UNL     1      -1.579   8.692 -24.425  1.00  0.00    -0.000 C 
BRANCH   9  10
ATOM     10  C   UNL     1      -0.498   9.541 -25.128  1.00  0.00    -0.000 C 
BRANCH  10  11
ATOM     11  C   UNL     1       0.155   8.835 -26.329  1.00  0.00    -0.003 C 
ATOM     12  C   UNL     1       0.952   7.595 -25.935  1.00  0.00     0.004 C 
ENDBRANCH  10  11
ENDBRANCH   9  10
ENDBRANCH   8   9
ENDBRANCH   7   8
ENDBRANCH   6   7
ENDBRANCH   5   6
ENDBRANCH   4   5
ENDBRANCH   3   4
ENDBRANCH   2   3
ENDBRANCH   1   2
BRANCH   1  13
ATOM     13  C   UNL     1      -8.858  13.672 -20.257  1.00  0.00     0.000 C 
BRANCH  13  14
ATOM     14  C   UNL     1      -8.255  14.290 -18.983  1.00  0.00     0.000 C 
BRANCH  14  15
ATOM     15  C   UNL     1      -9.113  14.028 -17.735  1.00  0.00     0.000 C 
BRANCH  15  16
ATOM     16  C   UNL     1      -9.918  15.264 -17.296  1.00  0.00     0.000 C 
BRANCH  16  17
ATOM     17  C   UNL     1      -9.507  16.537 -18.052  1.00  0.00     0.000 C 
BRANCH  17  18
ATOM     18  C   UNL     1     -10.406  17.738 -17.721  1.00  0.00     0.000 C 
BRANCH  18  19
ATOM     19  C   UNL     1      -9.567  18.989 -17.434  1.00  0.00     0.000 C 
BRANCH  19  20
ATOM     20  C   UNL     1      -8.795  18.843 -16.114  1.00  0.00     0.006 C 
BRANCH  20  21
ATOM     21  C   UNL     1      -7.281  19.006 -16.304  1.00  0.00     0.053 C 
BRANCH  21  22
ATOM     22  C   UNL     1      -6.701  19.985 -15.330  1.00  0.00     0.041 C 
ATOM     23  O   UNL     1      -6.388  19.614 -14.169  1.00  0.00    -0.550 OA
ATOM     24  O   UNL     1      -6.480  21.302 -15.716  1.00  0.00    -0.550 OA
ENDBRANCH  21  22
ENDBRANCH  20  21
ENDBRANCH  19  20
ENDBRANCH  18  19
ENDBRANCH  17  18
ENDBRANCH  16  17
ENDBRANCH  15  16
ENDBRANCH  14  15
ENDBRANCH  13  14
ENDBRANCH   1  13
TORSDOF 20
ENDMDL
MODEL 6
REMARK VINA RESULT:    22.662      2.813      8.571
REMARK INTER + INTRA:          48.148
REMARK INTER:                  49.290
REMARK INTRA:                  -1.142
REMARK UNBOUND:                -1.011
REMARK SMILES CCCCCCCCCCCCCCCCCCCCCC(=O)[O-]
REMARK SMILES IDX 12 1 11 2 10 3 9 4 8 5 7 6 6 7 5 8 4 9 3 10 2 11 1 12 13 13
REMARK SMILES IDX 14 14 15 15 16 16 17 17 18 18 19 19 20 20 21 21 22 22 23 23
REMARK SMILES IDX 24 24
REMARK H PARENT
REMARK Flexibility Score: inf
ROOT
ATOM      1  C   UNL     1      -8.054  13.589 -21.403  1.00  0.00     0.000 C 
ENDROOT
BRANCH   1   2
ATOM      2  C   UNL     1      -8.086  12.173 -22.002  1.00  0.00     0.000 C 
BRANCH   2   3
ATOM      3  C   UNL     1      -6.829  11.856 -22.840  1.00  0.00     0.000 C 
BRANCH   3   4
ATOM      4  C   UNL     1      -6.422  12.986 -23.805  1.00  0.00    -0.000 C 
BRANCH   4   5
ATOM      5  C   UNL     1      -6.413  12.603 -25.296  1.00  0.00    -0.000 C 
BRANCH   5   6
ATOM      6  C   UNL     1      -6.039  13.746 -26.260  1.00  0.00    -0.000 C 
BRANCH   6   7
ATOM      7  C   UNL     1      -5.170  14.825 -25.597  1.00  0.00    -0.000 C 
BRANCH   7   8
ATOM      8  C   UNL     1      -4.930  16.000 -26.553  1.00  0.00    -0.000 C 
BRANCH   8   9
ATOM      9  C   UNL     1      -5.247  17.340 -25.871  1.00  0.00    -0.000 C 
BRANCH   9  10
ATOM     10  C   UNL     1      -4.592  17.456 -24.479  1.00  0.00    -0.000 C 
BRANCH  10  11
ATOM     11  C   UNL     1      -5.571  17.886 -23.372  1.00  0.00    -0.003 C 
ATOM     12  C   UNL     1      -6.495  19.023 -23.797  1.00  0.00     0.004 C 
ENDBRANCH  10  11
ENDBRANCH   9  10
ENDBRANCH   8   9
ENDBRANCH   7   8
ENDBRANCH   6   7
ENDBRANCH   5   6
ENDBRANCH   4   5
ENDBRANCH   3   4
ENDBRANCH   2   3
ENDBRANCH   1   2
BRANCH   1  13
ATOM     13  C   UNL     1      -9.052  13.762 -20.247  1.00  0.00     0.000 C 
BRANCH  13  14
ATOM     14  C   UNL     1      -8.372  14.240 -18.952  1.00  0.00     0.000 C 
BRANCH  14  15
ATOM     15  C   UNL     1      -9.255  14.034 -17.710  1.00  0.00     0.000 C 
BRANCH  15  16
ATOM     16  C   UNL     1      -9.902  15.339 -17.216  1.00  0.00     0.000 C 
BRANCH  16  17
ATOM     17  C   UNL     1      -9.557  16.544 -18.106  1.00  0.00     0.000 C 
BRANCH  17  18
ATOM     18  C   UNL     1     -10.370  17.797 -17.747  1.00  0.00     0.000 C 
BRANCH  18  19
ATOM     19  C   UNL     1      -9.445  18.969 -17.399  1.00  0.00     0.000 C 
BRANCH  19  20
ATOM     20  C   UNL     1      -8.412  18.560 -16.339  1.00  0.00     0.006 C 
BRANCH  20  21
ATOM     21  C   UNL     1      -7.235  19.542 -16.265  1.00  0.00     0.053 C 
BRANCH  21  22
ATOM     22  C   UNL     1      -6.816  19.800 -14.850  1.00  0.00     0.041 C 
ATOM     23  O   UNL     1      -7.055  18.949 -13.953  1.00  0.00    -0.550 OA
ATOM     24  O   UNL     1      -6.136  20.968 -14.529  1.00  0.00    -0.550 OA
ENDBRANCH  21  22
ENDBRANCH  20  21
ENDBRANCH  19  20
ENDBRANCH  18  19
ENDBRANCH  17  18
ENDBRANCH  16  17
ENDBRANCH  15  16
ENDBRANCH  14  15
ENDBRANCH  13  14
ENDBRANCH   1  13
TORSDOF 20
ENDMDL
MODEL 7
REMARK VINA RESULT:    22.813      5.186      8.451
REMARK INTER + INTRA:          48.476
REMARK INTER:                  48.124
REMARK INTRA:                   0.352
REMARK UNBOUND:                -1.011
REMARK SMILES CCCCCCCCCCCCCCCCCCCCCC(=O)[O-]
REMARK SMILES IDX 12 1 11 2 10 3 9 4 8 5 7 6 6 7 5 8 4 9 3 10 2 11 1 12 13 13
REMARK SMILES IDX 14 14 15 15 16 16 17 17 18 18 19 19 20 20 21 21 22 22 23 23
REMARK SMILES IDX 24 24
REMARK H PARENT
REMARK Flexibility Score: inf
ROOT
ATOM      1  C   UNL     1      -5.691  11.012 -23.514  1.00  0.00     0.000 C 
ENDROOT
BRANCH   1   2
ATOM      2  C   UNL     1      -5.711  10.056 -24.718  1.00  0.00     0.000 C 
BRANCH   2   3
ATOM      3  C   UNL     1      -4.312   9.488 -25.046  1.00  0.00     0.000 C 
BRANCH   3   4
ATOM      4  C   UNL     1      -3.892   8.310 -24.147  1.00  0.00    -0.000 C 
BRANCH   4   5
ATOM      5  C   UNL     1      -2.373   8.123 -23.979  1.00  0.00    -0.000 C 
BRANCH   5   6
ATOM      6  C   UNL     1      -1.516   9.315 -24.445  1.00  0.00    -0.000 C 
BRANCH   6   7
ATOM      7  C   UNL     1      -1.386  10.412 -23.378  1.00  0.00    -0.000 C 
BRANCH   7   8
ATOM      8  C   UNL     1      -0.479   9.956 -22.229  1.00  0.00    -0.000 C 
BRANCH   8   9
ATOM      9  C   UNL     1      -0.716   8.476 -21.894  1.00  0.00    -0.000 C 
BRANCH   9  10
ATOM     10  C   UNL     1      -1.323   8.285 -20.488  1.00  0.00    -0.000 C 
BRANCH  10  11
ATOM     11  C   UNL     1      -2.582   7.399 -20.475  1.00  0.00    -0.003 C 
ATOM     12  C   UNL     1      -3.443   7.598 -19.231  1.00  0.00     0.004 C 
ENDBRANCH  10  11
ENDBRANCH   9  10
ENDBRANCH   8   9
ENDBRANCH   7   8
ENDBRANCH   6   7
ENDBRANCH   5   6
ENDBRANCH   4   5
ENDBRANCH   3   4
ENDBRANCH   2   3
ENDBRANCH   1   2
BRANCH   1  13
ATOM     13  C   UNL     1      -6.466  12.312 -23.782  1.00  0.00     0.000 C 
BRANCH  13  14
ATOM     14  C   UNL     1      -7.104  12.336 -25.182  1.00  0.00     0.000 C 
BRANCH  14  15
ATOM     15  C   UNL     1      -6.520  13.440 -26.080  1.00  0.00     0.000 C 
BRANCH  15  16
ATOM     16  C   UNL     1      -5.148  13.938 -25.593  1.00  0.00     0.000 C 
BRANCH  16  17
ATOM     17  C   UNL     1      -4.579  15.060 -26.475  1.00  0.00     0.000 C 
BRANCH  17  18
ATOM     18  C   UNL     1      -5.618  16.143 -26.802  1.00  0.00     0.000 C 
BRANCH  18  19
ATOM     19  C   UNL     1      -5.369  17.410 -25.975  1.00  0.00     0.000 C 
BRANCH  19  20
ATOM     20  C   UNL     1      -4.505  17.102 -24.742  1.00  0.00     0.006 C 
BRANCH  20  21
ATOM     21  C   UNL     1      -5.087  17.710 -23.459  1.00  0.00     0.053 C 
BRANCH  21  22
ATOM     22  C   UNL     1      -6.117  18.755 -23.757  1.00  0.00     0.041 C 
ATOM     23  O   UNL     1      -7.102  18.912 -22.988  1.00  0.00    -0.550 OA
ATOM     24  O   UNL     1      -5.972  19.577 -24.867  1.00  0.00    -0.550 OA
ENDBRANCH  21  22
ENDBRANCH  20  21
ENDBRANCH  19  20
ENDBRANCH  18  19
ENDBRANCH  17  18
ENDBRANCH  16  17
ENDBRANCH  15  16
ENDBRANCH  14  15
ENDBRANCH  13  14
ENDBRANCH   1  13
TORSDOF 20
ENDMDL
MODEL 8
REMARK VINA RESULT:    23.017      2.790      4.376
REMARK INTER + INTRA:          48.917
REMARK INTER:                  48.986
REMARK INTRA:                  -0.068
REMARK UNBOUND:                -1.011
REMARK SMILES CCCCCCCCCCCCCCCCCCCCCC(=O)[O-]
REMARK SMILES IDX 12 1 11 2 10 3 9 4 8 5 7 6 6 7 5 8 4 9 3 10 2 11 1 12 13 13
REMARK SMILES IDX 14 14 15 15 16 16 17 17 18 18 19 19 20 20 21 21 22 22 23 23
REMARK SMILES IDX 24 24
REMARK H PARENT
REMARK Flexibility Score: inf
ROOT
ATOM      1  C   UNL     1      -7.878  13.825 -21.383  1.00  0.00     0.000 C 
ENDROOT
BRANCH   1   2
ATOM      2  C   UNL     1      -9.052  13.783 -20.391  1.00  0.00     0.000 C 
BRANCH   2   3
ATOM      3  C   UNL     1      -8.602  13.438 -18.955  1.00  0.00     0.000 C 
BRANCH   3   4
ATOM      4  C   UNL     1      -8.520  14.657 -18.017  1.00  0.00    -0.000 C 
BRANCH   4   5
ATOM      5  C   UNL     1      -9.856  15.085 -17.382  1.00  0.00    -0.000 C 
BRANCH   5   6
ATOM      6  C   UNL     1     -10.657  13.946 -16.723  1.00  0.00    -0.000 C 
BRANCH   6   7
ATOM      7  C   UNL     1     -10.452  13.873 -15.203  1.00  0.00    -0.000 C 
BRANCH   7   8
ATOM      8  C   UNL     1      -9.570  12.677 -14.825  1.00  0.00    -0.000 C 
BRANCH   8   9
ATOM      9  C   UNL     1      -9.229  12.694 -13.327  1.00  0.00    -0.000 C 
BRANCH   9  10
ATOM     10  C   UNL     1      -9.609  11.372 -12.627  1.00  0.00    -0.000 C 
BRANCH  10  11
ATOM     11  C   UNL     1      -9.363  10.123 -13.492  1.00  0.00    -0.003 C 
ATOM     12  C   UNL     1     -10.506   9.115 -13.428  1.00  0.00     0.004 C 
ENDBRANCH  10  11
ENDBRANCH   9  10
ENDBRANCH   8   9
ENDBRANCH   7   8
ENDBRANCH   6   7
ENDBRANCH   5   6
ENDBRANCH   4   5
ENDBRANCH   3   4
ENDBRANCH   2   3
ENDBRANCH   1   2
BRANCH   1  13
ATOM     13  C   UNL     1      -7.843  12.596 -22.306  1.00  0.00     0.000 C 
BRANCH  13  14
ATOM     14  C   UNL     1      -6.521  12.487 -23.087  1.00  0.00     0.000 C 
BRANCH  14  15
ATOM     15  C   UNL     1      -6.710  11.885 -24.489  1.00  0.00     0.000 C 
BRANCH  15  16
ATOM     16  C   UNL     1      -6.426  12.896 -25.613  1.00  0.00     0.000 C 
BRANCH  16  17
ATOM     17  C   UNL     1      -5.341  13.916 -25.232  1.00  0.00     0.000 C 
BRANCH  17  18
ATOM     18  C   UNL     1      -5.191  15.038 -26.271  1.00  0.00     0.000 C 
BRANCH  18  19
ATOM     19  C   UNL     1      -4.778  16.354 -25.601  1.00  0.00     0.000 C 
BRANCH  19  20
ATOM     20  C   UNL     1      -5.236  17.562 -26.433  1.00  0.00     0.006 C 
BRANCH  20  21
ATOM     21  C   UNL     1      -5.670  18.741 -25.553  1.00  0.00     0.053 C 
BRANCH  21  22
ATOM     22  C   UNL     1      -5.692  18.373 -24.101  1.00  0.00     0.041 C 
ATOM     23  O   UNL     1      -4.722  17.755 -23.589  1.00  0.00    -0.550 OA
ATOM     24  O   UNL     1      -6.771  18.740 -23.307  1.00  0.00    -0.550 OA
ENDBRANCH  21  22
ENDBRANCH  20  21
ENDBRANCH  19  20
ENDBRANCH  18  19
ENDBRANCH  17  18
ENDBRANCH  16  17
ENDBRANCH  15  16
ENDBRANCH  14  15
ENDBRANCH  13  14
ENDBRANCH   1  13
TORSDOF 20
ENDMDL
MODEL 9
REMARK VINA RESULT:    23.085      4.378     10.012
REMARK INTER + INTRA:          49.064
REMARK INTER:                  49.318
REMARK INTRA:                  -0.253
REMARK UNBOUND:                -1.011
REMARK SMILES CCCCCCCCCCCCCCCCCCCCCC(=O)[O-]
REMARK SMILES IDX 12 1 11 2 10 3 9 4 8 5 7 6 6 7 5 8 4 9 3 10 2 11 1 12 13 13
REMARK SMILES IDX 14 14 15 15 16 16 17 17 18 18 19 19 20 20 21 21 22 22 23 23
REMARK SMILES IDX 24 24
REMARK H PARENT
REMARK Flexibility Score: inf
ROOT
ATOM      1  C   UNL     1      -6.448  12.561 -23.550  1.00  0.00     0.000 C 
ENDROOT
BRANCH   1   2
ATOM      2  C   UNL     1      -6.443  11.535 -24.695  1.00  0.00     0.000 C 
BRANCH   2   3
ATOM      3  C   UNL     1      -5.740  10.216 -24.305  1.00  0.00     0.000 C 
BRANCH   3   4
ATOM      4  C   UNL     1      -5.299   9.364 -25.510  1.00  0.00    -0.000 C 
BRANCH   4   5
ATOM      5  C   UNL     1      -3.883   8.769 -25.409  1.00  0.00    -0.000 C 
BRANCH   5   6
ATOM      6  C   UNL     1      -2.978   9.421 -24.346  1.00  0.00    -0.000 C 
BRANCH   6   7
ATOM      7  C   UNL     1      -1.485   9.147 -24.583  1.00  0.00    -0.000 C 
BRANCH   7   8
ATOM      8  C   UNL     1      -0.932   8.174 -23.535  1.00  0.00    -0.000 C 
BRANCH   8   9
ATOM      9  C   UNL     1      -2.071   7.459 -22.791  1.00  0.00    -0.000 C 
BRANCH   9  10
ATOM     10  C   UNL     1      -1.969   7.633 -21.261  1.00  0.00    -0.000 C 
BRANCH  10  11
ATOM     11  C   UNL     1      -3.225   7.168 -20.504  1.00  0.00    -0.003 C 
ATOM     12  C   UNL     1      -3.283   7.678 -19.067  1.00  0.00     0.004 C 
ENDBRANCH  10  11
ENDBRANCH   9  10
ENDBRANCH   8   9
ENDBRANCH   7   8
ENDBRANCH   6   7
ENDBRANCH   5   6
ENDBRANCH   4   5
ENDBRANCH   3   4
ENDBRANCH   2   3
ENDBRANCH   1   2
BRANCH   1  13
ATOM     13  C   UNL     1      -7.535  12.269 -22.503  1.00  0.00     0.000 C 
BRANCH  13  14
ATOM     14  C   UNL     1      -8.041  13.546 -21.810  1.00  0.00     0.000 C 
BRANCH  14  15
ATOM     15  C   UNL     1      -8.941  13.247 -20.601  1.00  0.00     0.000 C 
BRANCH  15  16
ATOM     16  C   UNL     1      -9.032  14.428 -19.620  1.00  0.00     0.000 C 
BRANCH  16  17
ATOM     17  C   UNL     1      -8.643  14.038 -18.185  1.00  0.00     0.000 C 
BRANCH  17  18
ATOM     18  C   UNL     1      -9.614  14.598 -17.135  1.00  0.00     0.000 C 
BRANCH  18  19
ATOM     19  C   UNL     1      -9.452  16.116 -16.992  1.00  0.00     0.000 C 
BRANCH  19  20
ATOM     20  C   UNL     1     -10.229  16.859 -18.090  1.00  0.00     0.006 C 
BRANCH  20  21
ATOM     21  C   UNL     1      -9.911  18.359 -18.112  1.00  0.00     0.053 C 
BRANCH  21  22
ATOM     22  C   UNL     1      -9.252  18.807 -16.844  1.00  0.00     0.041 C 
ATOM     23  O   UNL     1      -7.997  18.801 -16.746  1.00  0.00    -0.550 OA
ATOM     24  O   UNL     1     -10.024  19.257 -15.781  1.00  0.00    -0.550 OA
ENDBRANCH  21  22
ENDBRANCH  20  21
ENDBRANCH  19  20
ENDBRANCH  18  19
ENDBRANCH  17  18
ENDBRANCH  16  17
ENDBRANCH  15  16
ENDBRANCH  14  15
ENDBRANCH  13  14
ENDBRANCH   1  13
TORSDOF 20
ENDMDL
