MODEL 1
REMARK VINA RESULT:    -2.357      0.000      0.000
REMARK INTER + INTRA:          -2.357
REMARK INTER:                  -2.357
REMARK INTRA:                   0.000
REMARK UNBOUND:                 0.000
REMARK SMILES CC(=O)[O-]
REMARK SMILES IDX 1 1 2 2 3 3 4 4
REMARK H PARENT
REMARK Flexibility Score: inf
ROOT
ATOM      1  C   UNL     1       2.887  29.679  32.123  1.00  0.00     0.063 C 
ATOM      2  C   UNL     1       4.267  30.061  31.707  1.00  0.00     0.038 C 
ATOM      3  O   UNL     1       4.642  29.883  30.519  1.00  0.00    -0.550 OA
ATOM      4  O   UNL     1       5.125  30.666  32.617  1.00  0.00    -0.550 OA
ENDROOT
TORSDOF 0
ENDMDL
MODEL 2
REMARK VINA RESULT:    -2.321      1.365      1.717
REMARK INTER + INTRA:          -2.321
REMARK INTER:                  -2.321
REMARK INTRA:                   0.000
REMARK UNBOUND:                 0.000
REMARK SMILES CC(=O)[O-]
REMARK SMILES IDX 1 1 2 2 3 3 4 4
REMARK H PARENT
REMARK Flexibility Score: inf
ROOT
ATOM      1  C   UNL     1       4.718  29.904  30.504  1.00  0.00     0.063 C 
ATOM      2  C   UNL     1       4.023  29.975  31.822  1.00  0.00     0.038 C 
ATOM      3  O   UNL     1       2.836  29.573  31.933  1.00  0.00    -0.550 OA
ATOM      4  O   UNL     1       4.703  30.435  32.943  1.00  0.00    -0.550 OA
ENDROOT
TORSDOF 0
ENDMDL
MODEL 3
REMARK VINA RESULT:    -2.275      1.391      1.760
REMARK INTER + INTRA:          -2.275
REMARK INTER:                  -2.275
REMARK INTRA:                   0.000
REMARK UNBOUND:                 0.000
REMARK SMILES CC(=O)[O-]
REMARK SMILES IDX 1 1 2 2 3 3 4 4
REMARK H PARENT
REMARK Flexibility Score: inf
ROOT
ATOM      1  C   UNL     1       4.962  30.745  32.699  1.00  0.00     0.063 C 
ATOM      2  C   UNL     1       4.297  30.020  31.579  1.00  0.00     0.038 C 
ATOM      3  O   UNL     1       4.883  29.890  30.473  1.00  0.00    -0.550 OA
ATOM      4  O   UNL     1       3.049  29.439  31.769  1.00  0.00    -0.550 OA
ENDROOT
TORSDOF 0
ENDMDL
MODEL 4
REMARK VINA RESULT:    -2.214      2.402      2.743
REMARK INTER + INTRA:          -2.214
REMARK INTER:                  -2.214
REMARK INTRA:                   0.000
REMARK UNBOUND:                 0.000
REMARK SMILES CC(=O)[O-]
REMARK SMILES IDX 1 1 2 2 3 3 4 4
REMARK H PARENT
REMARK Flexibility Score: inf
ROOT
ATOM      1  C   UNL     1       3.481  29.592  31.610  1.00  0.00     0.063 C 
ATOM      2  C   UNL     1       2.743  30.063  32.817  1.00  0.00     0.038 C 
ATOM      3  O   UNL     1       3.040  29.616  33.955  1.00  0.00    -0.550 OA
ATOM      4  O   UNL     1       1.760  31.038  32.695  1.00  0.00    -0.550 OA
ENDROOT
TORSDOF 0
ENDMDL
MODEL 5
REMARK VINA RESULT:    -2.174      2.275      2.697
REMARK INTER + INTRA:          -2.174
REMARK INTER:                  -2.174
REMARK INTRA:                   0.000
REMARK UNBOUND:                 0.000
REMARK SMILES CC(=O)[O-]
REMARK SMILES IDX 1 1 2 2 3 3 4 4
REMARK H PARENT
REMARK Flexibility Score: inf
ROOT
ATOM      1  C   UNL     1       3.152  29.822  34.222  1.00  0.00     0.063 C 
ATOM      2  C   UNL     1       2.627  30.106  32.855  1.00  0.00     0.038 C 
ATOM      3  O   UNL     1       1.799  31.036  32.677  1.00  0.00    -0.550 OA
ATOM      4  O   UNL     1       3.091  29.379  31.766  1.00  0.00    -0.550 OA
ENDROOT
TORSDOF 0
ENDMDL
MODEL 6
REMARK VINA RESULT:    -2.122      2.197      2.856
REMARK INTER + INTRA:          -2.122
REMARK INTER:                  -2.122
REMARK INTRA:                   0.000
REMARK UNBOUND:                 0.000
REMARK SMILES CC(=O)[O-]
REMARK SMILES IDX 1 1 2 2 3 3 4 4
REMARK H PARENT
REMARK Flexibility Score: inf
ROOT
ATOM      1  C   UNL     1       2.113  31.448  33.098  1.00  0.00     0.063 C 
ATOM      2  C   UNL     1       2.735  30.093  33.138  1.00  0.00     0.038 C 
ATOM      3  O   UNL     1       3.121  29.607  34.232  1.00  0.00    -0.550 OA
ATOM      4  O   UNL     1       2.841  29.342  31.974  1.00  0.00    -0.550 OA
ENDROOT
TORSDOF 0
ENDMDL
MODEL 7
REMARK VINA RESULT:    -2.103     20.030     20.159
REMARK INTER + INTRA:          -2.103
REMARK INTER:                  -2.103
REMARK INTRA:                   0.000
REMARK UNBOUND:                 0.000
REMARK SMILES CC(=O)[O-]
REMARK SMILES IDX 1 1 2 2 3 3 4 4
REMARK H PARENT
REMARK Flexibility Score: inf
ROOT
ATOM      1  C   UNL     1      -3.677  45.459  21.816  1.00  0.00     0.063 C 
ATOM      2  C   UNL     1      -4.343  46.009  23.032  1.00  0.00     0.038 C 
ATOM      3  O   UNL     1      -4.391  47.252  23.219  1.00  0.00    -0.550 OA
ATOM      4  O   UNL     1      -4.960  45.151  23.934  1.00  0.00    -0.550 OA
ENDROOT
TORSDOF 0
ENDMDL
MODEL 8
REMARK VINA RESULT:    -2.099     19.762     19.885
REMARK INTER + INTRA:          -2.099
REMARK INTER:                  -2.099
REMARK INTRA:                   0.000
REMARK UNBOUND:                 0.000
REMARK SMILES CC(=O)[O-]
REMARK SMILES IDX 1 1 2 2 3 3 4 4
REMARK H PARENT
REMARK Flexibility Score: inf
ROOT
ATOM      1  C   UNL     1      -4.121  47.068  23.272  1.00  0.00     0.063 C 
ATOM      2  C   UNL     1      -4.587  45.652  23.240  1.00  0.00     0.038 C 
ATOM      3  O   UNL     1      -4.692  45.045  22.143  1.00  0.00    -0.550 OA
ATOM      4  O   UNL     1      -4.855  44.980  24.427  1.00  0.00    -0.550 OA
ENDROOT
TORSDOF 0
ENDMDL
MODEL 9
REMARK VINA RESULT:    -2.043     14.921     15.174
REMARK INTER + INTRA:          -2.043
REMARK INTER:                  -2.043
REMARK INTRA:                   0.000
REMARK UNBOUND:                 0.000
REMARK SMILES CC(=O)[O-]
REMARK SMILES IDX 1 1 2 2 3 3 4 4
REMARK H PARENT
REMARK Flexibility Score: inf
ROOT
ATOM      1  C   UNL     1      -8.646  38.732  33.172  1.00  0.00     0.063 C 
ATOM      2  C   UNL     1      -7.909  39.067  31.919  1.00  0.00     0.038 C 
ATOM      3  O   UNL     1      -7.626  40.263  31.652  1.00  0.00    -0.550 OA
ATOM      4  O   UNL     1      -7.486  38.053  31.068  1.00  0.00    -0.550 OA
ENDROOT
TORSDOF 0
ENDMDL
