MODEL 1
REMARK VINA RESULT:    41.110      0.000      0.000
REMARK INTER + INTRA:          45.610
REMARK INTER:                  44.715
REMARK INTRA:                   0.895
REMARK UNBOUND:                 0.895
REMARK SMILES CC(C)c1cc2c(cc1O)[C@]1(C)CCCC(C)(C)[C@H]1CC2=O
REMARK SMILES IDX 4 1 9 2 8 3 7 4 6 5 5 6 21 7 22 8 20 9 19 10 11 11 13 12
REMARK SMILES IDX 14 13 15 14 16 15 17 16 18 17 12 18 2 19 1 20 3 21 10 22
REMARK H PARENT 10 23
REMARK Flexibility Score: inf
ROOT
ATOM      1  C   UNL     1      89.219  18.801 120.551  1.00  0.00    -0.003 A 
ATOM      2  C   UNL     1      89.094  17.410 120.737  1.00  0.00     0.119 A 
ATOM      3  C   UNL     1      90.195  16.572 120.527  1.00  0.00     0.051 A 
ATOM      4  C   UNL     1      91.456  17.087 120.153  1.00  0.00    -0.027 A 
ATOM      5  C   UNL     1      91.566  18.482 119.921  1.00  0.00     0.022 A 
ATOM      6  C   UNL     1      90.455  19.317 120.134  1.00  0.00     0.020 A 
ATOM      7  C   UNL     1      92.846  19.071 119.459  1.00  0.00     0.163 C 
ATOM      8  O   UNL     1      92.899  20.284 119.117  1.00  0.00    -0.294 OA
ATOM      9  C   UNL     1      94.092  18.244 119.353  1.00  0.00     0.086 C 
ATOM     10  C   UNL     1      93.977  16.952 120.193  1.00  0.00     0.013 C 
ATOM     11  C   UNL     1      92.653  16.158 119.849  1.00  0.00    -0.003 C 
ATOM     12  C   UNL     1      92.598  14.869 120.725  1.00  0.00     0.012 C 
ATOM     13  C   UNL     1      93.878  14.032 120.666  1.00  0.00     0.001 C 
ATOM     14  C   UNL     1      95.088  14.841 121.125  1.00  0.00     0.007 C 
ATOM     15  C   UNL     1      95.322  16.122 120.283  1.00  0.00    -0.031 C 
ATOM     16  C   UNL     1      95.929  15.750 118.906  1.00  0.00     0.011 C 
ATOM     17  C   UNL     1      96.400  16.952 121.032  1.00  0.00     0.011 C 
ATOM     18  C   UNL     1      92.510  15.766 118.355  1.00  0.00     0.017 C 
ENDROOT
BRANCH   1  19
ATOM     19  C   UNL     1      88.055  19.761 120.769  1.00  0.00     0.017 C 
ATOM     20  C   UNL     1      86.746  19.016 121.057  1.00  0.00     0.012 C 
ATOM     21  C   UNL     1      87.900  20.744 119.601  1.00  0.00     0.012 C 
ENDBRANCH   1  19
BRANCH   2  22
ATOM     22  O   UNL     1      87.877  16.851 121.125  1.00  0.00    -0.508 OA
ATOM     23  H   UNL     1      87.769  16.358 122.003  1.00  0.00     0.293 HD
ENDBRANCH   2  22
TORSDOF 2
ENDMDL
