MODEL 1
REMARK VINA RESULT:    -3.696      0.000      0.000
REMARK INTER + INTRA:          -4.913
REMARK INTER:                  -5.425
REMARK INTRA:                   0.512
REMARK UNBOUND:                 0.512
REMARK SMILES C=C1CC=CC(C)(C)CC=C(C)CCC1
REMARK SMILES IDX 2 1 1 2 15 3 14 4 13 5 11 6 12 7 10 8 3 10 4 11 5 12 6 13
REMARK SMILES IDX 7 14 8 15 9 16
REMARK H PARENT
REMARK Flexibility Score: 60.00
ROOT
ATOM      1  C   UNL     1       2.687  14.266  14.175  1.00  0.00    -0.074 C 
ATOM      2  C   UNL     1       3.660  13.863  13.341  1.00  0.00     0.008 C 
ENDROOT
BRANCH   1   3
ATOM      3  C   UNL     1       1.642  15.246  13.644  1.00  0.00     0.031 C 
BRANCH   3   4
ATOM      4  C   UNL     1       1.766  16.708  14.114  1.00  0.00     0.009 C 
BRANCH   4   5
ATOM      5  C   UNL     1       0.671  17.102  15.123  1.00  0.00     0.030 C 
BRANCH   5   6
ATOM      6  C   UNL     1       1.147  17.224  16.562  1.00  0.00    -0.077 C 
ATOM      7  C   UNL     1       2.078  18.363  16.904  1.00  0.00     0.039 C 
ATOM      8  C   UNL     1       0.891  16.320  17.545  1.00  0.00    -0.027 CG0
ATOM      9  G   UNL     1      -0.126  15.192  17.543  1.00  0.00     0.000 G0
ENDBRANCH   5   6
ENDBRANCH   4   5
ENDBRANCH   3   4
ENDBRANCH   1   3
BRANCH   1  10
ATOM     10  C   UNL     1       2.627  13.655  15.566  1.00  0.00     0.057 C 
BRANCH  10  11
ATOM     11  C   UNL     1       1.375  12.818  15.706  1.00  0.00    -0.026 C 
ATOM     12  C   UNL     1       0.505  12.779  16.741  1.00  0.00    -0.024 C 
BRANCH  12  13
ATOM     13  C   UNL     1       0.368  13.743  17.924  1.00  0.00    -0.014 C 
ATOM     14  C   UNL     1      -0.586  13.123  18.970  1.00  0.00     0.016 C 
ATOM     15  C   UNL     1       1.757  13.875  18.596  1.00  0.00     0.016 C 
BRANCH  13  16
ATOM     16  C   UNL     1      -0.135  15.170  17.551  1.00  0.00     0.038 CG0
ATOM     17  G   UNL     1       0.893  16.289  17.542  1.00  0.00     0.000 G0
ENDBRANCH  13  16
ENDBRANCH  12  13
ENDBRANCH  10  11
ENDBRANCH   1  10
TORSDOF 0
ENDMDL
MODEL 2
REMARK VINA RESULT:    -3.649      1.330      1.999
REMARK INTER + INTRA:          -4.844
REMARK INTER:                  -5.213
REMARK INTRA:                   0.369
REMARK UNBOUND:                 0.512
REMARK SMILES C=C1CC=CC(C)(C)CC=C(C)CCC1
REMARK SMILES IDX 2 1 1 2 15 3 14 4 13 5 11 6 12 7 10 8 3 10 4 11 5 12 6 13
REMARK SMILES IDX 7 14 8 15 9 16
REMARK H PARENT
REMARK Flexibility Score: 60.00
ROOT
ATOM      1  C   UNL     1       3.230  14.148  13.339  1.00  0.00    -0.074 C 
ATOM      2  C   UNL     1       3.548  13.096  12.568  1.00  0.00     0.008 C 
ENDROOT
BRANCH   1   3
ATOM      3  C   UNL     1       3.078  15.514  12.670  1.00  0.00     0.031 C 
BRANCH   3   4
ATOM      4  C   UNL     1       1.663  16.122  12.659  1.00  0.00     0.009 C 
BRANCH   4   5
ATOM      5  C   UNL     1       1.577  17.439  13.453  1.00  0.00     0.030 C 
BRANCH   5   6
ATOM      6  C   UNL     1       0.352  17.566  14.343  1.00  0.00    -0.077 C 
ATOM      7  C   UNL     1      -0.879  18.221  13.762  1.00  0.00     0.039 C 
ATOM      8  C   UNL     1       0.312  17.238  15.662  1.00  0.00    -0.027 CG0
ATOM      9  G   UNL     1       1.316  16.423  16.459  1.00  0.00     0.000 G0
ENDBRANCH   5   6
ENDBRANCH   4   5
ENDBRANCH   3   4
ENDBRANCH   1   3
BRANCH   1  10
ATOM     10  C   UNL     1       2.946  13.906  14.813  1.00  0.00     0.057 C 
BRANCH  10  11
ATOM     11  C   UNL     1       1.488  13.552  15.004  1.00  0.00    -0.026 C 
ATOM     12  C   UNL     1       0.655  13.941  15.997  1.00  0.00    -0.024 C 
BRANCH  12  13
ATOM     13  C   UNL     1       0.846  15.048  17.039  1.00  0.00    -0.014 C 
ATOM     14  C   UNL     1      -0.480  15.250  17.806  1.00  0.00     0.016 C 
ATOM     15  C   UNL     1       1.898  14.562  18.065  1.00  0.00     0.016 C 
BRANCH  13  16
ATOM     16  C   UNL     1       1.319  16.416  16.461  1.00  0.00     0.038 CG0
ATOM     17  G   UNL     1       0.303  17.229  15.677  1.00  0.00     0.000 G0
ENDBRANCH  13  16
ENDBRANCH  12  13
ENDBRANCH  10  11
ENDBRANCH   1  10
TORSDOF 0
ENDMDL
MODEL 3
REMARK VINA RESULT:    -3.481      1.658      4.623
REMARK INTER + INTRA:          -4.598
REMARK INTER:                  -5.266
REMARK INTRA:                   0.668
REMARK UNBOUND:                 0.512
REMARK SMILES C=C1CC=CC(C)(C)CC=C(C)CCC1
REMARK SMILES IDX 2 1 1 2 15 3 14 4 13 5 11 6 12 7 10 8 3 10 4 11 5 12 6 13
REMARK SMILES IDX 7 14 8 15 9 16
REMARK H PARENT
REMARK Flexibility Score: 60.00
ROOT
ATOM      1  C   UNL     1       0.851  13.587  17.003  1.00  0.00    -0.074 C 
ATOM      2  C   UNL     1       0.664  12.840  18.104  1.00  0.00     0.008 C 
ENDROOT
BRANCH   1   3
ATOM      3  C   UNL     1       1.904  13.131  15.992  1.00  0.00     0.031 C 
BRANCH   3   4
ATOM      4  C   UNL     1       1.402  12.273  14.815  1.00  0.00     0.009 C 
BRANCH   4   5
ATOM      5  C   UNL     1       1.688  12.919  13.447  1.00  0.00     0.030 C 
BRANCH   5   6
ATOM      6  C   UNL     1       2.652  14.094  13.487  1.00  0.00    -0.077 C 
ATOM      7  C   UNL     1       4.125  13.806  13.314  1.00  0.00     0.039 C 
ATOM      8  C   UNL     1       2.304  15.375  13.781  1.00  0.00    -0.027 CG0
ATOM      9  G   UNL     1       0.913  15.982  13.833  1.00  0.00     0.000 G0
ENDBRANCH   5   6
ENDBRANCH   4   5
ENDBRANCH   3   4
ENDBRANCH   1   3
BRANCH   1  10
ATOM     10  C   UNL     1      -0.057  14.785  16.778  1.00  0.00     0.057 C 
BRANCH  10  11
ATOM     11  C   UNL     1       0.692  16.062  17.084  1.00  0.00    -0.026 C 
ATOM     12  C   UNL     1       1.103  17.019  16.220  1.00  0.00    -0.024 C 
BRANCH  12  13
ATOM     13  C   UNL     1       0.704  17.236  14.757  1.00  0.00    -0.014 C 
ATOM     14  C   UNL     1      -0.775  17.682  14.701  1.00  0.00     0.016 C 
ATOM     15  C   UNL     1       1.554  18.402  14.197  1.00  0.00     0.016 C 
BRANCH  13  16
ATOM     16  C   UNL     1       0.903  15.996  13.833  1.00  0.00     0.038 CG0
ATOM     17  G   UNL     1       2.292  15.386  13.779  1.00  0.00     0.000 G0
ENDBRANCH  13  16
ENDBRANCH  12  13
ENDBRANCH  10  11
ENDBRANCH   1  10
TORSDOF 0
ENDMDL
MODEL 4
REMARK VINA RESULT:    -3.443      2.201      4.155
REMARK INTER + INTRA:          -4.542
REMARK INTER:                  -4.727
REMARK INTRA:                   0.185
REMARK UNBOUND:                 0.512
REMARK SMILES C=C1CC=CC(C)(C)CC=C(C)CCC1
REMARK SMILES IDX 2 1 1 2 15 3 14 4 13 5 11 6 12 7 10 8 3 10 4 11 5 12 6 13
REMARK SMILES IDX 7 14 8 15 9 16
REMARK H PARENT
REMARK Flexibility Score: 60.00
ROOT
ATOM      1  C   UNL     1       0.790  15.281  16.881  1.00  0.00    -0.074 C 
ATOM      2  C   UNL     1       1.541  16.169  17.553  1.00  0.00     0.008 C 
ENDROOT
BRANCH   1   3
ATOM      3  C   UNL     1      -0.579  15.732  16.372  1.00  0.00     0.031 C 
BRANCH   3   4
ATOM      4  C   UNL     1      -0.630  17.088  15.644  1.00  0.00     0.009 C 
BRANCH   4   5
ATOM      5  C   UNL     1      -0.563  16.942  14.112  1.00  0.00     0.030 C 
BRANCH   5   6
ATOM      6  C   UNL     1       0.843  16.856  13.543  1.00  0.00    -0.077 C 
ATOM      7  C   UNL     1       1.685  18.110  13.546  1.00  0.00     0.039 C 
ATOM      8  C   UNL     1       1.366  15.764  12.924  1.00  0.00    -0.027 CG0
ATOM      9  G   UNL     1       0.833  14.342  12.918  1.00  0.00     0.000 G0
ENDBRANCH   5   6
ENDBRANCH   4   5
ENDBRANCH   3   4
ENDBRANCH   1   3
BRANCH   1  10
ATOM     10  C   UNL     1       1.380  13.912  16.583  1.00  0.00     0.057 C 
BRANCH  10  11
ATOM     11  C   UNL     1       2.626  14.062  15.739  1.00  0.00    -0.026 C 
ATOM     12  C   UNL     1       2.825  13.660  14.463  1.00  0.00    -0.024 C 
BRANCH  12  13
ATOM     13  C   UNL     1       1.798  13.203  13.423  1.00  0.00    -0.014 C 
ATOM     14  C   UNL     1       2.543  12.591  12.215  1.00  0.00     0.016 C 
ATOM     15  C   UNL     1       0.948  12.073  14.055  1.00  0.00     0.016 C 
BRANCH  13  16
ATOM     16  C   UNL     1       0.833  14.320  12.920  1.00  0.00     0.038 CG0
ATOM     17  G   UNL     1       1.358  15.745  12.925  1.00  0.00     0.000 G0
ENDBRANCH  13  16
ENDBRANCH  12  13
ENDBRANCH  10  11
ENDBRANCH   1  10
TORSDOF 0
ENDMDL
MODEL 5
REMARK VINA RESULT:    -3.405      1.355      3.943
REMARK INTER + INTRA:          -4.485
REMARK INTER:                  -4.920
REMARK INTRA:                   0.434
REMARK UNBOUND:                 0.512
REMARK SMILES C=C1CC=CC(C)(C)CC=C(C)CCC1
REMARK SMILES IDX 2 1 1 2 15 3 14 4 13 5 11 6 12 7 10 8 3 10 4 11 5 12 6 13
REMARK SMILES IDX 7 14 8 15 9 16
REMARK H PARENT
REMARK Flexibility Score: 60.00
ROOT
ATOM      1  C   UNL     1       0.046  13.257  17.709  1.00  0.00    -0.074 C 
ATOM      2  C   UNL     1       0.793  12.642  18.640  1.00  0.00     0.008 C 
ENDROOT
BRANCH   1   3
ATOM      3  C   UNL     1      -0.890  14.378  18.161  1.00  0.00     0.031 C 
BRANCH   3   4
ATOM      4  C   UNL     1      -0.698  15.749  17.486  1.00  0.00     0.009 C 
BRANCH   4   5
ATOM      5  C   UNL     1       0.766  16.228  17.522  1.00  0.00     0.030 C 
BRANCH   5   6
ATOM      6  C   UNL     1       1.171  17.122  16.362  1.00  0.00    -0.077 C 
ATOM      7  C   UNL     1       1.868  18.423  16.683  1.00  0.00     0.039 C 
ATOM      8  C   UNL     1       0.852  16.898  15.059  1.00  0.00    -0.027 CG0
ATOM      9  G   UNL     1       0.318  15.625  14.428  1.00  0.00     0.000 G0
ENDBRANCH   5   6
ENDBRANCH   4   5
ENDBRANCH   3   4
ENDBRANCH   1   3
BRANCH   1  10
ATOM     10  C   UNL     1       0.241  12.870  16.252  1.00  0.00     0.057 C 
BRANCH  10  11
ATOM     11  C   UNL     1       1.673  13.127  15.840  1.00  0.00    -0.026 C 
ATOM     12  C   UNL     1       2.124  13.770  14.738  1.00  0.00    -0.024 C 
BRANCH  12  13
ATOM     13  C   UNL     1       1.353  14.653  13.752  1.00  0.00    -0.014 C 
ATOM     14  C   UNL     1       2.362  15.474  12.917  1.00  0.00     0.016 C 
ATOM     15  C   UNL     1       0.597  13.725  12.770  1.00  0.00     0.016 C 
BRANCH  13  16
ATOM     16  C   UNL     1       0.321  15.620  14.407  1.00  0.00     0.038 CG0
ATOM     17  G   UNL     1       0.864  16.882  15.054  1.00  0.00     0.000 G0
ENDBRANCH  13  16
ENDBRANCH  12  13
ENDBRANCH  10  11
ENDBRANCH   1  10
TORSDOF 0
ENDMDL
MODEL 6
REMARK VINA RESULT:    -3.378      1.337      3.924
REMARK INTER + INTRA:          -4.446
REMARK INTER:                  -4.912
REMARK INTRA:                   0.466
REMARK UNBOUND:                 0.512
REMARK SMILES C=C1CC=CC(C)(C)CC=C(C)CCC1
REMARK SMILES IDX 2 1 1 2 15 3 14 4 13 5 11 6 12 7 10 8 3 10 4 11 5 12 6 13
REMARK SMILES IDX 7 14 8 15 9 16
REMARK H PARENT
REMARK Flexibility Score: 60.00
ROOT
ATOM      1  C   UNL     1       2.538  14.496  13.702  1.00  0.00    -0.074 C 
ATOM      2  C   UNL     1       3.731  14.538  13.085  1.00  0.00     0.008 C 
ENDROOT
BRANCH   1   3
ATOM      3  C   UNL     1       2.506  14.148  15.189  1.00  0.00     0.031 C 
BRANCH   3   4
ATOM      4  C   UNL     1       1.838  12.813  15.569  1.00  0.00     0.009 C 
BRANCH   4   5
ATOM      5  C   UNL     1       0.306  12.928  15.686  1.00  0.00     0.030 C 
BRANCH   5   6
ATOM      6  C   UNL     1      -0.179  13.956  16.695  1.00  0.00    -0.077 C 
ATOM      7  C   UNL     1      -0.100  13.599  18.161  1.00  0.00     0.039 C 
ATOM      8  C   UNL     1      -0.787  15.130  16.378  1.00  0.00    -0.027 CG0
ATOM      9  G   UNL     1      -0.853  15.819  15.026  1.00  0.00     0.000 G0
ENDBRANCH   5   6
ENDBRANCH   4   5
ENDBRANCH   3   4
ENDBRANCH   1   3
BRANCH   1  10
ATOM     10  C   UNL     1       1.300  14.890  12.911  1.00  0.00     0.057 C 
BRANCH  10  11
ATOM     11  C   UNL     1       1.265  16.390  12.724  1.00  0.00    -0.026 C 
ATOM     12  C   UNL     1       0.597  17.309  13.459  1.00  0.00    -0.024 C 
BRANCH  12  13
ATOM     13  C   UNL     1      -0.074  17.151  14.826  1.00  0.00    -0.014 C 
ATOM     14  C   UNL     1       0.999  17.281  15.931  1.00  0.00     0.016 C 
ATOM     15  C   UNL     1      -1.065  18.326  15.011  1.00  0.00     0.016 C 
BRANCH  13  16
ATOM     16  C   UNL     1      -0.854  15.815  15.021  1.00  0.00     0.038 CG0
ATOM     17  G   UNL     1      -0.776  15.158  16.388  1.00  0.00     0.000 G0
ENDBRANCH  13  16
ENDBRANCH  12  13
ENDBRANCH  10  11
ENDBRANCH   1  10
TORSDOF 0
ENDMDL
MODEL 7
REMARK VINA RESULT:    -3.365      1.952      5.010
REMARK INTER + INTRA:          -4.426
REMARK INTER:                  -4.576
REMARK INTRA:                   0.149
REMARK UNBOUND:                 0.512
REMARK SMILES C=C1CC=CC(C)(C)CC=C(C)CCC1
REMARK SMILES IDX 2 1 1 2 15 3 14 4 13 5 11 6 12 7 10 8 3 10 4 11 5 12 6 13
REMARK SMILES IDX 7 14 8 15 9 16
REMARK H PARENT
REMARK Flexibility Score: 60.00
ROOT
ATOM      1  C   UNL     1       1.478  15.157  17.674  1.00  0.00    -0.074 C 
ATOM      2  C   UNL     1       2.577  14.863  18.389  1.00  0.00     0.008 C 
ENDROOT
BRANCH   1   3
ATOM      3  C   UNL     1       0.280  14.213  17.772  1.00  0.00     0.031 C 
BRANCH   3   4
ATOM      4  C   UNL     1       0.394  12.874  17.019  1.00  0.00     0.009 C 
BRANCH   4   5
ATOM      5  C   UNL     1       1.139  13.009  15.678  1.00  0.00     0.030 C 
BRANCH   5   6
ATOM      6  C   UNL     1       0.240  13.197  14.468  1.00  0.00    -0.077 C 
ATOM      7  C   UNL     1      -0.773  12.118  14.166  1.00  0.00     0.039 C 
ATOM      8  C   UNL     1       0.353  14.208  13.565  1.00  0.00    -0.027 CG0
ATOM      9  G   UNL     1       1.146  15.497  13.691  1.00  0.00     0.000 G0
ENDBRANCH   5   6
ENDBRANCH   4   5
ENDBRANCH   3   4
ENDBRANCH   1   3
BRANCH   1  10
ATOM     10  C   UNL     1       1.455  16.455  16.883  1.00  0.00     0.057 C 
BRANCH  10  11
ATOM     11  C   UNL     1       0.048  16.742  16.408  1.00  0.00    -0.026 C 
ATOM     12  C   UNL     1      -0.372  17.012  15.150  1.00  0.00    -0.024 C 
BRANCH  12  13
ATOM     13  C   UNL     1       0.374  16.838  13.824  1.00  0.00    -0.014 C 
ATOM     14  C   UNL     1      -0.633  16.965  12.659  1.00  0.00     0.016 C 
ATOM     15  C   UNL     1       1.382  18.005  13.686  1.00  0.00     0.016 C 
BRANCH  13  16
ATOM     16  C   UNL     1       1.156  15.496  13.685  1.00  0.00     0.038 CG0
ATOM     17  G   UNL     1       0.335  14.223  13.571  1.00  0.00     0.000 G0
ENDBRANCH  13  16
ENDBRANCH  12  13
ENDBRANCH  10  11
ENDBRANCH   1  10
TORSDOF 0
ENDMDL
MODEL 8
REMARK VINA RESULT:    -3.292      1.571      3.601
REMARK INTER + INTRA:          -4.321
REMARK INTER:                  -4.705
REMARK INTRA:                   0.384
REMARK UNBOUND:                 0.512
REMARK SMILES C=C1CC=CC(C)(C)CC=C(C)CCC1
REMARK SMILES IDX 2 1 1 2 15 3 14 4 13 5 11 6 12 7 10 8 3 10 4 11 5 12 6 13
REMARK SMILES IDX 7 14 8 15 9 16
REMARK H PARENT
REMARK Flexibility Score: 60.00
ROOT
ATOM      1  C   UNL     1       0.020  17.643  15.099  1.00  0.00    -0.074 C 
ATOM      2  C   UNL     1      -1.034  18.261  14.540  1.00  0.00     0.008 C 
ENDROOT
BRANCH   1   3
ATOM      3  C   UNL     1       1.403  17.891  14.498  1.00  0.00     0.031 C 
BRANCH   3   4
ATOM      4  C   UNL     1       1.741  17.121  13.207  1.00  0.00     0.009 C 
BRANCH   4   5
ATOM      5  C   UNL     1       1.444  15.614  13.319  1.00  0.00     0.030 C 
BRANCH   5   6
ATOM      6  C   UNL     1       2.610  14.771  13.808  1.00  0.00    -0.077 C 
ATOM      7  C   UNL     1       3.702  14.436  12.820  1.00  0.00     0.039 C 
ATOM      8  C   UNL     1       2.692  14.195  15.037  1.00  0.00    -0.027 CG0
ATOM      9  G   UNL     1       1.849  14.482  16.267  1.00  0.00     0.000 G0
ENDBRANCH   5   6
ENDBRANCH   4   5
ENDBRANCH   3   4
ENDBRANCH   1   3
BRANCH   1  10
ATOM     10  C   UNL     1      -0.209  16.809  16.349  1.00  0.00     0.057 C 
BRANCH  10  11
ATOM     11  C   UNL     1      -1.079  15.617  16.020  1.00  0.00    -0.026 C 
ATOM     12  C   UNL     1      -0.724  14.312  15.963  1.00  0.00    -0.024 C 
BRANCH  12  13
ATOM     13  C   UNL     1       0.551  13.635  16.474  1.00  0.00    -0.014 C 
ATOM     14  C   UNL     1       0.376  13.297  17.972  1.00  0.00     0.016 C 
ATOM     15  C   UNL     1       0.715  12.293  15.719  1.00  0.00     0.016 C 
BRANCH  13  16
ATOM     16  C   UNL     1       1.855  14.468  16.284  1.00  0.00     0.038 CG0
ATOM     17  G   UNL     1       2.683  14.188  15.042  1.00  0.00     0.000 G0
ENDBRANCH  13  16
ENDBRANCH  12  13
ENDBRANCH  10  11
ENDBRANCH   1  10
TORSDOF 0
ENDMDL
MODEL 9
REMARK VINA RESULT:    -3.232      1.758      4.793
REMARK INTER + INTRA:          -4.232
REMARK INTER:                  -4.635
REMARK INTRA:                   0.403
REMARK UNBOUND:                 0.512
REMARK SMILES C=C1CC=CC(C)(C)CC=C(C)CCC1
REMARK SMILES IDX 2 1 1 2 15 3 14 4 13 5 11 6 12 7 10 8 3 10 4 11 5 12 6 13
REMARK SMILES IDX 7 14 8 15 9 16
REMARK H PARENT
REMARK Flexibility Score: 60.00
ROOT
ATOM      1  C   UNL     1       0.481  17.142  15.229  1.00  0.00    -0.074 C 
ATOM      2  C   UNL     1      -0.105  18.350  15.208  1.00  0.00     0.008 C 
ENDROOT
BRANCH   1   3
ATOM      3  C   UNL     1      -0.002  16.124  16.262  1.00  0.00     0.031 C 
BRANCH   3   4
ATOM      4  C   UNL     1       0.888  15.929  17.504  1.00  0.00     0.009 C 
BRANCH   4   5
ATOM      5  C   UNL     1       1.864  14.746  17.355  1.00  0.00     0.030 C 
BRANCH   5   6
ATOM      6  C   UNL     1       1.364  13.617  16.470  1.00  0.00    -0.077 C 
ATOM      7  C   UNL     1       0.196  12.796  16.964  1.00  0.00     0.039 C 
ATOM      8  C   UNL     1       1.958  13.212  15.316  1.00  0.00    -0.027 CG0
ATOM      9  G   UNL     1       3.020  13.933  14.502  1.00  0.00     0.000 G0
ENDBRANCH   5   6
ENDBRANCH   4   5
ENDBRANCH   3   4
ENDBRANCH   1   3
BRANCH   1  10
ATOM     10  C   UNL     1       1.521  16.823  14.167  1.00  0.00     0.057 C 
BRANCH  10  11
ATOM     11  C   UNL     1       0.940  15.869  13.148  1.00  0.00    -0.026 C 
ATOM     12  C   UNL     1       1.531  14.794  12.576  1.00  0.00    -0.024 C 
BRANCH  12  13
ATOM     13  C   UNL     1       2.821  14.072  12.979  1.00  0.00    -0.014 C 
ATOM     14  C   UNL     1       2.836  12.670  12.328  1.00  0.00     0.016 C 
ATOM     15  C   UNL     1       4.015  14.863  12.389  1.00  0.00     0.016 C 
BRANCH  13  16
ATOM     16  C   UNL     1       3.038  13.929  14.516  1.00  0.00     0.038 CG0
ATOM     17  G   UNL     1       1.957  13.214  15.307  1.00  0.00     0.000 G0
ENDBRANCH  13  16
ENDBRANCH  12  13
ENDBRANCH  10  11
ENDBRANCH   1  10
TORSDOF 0
ENDMDL
