MODEL 1
REMARK VINA RESULT:    -4.171      0.000      0.000
REMARK INTER + INTRA:          -5.522
REMARK INTER:                  -5.025
REMARK INTRA:                  -0.498
REMARK UNBOUND:                -0.498
REMARK SMILES NC(=O)C[C@H]([NH3+])C(=O)[O-]
REMARK SMILES IDX 4 1 5 2 6 3 7 7 8 8 9 9 2 10 3 11 1 12
REMARK H PARENT 6 4 6 5 6 6 1 13 1 14
REMARK Flexibility Score: inf
ROOT
ATOM      1  C   UNL     1     -29.297 -40.550  25.424  1.00  0.00     0.171 C 
ENDROOT
BRANCH   1   2
ATOM      2  C   UNL     1     -30.764 -41.006  25.307  1.00  0.00     0.237 C 
BRANCH   2   3
ATOM      3  N   UNL     1     -31.067 -42.025  26.318  1.00  0.00    -0.350 N 
ATOM      4  H   UNL     1     -30.213 -42.261  26.875  1.00  0.00     0.345 HD
ATOM      5  H   UNL     1     -31.810 -41.674  26.965  1.00  0.00     0.345 HD
ATOM      6  H   UNL     1     -31.424 -42.892  25.853  1.00  0.00     0.345 HD
ENDBRANCH   2   3
BRANCH   2   7
ATOM      7  C   UNL     1     -31.052 -41.545  23.929  1.00  0.00     0.100 C 
ATOM      8  O   UNL     1     -32.146 -41.282  23.362  1.00  0.00    -0.544 OA
ATOM      9  O   UNL     1     -30.110 -42.324  23.269  1.00  0.00    -0.544 OA
ENDBRANCH   2   7
ENDBRANCH   1   2
BRANCH   1  10
ATOM     10  C   UNL     1     -28.446 -41.589  26.098  1.00  0.00     0.223 C 
ATOM     11  O   UNL     1     -28.325 -41.580  27.353  1.00  0.00    -0.275 OA
ATOM     12  N   UNL     1     -27.743 -42.563  25.327  1.00  0.00    -0.369 N 
ATOM     13  H   UNL     1     -27.141 -43.274  25.799  1.00  0.00     0.159 HD
ATOM     14  H   UNL     1     -27.817 -42.574  24.286  1.00  0.00     0.159 HD
ENDBRANCH   1  10
TORSDOF 4
ENDMDL
MODEL 2
REMARK VINA RESULT:    -4.014      2.764      3.754
REMARK INTER + INTRA:          -5.333
REMARK INTER:                  -5.024
REMARK INTRA:                  -0.309
REMARK UNBOUND:                -0.498
REMARK SMILES NC(=O)C[C@H]([NH3+])C(=O)[O-]
REMARK SMILES IDX 4 1 5 2 6 3 7 7 8 8 9 9 2 10 3 11 1 12
REMARK H PARENT 6 4 6 5 6 6 1 13 1 14
REMARK Flexibility Score: inf
ROOT
ATOM      1  C   UNL     1     -29.251 -41.023  25.876  1.00  0.00     0.171 C 
ENDROOT
BRANCH   1   2
ATOM      2  C   UNL     1     -29.206 -39.523  26.227  1.00  0.00     0.237 C 
BRANCH   2   3
ATOM      3  N   UNL     1     -27.868 -38.977  25.976  1.00  0.00    -0.350 N 
ATOM      4  H   UNL     1     -27.643 -38.999  24.954  1.00  0.00     0.345 HD
ATOM      5  H   UNL     1     -27.818 -37.990  26.315  1.00  0.00     0.345 HD
ATOM      6  H   UNL     1     -27.153 -39.537  26.497  1.00  0.00     0.345 HD
ENDBRANCH   2   3
BRANCH   2   7
ATOM      7  C   UNL     1     -29.596 -39.295  27.665  1.00  0.00     0.100 C 
ATOM      8  O   UNL     1     -30.379 -38.356  27.967  1.00  0.00    -0.544 OA
ATOM      9  O   UNL     1     -29.105 -40.125  28.665  1.00  0.00    -0.544 OA
ENDBRANCH   2   7
ENDBRANCH   1   2
BRANCH   1  10
ATOM     10  C   UNL     1     -27.871 -41.609  25.770  1.00  0.00     0.223 C 
ATOM     11  O   UNL     1     -27.402 -41.901  24.638  1.00  0.00    -0.275 OA
ATOM     12  N   UNL     1     -27.103 -41.872  26.944  1.00  0.00    -0.369 N 
ATOM     13  H   UNL     1     -26.151 -42.293  26.867  1.00  0.00     0.159 HD
ATOM     14  H   UNL     1     -27.484 -41.654  27.892  1.00  0.00     0.159 HD
ENDBRANCH   1  10
TORSDOF 4
ENDMDL
MODEL 3
REMARK VINA RESULT:    -3.931      1.231      1.231
REMARK INTER + INTRA:          -5.233
REMARK INTER:                  -4.930
REMARK INTRA:                  -0.303
REMARK UNBOUND:                -0.498
REMARK SMILES NC(=O)C[C@H]([NH3+])C(=O)[O-]
REMARK SMILES IDX 4 1 5 2 6 3 7 7 8 8 9 9 2 10 3 11 1 12
REMARK H PARENT 6 4 6 5 6 6 1 13 1 14
REMARK Flexibility Score: inf
ROOT
ATOM      1  C   UNL     1     -29.065 -40.271  25.662  1.00  0.00     0.171 C 
ENDROOT
BRANCH   1   2
ATOM      2  C   UNL     1     -30.528 -40.751  25.591  1.00  0.00     0.237 C 
BRANCH   2   3
ATOM      3  N   UNL     1     -30.703 -41.979  26.373  1.00  0.00    -0.350 N 
ATOM      4  H   UNL     1     -31.466 -42.571  25.968  1.00  0.00     0.345 HD
ATOM      5  H   UNL     1     -29.813 -42.527  26.378  1.00  0.00     0.345 HD
ATOM      6  H   UNL     1     -30.943 -41.740  27.363  1.00  0.00     0.345 HD
ENDBRANCH   2   3
BRANCH   2   7
ATOM      7  C   UNL     1     -30.950 -40.983  24.162  1.00  0.00     0.100 C 
ATOM      8  O   UNL     1     -31.735 -40.178  23.595  1.00  0.00    -0.544 OA
ATOM      9  O   UNL     1     -30.467 -42.078  23.457  1.00  0.00    -0.544 OA
ENDBRANCH   2   7
ENDBRANCH   1   2
BRANCH   1  10
ATOM     10  C   UNL     1     -28.159 -41.336  26.208  1.00  0.00     0.223 C 
ATOM     11  O   UNL     1     -27.846 -42.322  25.487  1.00  0.00    -0.275 OA
ATOM     12  N   UNL     1     -27.680 -41.263  27.551  1.00  0.00    -0.369 N 
ATOM     13  H   UNL     1     -27.063 -42.014  27.932  1.00  0.00     0.159 HD
ATOM     14  H   UNL     1     -27.945 -40.464  28.169  1.00  0.00     0.159 HD
ENDBRANCH   1  10
TORSDOF 4
ENDMDL
MODEL 4
REMARK VINA RESULT:    -3.921      1.520      1.736
REMARK INTER + INTRA:          -5.221
REMARK INTER:                  -4.734
REMARK INTRA:                  -0.487
REMARK UNBOUND:                -0.498
REMARK SMILES NC(=O)C[C@H]([NH3+])C(=O)[O-]
REMARK SMILES IDX 4 1 5 2 6 3 7 7 8 8 9 9 2 10 3 11 1 12
REMARK H PARENT 6 4 6 5 6 6 1 13 1 14
REMARK Flexibility Score: inf
ROOT
ATOM      1  C   UNL     1     -29.264 -40.463  25.734  1.00  0.00     0.171 C 
ENDROOT
BRANCH   1   2
ATOM      2  C   UNL     1     -30.474 -40.872  26.596  1.00  0.00     0.237 C 
BRANCH   2   3
ATOM      3  N   UNL     1     -30.224 -42.158  27.256  1.00  0.00    -0.350 N 
ATOM      4  H   UNL     1     -29.791 -42.839  26.589  1.00  0.00     0.345 HD
ATOM      5  H   UNL     1     -29.581 -42.021  28.068  1.00  0.00     0.345 HD
ATOM      6  H   UNL     1     -31.123 -42.554  27.615  1.00  0.00     0.345 HD
ENDBRANCH   2   3
BRANCH   2   7
ATOM      7  C   UNL     1     -31.726 -40.955  25.761  1.00  0.00     0.100 C 
ATOM      8  O   UNL     1     -32.843 -40.660  26.263  1.00  0.00    -0.544 OA
ATOM      9  O   UNL     1     -31.657 -41.345  24.429  1.00  0.00    -0.544 OA
ENDBRANCH   2   7
ENDBRANCH   1   2
BRANCH   1  10
ATOM     10  C   UNL     1     -28.430 -41.652  25.352  1.00  0.00     0.223 C 
ATOM     11  O   UNL     1     -27.437 -41.974  26.060  1.00  0.00    -0.275 OA
ATOM     12  N   UNL     1     -28.728 -42.398  24.172  1.00  0.00    -0.369 N 
ATOM     13  H   UNL     1     -28.136 -43.215  23.901  1.00  0.00     0.159 HD
ATOM     14  H   UNL     1     -29.534 -42.135  23.563  1.00  0.00     0.159 HD
ENDBRANCH   1  10
TORSDOF 4
ENDMDL
MODEL 5
REMARK VINA RESULT:    -3.914      1.599      4.003
REMARK INTER + INTRA:          -5.213
REMARK INTER:                  -4.981
REMARK INTRA:                  -0.232
REMARK UNBOUND:                -0.498
REMARK SMILES NC(=O)C[C@H]([NH3+])C(=O)[O-]
REMARK SMILES IDX 4 1 5 2 6 3 7 7 8 8 9 9 2 10 3 11 1 12
REMARK H PARENT 6 4 6 5 6 6 1 13 1 14
REMARK Flexibility Score: inf
ROOT
ATOM      1  C   UNL     1     -30.870 -41.429  25.047  1.00  0.00     0.171 C 
ENDROOT
BRANCH   1   2
ATOM      2  C   UNL     1     -29.339 -41.281  24.958  1.00  0.00     0.237 C 
BRANCH   2   3
ATOM      3  N   UNL     1     -28.756 -42.407  24.220  1.00  0.00    -0.350 N 
ATOM      4  H   UNL     1     -28.576 -42.144  23.223  1.00  0.00     0.345 HD
ATOM      5  H   UNL     1     -27.855 -42.695  24.666  1.00  0.00     0.345 HD
ATOM      6  H   UNL     1     -29.409 -43.225  24.247  1.00  0.00     0.345 HD
ENDBRANCH   2   3
BRANCH   2   7
ATOM      7  C   UNL     1     -28.726 -41.193  26.333  1.00  0.00     0.100 C 
ATOM      8  O   UNL     1     -29.144 -41.935  27.261  1.00  0.00    -0.544 OA
ATOM      9  O   UNL     1     -27.689 -40.303  26.584  1.00  0.00    -0.544 OA
ENDBRANCH   2   7
ENDBRANCH   1   2
BRANCH   1  10
ATOM     10  C   UNL     1     -31.478 -41.704  23.701  1.00  0.00     0.223 C 
ATOM     11  O   UNL     1     -31.318 -42.832  23.161  1.00  0.00    -0.275 OA
ATOM     12  N   UNL     1     -32.203 -40.687  23.010  1.00  0.00    -0.369 N 
ATOM     13  H   UNL     1     -32.611 -40.877  22.068  1.00  0.00     0.159 HD
ATOM     14  H   UNL     1     -32.330 -39.740  23.434  1.00  0.00     0.159 HD
ENDBRANCH   1  10
TORSDOF 4
ENDMDL
MODEL 6
REMARK VINA RESULT:    -3.876      2.617      3.563
REMARK INTER + INTRA:          -5.167
REMARK INTER:                  -4.673
REMARK INTRA:                  -0.494
REMARK UNBOUND:                -0.498
REMARK SMILES NC(=O)C[C@H]([NH3+])C(=O)[O-]
REMARK SMILES IDX 4 1 5 2 6 3 7 7 8 8 9 9 2 10 3 11 1 12
REMARK H PARENT 6 4 6 5 6 6 1 13 1 14
REMARK Flexibility Score: inf
ROOT
ATOM      1  C   UNL     1     -28.143 -40.115  26.264  1.00  0.00     0.171 C 
ENDROOT
BRANCH   1   2
ATOM      2  C   UNL     1     -28.556 -40.089  27.749  1.00  0.00     0.237 C 
BRANCH   2   3
ATOM      3  N   UNL     1     -28.375 -41.412  28.356  1.00  0.00    -0.350 N 
ATOM      4  H   UNL     1     -27.900 -41.332  29.285  1.00  0.00     0.345 HD
ATOM      5  H   UNL     1     -29.304 -41.873  28.486  1.00  0.00     0.345 HD
ATOM      6  H   UNL     1     -27.797 -42.015  27.726  1.00  0.00     0.345 HD
ENDBRANCH   2   3
BRANCH   2   7
ATOM      7  C   UNL     1     -29.989 -39.643  27.901  1.00  0.00     0.100 C 
ATOM      8  O   UNL     1     -30.251 -38.454  28.221  1.00  0.00    -0.544 OA
ATOM      9  O   UNL     1     -31.029 -40.536  27.678  1.00  0.00    -0.544 OA
ENDBRANCH   2   7
ENDBRANCH   1   2
BRANCH   1  10
ATOM     10  C   UNL     1     -28.479 -41.430  25.620  1.00  0.00     0.223 C 
ATOM     11  O   UNL     1     -27.625 -42.357  25.609  1.00  0.00    -0.275 OA
ATOM     12  N   UNL     1     -29.743 -41.624  24.985  1.00  0.00    -0.369 N 
ATOM     13  H   UNL     1     -29.966 -42.535  24.524  1.00  0.00     0.159 HD
ATOM     14  H   UNL     1     -30.455 -40.861  24.967  1.00  0.00     0.159 HD
ENDBRANCH   1  10
TORSDOF 4
ENDMDL
MODEL 7
REMARK VINA RESULT:    -3.816      2.449      3.192
REMARK INTER + INTRA:          -5.094
REMARK INTER:                  -4.675
REMARK INTRA:                  -0.419
REMARK UNBOUND:                -0.498
REMARK SMILES NC(=O)C[C@H]([NH3+])C(=O)[O-]
REMARK SMILES IDX 4 1 5 2 6 3 7 7 8 8 9 9 2 10 3 11 1 12
REMARK H PARENT 6 4 6 5 6 6 1 13 1 14
REMARK Flexibility Score: inf
ROOT
ATOM      1  C   UNL     1     -28.896 -40.398  26.085  1.00  0.00     0.171 C 
ENDROOT
BRANCH   1   2
ATOM      2  C   UNL     1     -29.219 -40.735  27.554  1.00  0.00     0.237 C 
BRANCH   2   3
ATOM      3  N   UNL     1     -28.034 -41.278  28.228  1.00  0.00    -0.350 N 
ATOM      4  H   UNL     1     -28.005 -40.974  29.229  1.00  0.00     0.345 HD
ATOM      5  H   UNL     1     -28.051 -42.322  28.189  1.00  0.00     0.345 HD
ATOM      6  H   UNL     1     -27.167 -40.948  27.744  1.00  0.00     0.345 HD
ENDBRANCH   2   3
BRANCH   2   7
ATOM      7  C   UNL     1     -30.359 -41.717  27.643  1.00  0.00     0.100 C 
ATOM      8  O   UNL     1     -30.311 -42.670  28.465  1.00  0.00    -0.544 OA
ATOM      9  O   UNL     1     -31.476 -41.570  26.831  1.00  0.00    -0.544 OA
ENDBRANCH   2   7
ENDBRANCH   1   2
BRANCH   1  10
ATOM     10  C   UNL     1     -28.547 -41.630  25.299  1.00  0.00     0.223 C 
ATOM     11  O   UNL     1     -27.441 -42.202  25.491  1.00  0.00    -0.275 OA
ATOM     12  N   UNL     1     -29.442 -42.135  24.308  1.00  0.00    -0.369 N 
ATOM     13  H   UNL     1     -29.189 -42.983  23.753  1.00  0.00     0.159 HD
ATOM     14  H   UNL     1     -30.354 -41.663  24.121  1.00  0.00     0.159 HD
ENDBRANCH   1  10
TORSDOF 4
ENDMDL
MODEL 8
REMARK VINA RESULT:    -3.670      1.824      2.407
REMARK INTER + INTRA:          -4.919
REMARK INTER:                  -4.809
REMARK INTRA:                  -0.110
REMARK UNBOUND:                -0.498
REMARK SMILES NC(=O)C[C@H]([NH3+])C(=O)[O-]
REMARK SMILES IDX 4 1 5 2 6 3 7 7 8 8 9 9 2 10 3 11 1 12
REMARK H PARENT 6 4 6 5 6 6 1 13 1 14
REMARK Flexibility Score: inf
ROOT
ATOM      1  C   UNL     1     -28.547 -40.266  26.058  1.00  0.00     0.171 C 
ENDROOT
BRANCH   1   2
ATOM      2  C   UNL     1     -29.028 -41.613  25.485  1.00  0.00     0.237 C 
BRANCH   2   3
ATOM      3  N   UNL     1     -27.898 -42.372  24.939  1.00  0.00    -0.350 N 
ATOM      4  H   UNL     1     -28.208 -43.316  24.611  1.00  0.00     0.345 HD
ATOM      5  H   UNL     1     -27.477 -41.853  24.135  1.00  0.00     0.345 HD
ATOM      6  H   UNL     1     -27.161 -42.489  25.673  1.00  0.00     0.345 HD
ENDBRANCH   2   3
BRANCH   2   7
ATOM      7  C   UNL     1     -30.072 -41.402  24.417  1.00  0.00     0.100 C 
ATOM      8  O   UNL     1     -30.090 -42.139  23.396  1.00  0.00    -0.544 OA
ATOM      9  O   UNL     1     -31.028 -40.404  24.558  1.00  0.00    -0.544 OA
ENDBRANCH   2   7
ENDBRANCH   1   2
BRANCH   1  10
ATOM     10  C   UNL     1     -28.777 -40.180  27.540  1.00  0.00     0.223 C 
ATOM     11  O   UNL     1     -29.514 -39.270  28.006  1.00  0.00    -0.275 OA
ATOM     12  N   UNL     1     -28.138 -41.097  28.427  1.00  0.00    -0.369 N 
ATOM     13  H   UNL     1     -28.289 -41.025  29.458  1.00  0.00     0.159 HD
ATOM     14  H   UNL     1     -27.509 -41.846  28.060  1.00  0.00     0.159 HD
ENDBRANCH   1  10
TORSDOF 4
ENDMDL
MODEL 9
REMARK VINA RESULT:    -3.662      2.097      3.844
REMARK INTER + INTRA:          -4.909
REMARK INTER:                  -4.681
REMARK INTRA:                  -0.228
REMARK UNBOUND:                -0.498
REMARK SMILES NC(=O)C[C@H]([NH3+])C(=O)[O-]
REMARK SMILES IDX 4 1 5 2 6 3 7 7 8 8 9 9 2 10 3 11 1 12
REMARK H PARENT 6 4 6 5 6 6 1 13 1 14
REMARK Flexibility Score: inf
ROOT
ATOM      1  C   UNL     1     -30.195 -41.370  24.439  1.00  0.00     0.171 C 
ENDROOT
BRANCH   1   2
ATOM      2  C   UNL     1     -29.672 -41.095  25.862  1.00  0.00     0.237 C 
BRANCH   2   3
ATOM      3  N   UNL     1     -29.919 -39.700  26.240  1.00  0.00    -0.350 N 
ATOM      4  H   UNL     1     -29.018 -39.196  26.409  1.00  0.00     0.345 HD
ATOM      5  H   UNL     1     -30.444 -39.213  25.477  1.00  0.00     0.345 HD
ATOM      6  H   UNL     1     -30.501 -39.664  27.108  1.00  0.00     0.345 HD
ENDBRANCH   2   3
BRANCH   2   7
ATOM      7  C   UNL     1     -28.199 -41.404  25.963  1.00  0.00     0.100 C 
ATOM      8  O   UNL     1     -27.709 -42.367  25.316  1.00  0.00    -0.544 OA
ATOM      9  O   UNL     1     -27.371 -40.622  26.759  1.00  0.00    -0.544 OA
ENDBRANCH   2   7
ENDBRANCH   1   2
BRANCH   1  10
ATOM     10  C   UNL     1     -31.657 -41.047  24.314  1.00  0.00     0.223 C 
ATOM     11  O   UNL     1     -32.334 -40.806  25.350  1.00  0.00    -0.275 OA
ATOM     12  N   UNL     1     -32.295 -41.049  23.037  1.00  0.00    -0.369 N 
ATOM     13  H   UNL     1     -33.314 -40.839  22.957  1.00  0.00     0.159 HD
ATOM     14  H   UNL     1     -31.753 -41.265  22.171  1.00  0.00     0.159 HD
ENDBRANCH   1  10
TORSDOF 4
ENDMDL
