MODEL 1
REMARK VINA RESULT:    21.128      0.000      0.000
REMARK INTER + INTRA:          24.621
REMARK INTER:                  24.834
REMARK INTRA:                  -0.213
REMARK UNBOUND:                -0.213
REMARK SMILES O=c1c(O)c(-c2ccc(O)cc2)oc2cc(O)cc(O)c12
REMARK SMILES IDX 5 1 3 2 2 3 1 4 21 5 19 6 18 7 16 8 15 9 14 10 13 11 6 12
REMARK SMILES IDX 7 13 8 14 9 15 12 16 11 17 10 18 4 20 20 22 17 24
REMARK H PARENT 10 19 4 21 20 23 17 25
REMARK Flexibility Score: inf
ROOT
ATOM      1  C   UNL     1       7.232   3.395  18.764  1.00  0.00     0.180 A 
ATOM      2  C   UNL     1       8.624   3.199  18.806  1.00  0.00     0.208 A 
ATOM      3  C   UNL     1       9.474   4.297  18.594  1.00  0.00     0.238 A 
ATOM      4  O   UNL     1      10.716   4.125  18.686  1.00  0.00    -0.285 OA
ATOM      5  C   UNL     1       8.922   5.573  18.328  1.00  0.00     0.111 A 
ATOM      6  C   UNL     1       9.688   6.747  18.059  1.00  0.00     0.134 A 
ATOM      7  C   UNL     1       9.039   7.983  17.939  1.00  0.00     0.093 A 
ATOM      8  C   UNL     1       7.647   8.075  18.013  1.00  0.00     0.123 A 
ATOM      9  C   UNL     1       6.887   6.926  18.215  1.00  0.00     0.094 A 
ATOM     10  C   UNL     1       7.508   5.684  18.376  1.00  0.00     0.146 A 
ATOM     11  O   UNL     1       6.746   4.616  18.577  1.00  0.00    -0.452 OA
ENDROOT
BRANCH   1  12
ATOM     12  C   UNL     1       6.274   2.282  18.952  1.00  0.00     0.021 A 
ATOM     13  C   UNL     1       5.531   1.765  17.875  1.00  0.00     0.016 A 
ATOM     14  C   UNL     1       4.614   0.729  18.082  1.00  0.00     0.047 A 
ATOM     15  C   UNL     1       4.418   0.207  19.364  1.00  0.00     0.115 A 
ATOM     16  C   UNL     1       6.056   1.767  20.241  1.00  0.00     0.016 A 
ATOM     17  C   UNL     1       5.139   0.731  20.445  1.00  0.00     0.047 A 
BRANCH  15  18
ATOM     18  O   UNL     1       3.502  -0.825  19.554  1.00  0.00    -0.508 OA
ATOM     19  H   UNL     1       3.357  -1.540  18.851  1.00  0.00     0.293 HD
ENDBRANCH  15  18
ENDBRANCH   1  12
BRANCH   2  20
ATOM     20  O   UNL     1       9.147   1.935  19.091  1.00  0.00    -0.502 OA
ATOM     21  H   UNL     1      10.104   1.798  19.396  1.00  0.00     0.293 HD
ENDBRANCH   2  20
BRANCH   6  22
ATOM     22  O   UNL     1      11.073   6.749  17.876  1.00  0.00    -0.507 OA
ATOM     23  H   UNL     1      11.538   6.981  17.011  1.00  0.00     0.293 HD
ENDBRANCH   6  22
BRANCH   8  24
ATOM     24  O   UNL     1       7.009   9.305  17.877  1.00  0.00    -0.508 OA
ATOM     25  H   UNL     1       6.097   9.478  18.285  1.00  0.00     0.293 HD
ENDBRANCH   8  24
TORSDOF 5
ENDMDL
MODEL 2
REMARK VINA RESULT:    22.449      1.440      6.346
REMARK INTER + INTRA:          26.173
REMARK INTER:                  25.707
REMARK INTRA:                   0.466
REMARK UNBOUND:                -0.213
REMARK SMILES O=c1c(O)c(-c2ccc(O)cc2)oc2cc(O)cc(O)c12
REMARK SMILES IDX 5 1 3 2 2 3 1 4 21 5 19 6 18 7 16 8 15 9 14 10 13 11 6 12
REMARK SMILES IDX 7 13 8 14 9 15 12 16 11 17 10 18 4 20 20 22 17 24
REMARK H PARENT 10 19 4 21 20 23 17 25
REMARK Flexibility Score: inf
ROOT
ATOM      1  C   UNL     1       7.911   4.762  17.988  1.00  0.00     0.180 A 
ATOM      2  C   UNL     1       9.201   4.201  17.958  1.00  0.00     0.208 A 
ATOM      3  C   UNL     1       9.336   2.803  17.968  1.00  0.00     0.238 A 
ATOM      4  O   UNL     1      10.489   2.308  17.885  1.00  0.00    -0.285 OA
ATOM      5  C   UNL     1       8.182   1.985  18.025  1.00  0.00     0.111 A 
ATOM      6  C   UNL     1       8.203   0.558  18.081  1.00  0.00     0.134 A 
ATOM      7  C   UNL     1       7.000  -0.154  18.003  1.00  0.00     0.093 A 
ATOM      8  C   UNL     1       5.773   0.511  17.937  1.00  0.00     0.123 A 
ATOM      9  C   UNL     1       5.739   1.903  17.943  1.00  0.00     0.094 A 
ATOM     10  C   UNL     1       6.925   2.641  17.983  1.00  0.00     0.146 A 
ATOM     11  O   UNL     1       6.848   3.966  17.976  1.00  0.00    -0.452 OA
ENDROOT
BRANCH   1  12
ATOM     12  C   UNL     1       7.689   6.225  18.006  1.00  0.00     0.021 A 
ATOM     13  C   UNL     1       8.751   7.126  18.208  1.00  0.00     0.016 A 
ATOM     14  C   UNL     1       8.512   8.504  18.244  1.00  0.00     0.047 A 
ATOM     15  C   UNL     1       7.213   8.997  18.094  1.00  0.00     0.115 A 
ATOM     16  C   UNL     1       6.383   6.728  17.877  1.00  0.00     0.016 A 
ATOM     17  C   UNL     1       6.148   8.106  17.913  1.00  0.00     0.047 A 
BRANCH  15  18
ATOM     18  O   UNL     1       6.991  10.372  18.132  1.00  0.00    -0.508 OA
ATOM     19  H   UNL     1       6.083  10.768  17.916  1.00  0.00     0.293 HD
ENDBRANCH  15  18
ENDBRANCH   1  12
BRANCH   2  20
ATOM     20  O   UNL     1      10.324   5.027  17.879  1.00  0.00    -0.502 OA
ATOM     21  H   UNL     1      11.143   4.782  17.334  1.00  0.00     0.293 HD
ENDBRANCH   2  20
BRANCH   6  22
ATOM     22  O   UNL     1       9.367  -0.200  18.238  1.00  0.00    -0.507 OA
ATOM     23  H   UNL     1      10.266   0.176  18.499  1.00  0.00     0.293 HD
ENDBRANCH   6  22
BRANCH   8  24
ATOM     24  O   UNL     1       4.579  -0.204  17.876  1.00  0.00    -0.508 OA
ATOM     25  H   UNL     1       4.149  -0.590  18.709  1.00  0.00     0.293 HD
ENDBRANCH   8  24
TORSDOF 5
ENDMDL
