MODEL 1
REMARK VINA RESULT:     1.092      0.000      0.000
REMARK INTER + INTRA:           1.671
REMARK INTER:                   2.050
REMARK INTRA:                  -0.380
REMARK UNBOUND:                -0.380
REMARK SMILES O=C([O-])CCCCCCCCCCCCCCC(=O)[O-]
REMARK SMILES IDX 10 1 9 2 8 3 7 4 6 5 5 6 4 7 2 8 1 9 3 10 11 11 12 12 13 13
REMARK SMILES IDX 14 14 15 15 16 16 17 17 18 18 19 19 20 20
REMARK H PARENT
REMARK Flexibility Score: inf
ROOT
ATOM      1  C   UNL     1      -2.407  -5.824 -13.015  1.00  0.00     0.000 C 
ENDROOT
BRANCH   1   2
ATOM      2  C   UNL     1      -3.177  -6.581 -14.110  1.00  0.00     0.000 C 
BRANCH   2   3
ATOM      3  C   UNL     1      -4.504  -7.168 -13.602  1.00  0.00     0.000 C 
BRANCH   3   4
ATOM      4  C   UNL     1      -4.414  -8.675 -13.301  1.00  0.00     0.000 C 
BRANCH   4   5
ATOM      5  C   UNL     1      -5.477  -9.488 -14.072  1.00  0.00     0.000 C 
BRANCH   5   6
ATOM      6  C   UNL     1      -5.964 -10.736 -13.312  1.00  0.00     0.006 C 
BRANCH   6   7
ATOM      7  C   UNL     1      -7.355 -11.224 -13.738  1.00  0.00     0.053 C 
BRANCH   7   8
ATOM      8  C   UNL     1      -8.423 -10.756 -12.795  1.00  0.00     0.041 C 
ATOM      9  O   UNL     1      -8.779 -11.484 -11.832  1.00  0.00    -0.550 OA
ATOM     10  O   UNL     1      -9.009  -9.510 -12.967  1.00  0.00    -0.550 OA
ENDBRANCH   7   8
ENDBRANCH   6   7
ENDBRANCH   5   6
ENDBRANCH   4   5
ENDBRANCH   3   4
ENDBRANCH   2   3
ENDBRANCH   1   2
BRANCH   1  11
ATOM     11  C   UNL     1      -1.702  -4.567 -13.548  1.00  0.00     0.000 C 
BRANCH  11  12
ATOM     12  C   UNL     1      -0.227  -4.816 -13.900  1.00  0.00     0.000 C 
BRANCH  12  13
ATOM     13  C   UNL     1       0.631  -3.587 -13.563  1.00  0.00     0.000 C 
BRANCH  13  14
ATOM     14  C   UNL     1       2.062  -3.679 -14.125  1.00  0.00     0.000 C 
BRANCH  14  15
ATOM     15  C   UNL     1       2.944  -2.446 -13.859  1.00  0.00     0.000 C 
BRANCH  15  16
ATOM     16  C   UNL     1       4.446  -2.769 -13.874  1.00  0.00     0.006 C 
BRANCH  16  17
ATOM     17  C   UNL     1       4.882  -3.416 -12.556  1.00  0.00     0.053 C 
BRANCH  17  18
ATOM     18  C   UNL     1       6.297  -3.893 -12.649  1.00  0.00     0.041 C 
ATOM     19  O   UNL     1       6.945  -4.163 -11.603  1.00  0.00    -0.550 OA
ATOM     20  O   UNL     1       6.919  -3.986 -13.888  1.00  0.00    -0.550 OA
ENDBRANCH  17  18
ENDBRANCH  16  17
ENDBRANCH  15  16
ENDBRANCH  14  15
ENDBRANCH  13  14
ENDBRANCH  12  13
ENDBRANCH  11  12
ENDBRANCH   1  11
TORSDOF 15
ENDMDL
MODEL 2
REMARK VINA RESULT:     1.195      1.574      2.508
REMARK INTER + INTRA:           1.862
REMARK INTER:                   2.214
REMARK INTRA:                  -0.352
REMARK UNBOUND:                -0.380
REMARK SMILES O=C([O-])CCCCCCCCCCCCCCC(=O)[O-]
REMARK SMILES IDX 10 1 9 2 8 3 7 4 6 5 5 6 4 7 2 8 1 9 3 10 11 11 12 12 13 13
REMARK SMILES IDX 14 14 15 15 16 16 17 17 18 18 19 19 20 20
REMARK H PARENT
REMARK Flexibility Score: inf
ROOT
ATOM      1  C   UNL     1      -3.412  -7.731 -14.011  1.00  0.00     0.000 C 
ENDROOT
BRANCH   1   2
ATOM      2  C   UNL     1      -4.259  -8.736 -13.210  1.00  0.00     0.000 C 
BRANCH   2   3
ATOM      3  C   UNL     1      -4.764  -9.903 -14.073  1.00  0.00     0.000 C 
BRANCH   3   4
ATOM      4  C   UNL     1      -6.300  -9.987 -14.123  1.00  0.00     0.000 C 
BRANCH   4   5
ATOM      5  C   UNL     1      -6.872 -10.888 -13.006  1.00  0.00     0.000 C 
BRANCH   5   6
ATOM      6  C   UNL     1      -8.179 -10.350 -12.395  1.00  0.00     0.006 C 
BRANCH   6   7
ATOM      7  C   UNL     1      -8.925 -11.367 -11.519  1.00  0.00     0.053 C 
BRANCH   7   8
ATOM      8  C   UNL     1     -10.352 -10.969 -11.294  1.00  0.00     0.041 C 
ATOM      9  O   UNL     1     -11.075 -11.630 -10.503  1.00  0.00    -0.550 OA
ATOM     10  O   UNL     1     -10.878  -9.858 -11.939  1.00  0.00    -0.550 OA
ENDBRANCH   7   8
ENDBRANCH   6   7
ENDBRANCH   5   6
ENDBRANCH   4   5
ENDBRANCH   3   4
ENDBRANCH   2   3
ENDBRANCH   1   2
BRANCH   1  11
ATOM     11  C   UNL     1      -3.247  -6.386 -13.285  1.00  0.00     0.000 C 
BRANCH  11  12
ATOM     12  C   UNL     1      -2.445  -5.363 -14.104  1.00  0.00     0.000 C 
BRANCH  12  13
ATOM     13  C   UNL     1      -1.398  -4.660 -13.227  1.00  0.00     0.000 C 
BRANCH  13  14
ATOM     14  C   UNL     1      -0.479  -3.717 -14.025  1.00  0.00     0.000 C 
BRANCH  14  15
ATOM     15  C   UNL     1       0.990  -4.168 -14.121  1.00  0.00     0.000 C 
BRANCH  15  16
ATOM     16  C   UNL     1       1.985  -3.051 -13.772  1.00  0.00     0.006 C 
BRANCH  16  17
ATOM     17  C   UNL     1       3.430  -3.542 -13.901  1.00  0.00     0.053 C 
BRANCH  17  18
ATOM     18  C   UNL     1       4.358  -2.646 -13.144  1.00  0.00     0.041 C 
ATOM     19  O   UNL     1       4.939  -3.065 -12.108  1.00  0.00    -0.550 OA
ATOM     20  O   UNL     1       4.538  -1.330 -13.550  1.00  0.00    -0.550 OA
ENDBRANCH  17  18
ENDBRANCH  16  17
ENDBRANCH  15  16
ENDBRANCH  14  15
ENDBRANCH  13  14
ENDBRANCH  12  13
ENDBRANCH  11  12
ENDBRANCH   1  11
TORSDOF 15
ENDMDL
MODEL 3
REMARK VINA RESULT:     2.707     10.628     13.461
REMARK INTER + INTRA:           4.701
REMARK INTER:                   5.537
REMARK INTRA:                  -0.836
REMARK UNBOUND:                -0.380
REMARK SMILES O=C([O-])CCCCCCCCCCCCCCC(=O)[O-]
REMARK SMILES IDX 10 1 9 2 8 3 7 4 6 5 5 6 4 7 2 8 1 9 3 10 11 11 12 12 13 13
REMARK SMILES IDX 14 14 15 15 16 16 17 17 18 18 19 19 20 20
REMARK H PARENT
REMARK Flexibility Score: inf
ROOT
ATOM      1  C   UNL     1      -9.032 -10.796  -5.699  1.00  0.00     0.000 C 
ENDROOT
BRANCH   1   2
ATOM      2  C   UNL     1     -10.069 -11.828  -6.175  1.00  0.00     0.000 C 
BRANCH   2   3
ATOM      3  C   UNL     1     -11.057 -11.245  -7.198  1.00  0.00     0.000 C 
BRANCH   3   4
ATOM      4  C   UNL     1     -11.124 -12.066  -8.498  1.00  0.00     0.000 C 
BRANCH   4   5
ATOM      5  C   UNL     1     -10.915 -11.190  -9.753  1.00  0.00     0.000 C 
BRANCH   5   6
ATOM      6  C   UNL     1     -10.321 -11.961 -10.946  1.00  0.00     0.006 C 
BRANCH   6   7
ATOM      7  C   UNL     1      -8.872 -11.580 -11.278  1.00  0.00     0.053 C 
BRANCH   7   8
ATOM      8  C   UNL     1      -8.722 -11.147 -12.705  1.00  0.00     0.041 C 
ATOM      9  O   UNL     1      -7.756 -11.568 -13.395  1.00  0.00    -0.550 OA
ATOM     10  O   UNL     1      -9.657 -10.298 -13.281  1.00  0.00    -0.550 OA
ENDBRANCH   7   8
ENDBRANCH   6   7
ENDBRANCH   5   6
ENDBRANCH   4   5
ENDBRANCH   3   4
ENDBRANCH   2   3
ENDBRANCH   1   2
BRANCH   1  11
ATOM     11  C   UNL     1      -9.382 -10.195  -4.328  1.00  0.00     0.000 C 
BRANCH  11  12
ATOM     12  C   UNL     1     -10.639 -10.825  -3.706  1.00  0.00     0.000 C 
BRANCH  12  13
ATOM     13  C   UNL     1     -11.124 -10.002  -2.503  1.00  0.00     0.000 C 
BRANCH  13  14
ATOM     14  C   UNL     1     -10.424  -8.636  -2.385  1.00  0.00     0.000 C 
BRANCH  14  15
ATOM     15  C   UNL     1     -10.224  -8.130  -0.946  1.00  0.00     0.000 C 
BRANCH  15  16
ATOM     16  C   UNL     1      -8.840  -8.476  -0.376  1.00  0.00     0.006 C 
BRANCH  16  17
ATOM     17  C   UNL     1      -7.727  -8.038  -1.333  1.00  0.00     0.053 C 
BRANCH  17  18
ATOM     18  C   UNL     1      -6.444  -8.731  -0.997  1.00  0.00     0.041 C 
ATOM     19  O   UNL     1      -6.346  -9.401   0.065  1.00  0.00    -0.550 OA
ATOM     20  O   UNL     1      -5.340  -8.591  -1.827  1.00  0.00    -0.550 OA
ENDBRANCH  17  18
ENDBRANCH  16  17
ENDBRANCH  15  16
ENDBRANCH  14  15
ENDBRANCH  13  14
ENDBRANCH  12  13
ENDBRANCH  11  12
ENDBRANCH   1  11
TORSDOF 15
ENDMDL
MODEL 4
REMARK VINA RESULT:     3.372     15.855     18.941
REMARK INTER + INTRA:           5.950
REMARK INTER:                   6.291
REMARK INTRA:                  -0.341
REMARK UNBOUND:                -0.380
REMARK SMILES O=C([O-])CCCCCCCCCCCCCCC(=O)[O-]
REMARK SMILES IDX 10 1 9 2 8 3 7 4 6 5 5 6 4 7 2 8 1 9 3 10 11 11 12 12 13 13
REMARK SMILES IDX 14 14 15 15 16 16 17 17 18 18 19 19 20 20
REMARK H PARENT
REMARK Flexibility Score: inf
ROOT
ATOM      1  C   UNL     1       3.688   7.745  -2.583  1.00  0.00     0.000 C 
ENDROOT
BRANCH   1   2
ATOM      2  C   UNL     1       2.684   8.003  -1.445  1.00  0.00     0.000 C 
BRANCH   2   3
ATOM      3  C   UNL     1       3.183   7.482  -0.088  1.00  0.00     0.000 C 
BRANCH   3   4
ATOM      4  C   UNL     1       2.836   6.000   0.146  1.00  0.00     0.000 C 
BRANCH   4   5
ATOM      5  C   UNL     1       1.914   5.804   1.371  1.00  0.00     0.000 C 
BRANCH   5   6
ATOM      6  C   UNL     1       2.660   5.875   2.716  1.00  0.00     0.006 C 
BRANCH   6   7
ATOM      7  C   UNL     1       2.110   4.923   3.787  1.00  0.00     0.053 C 
BRANCH   7   8
ATOM      8  C   UNL     1       3.120   4.649   4.861  1.00  0.00     0.041 C 
ATOM      9  O   UNL     1       3.398   5.537   5.708  1.00  0.00    -0.550 OA
ATOM     10  O   UNL     1       3.737   3.408   4.940  1.00  0.00    -0.550 OA
ENDBRANCH   7   8
ENDBRANCH   6   7
ENDBRANCH   5   6
ENDBRANCH   4   5
ENDBRANCH   3   4
ENDBRANCH   2   3
ENDBRANCH   1   2
BRANCH   1  11
ATOM     11  C   UNL     1       3.128   8.125  -3.963  1.00  0.00     0.000 C 
BRANCH  11  12
ATOM     12  C   UNL     1       3.956   7.544  -5.121  1.00  0.00     0.000 C 
BRANCH  12  13
ATOM     13  C   UNL     1       3.234   7.744  -6.462  1.00  0.00     0.000 C 
BRANCH  13  14
ATOM     14  C   UNL     1       3.986   7.116  -7.650  1.00  0.00     0.000 C 
BRANCH  14  15
ATOM     15  C   UNL     1       4.509   8.120  -8.692  1.00  0.00     0.000 C 
BRANCH  15  16
ATOM     16  C   UNL     1       4.802   7.474 -10.054  1.00  0.00     0.006 C 
BRANCH  16  17
ATOM     17  C   UNL     1       3.854   8.009 -11.132  1.00  0.00     0.053 C 
BRANCH  17  18
ATOM     18  C   UNL     1       4.127   7.349 -12.446  1.00  0.00     0.041 C 
ATOM     19  O   UNL     1       3.977   6.104 -12.573  1.00  0.00    -0.550 OA
ATOM     20  O   UNL     1       4.603   8.097 -13.515  1.00  0.00    -0.550 OA
ENDBRANCH  17  18
ENDBRANCH  16  17
ENDBRANCH  15  16
ENDBRANCH  14  15
ENDBRANCH  13  14
ENDBRANCH  12  13
ENDBRANCH  11  12
ENDBRANCH   1  11
TORSDOF 15
ENDMDL
MODEL 5
REMARK VINA RESULT:     4.066     16.767     19.751
REMARK INTER + INTRA:           7.252
REMARK INTER:                   7.918
REMARK INTRA:                  -0.666
REMARK UNBOUND:                -0.380
REMARK SMILES O=C([O-])CCCCCCCCCCCCCCC(=O)[O-]
REMARK SMILES IDX 10 1 9 2 8 3 7 4 6 5 5 6 4 7 2 8 1 9 3 10 11 11 12 12 13 13
REMARK SMILES IDX 14 14 15 15 16 16 17 17 18 18 19 19 20 20
REMARK H PARENT
REMARK Flexibility Score: inf
ROOT
ATOM      1  C   UNL     1       3.325   6.214   0.448  1.00  0.00     0.000 C 
ENDROOT
BRANCH   1   2
ATOM      2  C   UNL     1       3.838   5.610   1.767  1.00  0.00     0.000 C 
BRANCH   2   3
ATOM      3  C   UNL     1       2.885   5.869   2.945  1.00  0.00     0.000 C 
BRANCH   3   4
ATOM      4  C   UNL     1       3.603   5.857   4.307  1.00  0.00     0.000 C 
BRANCH   4   5
ATOM      5  C   UNL     1       2.770   5.151   5.400  1.00  0.00     0.000 C 
BRANCH   5   6
ATOM      6  C   UNL     1       1.907   3.994   4.860  1.00  0.00     0.006 C 
BRANCH   6   7
ATOM      7  C   UNL     1       1.609   2.901   5.895  1.00  0.00     0.053 C 
BRANCH   7   8
ATOM      8  C   UNL     1       0.163   2.507   5.890  1.00  0.00     0.041 C 
ATOM      9  O   UNL     1      -0.160   1.290   5.898  1.00  0.00    -0.550 OA
ATOM     10  O   UNL     1      -0.827   3.480   5.897  1.00  0.00    -0.550 OA
ENDBRANCH   7   8
ENDBRANCH   6   7
ENDBRANCH   5   6
ENDBRANCH   4   5
ENDBRANCH   3   4
ENDBRANCH   2   3
ENDBRANCH   1   2
BRANCH   1  11
ATOM     11  C   UNL     1       2.077   7.090   0.644  1.00  0.00     0.000 C 
BRANCH  11  12
ATOM     12  C   UNL     1       1.717   7.902  -0.610  1.00  0.00     0.000 C 
BRANCH  12  13
ATOM     13  C   UNL     1       2.915   7.987  -1.568  1.00  0.00     0.000 C 
BRANCH  13  14
ATOM     14  C   UNL     1       2.497   8.125  -3.044  1.00  0.00     0.000 C 
BRANCH  14  15
ATOM     15  C   UNL     1       3.640   7.959  -4.061  1.00  0.00     0.000 C 
BRANCH  15  16
ATOM     16  C   UNL     1       3.166   8.068  -5.518  1.00  0.00     0.006 C 
BRANCH  16  17
ATOM     17  C   UNL     1       3.363   6.742  -6.261  1.00  0.00     0.053 C 
BRANCH  17  18
ATOM     18  C   UNL     1       4.181   6.950  -7.496  1.00  0.00     0.041 C 
ATOM     19  O   UNL     1       4.440   8.116  -7.895  1.00  0.00    -0.550 OA
ATOM     20  O   UNL     1       4.608   5.857  -8.238  1.00  0.00    -0.550 OA
ENDBRANCH  17  18
ENDBRANCH  16  17
ENDBRANCH  15  16
ENDBRANCH  14  15
ENDBRANCH  13  14
ENDBRANCH  12  13
ENDBRANCH  11  12
ENDBRANCH   1  11
TORSDOF 15
ENDMDL
