MODEL 1
REMARK VINA RESULT:    -4.749      0.000      0.000
REMARK INTER + INTRA:         -11.497
REMARK INTER:                  -8.913
REMARK INTRA:                  -2.584
REMARK UNBOUND:                -2.584
REMARK SMILES CCCCCCCCC=CCCCCCCCC(=O)[O-]
REMARK SMILES IDX 10 1 9 2 11 3 12 4 13 5 14 6 15 7 16 8 17 9 18 10 19 11
REMARK SMILES IDX 20 12 8 13 7 14 6 15 5 16 4 17 3 18 2 19 1 20
REMARK H PARENT
REMARK Flexibility Score: inf
ROOT
ATOM      1  C   UNL     1       0.340  -4.861  24.329  1.00  0.00    -0.031 C 
ATOM      2  C   UNL     1       1.067  -4.660  25.439  1.00  0.00    -0.031 C 
ENDROOT
BRANCH   1   3
ATOM      3  C   UNL     1       0.105  -3.761  23.332  1.00  0.00     0.027 C 
BRANCH   3   4
ATOM      4  C   UNL     1      -0.030  -4.323  21.908  1.00  0.00     0.004 C 
BRANCH   4   5
ATOM      5  C   UNL     1       0.201  -3.253  20.830  1.00  0.00     0.000 C 
BRANCH   5   6
ATOM      6  C   UNL     1       1.606  -3.333  20.209  1.00  0.00     0.000 C 
BRANCH   6   7
ATOM      7  C   UNL     1       2.453  -2.079  20.482  1.00  0.00     0.000 C 
BRANCH   7   8
ATOM      8  C   UNL     1       1.661  -0.759  20.560  1.00  0.00     0.006 C 
BRANCH   8   9
ATOM      9  C   UNL     1       2.242   0.265  21.552  1.00  0.00     0.053 C 
BRANCH   9  10
ATOM     10  C   UNL     1       2.817   1.467  20.864  1.00  0.00     0.041 C 
ATOM     11  O   UNL     1       3.567   2.260  21.493  1.00  0.00    -0.550 OA
ATOM     12  O   UNL     1       2.493   1.735  19.540  1.00  0.00    -0.550 OA
ENDBRANCH   9  10
ENDBRANCH   8   9
ENDBRANCH   7   8
ENDBRANCH   6   7
ENDBRANCH   5   6
ENDBRANCH   4   5
ENDBRANCH   3   4
ENDBRANCH   1   3
BRANCH   2  13
ATOM     13  C   UNL     1       1.294  -5.756  26.445  1.00  0.00     0.027 C 
BRANCH  13  14
ATOM     14  C   UNL     1       2.010  -6.971  25.835  1.00  0.00     0.004 C 
BRANCH  14  15
ATOM     15  C   UNL     1       3.526  -6.940  26.096  1.00  0.00     0.000 C 
BRANCH  15  16
ATOM     16  C   UNL     1       4.328  -6.462  24.875  1.00  0.00     0.000 C 
BRANCH  16  17
ATOM     17  C   UNL     1       3.556  -6.623  23.558  1.00  0.00    -0.000 C 
BRANCH  17  18
ATOM     18  C   UNL     1       3.520  -5.300  22.778  1.00  0.00    -0.000 C 
BRANCH  18  19
ATOM     19  C   UNL     1       4.492  -4.255  23.343  1.00  0.00    -0.003 C 
ATOM     20  C   UNL     1       3.801  -2.940  23.706  1.00  0.00     0.004 C 
ENDBRANCH  18  19
ENDBRANCH  17  18
ENDBRANCH  16  17
ENDBRANCH  15  16
ENDBRANCH  14  15
ENDBRANCH  13  14
ENDBRANCH   2  13
TORSDOF 15
ENDMDL
MODEL 2
REMARK VINA RESULT:    -4.694      2.628      6.309
REMARK INTER + INTRA:         -11.394
REMARK INTER:                  -9.055
REMARK INTRA:                  -2.339
REMARK UNBOUND:                -2.584
REMARK SMILES CCCCCCCCC=CCCCCCCCC(=O)[O-]
REMARK SMILES IDX 10 1 9 2 11 3 12 4 13 5 14 6 15 7 16 8 17 9 18 10 19 11
REMARK SMILES IDX 20 12 8 13 7 14 6 15 5 16 4 17 3 18 2 19 1 20
REMARK H PARENT
REMARK Flexibility Score: inf
ROOT
ATOM      1  C   UNL     1       0.792  -4.121  22.575  1.00  0.00    -0.031 C 
ATOM      2  C   UNL     1       0.163  -3.669  21.479  1.00  0.00    -0.031 C 
ENDROOT
BRANCH   1   3
ATOM      3  C   UNL     1       0.035  -4.516  23.811  1.00  0.00     0.027 C 
BRANCH   3   4
ATOM      4  C   UNL     1       0.624  -3.844  25.061  1.00  0.00     0.004 C 
BRANCH   4   5
ATOM      5  C   UNL     1       1.240  -4.857  26.038  1.00  0.00     0.000 C 
BRANCH   5   6
ATOM      6  C   UNL     1       1.272  -6.285  25.466  1.00  0.00     0.000 C 
BRANCH   6   7
ATOM      7  C   UNL     1       2.377  -7.154  26.089  1.00  0.00     0.000 C 
BRANCH   7   8
ATOM      8  C   UNL     1       3.688  -7.223  25.280  1.00  0.00     0.006 C 
BRANCH   8   9
ATOM      9  C   UNL     1       3.657  -6.427  23.963  1.00  0.00     0.053 C 
BRANCH   9  10
ATOM     10  C   UNL     1       4.550  -5.222  24.001  1.00  0.00     0.041 C 
ATOM     11  O   UNL     1       5.766  -5.343  24.310  1.00  0.00    -0.550 OA
ATOM     12  O   UNL     1       4.033  -3.961  23.735  1.00  0.00    -0.550 OA
ENDBRANCH   9  10
ENDBRANCH   8   9
ENDBRANCH   7   8
ENDBRANCH   6   7
ENDBRANCH   5   6
ENDBRANCH   4   5
ENDBRANCH   3   4
ENDBRANCH   1   3
BRANCH   2  13
ATOM     13  C   UNL     1       0.920  -3.260  20.245  1.00  0.00     0.027 C 
BRANCH  13  14
ATOM     14  C   UNL     1       2.439  -3.419  20.411  1.00  0.00     0.004 C 
BRANCH  14  15
ATOM     15  C   UNL     1       3.217  -2.263  19.759  1.00  0.00     0.000 C 
BRANCH  15  16
ATOM     16  C   UNL     1       2.349  -1.014  19.540  1.00  0.00     0.000 C 
BRANCH  16  17
ATOM     17  C   UNL     1       2.687   0.122  20.517  1.00  0.00    -0.000 C 
BRANCH  17  18
ATOM     18  C   UNL     1       1.617   0.238  21.613  1.00  0.00    -0.000 C 
BRANCH  18  19
ATOM     19  C   UNL     1       2.005  -0.508  22.899  1.00  0.00    -0.003 C 
ATOM     20  C   UNL     1       0.938  -0.404  23.988  1.00  0.00     0.004 C 
ENDBRANCH  18  19
ENDBRANCH  17  18
ENDBRANCH  16  17
ENDBRANCH  15  16
ENDBRANCH  14  15
ENDBRANCH  13  14
ENDBRANCH   2  13
TORSDOF 15
ENDMDL
MODEL 3
REMARK VINA RESULT:    -4.681      2.421      5.762
REMARK INTER + INTRA:         -11.371
REMARK INTER:                  -8.833
REMARK INTRA:                  -2.538
REMARK UNBOUND:                -2.584
REMARK SMILES CCCCCCCCC=CCCCCCCCC(=O)[O-]
REMARK SMILES IDX 10 1 9 2 11 3 12 4 13 5 14 6 15 7 16 8 17 9 18 10 19 11
REMARK SMILES IDX 20 12 8 13 7 14 6 15 5 16 4 17 3 18 2 19 1 20
REMARK H PARENT
REMARK Flexibility Score: inf
ROOT
ATOM      1  C   UNL     1       0.205  -3.714  24.031  1.00  0.00    -0.031 C 
ATOM      2  C   UNL     1       0.394  -4.409  22.899  1.00  0.00    -0.031 C 
ENDROOT
BRANCH   1   3
ATOM      3  C   UNL     1       0.702  -4.218  25.357  1.00  0.00     0.027 C 
BRANCH   3   4
ATOM      4  C   UNL     1       0.931  -5.737  25.322  1.00  0.00     0.004 C 
BRANCH   4   5
ATOM      5  C   UNL     1       2.250  -6.147  25.997  1.00  0.00     0.000 C 
BRANCH   5   6
ATOM      6  C   UNL     1       3.172  -6.941  25.056  1.00  0.00     0.000 C 
BRANCH   6   7
ATOM      7  C   UNL     1       4.540  -6.269  24.852  1.00  0.00     0.000 C 
BRANCH   7   8
ATOM      8  C   UNL     1       4.583  -5.197  23.745  1.00  0.00     0.006 C 
BRANCH   8   9
ATOM      9  C   UNL     1       3.746  -5.544  22.501  1.00  0.00     0.053 C 
BRANCH   9  10
ATOM     10  C   UNL     1       4.330  -4.978  21.241  1.00  0.00     0.041 C 
ATOM     11  O   UNL     1       4.364  -5.671  20.190  1.00  0.00    -0.550 OA
ATOM     12  O   UNL     1       4.872  -3.699  21.236  1.00  0.00    -0.550 OA
ENDBRANCH   9  10
ENDBRANCH   8   9
ENDBRANCH   7   8
ENDBRANCH   6   7
ENDBRANCH   5   6
ENDBRANCH   4   5
ENDBRANCH   3   4
ENDBRANCH   1   3
BRANCH   2  13
ATOM     13  C   UNL     1      -0.115  -3.913  21.572  1.00  0.00     0.027 C 
BRANCH  13  14
ATOM     14  C   UNL     1       1.024  -3.511  20.623  1.00  0.00     0.004 C 
BRANCH  14  15
ATOM     15  C   UNL     1       0.746  -2.171  19.920  1.00  0.00     0.000 C 
BRANCH  15  16
ATOM     16  C   UNL     1       2.034  -1.428  19.531  1.00  0.00     0.000 C 
BRANCH  16  17
ATOM     17  C   UNL     1       2.784  -0.864  20.746  1.00  0.00    -0.000 C 
BRANCH  17  18
ATOM     18  C   UNL     1       1.847  -0.028  21.630  1.00  0.00    -0.000 C 
BRANCH  18  19
ATOM     19  C   UNL     1       1.838  -0.498  23.093  1.00  0.00    -0.003 C 
ATOM     20  C   UNL     1       2.938  -1.515  23.393  1.00  0.00     0.004 C 
ENDBRANCH  18  19
ENDBRANCH  17  18
ENDBRANCH  16  17
ENDBRANCH  15  16
ENDBRANCH  14  15
ENDBRANCH  13  14
ENDBRANCH   2  13
TORSDOF 15
ENDMDL
MODEL 4
REMARK VINA RESULT:    -4.555      1.207      4.006
REMARK INTER + INTRA:         -11.134
REMARK INTER:                  -8.469
REMARK INTRA:                  -2.666
REMARK UNBOUND:                -2.584
REMARK SMILES CCCCCCCCC=CCCCCCCCC(=O)[O-]
REMARK SMILES IDX 10 1 9 2 11 3 12 4 13 5 14 6 15 7 16 8 17 9 18 10 19 11
REMARK SMILES IDX 20 12 8 13 7 14 6 15 5 16 4 17 3 18 2 19 1 20
REMARK H PARENT
REMARK Flexibility Score: inf
ROOT
ATOM      1  C   UNL     1       2.238  -3.774  20.410  1.00  0.00    -0.031 C 
ATOM      2  C   UNL     1       1.110  -3.051  20.492  1.00  0.00    -0.031 C 
ENDROOT
BRANCH   1   3
ATOM      3  C   UNL     1       3.464  -3.244  19.720  1.00  0.00     0.027 C 
BRANCH   3   4
ATOM      4  C   UNL     1       4.542  -2.841  20.737  1.00  0.00     0.004 C 
BRANCH   4   5
ATOM      5  C   UNL     1       4.349  -3.524  22.100  1.00  0.00     0.000 C 
BRANCH   5   6
ATOM      6  C   UNL     1       4.109  -2.517  23.237  1.00  0.00     0.000 C 
BRANCH   6   7
ATOM      7  C   UNL     1       3.790  -1.102  22.725  1.00  0.00     0.000 C 
BRANCH   7   8
ATOM      8  C   UNL     1       2.472  -0.498  23.249  1.00  0.00     0.006 C 
BRANCH   8   9
ATOM      9  C   UNL     1       1.545   0.042  22.145  1.00  0.00     0.053 C 
BRANCH   9  10
ATOM     10  C   UNL     1       2.303   0.701  21.032  1.00  0.00     0.041 C 
ATOM     11  O   UNL     1       2.345   0.169  19.890  1.00  0.00    -0.550 OA
ATOM     12  O   UNL     1       2.996   1.882  21.263  1.00  0.00    -0.550 OA
ENDBRANCH   9  10
ENDBRANCH   8   9
ENDBRANCH   7   8
ENDBRANCH   6   7
ENDBRANCH   5   6
ENDBRANCH   4   5
ENDBRANCH   3   4
ENDBRANCH   1   3
BRANCH   2  13
ATOM     13  C   UNL     1      -0.122  -3.584  21.172  1.00  0.00     0.027 C 
BRANCH  13  14
ATOM     14  C   UNL     1       0.208  -4.360  22.457  1.00  0.00     0.004 C 
BRANCH  14  15
ATOM     15  C   UNL     1       0.194  -3.453  23.700  1.00  0.00     0.000 C 
BRANCH  15  16
ATOM     16  C   UNL     1       1.016  -4.030  24.863  1.00  0.00     0.000 C 
BRANCH  16  17
ATOM     17  C   UNL     1       1.606  -5.412  24.545  1.00  0.00    -0.000 C 
BRANCH  17  18
ATOM     18  C   UNL     1       1.352  -6.395  25.697  1.00  0.00    -0.000 C 
BRANCH  18  19
ATOM     19  C   UNL     1       2.597  -7.219  26.058  1.00  0.00    -0.003 C 
ATOM     20  C   UNL     1       3.763  -6.978  25.099  1.00  0.00     0.004 C 
ENDBRANCH  18  19
ENDBRANCH  17  18
ENDBRANCH  16  17
ENDBRANCH  15  16
ENDBRANCH  14  15
ENDBRANCH  13  14
ENDBRANCH   2  13
TORSDOF 15
ENDMDL
MODEL 5
REMARK VINA RESULT:    -4.551      3.471      7.266
REMARK INTER + INTRA:         -11.126
REMARK INTER:                  -8.939
REMARK INTRA:                  -2.187
REMARK UNBOUND:                -2.584
REMARK SMILES CCCCCCCCC=CCCCCCCCC(=O)[O-]
REMARK SMILES IDX 10 1 9 2 11 3 12 4 13 5 14 6 15 7 16 8 17 9 18 10 19 11
REMARK SMILES IDX 20 12 8 13 7 14 6 15 5 16 4 17 3 18 2 19 1 20
REMARK H PARENT
REMARK Flexibility Score: inf
ROOT
ATOM      1  C   UNL     1       1.557  -3.429  20.729  1.00  0.00    -0.031 C 
ATOM      2  C   UNL     1       1.914  -2.402  19.942  1.00  0.00    -0.031 C 
ENDROOT
BRANCH   1   3
ATOM      3  C   UNL     1       0.142  -3.602  21.204  1.00  0.00     0.027 C 
BRANCH   3   4
ATOM      4  C   UNL     1       0.101  -4.035  22.678  1.00  0.00     0.004 C 
BRANCH   4   5
ATOM      5  C   UNL     1       1.456  -4.567  23.171  1.00  0.00     0.000 C 
BRANCH   5   6
ATOM      6  C   UNL     1       1.912  -3.898  24.479  1.00  0.00     0.000 C 
BRANCH   6   7
ATOM      7  C   UNL     1       1.640  -4.765  25.720  1.00  0.00     0.000 C 
BRANCH   7   8
ATOM      8  C   UNL     1       1.390  -6.259  25.433  1.00  0.00     0.006 C 
BRANCH   8   9
ATOM      9  C   UNL     1       2.384  -7.207  26.128  1.00  0.00     0.053 C 
BRANCH   9  10
ATOM     10  C   UNL     1       3.738  -7.191  25.484  1.00  0.00     0.041 C 
ATOM     11  O   UNL     1       4.767  -7.449  26.163  1.00  0.00    -0.550 OA
ATOM     12  O   UNL     1       3.869  -6.852  24.143  1.00  0.00    -0.550 OA
ENDBRANCH   9  10
ENDBRANCH   8   9
ENDBRANCH   7   8
ENDBRANCH   6   7
ENDBRANCH   5   6
ENDBRANCH   4   5
ENDBRANCH   3   4
ENDBRANCH   1   3
BRANCH   2  13
ATOM     13  C   UNL     1       3.333  -2.219  19.475  1.00  0.00     0.027 C 
BRANCH  13  14
ATOM     14  C   UNL     1       3.683  -0.744  19.231  1.00  0.00     0.004 C 
BRANCH  14  15
ATOM     15  C   UNL     1       2.436   0.104  18.924  1.00  0.00     0.000 C 
BRANCH  15  16
ATOM     16  C   UNL     1       2.433   1.446  19.673  1.00  0.00     0.000 C 
BRANCH  16  17
ATOM     17  C   UNL     1       2.723   1.289  21.173  1.00  0.00    -0.000 C 
BRANCH  17  18
ATOM     18  C   UNL     1       1.507   0.706  21.909  1.00  0.00    -0.000 C 
BRANCH  18  19
ATOM     19  C   UNL     1       1.901  -0.327  22.975  1.00  0.00    -0.003 C 
ATOM     20  C   UNL     1       0.844  -0.480  24.068  1.00  0.00     0.004 C 
ENDBRANCH  18  19
ENDBRANCH  17  18
ENDBRANCH  16  17
ENDBRANCH  15  16
ENDBRANCH  14  15
ENDBRANCH  13  14
ENDBRANCH   2  13
TORSDOF 15
ENDMDL
MODEL 6
REMARK VINA RESULT:    -4.526      1.728      2.890
REMARK INTER + INTRA:         -11.079
REMARK INTER:                  -8.709
REMARK INTRA:                  -2.370
REMARK UNBOUND:                -2.584
REMARK SMILES CCCCCCCCC=CCCCCCCCC(=O)[O-]
REMARK SMILES IDX 10 1 9 2 11 3 12 4 13 5 14 6 15 7 16 8 17 9 18 10 19 11
REMARK SMILES IDX 20 12 8 13 7 14 6 15 5 16 4 17 3 18 2 19 1 20
REMARK H PARENT
REMARK Flexibility Score: inf
ROOT
ATOM      1  C   UNL     1       1.517  -3.926  23.424  1.00  0.00    -0.031 C 
ATOM      2  C   UNL     1       2.466  -4.621  22.776  1.00  0.00    -0.031 C 
ENDROOT
BRANCH   1   3
ATOM      3  C   UNL     1       0.251  -3.494  22.737  1.00  0.00     0.027 C 
BRANCH   3   4
ATOM      4  C   UNL     1       0.288  -3.836  21.240  1.00  0.00     0.004 C 
BRANCH   4   5
ATOM      5  C   UNL     1       0.458  -2.590  20.356  1.00  0.00     0.000 C 
BRANCH   5   6
ATOM      6  C   UNL     1       1.934  -2.235  20.114  1.00  0.00     0.000 C 
BRANCH   6   7
ATOM      7  C   UNL     1       2.141  -0.755  19.752  1.00  0.00     0.000 C 
BRANCH   7   8
ATOM      8  C   UNL     1       2.601   0.145  20.916  1.00  0.00     0.006 C 
BRANCH   8   9
ATOM      9  C   UNL     1       1.492   0.474  21.932  1.00  0.00     0.053 C 
BRANCH   9  10
ATOM     10  C   UNL     1       1.733  -0.160  23.270  1.00  0.00     0.041 C 
ATOM     11  O   UNL     1       2.859  -0.654  23.544  1.00  0.00    -0.550 OA
ATOM     12  O   UNL     1       0.704  -0.242  24.199  1.00  0.00    -0.550 OA
ENDBRANCH   9  10
ENDBRANCH   8   9
ENDBRANCH   7   8
ENDBRANCH   6   7
ENDBRANCH   5   6
ENDBRANCH   4   5
ENDBRANCH   3   4
ENDBRANCH   1   3
BRANCH   2  13
ATOM     13  C   UNL     1       3.739  -5.044  23.458  1.00  0.00     0.027 C 
BRANCH  13  14
ATOM     14  C   UNL     1       3.766  -6.549  23.764  1.00  0.00     0.004 C 
BRANCH  14  15
ATOM     15  C   UNL     1       3.811  -6.832  25.276  1.00  0.00     0.000 C 
BRANCH  15  16
ATOM     16  C   UNL     1       2.515  -7.472  25.798  1.00  0.00     0.000 C 
BRANCH  16  17
ATOM     17  C   UNL     1       1.399  -6.445  26.034  1.00  0.00    -0.000 C 
BRANCH  17  18
ATOM     18  C   UNL     1       1.700  -5.582  27.268  1.00  0.00    -0.000 C 
BRANCH  18  19
ATOM     19  C   UNL     1       1.645  -4.077  26.965  1.00  0.00    -0.003 C 
ATOM     20  C   UNL     1       3.032  -3.454  26.809  1.00  0.00     0.004 C 
ENDBRANCH  18  19
ENDBRANCH  17  18
ENDBRANCH  16  17
ENDBRANCH  15  16
ENDBRANCH  14  15
ENDBRANCH  13  14
ENDBRANCH   2  13
TORSDOF 15
ENDMDL
MODEL 7
REMARK VINA RESULT:    -4.515      3.191      6.395
REMARK INTER + INTRA:         -11.058
REMARK INTER:                  -8.170
REMARK INTRA:                  -2.888
REMARK UNBOUND:                -2.584
REMARK SMILES CCCCCCCCC=CCCCCCCCC(=O)[O-]
REMARK SMILES IDX 10 1 9 2 11 3 12 4 13 5 14 6 15 7 16 8 17 9 18 10 19 11
REMARK SMILES IDX 20 12 8 13 7 14 6 15 5 16 4 17 3 18 2 19 1 20
REMARK H PARENT
REMARK Flexibility Score: inf
ROOT
ATOM      1  C   UNL     1       0.668  -4.180  21.738  1.00  0.00    -0.031 C 
ATOM      2  C   UNL     1       0.450  -3.147  20.909  1.00  0.00    -0.031 C 
ENDROOT
BRANCH   1   3
ATOM      3  C   UNL     1      -0.113  -4.346  23.011  1.00  0.00     0.027 C 
BRANCH   3   4
ATOM      4  C   UNL     1       0.266  -3.267  24.038  1.00  0.00     0.004 C 
BRANCH   4   5
ATOM      5  C   UNL     1       0.638  -3.863  25.405  1.00  0.00     0.000 C 
BRANCH   5   6
ATOM      6  C   UNL     1       1.910  -4.727  25.347  1.00  0.00     0.000 C 
BRANCH   6   7
ATOM      7  C   UNL     1       1.655  -6.193  25.734  1.00  0.00     0.000 C 
BRANCH   7   8
ATOM      8  C   UNL     1       2.830  -7.154  25.464  1.00  0.00     0.006 C 
BRANCH   8   9
ATOM      9  C   UNL     1       3.823  -6.650  24.401  1.00  0.00     0.053 C 
BRANCH   9  10
ATOM     10  C   UNL     1       5.140  -6.247  24.993  1.00  0.00     0.041 C 
ATOM     11  O   UNL     1       5.880  -5.423  24.392  1.00  0.00    -0.550 OA
ATOM     12  O   UNL     1       5.570  -6.810  26.188  1.00  0.00    -0.550 OA
ENDBRANCH   9  10
ENDBRANCH   8   9
ENDBRANCH   7   8
ENDBRANCH   6   7
ENDBRANCH   5   6
ENDBRANCH   4   5
ENDBRANCH   3   4
ENDBRANCH   1   3
BRANCH   2  13
ATOM     13  C   UNL     1       1.240  -2.973  19.640  1.00  0.00     0.027 C 
BRANCH  13  14
ATOM     14  C   UNL     1       1.847  -1.567  19.518  1.00  0.00     0.004 C 
BRANCH  14  15
ATOM     15  C   UNL     1       1.960  -0.865  20.882  1.00  0.00     0.000 C 
BRANCH  15  16
ATOM     16  C   UNL     1       3.387  -0.905  21.452  1.00  0.00     0.000 C 
BRANCH  16  17
ATOM     17  C   UNL     1       3.441  -1.474  22.878  1.00  0.00    -0.000 C 
BRANCH  17  18
ATOM     18  C   UNL     1       3.809  -2.965  22.859  1.00  0.00    -0.000 C 
BRANCH  18  19
ATOM     19  C   UNL     1       4.642  -3.352  21.628  1.00  0.00    -0.003 C 
ATOM     20  C   UNL     1       4.296  -4.743  21.094  1.00  0.00     0.004 C 
ENDBRANCH  18  19
ENDBRANCH  17  18
ENDBRANCH  16  17
ENDBRANCH  15  16
ENDBRANCH  14  15
ENDBRANCH  13  14
ENDBRANCH   2  13
TORSDOF 15
ENDMDL
MODEL 8
REMARK VINA RESULT:    -4.474      1.248      1.932
REMARK INTER + INTRA:         -10.982
REMARK INTER:                  -8.723
REMARK INTRA:                  -2.259
REMARK UNBOUND:                -2.584
REMARK SMILES CCCCCCCCC=CCCCCCCCC(=O)[O-]
REMARK SMILES IDX 10 1 9 2 11 3 12 4 13 5 14 6 15 7 16 8 17 9 18 10 19 11
REMARK SMILES IDX 20 12 8 13 7 14 6 15 5 16 4 17 3 18 2 19 1 20
REMARK H PARENT
REMARK Flexibility Score: inf
ROOT
ATOM      1  C   UNL     1       0.410  -3.416  22.949  1.00  0.00    -0.031 C 
ATOM      2  C   UNL     1       0.145  -4.151  24.041  1.00  0.00    -0.031 C 
ENDROOT
BRANCH   1   3
ATOM      3  C   UNL     1      -0.025  -3.856  21.579  1.00  0.00     0.027 C 
BRANCH   3   4
ATOM      4  C   UNL     1       0.947  -3.354  20.501  1.00  0.00     0.004 C 
BRANCH   4   5
ATOM      5  C   UNL     1       1.552  -1.985  20.847  1.00  0.00     0.000 C 
BRANCH   5   6
ATOM      6  C   UNL     1       3.007  -1.844  20.369  1.00  0.00     0.000 C 
BRANCH   6   7
ATOM      7  C   UNL     1       3.506  -0.390  20.392  1.00  0.00     0.000 C 
BRANCH   7   8
ATOM      8  C   UNL     1       2.641   0.612  19.602  1.00  0.00     0.006 C 
BRANCH   8   9
ATOM      9  C   UNL     1       2.585   2.020  20.222  1.00  0.00     0.053 C 
BRANCH   9  10
ATOM     10  C   UNL     1       3.605   2.947  19.632  1.00  0.00     0.041 C 
ATOM     11  O   UNL     1       4.827   2.642  19.652  1.00  0.00    -0.550 OA
ATOM     12  O   UNL     1       3.212   4.166  19.095  1.00  0.00    -0.550 OA
ENDBRANCH   9  10
ENDBRANCH   8   9
ENDBRANCH   7   8
ENDBRANCH   6   7
ENDBRANCH   5   6
ENDBRANCH   4   5
ENDBRANCH   3   4
ENDBRANCH   1   3
BRANCH   2  13
ATOM     13  C   UNL     1       0.591  -3.719  25.412  1.00  0.00     0.027 C 
BRANCH  13  14
ATOM     14  C   UNL     1       1.694  -4.624  25.980  1.00  0.00     0.004 C 
BRANCH  14  15
ATOM     15  C   UNL     1       1.373  -6.117  25.789  1.00  0.00     0.000 C 
BRANCH  15  16
ATOM     16  C   UNL     1       2.603  -6.939  25.374  1.00  0.00     0.000 C 
BRANCH  16  17
ATOM     17  C   UNL     1       3.654  -6.101  24.631  1.00  0.00    -0.000 C 
BRANCH  17  18
ATOM     18  C   UNL     1       3.305  -5.982  23.140  1.00  0.00    -0.000 C 
BRANCH  18  19
ATOM     19  C   UNL     1       3.993  -4.786  22.466  1.00  0.00    -0.003 C 
ATOM     20  C   UNL     1       4.100  -3.570  23.386  1.00  0.00     0.004 C 
ENDBRANCH  18  19
ENDBRANCH  17  18
ENDBRANCH  16  17
ENDBRANCH  15  16
ENDBRANCH  14  15
ENDBRANCH  13  14
ENDBRANCH   2  13
TORSDOF 15
ENDMDL
MODEL 9
REMARK VINA RESULT:    -4.469      2.074      5.122
REMARK INTER + INTRA:         -10.971
REMARK INTER:                  -8.151
REMARK INTRA:                  -2.820
REMARK UNBOUND:                -2.584
REMARK SMILES CCCCCCCCC=CCCCCCCCC(=O)[O-]
REMARK SMILES IDX 10 1 9 2 11 3 12 4 13 5 14 6 15 7 16 8 17 9 18 10 19 11
REMARK SMILES IDX 20 12 8 13 7 14 6 15 5 16 4 17 3 18 2 19 1 20
REMARK H PARENT
REMARK Flexibility Score: inf
ROOT
ATOM      1  C   UNL     1       0.698  -5.273  24.766  1.00  0.00    -0.031 C 
ATOM      2  C   UNL     1       0.653  -3.933  24.726  1.00  0.00    -0.031 C 
ENDROOT
BRANCH   1   3
ATOM      3  C   UNL     1       1.013  -6.014  26.035  1.00  0.00     0.027 C 
BRANCH   3   4
ATOM      4  C   UNL     1       2.529  -6.071  26.281  1.00  0.00     0.004 C 
BRANCH   4   5
ATOM      5  C   UNL     1       3.229  -7.112  25.394  1.00  0.00     0.000 C 
BRANCH   5   6
ATOM      6  C   UNL     1       4.216  -6.475  24.402  1.00  0.00     0.000 C 
BRANCH   6   7
ATOM      7  C   UNL     1       3.651  -6.376  22.975  1.00  0.00     0.000 C 
BRANCH   7   8
ATOM      8  C   UNL     1       3.618  -4.954  22.381  1.00  0.00     0.006 C 
BRANCH   8   9
ATOM      9  C   UNL     1       4.689  -4.008  22.956  1.00  0.00     0.053 C 
BRANCH   9  10
ATOM     10  C   UNL     1       4.091  -2.858  23.710  1.00  0.00     0.041 C 
ATOM     11  O   UNL     1       3.969  -2.915  24.963  1.00  0.00    -0.550 OA
ATOM     12  O   UNL     1       3.633  -1.738  23.028  1.00  0.00    -0.550 OA
ENDBRANCH   9  10
ENDBRANCH   8   9
ENDBRANCH   7   8
ENDBRANCH   6   7
ENDBRANCH   5   6
ENDBRANCH   4   5
ENDBRANCH   3   4
ENDBRANCH   1   3
BRANCH   2  13
ATOM     13  C   UNL     1       0.350  -3.189  23.454  1.00  0.00     0.027 C 
BRANCH  13  14
ATOM     14  C   UNL     1      -0.043  -4.131  22.305  1.00  0.00     0.004 C 
BRANCH  14  15
ATOM     15  C   UNL     1       0.603  -3.717  20.971  1.00  0.00     0.000 C 
BRANCH  15  16
ATOM     16  C   UNL     1       0.895  -2.211  20.897  1.00  0.00     0.000 C 
BRANCH  16  17
ATOM     17  C   UNL     1       1.951  -1.862  19.837  1.00  0.00    -0.000 C 
BRANCH  17  18
ATOM     18  C   UNL     1       2.696  -3.122  19.371  1.00  0.00    -0.000 C 
BRANCH  18  19
ATOM     19  C   UNL     1       4.217  -2.919  19.304  1.00  0.00    -0.003 C 
ATOM     20  C   UNL     1       4.970  -4.204  18.963  1.00  0.00     0.004 C 
ENDBRANCH  18  19
ENDBRANCH  17  18
ENDBRANCH  16  17
ENDBRANCH  15  16
ENDBRANCH  14  15
ENDBRANCH  13  14
ENDBRANCH   2  13
TORSDOF 15
ENDMDL
