MODEL 1
REMARK VINA RESULT:    -5.648      0.000      0.000
REMARK INTER + INTRA:         -10.119
REMARK INTER:                  -8.620
REMARK INTRA:                  -1.499
REMARK UNBOUND:                -1.499
REMARK SMILES OC[C@H]1O[C@@H](O[C@]2(CO)O[C@H](CO)[C@@H](O)[C@H]2O)[C@H](O)[C@H](O)[C@H]1O
REMARK SMILES IDX 6 1 5 2 3 3 22 4 4 5 20 6 18 7 2 8 1 9 23 11 21 13 19 15
REMARK SMILES IDX 7 17 16 18 10 19 14 20 11 21 8 22 9 23 17 25 15 27 12 29
REMARK SMILES IDX 13 30
REMARK H PARENT 1 10 23 12 21 14 19 16 9 24 17 26 15 28 13 31
REMARK Flexibility Score: inf
ROOT
ATOM      1  O   UNL     1      54.035  -1.249  12.617  1.00  0.00    -0.313 OA
ENDROOT
BRANCH   1   2
ATOM      2  C   UNL     1      54.084  -2.284  13.601  1.00  0.00     0.285 C 
ATOM      3  C   UNL     1      55.543  -1.117  15.096  1.00  0.00     0.178 C 
ATOM      4  C   UNL     1      56.695  -2.132  14.880  1.00  0.00     0.177 C 
ATOM      5  O   UNL     1      54.258  -1.698  14.886  1.00  0.00    -0.341 OA
ATOM      6  C   UNL     1      56.567  -2.841  13.525  1.00  0.00     0.179 C 
ATOM      7  C   UNL     1      55.147  -3.387  13.337  1.00  0.00     0.202 C 
BRANCH   3   8
ATOM      8  C   UNL     1      55.718   0.221  14.336  1.00  0.00     0.191 C 
BRANCH   8   9
ATOM      9  O   UNL     1      54.607   1.056  14.530  1.00  0.00    -0.394 OA
ATOM     10  H   UNL     1      54.774   1.880  14.001  1.00  0.00     0.210 HD
ENDBRANCH   8   9
ENDBRANCH   3   8
BRANCH   4  11
ATOM     11  O   UNL     1      57.945  -1.496  14.963  1.00  0.00    -0.387 OA
ATOM     12  H   UNL     1      57.782  -0.527  14.815  1.00  0.00     0.211 HD
ENDBRANCH   4  11
BRANCH   6  13
ATOM     13  O   UNL     1      57.489  -3.896  13.437  1.00  0.00    -0.387 OA
ATOM     14  H   UNL     1      57.815  -4.074  14.359  1.00  0.00     0.211 HD
ENDBRANCH   6  13
BRANCH   7  15
ATOM     15  O   UNL     1      54.924  -4.511  14.159  1.00  0.00    -0.385 OA
ATOM     16  H   UNL     1      53.946  -4.678  14.211  1.00  0.00     0.211 HD
ENDBRANCH   7  15
ENDBRANCH   1   2
BRANCH   1  17
ATOM     17  C   UNL     1      52.808  -1.034  11.909  1.00  0.00     0.224 C 
ATOM     18  C   UNL     1      53.166  -1.149  10.399  1.00  0.00     0.208 C 
ATOM     19  O   UNL     1      51.913  -2.096  12.218  1.00  0.00    -0.337 OA
ATOM     20  C   UNL     1      52.909  -2.611  10.116  1.00  0.00     0.180 C 
ATOM     21  C   UNL     1      51.759  -2.911  11.073  1.00  0.00     0.179 C 
BRANCH  17  22
ATOM     22  C   UNL     1      52.114   0.328  12.220  1.00  0.00     0.225 C 
BRANCH  22  23
ATOM     23  O   UNL     1      53.002   1.401  12.022  1.00  0.00    -0.391 OA
ATOM     24  H   UNL     1      53.810   1.231  12.582  1.00  0.00     0.210 HD
ENDBRANCH  22  23
ENDBRANCH  17  22
BRANCH  18  25
ATOM     25  O   UNL     1      52.405  -0.305   9.561  1.00  0.00    -0.385 OA
ATOM     26  H   UNL     1      51.571  -0.054  10.034  1.00  0.00     0.211 HD
ENDBRANCH  18  25
BRANCH  20  27
ATOM     27  O   UNL     1      52.622  -2.885   8.764  1.00  0.00    -0.387 OA
ATOM     28  H   UNL     1      51.642  -2.991   8.654  1.00  0.00     0.211 HD
ENDBRANCH  20  27
BRANCH  21  29
ATOM     29  C   UNL     1      51.675  -4.392  11.461  1.00  0.00     0.191 C 
BRANCH  29  30
ATOM     30  O   UNL     1      50.825  -4.578  12.558  1.00  0.00    -0.394 OA
ATOM     31  H   UNL     1      50.907  -5.534  12.805  1.00  0.00     0.210 HD
ENDBRANCH  29  30
ENDBRANCH  21  29
ENDBRANCH   1  17
TORSDOF 13
ENDMDL
MODEL 2
REMARK VINA RESULT:    -5.514      2.201      6.261
REMARK INTER + INTRA:          -9.913
REMARK INTER:                  -8.602
REMARK INTRA:                  -1.312
REMARK UNBOUND:                -1.499
REMARK SMILES OC[C@H]1O[C@@H](O[C@]2(CO)O[C@H](CO)[C@@H](O)[C@H]2O)[C@H](O)[C@H](O)[C@H]1O
REMARK SMILES IDX 6 1 5 2 3 3 22 4 4 5 20 6 18 7 2 8 1 9 23 11 21 13 19 15
REMARK SMILES IDX 7 17 16 18 10 19 14 20 11 21 8 22 9 23 17 25 15 27 12 29
REMARK SMILES IDX 13 30
REMARK H PARENT 1 10 23 12 21 14 19 16 9 24 17 26 15 28 13 31
REMARK Flexibility Score: inf
ROOT
ATOM      1  O   UNL     1      52.514  -2.501  10.410  1.00  0.00    -0.313 OA
ENDROOT
BRANCH   1   2
ATOM      2  C   UNL     1      51.613  -3.200   9.550  1.00  0.00     0.285 C 
ATOM      3  C   UNL     1      53.306  -4.429   8.388  1.00  0.00     0.178 C 
ATOM      4  C   UNL     1      53.023  -3.697   7.050  1.00  0.00     0.177 C 
ATOM      5  O   UNL     1      52.162  -4.476   9.237  1.00  0.00    -0.341 OA
ATOM      6  C   UNL     1      52.394  -2.318   7.293  1.00  0.00     0.179 C 
ATOM      7  C   UNL     1      51.210  -2.430   8.261  1.00  0.00     0.202 C 
BRANCH   3   8
ATOM      8  C   UNL     1      54.574  -3.938   9.130  1.00  0.00     0.191 C 
BRANCH   8   9
ATOM      9  O   UNL     1      55.733  -4.254   8.406  1.00  0.00    -0.394 OA
ATOM     10  H   UNL     1      56.448  -4.431   9.072  1.00  0.00     0.210 HD
ENDBRANCH   8   9
ENDBRANCH   3   8
BRANCH   4  11
ATOM     11  O   UNL     1      54.202  -3.552   6.299  1.00  0.00    -0.387 OA
ATOM     12  H   UNL     1      54.312  -4.391   5.777  1.00  0.00     0.211 HD
ENDBRANCH   4  11
BRANCH   6  13
ATOM     13  O   UNL     1      51.956  -1.762   6.080  1.00  0.00    -0.387 OA
ATOM     14  H   UNL     1      51.547  -2.500   5.554  1.00  0.00     0.211 HD
ENDBRANCH   6  13
BRANCH   7  15
ATOM     15  O   UNL     1      50.101  -3.036   7.636  1.00  0.00    -0.385 OA
ATOM     16  H   UNL     1      50.299  -3.139   6.668  1.00  0.00     0.211 HD
ENDBRANCH   7  15
ENDBRANCH   1   2
BRANCH   1  17
ATOM     17  C   UNL     1      52.159  -2.341  11.789  1.00  0.00     0.224 C 
ATOM     18  C   UNL     1      53.492  -2.457  12.585  1.00  0.00     0.208 C 
ATOM     19  O   UNL     1      51.660  -1.023  11.980  1.00  0.00    -0.337 OA
ATOM     20  C   UNL     1      53.938  -1.017  12.679  1.00  0.00     0.180 C 
ATOM     21  C   UNL     1      52.601  -0.284  12.735  1.00  0.00     0.179 C 
BRANCH  17  22
ATOM     22  C   UNL     1      51.105  -3.368  12.307  1.00  0.00     0.225 C 
BRANCH  22  23
ATOM     23  O   UNL     1      51.676  -4.645  12.453  1.00  0.00    -0.391 OA
ATOM     24  H   UNL     1      52.255  -4.625  13.265  1.00  0.00     0.210 HD
ENDBRANCH  22  23
ENDBRANCH  17  22
BRANCH  18  25
ATOM     25  O   UNL     1      53.352  -3.054  13.858  1.00  0.00    -0.385 OA
ATOM     26  H   UNL     1      53.139  -2.348  14.520  1.00  0.00     0.211 HD
ENDBRANCH  18  25
BRANCH  20  27
ATOM     27  O   UNL     1      54.786  -0.756  13.775  1.00  0.00    -0.387 OA
ATOM     28  H   UNL     1      54.391  -1.153  14.593  1.00  0.00     0.211 HD
ENDBRANCH  20  27
BRANCH  21  29
ATOM     29  C   UNL     1      52.691   1.163  12.236  1.00  0.00     0.191 C 
BRANCH  29  30
ATOM     30  O   UNL     1      54.019   1.526  11.982  1.00  0.00    -0.394 OA
ATOM     31  H   UNL     1      54.108   1.556  10.996  1.00  0.00     0.210 HD
ENDBRANCH  29  30
ENDBRANCH  21  29
ENDBRANCH   1  17
TORSDOF 13
ENDMDL
MODEL 3
REMARK VINA RESULT:    -5.414      4.152      8.024
REMARK INTER + INTRA:          -9.761
REMARK INTER:                  -8.328
REMARK INTRA:                  -1.433
REMARK UNBOUND:                -1.499
REMARK SMILES OC[C@H]1O[C@@H](O[C@]2(CO)O[C@H](CO)[C@@H](O)[C@H]2O)[C@H](O)[C@H](O)[C@H]1O
REMARK SMILES IDX 6 1 5 2 3 3 22 4 4 5 20 6 18 7 2 8 1 9 23 11 21 13 19 15
REMARK SMILES IDX 7 17 16 18 10 19 14 20 11 21 8 22 9 23 17 25 15 27 12 29
REMARK SMILES IDX 13 30
REMARK H PARENT 1 10 23 12 21 14 19 16 9 24 17 26 15 28 13 31
REMARK Flexibility Score: inf
ROOT
ATOM      1  O   UNL     1      57.062  -0.825  17.781  1.00  0.00    -0.313 OA
ENDROOT
BRANCH   1   2
ATOM      2  C   UNL     1      57.376  -0.308  16.487  1.00  0.00     0.285 C 
ATOM      3  C   UNL     1      55.119  -0.280  15.692  1.00  0.00     0.178 C 
ATOM      4  C   UNL     1      55.402  -1.377  14.632  1.00  0.00     0.177 C 
ATOM      5  O   UNL     1      56.283   0.475  16.019  1.00  0.00    -0.341 OA
ATOM      6  C   UNL     1      56.595  -2.252  15.041  1.00  0.00     0.179 C 
ATOM      7  C   UNL     1      57.790  -1.378  15.438  1.00  0.00     0.202 C 
BRANCH   3   8
ATOM      8  C   UNL     1      54.369  -0.785  16.950  1.00  0.00     0.191 C 
BRANCH   8   9
ATOM      9  O   UNL     1      54.199   0.252  17.880  1.00  0.00    -0.394 OA
ATOM     10  H   UNL     1      53.490  -0.044  18.511  1.00  0.00     0.210 HD
ENDBRANCH   8   9
ENDBRANCH   3   8
BRANCH   4  11
ATOM     11  O   UNL     1      54.270  -2.185  14.434  1.00  0.00    -0.387 OA
ATOM     12  H   UNL     1      54.601  -3.114  14.312  1.00  0.00     0.211 HD
ENDBRANCH   4  11
BRANCH   6  13
ATOM     13  O   UNL     1      56.964  -3.097  13.982  1.00  0.00    -0.387 OA
ATOM     14  H   UNL     1      56.636  -4.007  14.208  1.00  0.00     0.211 HD
ENDBRANCH   6  13
BRANCH   7  15
ATOM     15  O   UNL     1      58.377  -0.777  14.306  1.00  0.00    -0.385 OA
ATOM     16  H   UNL     1      59.234  -0.356  14.578  1.00  0.00     0.211 HD
ENDBRANCH   7  15
ENDBRANCH   1   2
BRANCH   1  17
ATOM     17  C   UNL     1      57.913  -0.480  18.881  1.00  0.00     0.224 C 
ATOM     18  C   UNL     1      57.047  -0.668  20.161  1.00  0.00     0.208 C 
ATOM     19  O   UNL     1      58.978  -1.420  18.944  1.00  0.00    -0.337 OA
ATOM     20  C   UNL     1      57.354  -2.093  20.552  1.00  0.00     0.180 C 
ATOM     21  C   UNL     1      58.800  -2.234  20.086  1.00  0.00     0.179 C 
BRANCH  17  22
ATOM     22  C   UNL     1      58.505   0.962  18.811  1.00  0.00     0.225 C 
BRANCH  22  23
ATOM     23  O   UNL     1      59.571   1.113  19.716  1.00  0.00    -0.391 OA
ATOM     24  H   UNL     1      60.240   1.723  19.295  1.00  0.00     0.210 HD
ENDBRANCH  22  23
ENDBRANCH  17  22
BRANCH  18  25
ATOM     25  O   UNL     1      57.346   0.245  21.197  1.00  0.00    -0.385 OA
ATOM     26  H   UNL     1      57.796  -0.244  21.932  1.00  0.00     0.211 HD
ENDBRANCH  18  25
BRANCH  20  27
ATOM     27  O   UNL     1      57.161  -2.360  21.923  1.00  0.00    -0.387 OA
ATOM     28  H   UNL     1      56.677  -1.600  22.338  1.00  0.00     0.211 HD
ENDBRANCH  20  27
BRANCH  21  29
ATOM     29  C   UNL     1      59.195  -3.687  19.792  1.00  0.00     0.191 C 
BRANCH  29  30
ATOM     30  O   UNL     1      58.319  -4.583  20.417  1.00  0.00    -0.394 OA
ATOM     31  H   UNL     1      57.424  -4.399  20.033  1.00  0.00     0.210 HD
ENDBRANCH  29  30
ENDBRANCH  21  29
ENDBRANCH   1  17
TORSDOF 13
ENDMDL
MODEL 4
REMARK VINA RESULT:    -5.331      1.834      4.883
REMARK INTER + INTRA:          -9.635
REMARK INTER:                  -7.990
REMARK INTRA:                  -1.645
REMARK UNBOUND:                -1.499
REMARK SMILES OC[C@H]1O[C@@H](O[C@]2(CO)O[C@H](CO)[C@@H](O)[C@H]2O)[C@H](O)[C@H](O)[C@H]1O
REMARK SMILES IDX 6 1 5 2 3 3 22 4 4 5 20 6 18 7 2 8 1 9 23 11 21 13 19 15
REMARK SMILES IDX 7 17 16 18 10 19 14 20 11 21 8 22 9 23 17 25 15 27 12 29
REMARK SMILES IDX 13 30
REMARK H PARENT 1 10 23 12 21 14 19 16 9 24 17 26 15 28 13 31
REMARK Flexibility Score: inf
ROOT
ATOM      1  O   UNL     1      53.434  -1.226  11.823  1.00  0.00    -0.313 OA
ENDROOT
BRANCH   1   2
ATOM      2  C   UNL     1      52.843  -0.251  12.684  1.00  0.00     0.285 C 
ATOM      3  C   UNL     1      51.846   1.037  10.931  1.00  0.00     0.178 C 
ATOM      4  C   UNL     1      52.759   2.259  11.211  1.00  0.00     0.177 C 
ATOM      5  O   UNL     1      51.643   0.232  12.089  1.00  0.00    -0.341 OA
ATOM      6  C   UNL     1      54.069   1.833  11.888  1.00  0.00     0.179 C 
ATOM      7  C   UNL     1      53.781   0.921  13.086  1.00  0.00     0.202 C 
BRANCH   3   8
ATOM      8  C   UNL     1      52.260   0.200   9.694  1.00  0.00     0.191 C 
BRANCH   8   9
ATOM      9  O   UNL     1      51.523  -0.993   9.627  1.00  0.00    -0.394 OA
ATOM     10  H   UNL     1      51.215  -1.086   8.688  1.00  0.00     0.210 HD
ENDBRANCH   8   9
ENDBRANCH   3   8
BRANCH   4  11
ATOM     11  O   UNL     1      53.046   2.953  10.023  1.00  0.00    -0.387 OA
ATOM     12  H   UNL     1      53.244   3.891  10.282  1.00  0.00     0.211 HD
ENDBRANCH   4  11
BRANCH   6  13
ATOM     13  O   UNL     1      54.783   2.962  12.320  1.00  0.00    -0.387 OA
ATOM     14  H   UNL     1      54.117   3.608  12.676  1.00  0.00     0.211 HD
ENDBRANCH   6  13
BRANCH   7  15
ATOM     15  O   UNL     1      53.242   1.655  14.163  1.00  0.00    -0.385 OA
ATOM     16  H   UNL     1      53.946   1.769  14.854  1.00  0.00     0.211 HD
ENDBRANCH   7  15
ENDBRANCH   1   2
BRANCH   1  17
ATOM     17  C   UNL     1      53.648  -2.548  12.332  1.00  0.00     0.224 C 
ATOM     18  C   UNL     1      52.298  -2.977  12.977  1.00  0.00     0.208 C 
ATOM     19  O   UNL     1      53.894  -3.422  11.236  1.00  0.00    -0.337 OA
ATOM     20  C   UNL     1      51.603  -3.680  11.836  1.00  0.00     0.180 C 
ATOM     21  C   UNL     1      52.784  -4.284  11.082  1.00  0.00     0.179 C 
BRANCH  17  22
ATOM     22  C   UNL     1      54.821  -2.665  13.353  1.00  0.00     0.225 C 
BRANCH  22  23
ATOM     23  O   UNL     1      55.100  -4.011  13.649  1.00  0.00    -0.391 OA
ATOM     24  H   UNL     1      54.289  -4.397  14.086  1.00  0.00     0.210 HD
ENDBRANCH  22  23
ENDBRANCH  17  22
BRANCH  18  25
ATOM     25  O   UNL     1      52.441  -3.812  14.108  1.00  0.00    -0.385 OA
ATOM     26  H   UNL     1      52.555  -3.244  14.912  1.00  0.00     0.211 HD
ENDBRANCH  18  25
BRANCH  20  27
ATOM     27  O   UNL     1      50.640  -4.623  12.252  1.00  0.00    -0.387 OA
ATOM     28  H   UNL     1      49.766  -4.398  11.841  1.00  0.00     0.211 HD
ENDBRANCH  20  27
BRANCH  21  29
ATOM     29  C   UNL     1      52.483  -4.533   9.599  1.00  0.00     0.191 C 
BRANCH  29  30
ATOM     30  O   UNL     1      51.332  -3.845   9.197  1.00  0.00    -0.394 OA
ATOM     31  H   UNL     1      51.559  -2.882   9.251  1.00  0.00     0.210 HD
ENDBRANCH  29  30
ENDBRANCH  21  29
ENDBRANCH   1  17
TORSDOF 13
ENDMDL
MODEL 5
REMARK VINA RESULT:    -5.224      9.113     12.782
REMARK INTER + INTRA:          -9.472
REMARK INTER:                  -8.301
REMARK INTRA:                  -1.171
REMARK UNBOUND:                -1.499
REMARK SMILES OC[C@H]1O[C@@H](O[C@]2(CO)O[C@H](CO)[C@@H](O)[C@H]2O)[C@H](O)[C@H](O)[C@H]1O
REMARK SMILES IDX 6 1 5 2 3 3 22 4 4 5 20 6 18 7 2 8 1 9 23 11 21 13 19 15
REMARK SMILES IDX 7 17 16 18 10 19 14 20 11 21 8 22 9 23 17 25 15 27 12 29
REMARK SMILES IDX 13 30
REMARK H PARENT 1 10 23 12 21 14 19 16 9 24 17 26 15 28 13 31
REMARK Flexibility Score: inf
ROOT
ATOM      1  O   UNL     1      60.108  -2.419  22.979  1.00  0.00    -0.313 OA
ENDROOT
BRANCH   1   2
ATOM      2  C   UNL     1      60.119  -2.501  21.553  1.00  0.00     0.285 C 
ATOM      3  C   UNL     1      58.064  -1.316  21.235  1.00  0.00     0.178 C 
ATOM      4  C   UNL     1      57.343  -2.570  20.674  1.00  0.00     0.177 C 
ATOM      5  O   UNL     1      59.472  -1.353  21.015  1.00  0.00    -0.341 OA
ATOM      6  C   UNL     1      58.001  -3.862  21.178  1.00  0.00     0.179 C 
ATOM      7  C   UNL     1      59.519  -3.810  20.968  1.00  0.00     0.202 C 
BRANCH   3   8
ATOM      8  C   UNL     1      57.703  -0.974  22.703  1.00  0.00     0.191 C 
BRANCH   8   9
ATOM      9  O   UNL     1      58.499   0.078  23.182  1.00  0.00    -0.394 OA
ATOM     10  H   UNL     1      58.380   0.836  22.551  1.00  0.00     0.210 HD
ENDBRANCH   8   9
ENDBRANCH   3   8
BRANCH   4  11
ATOM     11  O   UNL     1      55.983  -2.565  21.025  1.00  0.00    -0.387 OA
ATOM     12  H   UNL     1      55.944  -2.632  22.016  1.00  0.00     0.211 HD
ENDBRANCH   4  11
BRANCH   6  13
ATOM     13  O   UNL     1      57.473  -4.974  20.501  1.00  0.00    -0.387 OA
ATOM     14  H   UNL     1      58.245  -5.506  20.172  1.00  0.00     0.211 HD
ENDBRANCH   6  13
BRANCH   7  15
ATOM     15  O   UNL     1      59.846  -3.951  19.604  1.00  0.00    -0.385 OA
ATOM     16  H   UNL     1      59.193  -3.432  19.065  1.00  0.00     0.211 HD
ENDBRANCH   7  15
ENDBRANCH   1   2
BRANCH   1  17
ATOM     17  C   UNL     1      61.361  -2.347  23.671  1.00  0.00     0.224 C 
ATOM     18  C   UNL     1      61.503  -3.698  24.430  1.00  0.00     0.208 C 
ATOM     19  O   UNL     1      62.408  -2.284  22.710  1.00  0.00    -0.337 OA
ATOM     20  C   UNL     1      62.261  -4.548  23.438  1.00  0.00     0.180 C 
ATOM     21  C   UNL     1      63.123  -3.503  22.734  1.00  0.00     0.179 C 
BRANCH  17  22
ATOM     22  C   UNL     1      61.488  -1.137  24.648  1.00  0.00     0.225 C 
BRANCH  22  23
ATOM     23  O   UNL     1      61.408   0.082  23.952  1.00  0.00    -0.391 OA
ATOM     24  H   UNL     1      60.504   0.469  24.126  1.00  0.00     0.210 HD
ENDBRANCH  22  23
ENDBRANCH  17  22
BRANCH  18  25
ATOM     25  O   UNL     1      62.179  -3.595  25.666  1.00  0.00    -0.385 OA
ATOM     26  H   UNL     1      62.367  -2.639  25.848  1.00  0.00     0.211 HD
ENDBRANCH  18  25
BRANCH  20  27
ATOM     27  O   UNL     1      62.993  -5.596  24.031  1.00  0.00    -0.387 OA
ATOM     28  H   UNL     1      63.749  -5.214  24.547  1.00  0.00     0.211 HD
ENDBRANCH  20  27
BRANCH  21  29
ATOM     29  C   UNL     1      63.538  -3.925  21.320  1.00  0.00     0.191 C 
BRANCH  29  30
ATOM     30  O   UNL     1      64.723  -3.289  20.932  1.00  0.00    -0.394 OA
ATOM     31  H   UNL     1      64.514  -2.818  20.086  1.00  0.00     0.210 HD
ENDBRANCH  29  30
ENDBRANCH  21  29
ENDBRANCH   1  17
TORSDOF 13
ENDMDL
MODEL 6
REMARK VINA RESULT:    -5.213      1.955      5.381
REMARK INTER + INTRA:          -9.455
REMARK INTER:                  -8.058
REMARK INTRA:                  -1.397
REMARK UNBOUND:                -1.499
REMARK SMILES OC[C@H]1O[C@@H](O[C@]2(CO)O[C@H](CO)[C@@H](O)[C@H]2O)[C@H](O)[C@H](O)[C@H]1O
REMARK SMILES IDX 6 1 5 2 3 3 22 4 4 5 20 6 18 7 2 8 1 9 23 11 21 13 19 15
REMARK SMILES IDX 7 17 16 18 10 19 14 20 11 21 8 22 9 23 17 25 15 27 12 29
REMARK SMILES IDX 13 30
REMARK H PARENT 1 10 23 12 21 14 19 16 9 24 17 26 15 28 13 31
REMARK Flexibility Score: inf
ROOT
ATOM      1  O   UNL     1      53.050  -0.498  12.751  1.00  0.00    -0.313 OA
ENDROOT
BRANCH   1   2
ATOM      2  C   UNL     1      53.572  -1.827  12.706  1.00  0.00     0.285 C 
ATOM      3  C   UNL     1      53.022  -2.216  10.409  1.00  0.00     0.178 C 
ATOM      4  C   UNL     1      51.982  -3.309  10.768  1.00  0.00     0.177 C 
ATOM      5  O   UNL     1      54.048  -2.097  11.392  1.00  0.00    -0.341 OA
ATOM      6  C   UNL     1      51.437  -3.115  12.190  1.00  0.00     0.179 C 
ATOM      7  C   UNL     1      52.589  -2.932  13.185  1.00  0.00     0.202 C 
BRANCH   3   8
ATOM      8  C   UNL     1      52.405  -0.846  10.029  1.00  0.00     0.191 C 
BRANCH   8   9
ATOM      9  O   UNL     1      52.136  -0.783   8.654  1.00  0.00    -0.394 OA
ATOM     10  H   UNL     1      52.986  -0.529   8.207  1.00  0.00     0.210 HD
ENDBRANCH   8   9
ENDBRANCH   3   8
BRANCH   4  11
ATOM     11  O   UNL     1      50.917  -3.307   9.851  1.00  0.00    -0.387 OA
ATOM     12  H   UNL     1      51.168  -3.933   9.121  1.00  0.00     0.211 HD
ENDBRANCH   4  11
BRANCH   6  13
ATOM     13  O   UNL     1      50.663  -4.223  12.570  1.00  0.00    -0.387 OA
ATOM     14  H   UNL     1      49.983  -3.894  13.216  1.00  0.00     0.211 HD
ENDBRANCH   6  13
BRANCH   7  15
ATOM     15  O   UNL     1      53.266  -4.149  13.406  1.00  0.00    -0.385 OA
ATOM     16  H   UNL     1      53.299  -4.654  12.552  1.00  0.00     0.211 HD
ENDBRANCH   7  15
ENDBRANCH   1   2
BRANCH   1  17
ATOM     17  C   UNL     1      53.922   0.567  13.148  1.00  0.00     0.224 C 
ATOM     18  C   UNL     1      53.133   1.387  14.210  1.00  0.00     0.208 C 
ATOM     19  O   UNL     1      55.058   0.007  13.797  1.00  0.00    -0.337 OA
ATOM     20  C   UNL     1      53.565   0.740  15.504  1.00  0.00     0.180 C 
ATOM     21  C   UNL     1      54.995   0.320  15.174  1.00  0.00     0.179 C 
BRANCH  17  22
ATOM     22  C   UNL     1      54.400   1.480  11.975  1.00  0.00     0.225 C 
BRANCH  22  23
ATOM     23  O   UNL     1      55.581   2.162  12.318  1.00  0.00    -0.391 OA
ATOM     24  H   UNL     1      55.431   2.597  13.204  1.00  0.00     0.210 HD
ENDBRANCH  22  23
ENDBRANCH  17  22
BRANCH  18  25
ATOM     25  O   UNL     1      53.410   2.772  14.190  1.00  0.00    -0.385 OA
ATOM     26  H   UNL     1      53.341   3.098  13.256  1.00  0.00     0.211 HD
ENDBRANCH  18  25
BRANCH  20  27
ATOM     27  O   UNL     1      53.457   1.587  16.626  1.00  0.00    -0.387 OA
ATOM     28  H   UNL     1      52.622   1.373  17.116  1.00  0.00     0.211 HD
ENDBRANCH  20  27
BRANCH  21  29
ATOM     29  C   UNL     1      55.484  -0.857  16.027  1.00  0.00     0.191 C 
BRANCH  29  30
ATOM     30  O   UNL     1      54.496  -1.271  16.928  1.00  0.00    -0.394 OA
ATOM     31  H   UNL     1      53.756  -0.618  16.837  1.00  0.00     0.210 HD
ENDBRANCH  29  30
ENDBRANCH  21  29
ENDBRANCH   1  17
TORSDOF 13
ENDMDL
MODEL 7
REMARK VINA RESULT:    -5.199      5.875      9.831
REMARK INTER + INTRA:          -9.433
REMARK INTER:                  -8.081
REMARK INTRA:                  -1.352
REMARK UNBOUND:                -1.499
REMARK SMILES OC[C@H]1O[C@@H](O[C@]2(CO)O[C@H](CO)[C@@H](O)[C@H]2O)[C@H](O)[C@H](O)[C@H]1O
REMARK SMILES IDX 6 1 5 2 3 3 22 4 4 5 20 6 18 7 2 8 1 9 23 11 21 13 19 15
REMARK SMILES IDX 7 17 16 18 10 19 14 20 11 21 8 22 9 23 17 25 15 27 12 29
REMARK SMILES IDX 13 30
REMARK H PARENT 1 10 23 12 21 14 19 16 9 24 17 26 15 28 13 31
REMARK Flexibility Score: inf
ROOT
ATOM      1  O   UNL     1      57.536  -1.188  19.684  1.00  0.00    -0.313 OA
ENDROOT
BRANCH   1   2
ATOM      2  C   UNL     1      57.304   0.177  20.035  1.00  0.00     0.285 C 
ATOM      3  C   UNL     1      55.508   0.515  18.490  1.00  0.00     0.178 C 
ATOM      4  C   UNL     1      56.327   1.525  17.646  1.00  0.00     0.177 C 
ATOM      5  O   UNL     1      55.925   0.478  19.853  1.00  0.00    -0.341 OA
ATOM      6  C   UNL     1      57.836   1.295  17.810  1.00  0.00     0.179 C 
ATOM      7  C   UNL     1      58.206   1.205  19.295  1.00  0.00     0.202 C 
BRANCH   3   8
ATOM      8  C   UNL     1      55.400  -0.900  17.867  1.00  0.00     0.191 C 
BRANCH   8   9
ATOM      9  O   UNL     1      54.287  -0.990  17.018  1.00  0.00    -0.394 OA
ATOM     10  H   UNL     1      53.893  -1.891  17.157  1.00  0.00     0.210 HD
ENDBRANCH   8   9
ENDBRANCH   3   8
BRANCH   4  11
ATOM     11  O   UNL     1      55.983   1.438  16.286  1.00  0.00    -0.387 OA
ATOM     12  H   UNL     1      55.112   0.960  16.243  1.00  0.00     0.211 HD
ENDBRANCH   4  11
BRANCH   6  13
ATOM     13  O   UNL     1      58.557   2.341  17.211  1.00  0.00    -0.387 OA
ATOM     14  H   UNL     1      59.462   1.988  17.004  1.00  0.00     0.211 HD
ENDBRANCH   6  13
BRANCH   7  15
ATOM     15  O   UNL     1      58.141   2.471  19.911  1.00  0.00    -0.385 OA
ATOM     16  H   UNL     1      58.466   3.154  19.268  1.00  0.00     0.211 HD
ENDBRANCH   7  15
ENDBRANCH   1   2
BRANCH   1  17
ATOM     17  C   UNL     1      57.415  -2.188  20.703  1.00  0.00     0.224 C 
ATOM     18  C   UNL     1      58.404  -3.321  20.304  1.00  0.00     0.208 C 
ATOM     19  O   UNL     1      57.868  -1.638  21.935  1.00  0.00    -0.337 OA
ATOM     20  C   UNL     1      59.662  -2.925  21.039  1.00  0.00     0.180 C 
ATOM     21  C   UNL     1      59.092  -2.254  22.285  1.00  0.00     0.179 C 
BRANCH  17  22
ATOM     22  C   UNL     1      55.969  -2.744  20.891  1.00  0.00     0.225 C 
BRANCH  22  23
ATOM     23  O   UNL     1      55.175  -1.844  21.625  1.00  0.00    -0.391 OA
ATOM     24  H   UNL     1      54.228  -1.976  21.339  1.00  0.00     0.210 HD
ENDBRANCH  22  23
ENDBRANCH  17  22
BRANCH  18  25
ATOM     25  O   UNL     1      57.967  -4.617  20.658  1.00  0.00    -0.385 OA
ATOM     26  H   UNL     1      57.865  -5.156  19.832  1.00  0.00     0.211 HD
ENDBRANCH  18  25
BRANCH  20  27
ATOM     27  O   UNL     1      60.526  -4.007  21.310  1.00  0.00    -0.387 OA
ATOM     28  H   UNL     1      61.215  -3.718  21.961  1.00  0.00     0.211 HD
ENDBRANCH  20  27
BRANCH  21  29
ATOM     29  C   UNL     1      60.056  -1.241  22.914  1.00  0.00     0.191 C 
BRANCH  29  30
ATOM     30  O   UNL     1      61.296  -1.830  23.188  1.00  0.00    -0.394 OA
ATOM     31  H   UNL     1      61.122  -2.518  23.880  1.00  0.00     0.210 HD
ENDBRANCH  29  30
ENDBRANCH  21  29
ENDBRANCH   1  17
TORSDOF 13
ENDMDL
MODEL 8
REMARK VINA RESULT:    -5.114      6.920     10.021
REMARK INTER + INTRA:          -9.303
REMARK INTER:                  -7.643
REMARK INTRA:                  -1.661
REMARK UNBOUND:                -1.499
REMARK SMILES OC[C@H]1O[C@@H](O[C@]2(CO)O[C@H](CO)[C@@H](O)[C@H]2O)[C@H](O)[C@H](O)[C@H]1O
REMARK SMILES IDX 6 1 5 2 3 3 22 4 4 5 20 6 18 7 2 8 1 9 23 11 21 13 19 15
REMARK SMILES IDX 7 17 16 18 10 19 14 20 11 21 8 22 9 23 17 25 15 27 12 29
REMARK SMILES IDX 13 30
REMARK H PARENT 1 10 23 12 21 14 19 16 9 24 17 26 15 28 13 31
REMARK Flexibility Score: inf
ROOT
ATOM      1  O   UNL     1      59.064  -1.329  21.125  1.00  0.00    -0.313 OA
ENDROOT
BRANCH   1   2
ATOM      2  C   UNL     1      58.711  -2.710  21.036  1.00  0.00     0.285 C 
ATOM      3  C   UNL     1      60.002  -3.405  22.928  1.00  0.00     0.178 C 
ATOM      4  C   UNL     1      60.970  -4.242  22.052  1.00  0.00     0.177 C 
ATOM      5  O   UNL     1      58.708  -3.277  22.342  1.00  0.00    -0.341 OA
ATOM      6  C   UNL     1      61.009  -3.720  20.609  1.00  0.00     0.179 C 
ATOM      7  C   UNL     1      59.587  -3.548  20.062  1.00  0.00     0.202 C 
BRANCH   3   8
ATOM      8  C   UNL     1      60.576  -2.043  23.394  1.00  0.00     0.191 C 
BRANCH   8   9
ATOM      9  O   UNL     1      59.666  -1.374  24.225  1.00  0.00    -0.394 OA
ATOM     10  H   UNL     1      59.115  -2.072  24.667  1.00  0.00     0.210 HD
ENDBRANCH   8   9
ENDBRANCH   3   8
BRANCH   4  11
ATOM     11  O   UNL     1      62.267  -4.235  22.592  1.00  0.00    -0.387 OA
ATOM     12  H   UNL     1      62.232  -4.776  23.424  1.00  0.00     0.211 HD
ENDBRANCH   4  11
BRANCH   6  13
ATOM     13  O   UNL     1      61.721  -4.610  19.789  1.00  0.00    -0.387 OA
ATOM     14  H   UNL     1      61.464  -5.529  20.066  1.00  0.00     0.211 HD
ENDBRANCH   6  13
BRANCH   7  15
ATOM     15  O   UNL     1      58.992  -4.798  19.794  1.00  0.00    -0.385 OA
ATOM     16  H   UNL     1      58.300  -4.676  19.093  1.00  0.00     0.211 HD
ENDBRANCH   7  15
ENDBRANCH   1   2
BRANCH   1  17
ATOM     17  C   UNL     1      58.038  -0.346  20.939  1.00  0.00     0.224 C 
ATOM     18  C   UNL     1      58.776   0.966  20.544  1.00  0.00     0.208 C 
ATOM     19  O   UNL     1      57.232  -0.734  19.832  1.00  0.00    -0.337 OA
ATOM     20  C   UNL     1      58.782   0.891  19.036  1.00  0.00     0.180 C 
ATOM     21  C   UNL     1      57.475   0.154  18.759  1.00  0.00     0.179 C 
BRANCH  17  22
ATOM     22  C   UNL     1      57.124  -0.124  22.185  1.00  0.00     0.225 C 
BRANCH  22  23
ATOM     23  O   UNL     1      57.839   0.489  23.229  1.00  0.00    -0.391 OA
ATOM     24  H   UNL     1      57.231   1.154  23.660  1.00  0.00     0.210 HD
ENDBRANCH  22  23
ENDBRANCH  17  22
BRANCH  18  25
ATOM     25  O   UNL     1      58.150   2.142  21.016  1.00  0.00    -0.385 OA
ATOM     26  H   UNL     1      57.442   2.405  20.374  1.00  0.00     0.211 HD
ENDBRANCH  18  25
BRANCH  20  27
ATOM     27  O   UNL     1      58.880   2.149  18.406  1.00  0.00    -0.387 OA
ATOM     28  H   UNL     1      58.384   2.123  17.548  1.00  0.00     0.211 HD
ENDBRANCH  20  27
BRANCH  21  29
ATOM     29  C   UNL     1      57.480  -0.591  17.419  1.00  0.00     0.191 C 
BRANCH  29  30
ATOM     30  O   UNL     1      57.564   0.303  16.346  1.00  0.00    -0.394 OA
ATOM     31  H   UNL     1      57.513   1.209  16.744  1.00  0.00     0.210 HD
ENDBRANCH  29  30
ENDBRANCH  21  29
ENDBRANCH   1  17
TORSDOF 13
ENDMDL
MODEL 9
REMARK VINA RESULT:    -4.966      4.037      7.910
REMARK INTER + INTRA:          -9.078
REMARK INTER:                  -7.670
REMARK INTRA:                  -1.407
REMARK UNBOUND:                -1.499
REMARK SMILES OC[C@H]1O[C@@H](O[C@]2(CO)O[C@H](CO)[C@@H](O)[C@H]2O)[C@H](O)[C@H](O)[C@H]1O
REMARK SMILES IDX 6 1 5 2 3 3 22 4 4 5 20 6 18 7 2 8 1 9 23 11 21 13 19 15
REMARK SMILES IDX 7 17 16 18 10 19 14 20 11 21 8 22 9 23 17 25 15 27 12 29
REMARK SMILES IDX 13 30
REMARK H PARENT 1 10 23 12 21 14 19 16 9 24 17 26 15 28 13 31
REMARK Flexibility Score: inf
ROOT
ATOM      1  O   UNL     1      56.702  -0.585  17.874  1.00  0.00    -0.313 OA
ENDROOT
BRANCH   1   2
ATOM      2  C   UNL     1      57.294  -0.193  16.634  1.00  0.00     0.285 C 
ATOM      3  C   UNL     1      55.224   0.221  15.506  1.00  0.00     0.178 C 
ATOM      4  C   UNL     1      55.443  -0.955  14.519  1.00  0.00     0.177 C 
ATOM      5  O   UNL     1      56.451   0.759  15.994  1.00  0.00    -0.341 OA
ATOM      6  C   UNL     1      56.374  -2.019  15.117  1.00  0.00     0.179 C 
ATOM      7  C   UNL     1      57.644  -1.367  15.677  1.00  0.00     0.202 C 
BRANCH   3   8
ATOM      8  C   UNL     1      54.216  -0.079  16.644  1.00  0.00     0.191 C 
BRANCH   8   9
ATOM      9  O   UNL     1      54.086   1.024  17.502  1.00  0.00    -0.394 OA
ATOM     10  H   UNL     1      54.949   1.113  17.985  1.00  0.00     0.210 HD
ENDBRANCH   8   9
ENDBRANCH   3   8
BRANCH   4  11
ATOM     11  O   UNL     1      54.219  -1.546  14.164  1.00  0.00    -0.387 OA
ATOM     12  H   UNL     1      53.883  -2.014  14.974  1.00  0.00     0.211 HD
ENDBRANCH   4  11
BRANCH   6  13
ATOM     13  O   UNL     1      56.726  -2.963  14.139  1.00  0.00    -0.387 OA
ATOM     14  H   UNL     1      57.680  -3.197  14.291  1.00  0.00     0.211 HD
ENDBRANCH   6  13
BRANCH   7  15
ATOM     15  O   UNL     1      58.493  -0.935  14.637  1.00  0.00    -0.385 OA
ATOM     16  H   UNL     1      58.319  -1.492  13.834  1.00  0.00     0.211 HD
ENDBRANCH   7  15
ENDBRANCH   1   2
BRANCH   1  17
ATOM     17  C   UNL     1      57.411  -0.312  19.088  1.00  0.00     0.224 C 
ATOM     18  C   UNL     1      58.250   0.969  18.809  1.00  0.00     0.208 C 
ATOM     19  O   UNL     1      56.468   0.008  20.104  1.00  0.00    -0.337 OA
ATOM     20  C   UNL     1      57.323   2.069  19.269  1.00  0.00     0.180 C 
ATOM     21  C   UNL     1      56.576   1.385  20.410  1.00  0.00     0.179 C 
BRANCH  17  22
ATOM     22  C   UNL     1      58.319  -1.481  19.582  1.00  0.00     0.225 C 
BRANCH  22  23
ATOM     23  O   UNL     1      59.434  -1.642  18.740  1.00  0.00    -0.391 OA
ATOM     24  H   UNL     1      59.406  -0.912  18.060  1.00  0.00     0.210 HD
ENDBRANCH  22  23
ENDBRANCH  17  22
BRANCH  18  25
ATOM     25  O   UNL     1      59.491   1.003  19.484  1.00  0.00    -0.385 OA
ATOM     26  H   UNL     1      60.094   0.330  19.076  1.00  0.00     0.211 HD
ENDBRANCH  18  25
BRANCH  20  27
ATOM     27  O   UNL     1      57.990   3.254  19.644  1.00  0.00    -0.387 OA
ATOM     28  H   UNL     1      58.326   3.710  18.830  1.00  0.00     0.211 HD
ENDBRANCH  20  27
BRANCH  21  29
ATOM     29  C   UNL     1      55.197   1.999  20.675  1.00  0.00     0.191 C 
BRANCH  29  30
ATOM     30  O   UNL     1      54.174   1.105  20.336  1.00  0.00    -0.394 OA
ATOM     31  H   UNL     1      54.131   0.449  21.077  1.00  0.00     0.210 HD
ENDBRANCH  29  30
ENDBRANCH  21  29
ENDBRANCH   1  17
TORSDOF 13
ENDMDL
