MODEL 1
REMARK VINA RESULT:    -3.840      0.000      0.000
REMARK INTER + INTRA:          -6.655
REMARK INTER:                  -6.086
REMARK INTRA:                  -0.570
REMARK UNBOUND:                -0.570
REMARK SMILES CCCCCCCCCCCC(=O)[O-]
REMARK SMILES IDX 7 1 8 2 9 3 10 4 11 5 12 6 13 7 14 8 6 9 5 10 4 11 3 12 2 13
REMARK SMILES IDX 1 14
REMARK H PARENT
REMARK Flexibility Score: inf
ROOT
ATOM      1  C   UNL     1      22.900  21.278  60.116  1.00  0.00     0.000 C 
ENDROOT
BRANCH   1   2
ATOM      2  C   UNL     1      23.554  21.125  58.731  1.00  0.00     0.000 C 
BRANCH   2   3
ATOM      3  C   UNL     1      22.882  20.047  57.869  1.00  0.00     0.000 C 
BRANCH   3   4
ATOM      4  C   UNL     1      23.919  19.295  57.025  1.00  0.00     0.006 C 
BRANCH   4   5
ATOM      5  C   UNL     1      25.004  20.245  56.512  1.00  0.00     0.053 C 
BRANCH   5   6
ATOM      6  C   UNL     1      26.361  19.753  56.906  1.00  0.00     0.041 C 
ATOM      7  O   UNL     1      26.512  19.090  57.966  1.00  0.00    -0.550 OA
ATOM      8  O   UNL     1      27.452  19.983  56.076  1.00  0.00    -0.550 OA
ENDBRANCH   5   6
ENDBRANCH   4   5
ENDBRANCH   3   4
ENDBRANCH   2   3
ENDBRANCH   1   2
BRANCH   1   9
ATOM      9  C   UNL     1      23.866  21.668  61.253  1.00  0.00     0.000 C 
BRANCH   9  10
ATOM     10  C   UNL     1      23.268  21.596  62.672  1.00  0.00    -0.000 C 
BRANCH  10  11
ATOM     11  C   UNL     1      24.282  21.294  63.793  1.00  0.00    -0.000 C 
BRANCH  11  12
ATOM     12  C   UNL     1      25.752  21.578  63.433  1.00  0.00    -0.000 C 
BRANCH  12  13
ATOM     13  C   UNL     1      26.588  20.299  63.294  1.00  0.00    -0.003 C 
ATOM     14  C   UNL     1      25.963  19.146  64.075  1.00  0.00     0.004 C 
ENDBRANCH  12  13
ENDBRANCH  11  12
ENDBRANCH  10  11
ENDBRANCH   9  10
ENDBRANCH   1   9
TORSDOF 10
ENDMDL
MODEL 2
REMARK VINA RESULT:    -3.714      1.126      1.840
REMARK INTER + INTRA:          -6.455
REMARK INTER:                  -5.525
REMARK INTRA:                  -0.930
REMARK UNBOUND:                -0.570
REMARK SMILES CCCCCCCCCCCC(=O)[O-]
REMARK SMILES IDX 7 1 8 2 9 3 10 4 11 5 12 6 13 7 14 8 6 9 5 10 4 11 3 12 2 13
REMARK SMILES IDX 1 14
REMARK H PARENT
REMARK Flexibility Score: inf
ROOT
ATOM      1  C   UNL     1      23.045  22.084  61.359  1.00  0.00     0.000 C 
ENDROOT
BRANCH   1   2
ATOM      2  C   UNL     1      23.608  21.180  60.247  1.00  0.00     0.000 C 
BRANCH   2   3
ATOM      3  C   UNL     1      23.685  21.886  58.886  1.00  0.00     0.000 C 
BRANCH   3   4
ATOM      4  C   UNL     1      25.084  21.748  58.274  1.00  0.00     0.006 C 
BRANCH   4   5
ATOM      5  C   UNL     1      25.062  20.822  57.054  1.00  0.00     0.053 C 
BRANCH   5   6
ATOM      6  C   UNL     1      26.228  19.885  57.087  1.00  0.00     0.041 C 
ATOM      7  O   UNL     1      26.340  19.045  58.018  1.00  0.00    -0.550 OA
ATOM      8  O   UNL     1      27.165  19.906  56.061  1.00  0.00    -0.550 OA
ENDBRANCH   5   6
ENDBRANCH   4   5
ENDBRANCH   3   4
ENDBRANCH   2   3
ENDBRANCH   1   2
BRANCH   1   9
ATOM      9  C   UNL     1      22.952  21.423  62.750  1.00  0.00     0.000 C 
BRANCH   9  10
ATOM     10  C   UNL     1      24.224  21.536  63.613  1.00  0.00    -0.000 C 
BRANCH  10  11
ATOM     11  C   UNL     1      25.121  20.282  63.621  1.00  0.00    -0.000 C 
BRANCH  11  12
ATOM     12  C   UNL     1      26.569  20.517  63.154  1.00  0.00    -0.000 C 
BRANCH  12  13
ATOM     13  C   UNL     1      26.687  21.654  62.129  1.00  0.00    -0.003 C 
ATOM     14  C   UNL     1      27.231  21.140  60.799  1.00  0.00     0.004 C 
ENDBRANCH  12  13
ENDBRANCH  11  12
ENDBRANCH  10  11
ENDBRANCH   9  10
ENDBRANCH   1   9
TORSDOF 10
ENDMDL
MODEL 3
REMARK VINA RESULT:    -3.653      2.239      3.077
REMARK INTER + INTRA:          -6.358
REMARK INTER:                  -5.790
REMARK INTRA:                  -0.569
REMARK UNBOUND:                -0.570
REMARK SMILES CCCCCCCCCCCC(=O)[O-]
REMARK SMILES IDX 7 1 8 2 9 3 10 4 11 5 12 6 13 7 14 8 6 9 5 10 4 11 3 12 2 13
REMARK SMILES IDX 1 14
REMARK H PARENT
REMARK Flexibility Score: inf
ROOT
ATOM      1  C   UNL     1      26.925  20.359  58.774  1.00  0.00     0.000 C 
ENDROOT
BRANCH   1   2
ATOM      2  C   UNL     1      26.945  21.196  57.483  1.00  0.00     0.000 C 
BRANCH   2   3
ATOM      3  C   UNL     1      26.921  20.334  56.212  1.00  0.00     0.000 C 
BRANCH   3   4
ATOM      4  C   UNL     1      25.800  20.783  55.266  1.00  0.00     0.006 C 
BRANCH   4   5
ATOM      5  C   UNL     1      24.837  19.630  54.969  1.00  0.00     0.053 C 
BRANCH   5   6
ATOM      6  C   UNL     1      24.203  19.138  56.232  1.00  0.00     0.041 C 
ATOM      7  O   UNL     1      23.482  19.907  56.920  1.00  0.00    -0.550 OA
ATOM      8  O   UNL     1      24.368  17.815  56.623  1.00  0.00    -0.550 OA
ENDBRANCH   5   6
ENDBRANCH   4   5
ENDBRANCH   3   4
ENDBRANCH   2   3
ENDBRANCH   1   2
BRANCH   1   9
ATOM      9  C   UNL     1      27.471  21.078  60.025  1.00  0.00     0.000 C 
BRANCH   9  10
ATOM     10  C   UNL     1      26.406  21.771  60.896  1.00  0.00    -0.000 C 
BRANCH  10  11
ATOM     11  C   UNL     1      26.714  21.796  62.407  1.00  0.00    -0.000 C 
BRANCH  11  12
ATOM     12  C   UNL     1      25.475  21.818  63.321  1.00  0.00    -0.000 C 
BRANCH  12  13
ATOM     13  C   UNL     1      25.080  20.422  63.822  1.00  0.00    -0.003 C 
ATOM     14  C   UNL     1      26.295  19.502  63.901  1.00  0.00     0.004 C 
ENDBRANCH  12  13
ENDBRANCH  11  12
ENDBRANCH  10  11
ENDBRANCH   9  10
ENDBRANCH   1   9
TORSDOF 10
ENDMDL
MODEL 4
REMARK VINA RESULT:    -3.642      3.307      6.990
REMARK INTER + INTRA:          -6.341
REMARK INTER:                  -5.802
REMARK INTRA:                  -0.539
REMARK UNBOUND:                -0.570
REMARK SMILES CCCCCCCCCCCC(=O)[O-]
REMARK SMILES IDX 7 1 8 2 9 3 10 4 11 5 12 6 13 7 14 8 6 9 5 10 4 11 3 12 2 13
REMARK SMILES IDX 1 14
REMARK H PARENT
REMARK Flexibility Score: inf
ROOT
ATOM      1  C   UNL     1      26.215  20.897  58.731  1.00  0.00     0.000 C 
ENDROOT
BRANCH   1   2
ATOM      2  C   UNL     1      27.407  20.933  59.703  1.00  0.00     0.000 C 
BRANCH   2   3
ATOM      3  C   UNL     1      27.273  22.026  60.773  1.00  0.00     0.000 C 
BRANCH   3   4
ATOM      4  C   UNL     1      26.093  21.738  61.708  1.00  0.00     0.006 C 
BRANCH   4   5
ATOM      5  C   UNL     1      26.573  21.131  63.029  1.00  0.00     0.053 C 
BRANCH   5   6
ATOM      6  C   UNL     1      25.481  20.333  63.668  1.00  0.00     0.041 C 
ATOM      7  O   UNL     1      25.594  19.085  63.785  1.00  0.00    -0.550 OA
ATOM      8  O   UNL     1      24.359  20.975  64.178  1.00  0.00    -0.550 OA
ENDBRANCH   5   6
ENDBRANCH   4   5
ENDBRANCH   3   4
ENDBRANCH   2   3
ENDBRANCH   1   2
BRANCH   1   9
ATOM      9  C   UNL     1      26.310  19.829  57.622  1.00  0.00     0.000 C 
BRANCH   9  10
ATOM     10  C   UNL     1      27.047  20.278  56.345  1.00  0.00    -0.000 C 
BRANCH  10  11
ATOM     11  C   UNL     1      26.139  20.552  55.130  1.00  0.00    -0.000 C 
BRANCH  11  12
ATOM     12  C   UNL     1      24.665  20.146  55.315  1.00  0.00    -0.000 C 
BRANCH  12  13
ATOM     13  C   UNL     1      24.319  18.826  54.614  1.00  0.00    -0.003 C 
ATOM     14  C   UNL     1      23.830  17.783  55.615  1.00  0.00     0.004 C 
ENDBRANCH  12  13
ENDBRANCH  11  12
ENDBRANCH  10  11
ENDBRANCH   9  10
ENDBRANCH   1   9
TORSDOF 10
ENDMDL
MODEL 5
REMARK VINA RESULT:    -3.620      1.582      3.271
REMARK INTER + INTRA:          -6.305
REMARK INTER:                  -5.353
REMARK INTRA:                  -0.952
REMARK UNBOUND:                -0.570
REMARK SMILES CCCCCCCCCCCC(=O)[O-]
REMARK SMILES IDX 7 1 8 2 9 3 10 4 11 5 12 6 13 7 14 8 6 9 5 10 4 11 3 12 2 13
REMARK SMILES IDX 1 14
REMARK H PARENT
REMARK Flexibility Score: inf
ROOT
ATOM      1  C   UNL     1      26.650  21.612  61.858  1.00  0.00     0.000 C 
ENDROOT
BRANCH   1   2
ATOM      2  C   UNL     1      27.401  21.117  60.609  1.00  0.00     0.000 C 
BRANCH   2   3
ATOM      3  C   UNL     1      26.770  21.610  59.299  1.00  0.00     0.000 C 
BRANCH   3   4
ATOM      4  C   UNL     1      26.666  20.471  58.277  1.00  0.00     0.006 C 
BRANCH   4   5
ATOM      5  C   UNL     1      25.785  20.874  57.092  1.00  0.00     0.053 C 
BRANCH   5   6
ATOM      6  C   UNL     1      26.230  20.176  55.846  1.00  0.00     0.041 C 
ATOM      7  O   UNL     1      25.394  19.568  55.127  1.00  0.00    -0.550 OA
ATOM      8  O   UNL     1      27.561  20.238  55.453  1.00  0.00    -0.550 OA
ENDBRANCH   5   6
ENDBRANCH   4   5
ENDBRANCH   3   4
ENDBRANCH   2   3
ENDBRANCH   1   2
BRANCH   1   9
ATOM      9  C   UNL     1      26.554  20.589  63.009  1.00  0.00     0.000 C 
BRANCH   9  10
ATOM     10  C   UNL     1      25.126  20.318  63.523  1.00  0.00    -0.000 C 
BRANCH  10  11
ATOM     11  C   UNL     1      24.194  21.546  63.537  1.00  0.00    -0.000 C 
BRANCH  11  12
ATOM     12  C   UNL     1      22.974  21.445  62.602  1.00  0.00    -0.000 C 
BRANCH  12  13
ATOM     13  C   UNL     1      23.207  22.121  61.244  1.00  0.00    -0.003 C 
ATOM     14  C   UNL     1      23.265  21.091  60.120  1.00  0.00     0.004 C 
ENDBRANCH  12  13
ENDBRANCH  11  12
ENDBRANCH  10  11
ENDBRANCH   9  10
ENDBRANCH   1   9
TORSDOF 10
ENDMDL
MODEL 6
REMARK VINA RESULT:    -3.611      1.778      2.460
REMARK INTER + INTRA:          -6.292
REMARK INTER:                  -5.454
REMARK INTRA:                  -0.838
REMARK UNBOUND:                -0.570
REMARK SMILES CCCCCCCCCCCC(=O)[O-]
REMARK SMILES IDX 7 1 8 2 9 3 10 4 11 5 12 6 13 7 14 8 6 9 5 10 4 11 3 12 2 13
REMARK SMILES IDX 1 14
REMARK H PARENT
REMARK Flexibility Score: inf
ROOT
ATOM      1  C   UNL     1      22.966  21.097  58.779  1.00  0.00     0.000 C 
ENDROOT
BRANCH   1   2
ATOM      2  C   UNL     1      24.284  21.268  58.002  1.00  0.00     0.000 C 
BRANCH   2   3
ATOM      3  C   UNL     1      24.932  19.929  57.623  1.00  0.00     0.000 C 
BRANCH   3   4
ATOM      4  C   UNL     1      26.462  20.047  57.602  1.00  0.00     0.006 C 
BRANCH   4   5
ATOM      5  C   UNL     1      26.922  21.344  58.273  1.00  0.00     0.053 C 
BRANCH   5   6
ATOM      6  C   UNL     1      27.554  21.053  59.598  1.00  0.00     0.041 C 
ATOM      7  O   UNL     1      28.048  21.986  60.283  1.00  0.00    -0.550 OA
ATOM      8  O   UNL     1      27.552  19.756  60.098  1.00  0.00    -0.550 OA
ENDBRANCH   5   6
ENDBRANCH   4   5
ENDBRANCH   3   4
ENDBRANCH   2   3
ENDBRANCH   1   2
BRANCH   1   9
ATOM      9  C   UNL     1      22.926  21.795  60.153  1.00  0.00     0.000 C 
BRANCH   9  10
ATOM     10  C   UNL     1      24.195  21.624  61.010  1.00  0.00    -0.000 C 
BRANCH  10  11
ATOM     11  C   UNL     1      23.961  21.636  62.534  1.00  0.00    -0.000 C 
BRANCH  11  12
ATOM     12  C   UNL     1      24.790  20.608  63.326  1.00  0.00    -0.000 C 
BRANCH  12  13
ATOM     13  C   UNL     1      26.301  20.767  63.108  1.00  0.00    -0.003 C 
ATOM     14  C   UNL     1      26.789  22.124  63.608  1.00  0.00     0.004 C 
ENDBRANCH  12  13
ENDBRANCH  11  12
ENDBRANCH  10  11
ENDBRANCH   9  10
ENDBRANCH   1   9
TORSDOF 10
ENDMDL
MODEL 7
REMARK VINA RESULT:    -3.556      2.030      3.003
REMARK INTER + INTRA:          -6.205
REMARK INTER:                  -5.325
REMARK INTRA:                  -0.880
REMARK UNBOUND:                -0.570
REMARK SMILES CCCCCCCCCCCC(=O)[O-]
REMARK SMILES IDX 7 1 8 2 9 3 10 4 11 5 12 6 13 7 14 8 6 9 5 10 4 11 3 12 2 13
REMARK SMILES IDX 1 14
REMARK H PARENT
REMARK Flexibility Score: inf
ROOT
ATOM      1  C   UNL     1      27.379  21.276  60.346  1.00  0.00     0.000 C 
ENDROOT
BRANCH   1   2
ATOM      2  C   UNL     1      28.075  22.005  59.183  1.00  0.00     0.000 C 
BRANCH   2   3
ATOM      3  C   UNL     1      27.326  21.856  57.851  1.00  0.00     0.000 C 
BRANCH   3   4
ATOM      4  C   UNL     1      26.650  20.483  57.752  1.00  0.00     0.006 C 
BRANCH   4   5
ATOM      5  C   UNL     1      25.358  20.563  56.934  1.00  0.00     0.053 C 
BRANCH   5   6
ATOM      6  C   UNL     1      24.425  19.459  57.320  1.00  0.00     0.041 C 
ATOM      7  O   UNL     1      24.502  18.337  56.754  1.00  0.00    -0.550 OA
ATOM      8  O   UNL     1      23.501  19.655  58.339  1.00  0.00    -0.550 OA
ENDBRANCH   5   6
ENDBRANCH   4   5
ENDBRANCH   3   4
ENDBRANCH   2   3
ENDBRANCH   1   2
BRANCH   1   9
ATOM      9  C   UNL     1      26.353  22.124  61.125  1.00  0.00     0.000 C 
BRANCH   9  10
ATOM     10  C   UNL     1      24.878  21.851  60.770  1.00  0.00    -0.000 C 
BRANCH  10  11
ATOM     11  C   UNL     1      23.997  21.391  61.949  1.00  0.00    -0.000 C 
BRANCH  11  12
ATOM     12  C   UNL     1      24.687  21.424  63.325  1.00  0.00    -0.000 C 
BRANCH  12  13
ATOM     13  C   UNL     1      25.117  20.033  63.809  1.00  0.00    -0.003 C 
ATOM     14  C   UNL     1      26.637  19.890  63.788  1.00  0.00     0.004 C 
ENDBRANCH  12  13
ENDBRANCH  11  12
ENDBRANCH  10  11
ENDBRANCH   9  10
ENDBRANCH   1   9
TORSDOF 10
ENDMDL
MODEL 8
REMARK VINA RESULT:    -3.528      2.950      6.123
REMARK INTER + INTRA:          -6.160
REMARK INTER:                  -5.089
REMARK INTRA:                  -1.071
REMARK UNBOUND:                -0.570
REMARK SMILES CCCCCCCCCCCC(=O)[O-]
REMARK SMILES IDX 7 1 8 2 9 3 10 4 11 5 12 6 13 7 14 8 6 9 5 10 4 11 3 12 2 13
REMARK SMILES IDX 1 14
REMARK H PARENT
REMARK Flexibility Score: inf
ROOT
ATOM      1  C   UNL     1      24.871  22.027  60.022  1.00  0.00     0.000 C 
ENDROOT
BRANCH   1   2
ATOM      2  C   UNL     1      26.380  21.798  59.823  1.00  0.00     0.000 C 
BRANCH   2   3
ATOM      3  C   UNL     1      27.067  21.227  61.072  1.00  0.00     0.000 C 
BRANCH   3   4
ATOM      4  C   UNL     1      26.734  22.064  62.313  1.00  0.00     0.006 C 
BRANCH   4   5
ATOM      5  C   UNL     1      26.699  21.193  63.571  1.00  0.00     0.053 C 
BRANCH   5   6
ATOM      6  C   UNL     1      25.459  20.357  63.595  1.00  0.00     0.041 C 
ATOM      7  O   UNL     1      25.534  19.115  63.785  1.00  0.00    -0.550 OA
ATOM      8  O   UNL     1      24.213  20.958  63.458  1.00  0.00    -0.550 OA
ENDBRANCH   5   6
ENDBRANCH   4   5
ENDBRANCH   3   4
ENDBRANCH   2   3
ENDBRANCH   1   2
BRANCH   1   9
ATOM      9  C   UNL     1      24.015  21.871  58.749  1.00  0.00     0.000 C 
BRANCH   9  10
ATOM     10  C   UNL     1      23.693  20.417  58.353  1.00  0.00    -0.000 C 
BRANCH  10  11
ATOM     11  C   UNL     1      24.378  19.924  57.062  1.00  0.00    -0.000 C 
BRANCH  11  12
ATOM     12  C   UNL     1      25.787  19.333  57.260  1.00  0.00    -0.000 C 
BRANCH  12  13
ATOM     13  C   UNL     1      26.867  20.098  56.483  1.00  0.00    -0.003 C 
ATOM     14  C   UNL     1      26.267  21.277  55.722  1.00  0.00     0.004 C 
ENDBRANCH  12  13
ENDBRANCH  11  12
ENDBRANCH  10  11
ENDBRANCH   9  10
ENDBRANCH   1   9
TORSDOF 10
ENDMDL
