MODEL 1
REMARK VINA RESULT:    -5.237      0.000      0.000
REMARK INTER + INTRA:          -5.237
REMARK INTER:                  -5.237
REMARK INTRA:                   0.000
REMARK UNBOUND:                 0.000
REMARK SMILES C[C@H]1CCC=C2CC[C@H]3[C@H](C3(C)C)[C@@]21C
REMARK SMILES IDX 1 1 2 2 3 3 4 4 5 5 6 6 14 7 10 8 9 9 11 10 12 11 13 12 8 13
REMARK SMILES IDX 7 14 15 15
REMARK H PARENT
REMARK Flexibility Score: inf
ROOT
ATOM      1  C   UNL     1      16.569   8.078  26.370  1.00  0.00     0.008 C 
ATOM      2  C   UNL     1      15.386   8.685  25.591  1.00  0.00    -0.004 C 
ATOM      3  C   UNL     1      15.743  10.113  25.095  1.00  0.00     0.008 C 
ATOM      4  C   UNL     1      16.144  10.125  23.627  1.00  0.00     0.027 C 
ATOM      5  C   UNL     1      15.019   9.577  22.805  1.00  0.00    -0.027 C 
ATOM      6  C   UNL     1      14.329   8.495  23.215  1.00  0.00    -0.068 C 
ATOM      7  C   UNL     1      14.755   7.731  24.474  1.00  0.00    -0.005 C 
ATOM      8  C   UNL     1      13.572   6.920  25.109  1.00  0.00     0.009 C 
ATOM      9  C   UNL     1      12.234   6.790  24.349  1.00  0.00    -0.000 C 
ATOM     10  C   UNL     1      12.298   7.593  25.663  1.00  0.00    -0.028 C 
ATOM     11  C   UNL     1      12.108   9.123  25.624  1.00  0.00     0.012 C 
ATOM     12  C   UNL     1      11.658   6.886  26.864  1.00  0.00     0.012 C 
ATOM     13  C   UNL     1      12.011   7.585  23.046  1.00  0.00     0.009 C 
ATOM     14  C   UNL     1      13.298   7.887  22.296  1.00  0.00     0.031 C 
ATOM     15  C   UNL     1      15.783   6.677  23.975  1.00  0.00     0.017 C 
ENDROOT
TORSDOF 0
ENDMDL
MODEL 2
REMARK VINA RESULT:    -5.198      0.983      4.049
REMARK INTER + INTRA:          -5.198
REMARK INTER:                  -5.198
REMARK INTRA:                   0.000
REMARK UNBOUND:                 0.000
REMARK SMILES C[C@H]1CCC=C2CC[C@H]3[C@H](C3(C)C)[C@@]21C
REMARK SMILES IDX 1 1 2 2 3 3 4 4 5 5 6 6 14 7 10 8 9 9 11 10 12 11 13 12 8 13
REMARK SMILES IDX 7 14 15 15
REMARK H PARENT
REMARK Flexibility Score: inf
ROOT
ATOM      1  C   UNL     1      12.028   7.550  26.434  1.00  0.00     0.008 C 
ATOM      2  C   UNL     1      12.887   7.533  25.155  1.00  0.00    -0.004 C 
ATOM      3  C   UNL     1      12.312   6.515  24.132  1.00  0.00     0.008 C 
ATOM      4  C   UNL     1      11.493   7.196  23.046  1.00  0.00     0.027 C 
ATOM      5  C   UNL     1      12.353   8.190  22.331  1.00  0.00    -0.027 C 
ATOM      6  C   UNL     1      13.199   8.987  23.013  1.00  0.00    -0.068 C 
ATOM      7  C   UNL     1      13.214   8.975  24.546  1.00  0.00    -0.005 C 
ATOM      8  C   UNL     1      14.578   9.477  25.134  1.00  0.00     0.009 C 
ATOM      9  C   UNL     1      15.635  10.102  24.196  1.00  0.00    -0.000 C 
ATOM     10  C   UNL     1      15.917   8.750  24.880  1.00  0.00    -0.028 C 
ATOM     11  C   UNL     1      15.993   7.471  24.022  1.00  0.00     0.012 C 
ATOM     12  C   UNL     1      16.926   8.824  26.031  1.00  0.00     0.012 C 
ATOM     13  C   UNL     1      15.412  10.089  22.670  1.00  0.00     0.009 C 
ATOM     14  C   UNL     1      13.943  10.072  22.276  1.00  0.00     0.031 C 
ATOM     15  C   UNL     1      12.149  10.028  24.966  1.00  0.00     0.017 C 
ENDROOT
TORSDOF 0
ENDMDL
MODEL 3
REMARK VINA RESULT:    -5.108     11.719     13.898
REMARK INTER + INTRA:          -5.108
REMARK INTER:                  -5.108
REMARK INTRA:                   0.000
REMARK UNBOUND:                 0.000
REMARK SMILES C[C@H]1CCC=C2CC[C@H]3[C@H](C3(C)C)[C@@]21C
REMARK SMILES IDX 1 1 2 2 3 3 4 4 5 5 6 6 14 7 10 8 9 9 11 10 12 11 13 12 8 13
REMARK SMILES IDX 7 14 15 15
REMARK H PARENT
REMARK Flexibility Score: inf
ROOT
ATOM      1  C   UNL     1       4.124   5.697  15.467  1.00  0.00     0.008 C 
ATOM      2  C   UNL     1       4.702   6.756  14.508  1.00  0.00    -0.004 C 
ATOM      3  C   UNL     1       4.019   8.130  14.749  1.00  0.00     0.008 C 
ATOM      4  C   UNL     1       4.883   9.059  15.590  1.00  0.00     0.027 C 
ATOM      5  C   UNL     1       6.196   9.267  14.902  1.00  0.00    -0.027 C 
ATOM      6  C   UNL     1       6.839   8.237  14.318  1.00  0.00    -0.068 C 
ATOM      7  C   UNL     1       6.299   6.808  14.446  1.00  0.00    -0.005 C 
ATOM      8  C   UNL     1       6.792   5.877  13.285  1.00  0.00     0.009 C 
ATOM      9  C   UNL     1       7.876   6.379  12.305  1.00  0.00    -0.000 C 
ATOM     10  C   UNL     1       6.440   6.129  11.803  1.00  0.00    -0.028 C 
ATOM     11  C   UNL     1       5.573   7.329  11.370  1.00  0.00     0.012 C 
ATOM     12  C   UNL     1       6.283   4.867  10.946  1.00  0.00     0.012 C 
ATOM     13  C   UNL     1       8.356   7.843  12.375  1.00  0.00     0.009 C 
ATOM     14  C   UNL     1       8.224   8.455  13.761  1.00  0.00     0.031 C 
ATOM     15  C   UNL     1       6.940   6.251  15.749  1.00  0.00     0.017 C 
ENDROOT
TORSDOF 0
ENDMDL
MODEL 4
REMARK VINA RESULT:    -4.964      1.362      3.775
REMARK INTER + INTRA:          -4.964
REMARK INTER:                  -4.964
REMARK INTRA:                   0.000
REMARK UNBOUND:                 0.000
REMARK SMILES C[C@H]1CCC=C2CC[C@H]3[C@H](C3(C)C)[C@@]21C
REMARK SMILES IDX 1 1 2 2 3 3 4 4 5 5 6 6 14 7 10 8 9 9 11 10 12 11 13 12 8 13
REMARK SMILES IDX 7 14 15 15
REMARK H PARENT
REMARK Flexibility Score: inf
ROOT
ATOM      1  C   UNL     1      10.212   8.331  24.006  1.00  0.00     0.008 C 
ATOM      2  C   UNL     1      11.555   7.636  23.707  1.00  0.00    -0.004 C 
ATOM      3  C   UNL     1      11.561   7.077  22.258  1.00  0.00     0.008 C 
ATOM      4  C   UNL     1      12.319   7.982  21.299  1.00  0.00     0.027 C 
ATOM      5  C   UNL     1      13.727   8.139  21.780  1.00  0.00    -0.027 C 
ATOM      6  C   UNL     1      13.994   8.319  23.088  1.00  0.00    -0.068 C 
ATOM      7  C   UNL     1      12.853   8.483  24.099  1.00  0.00    -0.005 C 
ATOM      8  C   UNL     1      13.287   8.102  25.557  1.00  0.00     0.009 C 
ATOM      9  C   UNL     1      14.774   7.824  25.867  1.00  0.00    -0.000 C 
ATOM     10  C   UNL     1      13.744   6.680  25.949  1.00  0.00    -0.028 C 
ATOM     11  C   UNL     1      13.804   5.536  24.916  1.00  0.00     0.012 C 
ATOM     12  C   UNL     1      13.390   6.252  27.377  1.00  0.00     0.012 C 
ATOM     13  C   UNL     1      15.802   7.770  24.719  1.00  0.00     0.009 C 
ATOM     14  C   UNL     1      15.409   8.616  23.518  1.00  0.00     0.031 C 
ATOM     15  C   UNL     1      12.554  10.009  24.123  1.00  0.00     0.017 C 
ENDROOT
TORSDOF 0
ENDMDL
MODEL 5
REMARK VINA RESULT:    -4.927     11.197     13.476
REMARK INTER + INTRA:          -4.927
REMARK INTER:                  -4.927
REMARK INTRA:                   0.000
REMARK UNBOUND:                 0.000
REMARK SMILES C[C@H]1CCC=C2CC[C@H]3[C@H](C3(C)C)[C@@]21C
REMARK SMILES IDX 1 1 2 2 3 3 4 4 5 5 6 6 14 7 10 8 9 9 11 10 12 11 13 12 8 13
REMARK SMILES IDX 7 14 15 15
REMARK H PARENT
REMARK Flexibility Score: inf
ROOT
ATOM      1  C   UNL     1       3.130   8.230  14.794  1.00  0.00     0.008 C 
ATOM      2  C   UNL     1       3.000   7.836  16.279  1.00  0.00    -0.004 C 
ATOM      3  C   UNL     1       3.724   6.489  16.545  1.00  0.00     0.008 C 
ATOM      4  C   UNL     1       5.095   6.690  17.174  1.00  0.00     0.027 C 
ATOM      5  C   UNL     1       4.941   7.437  18.461  1.00  0.00    -0.027 C 
ATOM      6  C   UNL     1       4.094   8.481  18.556  1.00  0.00    -0.068 C 
ATOM      7  C   UNL     1       3.356   9.000  17.316  1.00  0.00    -0.005 C 
ATOM      8  C   UNL     1       2.042   9.772  17.684  1.00  0.00     0.009 C 
ATOM      9  C   UNL     1       1.738  10.112  19.159  1.00  0.00    -0.000 C 
ATOM     10  C   UNL     1       0.851   9.103  18.403  1.00  0.00    -0.028 C 
ATOM     11  C   UNL     1       0.883   7.616  18.810  1.00  0.00     0.012 C 
ATOM     12  C   UNL     1      -0.530   9.644  18.017  1.00  0.00     0.012 C 
ATOM     13  C   UNL     1       2.643   9.557  20.278  1.00  0.00     0.009 C 
ATOM     14  C   UNL     1       4.071   9.297  19.825  1.00  0.00     0.031 C 
ATOM     15  C   UNL     1       4.315  10.051  16.689  1.00  0.00     0.017 C 
ENDROOT
TORSDOF 0
ENDMDL
MODEL 6
REMARK VINA RESULT:    -4.923     11.038     13.617
REMARK INTER + INTRA:          -4.923
REMARK INTER:                  -4.923
REMARK INTRA:                   0.000
REMARK UNBOUND:                 0.000
REMARK SMILES C[C@H]1CCC=C2CC[C@H]3[C@H](C3(C)C)[C@@]21C
REMARK SMILES IDX 1 1 2 2 3 3 4 4 5 5 6 6 14 7 10 8 9 9 11 10 12 11 13 12 8 13
REMARK SMILES IDX 7 14 15 15
REMARK H PARENT
REMARK Flexibility Score: inf
ROOT
ATOM      1  C   UNL     1       3.161   8.435  14.970  1.00  0.00     0.008 C 
ATOM      2  C   UNL     1       4.691   8.257  14.901  1.00  0.00    -0.004 C 
ATOM      3  C   UNL     1       5.381   9.075  16.026  1.00  0.00     0.008 C 
ATOM      4  C   UNL     1       5.774   8.204  17.209  1.00  0.00     0.027 C 
ATOM      5  C   UNL     1       6.698   7.124  16.739  1.00  0.00    -0.027 C 
ATOM      6  C   UNL     1       6.465   6.472  15.583  1.00  0.00    -0.068 C 
ATOM      7  C   UNL     1       5.186   6.741  14.781  1.00  0.00    -0.005 C 
ATOM      8  C   UNL     1       5.344   6.377  13.264  1.00  0.00     0.009 C 
ATOM      9  C   UNL     1       6.606   5.628  12.782  1.00  0.00    -0.000 C 
ATOM     10  C   UNL     1       6.356   7.082  12.335  1.00  0.00    -0.028 C 
ATOM     11  C   UNL     1       7.284   8.200  12.850  1.00  0.00     0.012 C 
ATOM     12  C   UNL     1       5.910   7.225  10.875  1.00  0.00     0.012 C 
ATOM     13  C   UNL     1       7.773   5.379  13.759  1.00  0.00     0.009 C 
ATOM     14  C   UNL     1       7.334   5.296  15.213  1.00  0.00     0.031 C 
ATOM     15  C   UNL     1       4.135   5.749  15.357  1.00  0.00     0.017 C 
ENDROOT
TORSDOF 0
ENDMDL
MODEL 7
REMARK VINA RESULT:    -4.855      1.787      4.448
REMARK INTER + INTRA:          -4.855
REMARK INTER:                  -4.855
REMARK INTRA:                   0.000
REMARK UNBOUND:                 0.000
REMARK SMILES C[C@H]1CCC=C2CC[C@H]3[C@H](C3(C)C)[C@@]21C
REMARK SMILES IDX 1 1 2 2 3 3 4 4 5 5 6 6 14 7 10 8 9 9 11 10 12 11 13 12 8 13
REMARK SMILES IDX 7 14 15 15
REMARK H PARENT
REMARK Flexibility Score: inf
ROOT
ATOM      1  C   UNL     1      12.348   7.117  20.247  1.00  0.00     0.008 C 
ATOM      2  C   UNL     1      12.508   8.306  21.214  1.00  0.00    -0.004 C 
ATOM      3  C   UNL     1      11.968   9.608  20.560  1.00  0.00     0.008 C 
ATOM      4  C   UNL     1      10.573   9.961  21.056  1.00  0.00     0.027 C 
ATOM      5  C   UNL     1      10.606  10.125  22.543  1.00  0.00    -0.027 C 
ATOM      6  C   UNL     1      11.303   9.269  23.316  1.00  0.00    -0.068 C 
ATOM      7  C   UNL     1      11.983   8.040  22.700  1.00  0.00    -0.005 C 
ATOM      8  C   UNL     1      13.175   7.517  23.574  1.00  0.00     0.009 C 
ATOM      9  C   UNL     1      13.409   8.102  24.983  1.00  0.00    -0.000 C 
ATOM     10  C   UNL     1      14.435   8.361  23.863  1.00  0.00    -0.028 C 
ATOM     11  C   UNL     1      14.597   9.790  23.304  1.00  0.00     0.012 C 
ATOM     12  C   UNL     1      15.736   7.563  24.003  1.00  0.00     0.012 C 
ATOM     13  C   UNL     1      12.570   9.303  25.466  1.00  0.00     0.009 C 
ATOM     14  C   UNL     1      11.197   9.380  24.817  1.00  0.00     0.031 C 
ATOM     15  C   UNL     1      10.900   6.924  22.733  1.00  0.00     0.017 C 
ENDROOT
TORSDOF 0
ENDMDL
MODEL 8
REMARK VINA RESULT:    -4.771      8.425     11.149
REMARK INTER + INTRA:          -4.771
REMARK INTER:                  -4.771
REMARK INTRA:                   0.000
REMARK UNBOUND:                 0.000
REMARK SMILES C[C@H]1CCC=C2CC[C@H]3[C@H](C3(C)C)[C@@]21C
REMARK SMILES IDX 1 1 2 2 3 3 4 4 5 5 6 6 14 7 10 8 9 9 11 10 12 11 13 12 8 13
REMARK SMILES IDX 7 14 15 15
REMARK H PARENT
REMARK Flexibility Score: inf
ROOT
ATOM      1  C   UNL     1       7.791   7.716  20.250  1.00  0.00     0.008 C 
ATOM      2  C   UNL     1       6.290   7.527  19.957  1.00  0.00    -0.004 C 
ATOM      3  C   UNL     1       5.631   6.654  21.060  1.00  0.00     0.008 C 
ATOM      4  C   UNL     1       4.876   7.495  22.079  1.00  0.00     0.027 C 
ATOM      5  C   UNL     1       3.822   8.291  21.376  1.00  0.00    -0.027 C 
ATOM      6  C   UNL     1       4.082   8.892  20.199  1.00  0.00    -0.068 C 
ATOM      7  C   UNL     1       5.498   8.871  19.610  1.00  0.00    -0.005 C 
ATOM      8  C   UNL     1       5.501   9.076  18.055  1.00  0.00     0.009 C 
ATOM      9  C   UNL     1       4.196   9.471  17.330  1.00  0.00    -0.000 C 
ATOM     10  C   UNL     1       4.827   8.087  17.080  1.00  0.00    -0.028 C 
ATOM     11  C   UNL     1       4.099   6.824  17.582  1.00  0.00     0.012 C 
ATOM     12  C   UNL     1       5.515   7.946  15.717  1.00  0.00     0.012 C 
ATOM     13  C   UNL     1       2.865   9.511  18.109  1.00  0.00     0.009 C 
ATOM     14  C   UNL     1       3.043   9.801  19.591  1.00  0.00     0.031 C 
ATOM     15  C   UNL     1       6.201  10.121  20.212  1.00  0.00     0.017 C 
ENDROOT
TORSDOF 0
ENDMDL
