MODEL 1
REMARK VINA RESULT:    -8.841      0.000      0.000
REMARK INTER + INTRA:         -13.319
REMARK INTER:                 -12.201
REMARK INTRA:                  -1.118
REMARK UNBOUND:                -1.118
REMARK SMILES CC[C@H](CC[C@@H](C)[C@H]1CC[C@H]2[C@H]3CC=C4C[C@@H](O)CC[C@]4(C)[C@H]3CC[C@@]12C)C(C)C
REMARK SMILES IDX 5 1 4 2 3 3 2 4 1 5 28 6 29 7 30 8 6 9 7 10 8 11 9 12 26 13
REMARK SMILES IDX 10 14 11 15 25 16 27 17 12 18 24 19 23 20 13 21 21 22 14 23
REMARK SMILES IDX 15 24 20 25 22 26 16 27 19 28 17 29 18 30
REMARK H PARENT 18 31
REMARK Flexibility Score: inf
ROOT
ATOM      1  C   UNL     1      12.715  35.056  27.785  1.00  0.00     0.004 C 
ENDROOT
BRANCH   1   2
ATOM      2  C   UNL     1      12.214  33.692  28.305  1.00  0.00     0.004 C 
BRANCH   2   3
ATOM      3  C   UNL     1      12.859  32.484  27.557  1.00  0.00    -0.009 C 
BRANCH   3   4
ATOM      4  C   UNL     1      13.550  31.511  28.548  1.00  0.00     0.000 C 
ATOM      5  C   UNL     1      15.077  31.599  28.483  1.00  0.00     0.004 C 
ENDBRANCH   3   4
BRANCH   3   6
ATOM      6  C   UNL     1      11.815  31.773  26.634  1.00  0.00    -0.014 C 
ATOM      7  C   UNL     1      10.405  32.388  26.705  1.00  0.00     0.007 C 
ATOM      8  C   UNL     1      11.744  30.263  26.913  1.00  0.00     0.007 C 
ENDBRANCH   3   6
ENDBRANCH   2   3
ENDBRANCH   1   2
BRANCH   1   9
ATOM      9  C   UNL     1      11.576  36.006  27.315  1.00  0.00    -0.011 C 
ATOM     10  C   UNL     1      10.442  36.060  28.358  1.00  0.00     0.008 C 
BRANCH   9  11
ATOM     11  C   UNL     1      12.074  37.402  26.786  1.00  0.00    -0.002 C 
ATOM     12  C   UNL     1      13.575  37.394  26.445  1.00  0.00     0.005 C 
ATOM     13  C   UNL     1      11.327  38.170  25.616  1.00  0.00    -0.026 C 
ATOM     14  C   UNL     1      13.690  37.823  25.003  1.00  0.00     0.005 C 
ATOM     15  C   UNL     1      12.493  38.743  24.742  1.00  0.00    -0.001 C 
ATOM     16  C   UNL     1      10.429  37.297  24.704  1.00  0.00     0.007 C 
ATOM     17  C   UNL     1      10.470  39.297  26.269  1.00  0.00     0.012 C 
ATOM     18  C   UNL     1      12.195  38.983  23.210  1.00  0.00     0.000 C 
ATOM     19  C   UNL     1       9.847  38.046  23.477  1.00  0.00     0.005 C 
ATOM     20  C   UNL     1      10.696  39.256  22.969  1.00  0.00     0.003 C 
ATOM     21  C   UNL     1      12.671  37.876  22.242  1.00  0.00     0.031 C 
ATOM     22  C   UNL     1      10.394  39.693  21.475  1.00  0.00    -0.008 C 
ATOM     23  C   UNL     1      12.296  38.162  20.818  1.00  0.00    -0.027 C 
ATOM     24  C   UNL     1      11.236  38.915  20.458  1.00  0.00    -0.065 C 
ATOM     25  C   UNL     1      10.752  41.205  21.290  1.00  0.00     0.014 C 
ATOM     26  C   UNL     1       8.880  39.511  21.165  1.00  0.00     0.016 C 
ATOM     27  C   UNL     1      11.108  39.327  19.007  1.00  0.00     0.063 C 
ATOM     28  C   UNL     1      10.698  41.694  19.824  1.00  0.00     0.033 C 
ATOM     29  C   UNL     1      11.522  40.799  18.876  1.00  0.00     0.118 C 
BRANCH  29  30
ATOM     30  O   UNL     1      11.336  41.211  17.547  1.00  0.00    -0.393 OA
ATOM     31  H   UNL     1      12.136  41.743  17.299  1.00  0.00     0.210 HD
ENDBRANCH  29  30
ENDBRANCH   9  11
ENDBRANCH   1   9
TORSDOF 7
ENDMDL
MODEL 2
REMARK VINA RESULT:    -7.710      3.279      9.189
REMARK INTER + INTRA:         -11.757
REMARK INTER:                 -10.171
REMARK INTRA:                  -1.586
REMARK UNBOUND:                -1.118
REMARK SMILES CC[C@H](CC[C@@H](C)[C@H]1CC[C@H]2[C@H]3CC=C4C[C@@H](O)CC[C@]4(C)[C@H]3CC[C@@]12C)C(C)C
REMARK SMILES IDX 5 1 4 2 3 3 2 4 1 5 28 6 29 7 30 8 6 9 7 10 8 11 9 12 26 13
REMARK SMILES IDX 10 14 11 15 25 16 27 17 12 18 24 19 23 20 13 21 21 22 14 23
REMARK SMILES IDX 15 24 20 25 22 26 16 27 19 28 17 29 18 30
REMARK H PARENT 18 31
REMARK Flexibility Score: inf
ROOT
ATOM      1  C   UNL     1      12.588  41.962  19.621  1.00  0.00     0.004 C 
ENDROOT
BRANCH   1   2
ATOM      2  C   UNL     1      12.806  42.603  21.008  1.00  0.00     0.004 C 
BRANCH   2   3
ATOM      3  C   UNL     1      12.815  44.162  20.961  1.00  0.00    -0.009 C 
BRANCH   3   4
ATOM      4  C   UNL     1      11.374  44.733  20.904  1.00  0.00     0.000 C 
ATOM      5  C   UNL     1      10.390  43.920  21.749  1.00  0.00     0.004 C 
ENDBRANCH   3   4
BRANCH   3   6
ATOM      6  C   UNL     1      13.659  44.754  22.139  1.00  0.00    -0.014 C 
ATOM      7  C   UNL     1      13.747  46.291  22.125  1.00  0.00     0.007 C 
ATOM      8  C   UNL     1      15.069  44.147  22.191  1.00  0.00     0.007 C 
ENDBRANCH   3   6
ENDBRANCH   2   3
ENDBRANCH   1   2
BRANCH   1   9
ATOM      9  C   UNL     1      11.171  41.349  19.427  1.00  0.00    -0.011 C 
ATOM     10  C   UNL     1      10.565  41.784  18.078  1.00  0.00     0.008 C 
BRANCH   9  11
ATOM     11  C   UNL     1      11.083  39.810  19.743  1.00  0.00    -0.002 C 
ATOM     12  C   UNL     1      12.445  39.108  19.605  1.00  0.00     0.005 C 
ATOM     13  C   UNL     1      10.401  39.264  21.067  1.00  0.00    -0.026 C 
ATOM     14  C   UNL     1      12.722  38.442  20.930  1.00  0.00     0.005 C 
ATOM     15  C   UNL     1      11.350  38.106  21.525  1.00  0.00    -0.001 C 
ATOM     16  C   UNL     1      10.286  40.278  22.233  1.00  0.00     0.007 C 
ATOM     17  C   UNL     1       8.981  38.746  20.683  1.00  0.00     0.012 C 
ATOM     18  C   UNL     1      11.388  37.772  23.068  1.00  0.00     0.000 C 
ATOM     19  C   UNL     1       9.767  39.667  23.560  1.00  0.00     0.005 C 
ATOM     20  C   UNL     1      10.057  38.144  23.753  1.00  0.00     0.003 C 
ATOM     21  C   UNL     1      12.559  38.386  23.869  1.00  0.00     0.031 C 
ATOM     22  C   UNL     1       9.990  37.644  25.256  1.00  0.00    -0.008 C 
ATOM     23  C   UNL     1      12.482  38.064  25.332  1.00  0.00    -0.027 C 
ATOM     24  C   UNL     1      11.330  37.799  25.983  1.00  0.00    -0.065 C 
ATOM     25  C   UNL     1       9.639  36.119  25.284  1.00  0.00     0.014 C 
ATOM     26  C   UNL     1       8.875  38.413  26.021  1.00  0.00     0.016 C 
ATOM     27  C   UNL     1      11.411  37.252  27.391  1.00  0.00     0.063 C 
ATOM     28  C   UNL     1       9.750  35.469  26.683  1.00  0.00     0.033 C 
ATOM     29  C   UNL     1      11.111  35.748  27.353  1.00  0.00     0.118 C 
BRANCH  29  30
ATOM     30  O   UNL     1      11.111  35.246  28.663  1.00  0.00    -0.393 OA
ATOM     31  H   UNL     1      10.519  34.450  28.664  1.00  0.00     0.210 HD
ENDBRANCH  29  30
ENDBRANCH   9  11
ENDBRANCH   1   9
TORSDOF 7
ENDMDL
MODEL 3
REMARK VINA RESULT:    -6.844      4.167      8.102
REMARK INTER + INTRA:         -10.562
REMARK INTER:                  -9.571
REMARK INTRA:                  -0.991
REMARK UNBOUND:                -1.118
REMARK SMILES CC[C@H](CC[C@@H](C)[C@H]1CC[C@H]2[C@H]3CC=C4C[C@@H](O)CC[C@]4(C)[C@H]3CC[C@@]12C)C(C)C
REMARK SMILES IDX 5 1 4 2 3 3 2 4 1 5 28 6 29 7 30 8 6 9 7 10 8 11 9 12 26 13
REMARK SMILES IDX 10 14 11 15 25 16 27 17 12 18 24 19 23 20 13 21 21 22 14 23
REMARK SMILES IDX 15 24 20 25 22 26 16 27 19 28 17 29 18 30
REMARK H PARENT 18 31
REMARK Flexibility Score: inf
ROOT
ATOM      1  C   UNL     1      13.618  29.396  31.461  1.00  0.00     0.004 C 
ENDROOT
BRANCH   1   2
ATOM      2  C   UNL     1      14.872  29.096  32.310  1.00  0.00     0.004 C 
BRANCH   2   3
ATOM      3  C   UNL     1      15.657  30.384  32.709  1.00  0.00    -0.009 C 
BRANCH   3   4
ATOM      4  C   UNL     1      14.705  31.600  32.859  1.00  0.00     0.000 C 
ATOM      5  C   UNL     1      14.996  32.416  34.122  1.00  0.00     0.004 C 
ENDBRANCH   3   4
BRANCH   3   6
ATOM      6  C   UNL     1      16.533  30.136  33.981  1.00  0.00    -0.014 C 
ATOM      7  C   UNL     1      18.036  30.381  33.754  1.00  0.00     0.007 C 
ATOM      8  C   UNL     1      16.311  28.730  34.560  1.00  0.00     0.007 C 
ENDBRANCH   3   6
ENDBRANCH   2   3
ENDBRANCH   1   2
BRANCH   1   9
ATOM      9  C   UNL     1      13.602  28.670  30.086  1.00  0.00    -0.011 C 
ATOM     10  C   UNL     1      12.273  27.918  29.878  1.00  0.00     0.008 C 
BRANCH   9  11
ATOM     11  C   UNL     1      14.070  29.562  28.877  1.00  0.00    -0.002 C 
ATOM     12  C   UNL     1      13.458  29.101  27.542  1.00  0.00     0.005 C 
ATOM     13  C   UNL     1      13.976  31.145  28.918  1.00  0.00    -0.026 C 
ATOM     14  C   UNL     1      12.733  30.293  26.967  1.00  0.00     0.005 C 
ATOM     15  C   UNL     1      13.479  31.527  27.484  1.00  0.00    -0.001 C 
ATOM     16  C   UNL     1      12.976  31.734  29.945  1.00  0.00     0.007 C 
ATOM     17  C   UNL     1      15.407  31.691  29.212  1.00  0.00     0.012 C 
ATOM     18  C   UNL     1      12.666  32.873  27.337  1.00  0.00     0.000 C 
ATOM     19  C   UNL     1      12.791  33.270  29.844  1.00  0.00     0.005 C 
ATOM     20  C   UNL     1      13.058  33.885  28.433  1.00  0.00     0.003 C 
ATOM     21  C   UNL     1      11.126  32.737  27.299  1.00  0.00     0.031 C 
ATOM     22  C   UNL     1      12.405  35.311  28.199  1.00  0.00    -0.008 C 
ATOM     23  C   UNL     1      10.437  34.067  27.216  1.00  0.00    -0.027 C 
ATOM     24  C   UNL     1      10.967  35.217  27.680  1.00  0.00    -0.065 C 
ATOM     25  C   UNL     1      13.224  36.088  27.115  1.00  0.00     0.014 C 
ATOM     26  C   UNL     1      12.444  36.134  29.519  1.00  0.00     0.016 C 
ATOM     27  C   UNL     1      10.285  36.518  27.318  1.00  0.00     0.063 C 
ATOM     28  C   UNL     1      12.565  37.408  26.650  1.00  0.00     0.033 C 
ATOM     29  C   UNL     1      11.098  37.211  26.217  1.00  0.00     0.118 C 
BRANCH  29  30
ATOM     30  O   UNL     1      10.514  38.454  25.927  1.00  0.00    -0.393 OA
ATOM     31  H   UNL     1       9.951  38.693  26.708  1.00  0.00     0.210 HD
ENDBRANCH  29  30
ENDBRANCH   9  11
ENDBRANCH   1   9
TORSDOF 7
ENDMDL
MODEL 4
REMARK VINA RESULT:    -6.007      3.555      9.520
REMARK INTER + INTRA:          -9.408
REMARK INTER:                  -8.411
REMARK INTRA:                  -0.997
REMARK UNBOUND:                -1.118
REMARK SMILES CC[C@H](CC[C@@H](C)[C@H]1CC[C@H]2[C@H]3CC=C4C[C@@H](O)CC[C@]4(C)[C@H]3CC[C@@]12C)C(C)C
REMARK SMILES IDX 5 1 4 2 3 3 2 4 1 5 28 6 29 7 30 8 6 9 7 10 8 11 9 12 26 13
REMARK SMILES IDX 10 14 11 15 25 16 27 17 12 18 24 19 23 20 13 21 21 22 14 23
REMARK SMILES IDX 15 24 20 25 22 26 16 27 19 28 17 29 18 30
REMARK H PARENT 18 31
REMARK Flexibility Score: inf
ROOT
ATOM      1  C   UNL     1      10.497  38.892  25.020  1.00  0.00     0.004 C 
ENDROOT
BRANCH   1   2
ATOM      2  C   UNL     1      10.233  38.656  23.518  1.00  0.00     0.004 C 
BRANCH   2   3
ATOM      3  C   UNL     1      11.046  39.621  22.601  1.00  0.00    -0.009 C 
BRANCH   3   4
ATOM      4  C   UNL     1      12.419  39.010  22.216  1.00  0.00     0.000 C 
ATOM      5  C   UNL     1      12.284  37.621  21.586  1.00  0.00     0.004 C 
ENDBRANCH   3   4
BRANCH   3   6
ATOM      6  C   UNL     1      10.203  40.056  21.356  1.00  0.00    -0.014 C 
ATOM      7  C   UNL     1       9.889  41.563  21.317  1.00  0.00     0.007 C 
ATOM      8  C   UNL     1       8.903  39.245  21.238  1.00  0.00     0.007 C 
ENDBRANCH   3   6
ENDBRANCH   2   3
ENDBRANCH   1   2
BRANCH   1   9
ATOM      9  C   UNL     1      11.585  37.956  25.621  1.00  0.00    -0.011 C 
ATOM     10  C   UNL     1      12.936  38.689  25.737  1.00  0.00     0.008 C 
BRANCH   9  11
ATOM     11  C   UNL     1      11.128  37.175  26.908  1.00  0.00    -0.002 C 
ATOM     12  C   UNL     1       9.732  36.547  26.744  1.00  0.00     0.005 C 
ATOM     13  C   UNL     1      12.055  36.092  27.606  1.00  0.00    -0.026 C 
ATOM     14  C   UNL     1       9.892  35.070  27.007  1.00  0.00     0.005 C 
ATOM     15  C   UNL     1      11.063  34.942  27.987  1.00  0.00    -0.001 C 
ATOM     16  C   UNL     1      13.170  35.487  26.716  1.00  0.00     0.007 C 
ATOM     17  C   UNL     1      12.693  36.761  28.861  1.00  0.00     0.012 C 
ATOM     18  C   UNL     1      11.656  33.482  28.087  1.00  0.00     0.000 C 
ATOM     19  C   UNL     1      13.948  34.319  27.375  1.00  0.00     0.005 C 
ATOM     20  C   UNL     1      13.154  33.511  28.451  1.00  0.00     0.003 C 
ATOM     21  C   UNL     1      11.453  32.579  26.848  1.00  0.00     0.031 C 
ATOM     22  C   UNL     1      13.732  32.065  28.750  1.00  0.00    -0.008 C 
ATOM     23  C   UNL     1      12.097  31.233  27.010  1.00  0.00    -0.027 C 
ATOM     24  C   UNL     1      13.164  31.003  27.804  1.00  0.00    -0.065 C 
ATOM     25  C   UNL     1      13.333  31.633  30.201  1.00  0.00     0.014 C 
ATOM     26  C   UNL     1      15.285  32.086  28.659  1.00  0.00     0.016 C 
ATOM     27  C   UNL     1      13.563  29.567  28.069  1.00  0.00     0.063 C 
ATOM     28  C   UNL     1      13.660  30.158  30.535  1.00  0.00     0.033 C 
ATOM     29  C   UNL     1      13.102  29.180  29.480  1.00  0.00     0.118 C 
BRANCH  29  30
ATOM     30  O   UNL     1      13.533  27.875  29.763  1.00  0.00    -0.393 OA
ATOM     31  H   UNL     1      14.306  27.957  30.380  1.00  0.00     0.210 HD
ENDBRANCH  29  30
ENDBRANCH   9  11
ENDBRANCH   1   9
TORSDOF 7
ENDMDL
