MODEL 1
REMARK VINA RESULT:    -4.587      0.000      0.000
REMARK INTER + INTRA:          -4.954
REMARK INTER:                  -4.855
REMARK INTRA:                  -0.099
REMARK UNBOUND:                -0.099
REMARK SMILES C=C(C)[C@@H]1CC=C(C)C(=O)C1
REMARK SMILES IDX 8 1 7 2 6 3 5 4 4 5 11 6 9 7 10 8 2 9 1 10 3 11
REMARK H PARENT
REMARK Flexibility Score: inf
ROOT
ATOM      1  C   UNL     1      -0.915  -2.185 -19.918  1.00  0.00     0.048 C 
ATOM      2  C   UNL     1      -1.748  -2.346 -18.676  1.00  0.00    -0.012 C 
ATOM      3  C   UNL     1      -2.814  -1.553 -18.479  1.00  0.00    -0.019 C 
ATOM      4  C   UNL     1      -3.692  -1.684 -17.262  1.00  0.00     0.036 C 
ATOM      5  C   UNL     1      -2.877  -2.136 -16.036  1.00  0.00     0.025 C 
ATOM      6  C   UNL     1      -2.117  -3.438 -16.349  1.00  0.00     0.089 C 
ATOM      7  C   UNL     1      -1.319  -3.293 -17.616  1.00  0.00     0.158 C 
ATOM      8  O   UNL     1      -0.297  -4.013 -17.783  1.00  0.00    -0.295 OA
ENDROOT
BRANCH   5   9
ATOM      9  C   UNL     1      -3.760  -2.290 -14.805  1.00  0.00    -0.077 C 
ATOM     10  C   UNL     1      -5.078  -2.505 -14.946  1.00  0.00     0.008 C 
ATOM     11  C   UNL     1      -3.189  -2.205 -13.412  1.00  0.00     0.039 C 
ENDBRANCH   5   9
TORSDOF 1
ENDMDL
MODEL 2
REMARK VINA RESULT:    -4.517      7.360      8.960
REMARK INTER + INTRA:          -4.879
REMARK INTER:                  -4.791
REMARK INTRA:                  -0.088
REMARK UNBOUND:                -0.099
REMARK SMILES C=C(C)[C@@H]1CC=C(C)C(=O)C1
REMARK SMILES IDX 8 1 7 2 6 3 5 4 4 5 11 6 9 7 10 8 2 9 1 10 3 11
REMARK H PARENT
REMARK Flexibility Score: inf
ROOT
ATOM      1  C   UNL     1     -13.003  -3.897 -15.387  1.00  0.00     0.048 C 
ATOM      2  C   UNL     1     -11.717  -4.643 -15.157  1.00  0.00    -0.012 C 
ATOM      3  C   UNL     1     -11.690  -5.682 -14.307  1.00  0.00    -0.019 C 
ATOM      4  C   UNL     1     -10.435  -6.475 -14.054  1.00  0.00     0.036 C 
ATOM      5  C   UNL     1      -9.185  -5.582 -14.160  1.00  0.00     0.025 C 
ATOM      6  C   UNL     1      -9.156  -4.863 -15.521  1.00  0.00     0.089 C 
ATOM      7  C   UNL     1     -10.458  -4.153 -15.772  1.00  0.00     0.158 C 
ATOM      8  O   UNL     1     -10.474  -3.154 -16.542  1.00  0.00    -0.295 OA
ENDROOT
BRANCH   5   9
ATOM      9  C   UNL     1      -7.909  -6.379 -13.925  1.00  0.00    -0.077 C 
ATOM     10  C   UNL     1      -7.382  -6.458 -12.692  1.00  0.00     0.008 C 
ATOM     11  C   UNL     1      -7.208  -7.092 -15.055  1.00  0.00     0.039 C 
ENDBRANCH   5   9
TORSDOF 1
ENDMDL
MODEL 3
REMARK VINA RESULT:    -4.490      5.033      7.123
REMARK INTER + INTRA:          -4.851
REMARK INTER:                  -4.757
REMARK INTRA:                  -0.095
REMARK UNBOUND:                -0.099
REMARK SMILES C=C(C)[C@@H]1CC=C(C)C(=O)C1
REMARK SMILES IDX 8 1 7 2 6 3 5 4 4 5 11 6 9 7 10 8 2 9 1 10 3 11
REMARK H PARENT
REMARK Flexibility Score: inf
ROOT
ATOM      1  C   UNL     1      -5.518  -3.024 -14.754  1.00  0.00     0.048 C 
ATOM      2  C   UNL     1      -6.873  -3.675 -14.822  1.00  0.00    -0.012 C 
ATOM      3  C   UNL     1      -7.928  -3.083 -14.240  1.00  0.00    -0.019 C 
ATOM      4  C   UNL     1      -9.310  -3.681 -14.294  1.00  0.00     0.036 C 
ATOM      5  C   UNL     1      -9.247  -5.220 -14.309  1.00  0.00     0.025 C 
ATOM      6  C   UNL     1      -8.355  -5.708 -15.465  1.00  0.00     0.089 C 
ATOM      7  C   UNL     1      -7.015  -5.025 -15.423  1.00  0.00     0.158 C 
ATOM      8  O   UNL     1      -6.017  -5.599 -15.938  1.00  0.00    -0.295 OA
ENDROOT
BRANCH   5   9
ATOM      9  C   UNL     1     -10.638  -5.834 -14.383  1.00  0.00    -0.077 C 
ATOM     10  C   UNL     1     -10.788  -7.168 -14.352  1.00  0.00     0.008 C 
ATOM     11  C   UNL     1     -11.872  -4.973 -14.493  1.00  0.00     0.039 C 
ENDBRANCH   5   9
TORSDOF 1
ENDMDL
MODEL 4
REMARK VINA RESULT:    -4.477      7.687      8.860
REMARK INTER + INTRA:          -4.838
REMARK INTER:                  -4.741
REMARK INTRA:                  -0.096
REMARK UNBOUND:                -0.099
REMARK SMILES C=C(C)[C@@H]1CC=C(C)C(=O)C1
REMARK SMILES IDX 8 1 7 2 6 3 5 4 4 5 11 6 9 7 10 8 2 9 1 10 3 11
REMARK H PARENT
REMARK Flexibility Score: inf
ROOT
ATOM      1  C   UNL     1      -6.326  -3.801 -10.731  1.00  0.00     0.048 C 
ATOM      2  C   UNL     1      -6.200  -2.348 -10.364  1.00  0.00    -0.012 C 
ATOM      3  C   UNL     1      -5.412  -1.983  -9.340  1.00  0.00    -0.019 C 
ATOM      4  C   UNL     1      -5.235  -0.541  -8.942  1.00  0.00     0.036 C 
ATOM      5  C   UNL     1      -6.520   0.267  -9.204  1.00  0.00     0.025 C 
ATOM      6  C   UNL     1      -6.957   0.117 -10.672  1.00  0.00     0.089 C 
ATOM      7  C   UNL     1      -7.040  -1.336 -11.053  1.00  0.00     0.158 C 
ATOM      8  O   UNL     1      -7.808  -1.682 -11.991  1.00  0.00    -0.295 OA
ENDROOT
BRANCH   5   9
ATOM      9  C   UNL     1      -6.345   1.731  -8.823  1.00  0.00    -0.077 C 
ATOM     10  C   UNL     1      -5.534   2.070  -7.807  1.00  0.00     0.008 C 
ATOM     11  C   UNL     1      -7.069   2.828  -9.563  1.00  0.00     0.039 C 
ENDBRANCH   5   9
TORSDOF 1
ENDMDL
MODEL 5
REMARK VINA RESULT:    -4.439      1.469      1.956
REMARK INTER + INTRA:          -4.797
REMARK INTER:                  -4.698
REMARK INTRA:                  -0.098
REMARK UNBOUND:                -0.099
REMARK SMILES C=C(C)[C@@H]1CC=C(C)C(=O)C1
REMARK SMILES IDX 8 1 7 2 6 3 5 4 4 5 11 6 9 7 10 8 2 9 1 10 3 11
REMARK H PARENT
REMARK Flexibility Score: inf
ROOT
ATOM      1  C   UNL     1      -0.412  -1.984 -19.878  1.00  0.00     0.048 C 
ATOM      2  C   UNL     1      -1.237  -1.875 -18.625  1.00  0.00    -0.012 C 
ATOM      3  C   UNL     1      -0.633  -1.869 -17.426  1.00  0.00    -0.019 C 
ATOM      4  C   UNL     1      -1.409  -1.744 -16.141  1.00  0.00     0.036 C 
ATOM      5  C   UNL     1      -2.793  -2.409 -16.262  1.00  0.00     0.025 C 
ATOM      6  C   UNL     1      -3.560  -1.832 -17.466  1.00  0.00     0.089 C 
ATOM      7  C   UNL     1      -2.719  -1.900 -18.711  1.00  0.00     0.158 C 
ATOM      8  O   UNL     1      -3.289  -1.942 -19.835  1.00  0.00    -0.295 OA
ENDROOT
BRANCH   5   9
ATOM      9  C   UNL     1      -3.592  -2.270 -14.974  1.00  0.00    -0.077 C 
ATOM     10  C   UNL     1      -4.935  -2.273 -15.012  1.00  0.00     0.008 C 
ATOM     11  C   UNL     1      -2.910  -2.125 -13.637  1.00  0.00     0.039 C 
ENDBRANCH   5   9
TORSDOF 1
ENDMDL
MODEL 6
REMARK VINA RESULT:    -4.432      6.227      8.493
REMARK INTER + INTRA:          -4.790
REMARK INTER:                  -4.691
REMARK INTRA:                  -0.098
REMARK UNBOUND:                -0.099
REMARK SMILES C=C(C)[C@@H]1CC=C(C)C(=O)C1
REMARK SMILES IDX 8 1 7 2 6 3 5 4 4 5 11 6 9 7 10 8 2 9 1 10 3 11
REMARK H PARENT
REMARK Flexibility Score: inf
ROOT
ATOM      1  C   UNL     1     -12.713  -4.446 -15.066  1.00  0.00     0.048 C 
ATOM      2  C   UNL     1     -11.217  -4.606 -15.030  1.00  0.00    -0.012 C 
ATOM      3  C   UNL     1     -10.440  -3.790 -15.760  1.00  0.00    -0.019 C 
ATOM      4  C   UNL     1      -8.937  -3.894 -15.747  1.00  0.00     0.036 C 
ATOM      5  C   UNL     1      -8.485  -5.353 -15.546  1.00  0.00     0.025 C 
ATOM      6  C   UNL     1      -9.122  -5.940 -14.273  1.00  0.00     0.089 C 
ATOM      7  C   UNL     1     -10.613  -5.741 -14.287  1.00  0.00     0.158 C 
ATOM      8  O   UNL     1     -11.344  -6.531 -13.630  1.00  0.00    -0.295 OA
ENDROOT
BRANCH   5   9
ATOM      9  C   UNL     1      -6.967  -5.466 -15.512  1.00  0.00    -0.077 C 
ATOM     10  C   UNL     1      -6.214  -4.365 -15.353  1.00  0.00     0.008 C 
ATOM     11  C   UNL     1      -6.275  -6.798 -15.656  1.00  0.00     0.039 C 
ENDBRANCH   5   9
TORSDOF 1
ENDMDL
MODEL 7
REMARK VINA RESULT:    -4.376      7.908      9.395
REMARK INTER + INTRA:          -4.731
REMARK INTER:                  -4.632
REMARK INTRA:                  -0.098
REMARK UNBOUND:                -0.099
REMARK SMILES C=C(C)[C@@H]1CC=C(C)C(=O)C1
REMARK SMILES IDX 8 1 7 2 6 3 5 4 4 5 11 6 9 7 10 8 2 9 1 10 3 11
REMARK H PARENT
REMARK Flexibility Score: inf
ROOT
ATOM      1  C   UNL     1      -4.423   2.121  -7.494  1.00  0.00     0.048 C 
ATOM      2  C   UNL     1      -5.121   1.024  -8.250  1.00  0.00    -0.012 C 
ATOM      3  C   UNL     1      -4.563  -0.196  -8.325  1.00  0.00    -0.019 C 
ATOM      4  C   UNL     1      -5.227  -1.335  -9.053  1.00  0.00     0.036 C 
ATOM      5  C   UNL     1      -6.039  -0.824 -10.258  1.00  0.00     0.025 C 
ATOM      6  C   UNL     1      -7.048   0.248  -9.808  1.00  0.00     0.089 C 
ATOM      7  C   UNL     1      -6.359   1.324  -9.014  1.00  0.00     0.158 C 
ATOM      8  O   UNL     1      -6.865   2.478  -8.974  1.00  0.00    -0.295 OA
ENDROOT
BRANCH   5   9
ATOM      9  C   UNL     1      -6.730  -1.966 -10.989  1.00  0.00    -0.077 C 
ATOM     10  C   UNL     1      -6.381  -3.238 -10.734  1.00  0.00     0.008 C 
ATOM     11  C   UNL     1      -7.811  -1.708 -12.009  1.00  0.00     0.039 C 
ENDBRANCH   5   9
TORSDOF 1
ENDMDL
MODEL 8
REMARK VINA RESULT:    -4.246      5.887      7.736
REMARK INTER + INTRA:          -4.592
REMARK INTER:                  -4.505
REMARK INTRA:                  -0.087
REMARK UNBOUND:                -0.099
REMARK SMILES C=C(C)[C@@H]1CC=C(C)C(=O)C1
REMARK SMILES IDX 8 1 7 2 6 3 5 4 4 5 11 6 9 7 10 8 2 9 1 10 3 11
REMARK H PARENT
REMARK Flexibility Score: inf
ROOT
ATOM      1  C   UNL     1      -5.505  -3.099 -12.334  1.00  0.00     0.048 C 
ATOM      2  C   UNL     1      -5.650  -1.857 -11.497  1.00  0.00    -0.012 C 
ATOM      3  C   UNL     1      -6.780  -1.647 -10.804  1.00  0.00    -0.019 C 
ATOM      4  C   UNL     1      -6.970  -0.430  -9.936  1.00  0.00     0.036 C 
ATOM      5  C   UNL     1      -6.229   0.788 -10.520  1.00  0.00     0.025 C 
ATOM      6  C   UNL     1      -4.742   0.454 -10.739  1.00  0.00     0.089 C 
ATOM      7  C   UNL     1      -4.597  -0.812 -11.539  1.00  0.00     0.158 C 
ATOM      8  O   UNL     1      -3.550  -0.991 -12.218  1.00  0.00    -0.295 OA
ENDROOT
BRANCH   5   9
ATOM      9  C   UNL     1      -6.399   2.018  -9.639  1.00  0.00    -0.077 C 
ATOM     10  C   UNL     1      -7.029   3.105 -10.116  1.00  0.00     0.008 C 
ATOM     11  C   UNL     1      -5.872   2.053  -8.227  1.00  0.00     0.039 C 
ENDBRANCH   5   9
TORSDOF 1
ENDMDL
MODEL 9
REMARK VINA RESULT:    -4.174      5.158      7.193
REMARK INTER + INTRA:          -4.517
REMARK INTER:                  -4.429
REMARK INTRA:                  -0.088
REMARK UNBOUND:                -0.099
REMARK SMILES C=C(C)[C@@H]1CC=C(C)C(=O)C1
REMARK SMILES IDX 8 1 7 2 6 3 5 4 4 5 11 6 9 7 10 8 2 9 1 10 3 11
REMARK H PARENT
REMARK Flexibility Score: inf
ROOT
ATOM      1  C   UNL     1      -5.221  -3.291 -15.092  1.00  0.00     0.048 C 
ATOM      2  C   UNL     1      -6.622  -3.821 -14.953  1.00  0.00    -0.012 C 
ATOM      3  C   UNL     1      -7.029  -4.844 -15.722  1.00  0.00    -0.019 C 
ATOM      4  C   UNL     1      -8.414  -5.426 -15.611  1.00  0.00     0.036 C 
ATOM      5  C   UNL     1      -9.440  -4.343 -15.227  1.00  0.00     0.025 C 
ATOM      6  C   UNL     1      -9.003  -3.626 -13.937  1.00  0.00     0.089 C 
ATOM      7  C   UNL     1      -7.587  -3.134 -14.058  1.00  0.00     0.158 C 
ATOM      8  O   UNL     1      -7.217  -2.150 -13.362  1.00  0.00    -0.295 OA
ENDROOT
BRANCH   5   9
ATOM      9  C   UNL     1     -10.841  -4.925 -15.094  1.00  0.00    -0.077 C 
ATOM     10  C   UNL     1     -11.870  -4.356 -15.743  1.00  0.00     0.008 C 
ATOM     11  C   UNL     1     -11.109  -6.139 -14.239  1.00  0.00     0.039 C 
ENDBRANCH   5   9
TORSDOF 1
ENDMDL
