MODEL 1
REMARK VINA RESULT:    -5.603      0.000      0.000
REMARK INTER + INTRA:          -7.006
REMARK INTER:                  -6.750
REMARK INTRA:                  -0.256
REMARK UNBOUND:                -0.256
REMARK SMILES CCCCc1oc(O)c2ccccc12
REMARK SMILES IDX 4 1 5 2 7 3 6 4 9 5 14 6 10 7 13 8 11 9 12 10 8 11 3 13 2 14
REMARK SMILES IDX 1 15
REMARK H PARENT 8 12
REMARK Flexibility Score: inf
ROOT
ATOM      1  C   UNL     1       7.916 -13.670  -3.405  1.00  0.00     0.076 C 
ENDROOT
BRANCH   1   2
ATOM      2  C   UNL     1       6.815 -14.308  -4.196  1.00  0.00     0.116 A 
ATOM      3  C   UNL     1       5.839 -15.537  -5.659  1.00  0.00     0.290 A 
ATOM      4  O   UNL     1       7.009 -15.201  -5.151  1.00  0.00    -0.430 OA
ATOM      5  C   UNL     1       4.837 -14.837  -5.020  1.00  0.00     0.066 A 
ATOM      6  C   UNL     1       5.460 -14.049  -4.088  1.00  0.00     0.027 A 
ATOM      7  C   UNL     1       3.453 -14.825  -5.190  1.00  0.00     0.016 A 
ATOM      8  C   UNL     1       4.742 -13.189  -3.258  1.00  0.00     0.012 A 
ATOM      9  C   UNL     1       2.702 -13.969  -4.363  1.00  0.00     0.001 A 
ATOM     10  C   UNL     1       3.342 -13.155  -3.402  1.00  0.00     0.001 A 
BRANCH   3  11
ATOM     11  O   UNL     1       5.678 -16.461  -6.687  1.00  0.00    -0.480 OA
ATOM     12  H   UNL     1       5.314 -16.184  -7.590  1.00  0.00     0.297 HD
ENDBRANCH   3  11
ENDBRANCH   1   2
BRANCH   1  13
ATOM     13  C   UNL     1       9.221 -13.669  -4.210  1.00  0.00     0.008 C 
BRANCH  13  14
ATOM     14  C   UNL     1      10.206 -14.749  -3.738  1.00  0.00    -0.003 C 
ATOM     15  C   UNL     1      10.151 -14.980  -2.229  1.00  0.00     0.004 C 
ENDBRANCH  13  14
ENDBRANCH   1  13
TORSDOF 4
ENDMDL
MODEL 2
REMARK VINA RESULT:    -5.495      1.490      1.942
REMARK INTER + INTRA:          -6.876
REMARK INTER:                  -6.350
REMARK INTRA:                  -0.526
REMARK UNBOUND:                -0.256
REMARK SMILES CCCCc1oc(O)c2ccccc12
REMARK SMILES IDX 4 1 5 2 7 3 6 4 9 5 14 6 10 7 13 8 11 9 12 10 8 11 3 13 2 14
REMARK SMILES IDX 1 15
REMARK H PARENT 8 12
REMARK Flexibility Score: inf
ROOT
ATOM      1  C   UNL     1       9.071 -16.099  -4.745  1.00  0.00     0.076 C 
ENDROOT
BRANCH   1   2
ATOM      2  C   UNL     1       7.910 -15.566  -5.528  1.00  0.00     0.116 A 
ATOM      3  C   UNL     1       6.726 -14.964  -7.212  1.00  0.00     0.290 A 
ATOM      4  O   UNL     1       7.871 -15.507  -6.848  1.00  0.00    -0.430 OA
ATOM      5  C   UNL     1       5.984 -14.650  -6.093  1.00  0.00     0.066 A 
ATOM      6  C   UNL     1       6.742 -15.030  -5.017  1.00  0.00     0.027 A 
ATOM      7  C   UNL     1       4.729 -14.060  -5.940  1.00  0.00     0.016 A 
ATOM      8  C   UNL     1       6.300 -14.846  -3.707  1.00  0.00     0.012 A 
ATOM      9  C   UNL     1       4.256 -13.865  -4.629  1.00  0.00     0.001 A 
ATOM     10  C   UNL     1       5.037 -14.255  -3.518  1.00  0.00     0.001 A 
BRANCH   3  11
ATOM     11  O   UNL     1       6.355 -14.754  -8.537  1.00  0.00    -0.480 OA
ATOM     12  H   UNL     1       6.214 -13.821  -8.901  1.00  0.00     0.297 HD
ENDBRANCH   3  11
ENDBRANCH   1   2
BRANCH   1  13
ATOM     13  C   UNL     1      10.257 -15.128  -4.817  1.00  0.00     0.008 C 
BRANCH  13  14
ATOM     14  C   UNL     1      10.158 -14.000  -3.780  1.00  0.00    -0.003 C 
ATOM     15  C   UNL     1       9.868 -14.516  -2.371  1.00  0.00     0.004 C 
ENDBRANCH  13  14
ENDBRANCH   1  13
TORSDOF 4
ENDMDL
MODEL 3
REMARK VINA RESULT:    -5.393      2.135      5.239
REMARK INTER + INTRA:          -6.753
REMARK INTER:                  -6.231
REMARK INTRA:                  -0.522
REMARK UNBOUND:                -0.256
REMARK SMILES CCCCc1oc(O)c2ccccc12
REMARK SMILES IDX 4 1 5 2 7 3 6 4 9 5 14 6 10 7 13 8 11 9 12 10 8 11 3 13 2 14
REMARK SMILES IDX 1 15
REMARK H PARENT 8 12
REMARK Flexibility Score: inf
ROOT
ATOM      1  C   UNL     1       5.955 -13.013  -4.179  1.00  0.00     0.076 C 
ENDROOT
BRANCH   1   2
ATOM      2  C   UNL     1       7.362 -13.495  -3.995  1.00  0.00     0.116 A 
ATOM      3  C   UNL     1       9.231 -13.928  -3.035  1.00  0.00     0.290 A 
ATOM      4  O   UNL     1       8.014 -13.454  -2.847  1.00  0.00    -0.430 OA
ATOM      5  C   UNL     1       9.388 -14.289  -4.357  1.00  0.00     0.066 A 
ATOM      6  C   UNL     1       8.196 -14.010  -4.971  1.00  0.00     0.027 A 
ATOM      7  C   UNL     1      10.470 -14.825  -5.056  1.00  0.00     0.016 A 
ATOM      8  C   UNL     1       8.000 -14.243  -6.333  1.00  0.00     0.012 A 
ATOM      9  C   UNL     1      10.301 -15.073  -6.430  1.00  0.00     0.001 A 
ATOM     10  C   UNL     1       9.072 -14.784  -7.066  1.00  0.00     0.001 A 
BRANCH   3  11
ATOM     11  O   UNL     1      10.187 -14.031  -2.029  1.00  0.00    -0.480 OA
ATOM     12  H   UNL     1       9.970 -13.787  -1.072  1.00  0.00     0.297 HD
ENDBRANCH   3  11
ENDBRANCH   1   2
BRANCH   1  13
ATOM     13  C   UNL     1       4.980 -13.892  -3.388  1.00  0.00     0.008 C 
BRANCH  13  14
ATOM     14  C   UNL     1       5.025 -15.364  -3.825  1.00  0.00    -0.003 C 
ATOM     15  C   UNL     1       4.455 -15.582  -5.226  1.00  0.00     0.004 C 
ENDBRANCH  13  14
ENDBRANCH   1  13
TORSDOF 4
ENDMDL
MODEL 4
REMARK VINA RESULT:    -5.290      1.699      5.033
REMARK INTER + INTRA:          -6.628
REMARK INTER:                  -6.352
REMARK INTRA:                  -0.276
REMARK UNBOUND:                -0.256
REMARK SMILES CCCCc1oc(O)c2ccccc12
REMARK SMILES IDX 4 1 5 2 7 3 6 4 9 5 14 6 10 7 13 8 11 9 12 10 8 11 3 13 2 14
REMARK SMILES IDX 1 15
REMARK H PARENT 8 12
REMARK Flexibility Score: inf
ROOT
ATOM      1  C   UNL     1       5.444 -15.167  -3.523  1.00  0.00     0.076 C 
ENDROOT
BRANCH   1   2
ATOM      2  C   UNL     1       6.245 -15.114  -4.789  1.00  0.00     0.116 A 
ATOM      3  C   UNL     1       6.692 -15.062  -6.886  1.00  0.00     0.290 A 
ATOM      4  O   UNL     1       5.716 -15.076  -5.999  1.00  0.00    -0.430 OA
ATOM      5  C   UNL     1       7.909 -15.098  -6.238  1.00  0.00     0.066 A 
ATOM      6  C   UNL     1       7.624 -15.135  -4.898  1.00  0.00     0.027 A 
ATOM      7  C   UNL     1       9.220 -15.109  -6.713  1.00  0.00     0.016 A 
ATOM      8  C   UNL     1       8.632 -15.189  -3.935  1.00  0.00     0.012 A 
ATOM      9  C   UNL     1      10.258 -15.161  -5.765  1.00  0.00     0.001 A 
ATOM     10  C   UNL     1       9.966 -15.201  -4.382  1.00  0.00     0.001 A 
BRANCH   3  11
ATOM     11  O   UNL     1       6.488 -15.020  -8.262  1.00  0.00    -0.480 OA
ATOM     12  H   UNL     1       6.479 -15.866  -8.817  1.00  0.00     0.297 HD
ENDBRANCH   3  11
ENDBRANCH   1   2
BRANCH   1  13
ATOM     13  C   UNL     1       4.080 -15.820  -3.780  1.00  0.00     0.008 C 
BRANCH  13  14
ATOM     14  C   UNL     1       2.918 -14.821  -3.668  1.00  0.00    -0.003 C 
ATOM     15  C   UNL     1       2.406 -14.355  -5.031  1.00  0.00     0.004 C 
ENDBRANCH  13  14
ENDBRANCH   1  13
TORSDOF 4
ENDMDL
MODEL 5
REMARK VINA RESULT:    -5.077      2.829      4.507
REMARK INTER + INTRA:          -6.372
REMARK INTER:                  -5.860
REMARK INTRA:                  -0.512
REMARK UNBOUND:                -0.256
REMARK SMILES CCCCc1oc(O)c2ccccc12
REMARK SMILES IDX 4 1 5 2 7 3 6 4 9 5 14 6 10 7 13 8 11 9 12 10 8 11 3 13 2 14
REMARK SMILES IDX 1 15
REMARK H PARENT 8 12
REMARK Flexibility Score: inf
ROOT
ATOM      1  C   UNL     1      10.641 -15.102  -6.646  1.00  0.00     0.076 C 
ENDROOT
BRANCH   1   2
ATOM      2  C   UNL     1       9.860 -14.845  -5.394  1.00  0.00     0.116 A 
ATOM      3  C   UNL     1       9.444 -14.344  -3.350  1.00  0.00     0.290 A 
ATOM      4  O   UNL     1      10.399 -14.450  -4.253  1.00  0.00    -0.430 OA
ATOM      5  C   UNL     1       8.232 -14.686  -3.913  1.00  0.00     0.066 A 
ATOM      6  C   UNL     1       8.498 -15.010  -5.217  1.00  0.00     0.027 A 
ATOM      7  C   UNL     1       6.942 -14.745  -3.387  1.00  0.00     0.016 A 
ATOM      8  C   UNL     1       7.491 -15.419  -6.091  1.00  0.00     0.012 A 
ATOM      9  C   UNL     1       5.905 -15.152  -4.246  1.00  0.00     0.001 A 
ATOM     10  C   UNL     1       6.178 -15.488  -5.592  1.00  0.00     0.001 A 
BRANCH   3  11
ATOM     11  O   UNL     1       9.662 -13.946  -2.034  1.00  0.00    -0.480 OA
ATOM     12  H   UNL     1       9.293 -13.072  -1.682  1.00  0.00     0.297 HD
ENDBRANCH   3  11
ENDBRANCH   1   2
BRANCH   1  13
ATOM     13  C   UNL     1      10.942 -13.784  -7.370  1.00  0.00     0.008 C 
BRANCH  13  14
ATOM     14  C   UNL     1       9.934 -13.482  -8.489  1.00  0.00    -0.003 C 
ATOM     15  C   UNL     1       9.480 -14.739  -9.230  1.00  0.00     0.004 C 
ENDBRANCH  13  14
ENDBRANCH   1  13
TORSDOF 4
ENDMDL
MODEL 6
REMARK VINA RESULT:    -5.053      9.960     10.956
REMARK INTER + INTRA:          -6.344
REMARK INTER:                  -6.172
REMARK INTRA:                  -0.171
REMARK UNBOUND:                -0.256
REMARK SMILES CCCCc1oc(O)c2ccccc12
REMARK SMILES IDX 4 1 5 2 7 3 6 4 9 5 14 6 10 7 13 8 11 9 12 10 8 11 3 13 2 14
REMARK SMILES IDX 1 15
REMARK H PARENT 8 12
REMARK Flexibility Score: inf
ROOT
ATOM      1  C   UNL     1       1.003 -20.708   0.926  1.00  0.00     0.076 C 
ENDROOT
BRANCH   1   2
ATOM      2  C   UNL     1       1.484 -22.054   0.475  1.00  0.00     0.116 A 
ATOM      3  C   UNL     1       2.302 -24.035   0.573  1.00  0.00     0.290 A 
ATOM      4  O   UNL     1       1.937 -22.990   1.291  1.00  0.00    -0.430 OA
ATOM      5  C   UNL     1       2.087 -23.777  -0.764  1.00  0.00     0.066 A 
ATOM      6  C   UNL     1       1.569 -22.510  -0.828  1.00  0.00     0.027 A 
ATOM      7  C   UNL     1       2.312 -24.540  -1.910  1.00  0.00     0.016 A 
ATOM      8  C   UNL     1       1.239 -21.912  -2.045  1.00  0.00     0.012 A 
ATOM      9  C   UNL     1       1.986 -23.964  -3.152  1.00  0.00     0.001 A 
ATOM     10  C   UNL     1       1.453 -22.657  -3.220  1.00  0.00     0.001 A 
BRANCH   3  11
ATOM     11  O   UNL     1       2.824 -25.204   1.117  1.00  0.00    -0.480 OA
ATOM     12  H   UNL     1       2.219 -25.932   1.476  1.00  0.00     0.297 HD
ENDBRANCH   3  11
ENDBRANCH   1   2
BRANCH   1  13
ATOM     13  C   UNL     1       0.930 -20.651   2.456  1.00  0.00     0.008 C 
BRANCH  13  14
ATOM     14  C   UNL     1       0.875 -19.211   2.990  1.00  0.00    -0.003 C 
ATOM     15  C   UNL     1       0.914 -19.146   4.517  1.00  0.00     0.004 C 
ENDBRANCH  13  14
ENDBRANCH   1  13
TORSDOF 4
ENDMDL
MODEL 7
REMARK VINA RESULT:    -4.798      2.370      4.999
REMARK INTER + INTRA:          -6.036
REMARK INTER:                  -5.596
REMARK INTRA:                  -0.440
REMARK UNBOUND:                -0.256
REMARK SMILES CCCCc1oc(O)c2ccccc12
REMARK SMILES IDX 4 1 5 2 7 3 6 4 9 5 14 6 10 7 13 8 11 9 12 10 8 11 3 13 2 14
REMARK SMILES IDX 1 15
REMARK H PARENT 8 12
REMARK Flexibility Score: inf
ROOT
ATOM      1  C   UNL     1       6.828 -15.196  -7.242  1.00  0.00     0.076 C 
ENDROOT
BRANCH   1   2
ATOM      2  C   UNL     1       7.012 -14.906  -5.784  1.00  0.00     0.116 A 
ATOM      3  C   UNL     1       6.523 -14.435  -3.749  1.00  0.00     0.290 A 
ATOM      4  O   UNL     1       6.018 -14.682  -4.942  1.00  0.00    -0.430 OA
ATOM      5  C   UNL     1       7.900 -14.494  -3.807  1.00  0.00     0.066 A 
ATOM      6  C   UNL     1       8.213 -14.791  -5.107  1.00  0.00     0.027 A 
ATOM      7  C   UNL     1       8.884 -14.303  -2.836  1.00  0.00     0.016 A 
ATOM      8  C   UNL     1       9.535 -14.916  -5.533  1.00  0.00     0.012 A 
ATOM      9  C   UNL     1      10.227 -14.427  -3.236  1.00  0.00     0.001 A 
ATOM     10  C   UNL     1      10.552 -14.732  -4.578  1.00  0.00     0.001 A 
BRANCH   3  11
ATOM     11  O   UNL     1       5.753 -14.158  -2.624  1.00  0.00    -0.480 OA
ATOM     12  H   UNL     1       5.837 -13.278  -2.133  1.00  0.00     0.297 HD
ENDBRANCH   3  11
ENDBRANCH   1   2
BRANCH   1  13
ATOM     13  C   UNL     1       7.228 -13.978  -8.085  1.00  0.00     0.008 C 
BRANCH  13  14
ATOM     14  C   UNL     1       8.291 -14.317  -9.142  1.00  0.00    -0.003 C 
ATOM     15  C   UNL     1       9.588 -13.531  -8.948  1.00  0.00     0.004 C 
ENDBRANCH  13  14
ENDBRANCH   1  13
TORSDOF 4
ENDMDL
MODEL 8
REMARK VINA RESULT:    -4.698      2.504      4.149
REMARK INTER + INTRA:          -5.916
REMARK INTER:                  -5.692
REMARK INTRA:                  -0.225
REMARK UNBOUND:                -0.256
REMARK SMILES CCCCc1oc(O)c2ccccc12
REMARK SMILES IDX 4 1 5 2 7 3 6 4 9 5 14 6 10 7 13 8 11 9 12 10 8 11 3 13 2 14
REMARK SMILES IDX 1 15
REMARK H PARENT 8 12
REMARK Flexibility Score: inf
ROOT
ATOM      1  C   UNL     1       9.583 -16.025  -4.491  1.00  0.00     0.076 C 
ENDROOT
BRANCH   1   2
ATOM      2  C   UNL     1       8.437 -15.666  -5.386  1.00  0.00     0.116 A 
ATOM      3  C   UNL     1       6.419 -15.437  -6.078  1.00  0.00     0.290 A 
ATOM      4  O   UNL     1       7.166 -15.823  -5.061  1.00  0.00    -0.430 OA
ATOM      5  C   UNL     1       7.227 -15.015  -7.113  1.00  0.00     0.066 A 
ATOM      6  C   UNL     1       8.516 -15.165  -6.673  1.00  0.00     0.027 A 
ATOM      7  C   UNL     1       6.934 -14.528  -8.387  1.00  0.00     0.016 A 
ATOM      8  C   UNL     1       9.608 -14.841  -7.478  1.00  0.00     0.012 A 
ATOM      9  C   UNL     1       8.016 -14.190  -9.221  1.00  0.00     0.001 A 
ATOM     10  C   UNL     1       9.346 -14.346  -8.769  1.00  0.00     0.001 A 
BRANCH   3  11
ATOM     11  O   UNL     1       5.028 -15.467  -6.073  1.00  0.00    -0.480 OA
ATOM     12  H   UNL     1       4.491 -15.038  -6.816  1.00  0.00     0.297 HD
ENDBRANCH   3  11
ENDBRANCH   1   2
BRANCH   1  13
ATOM     13  C   UNL     1      10.230 -14.759  -3.916  1.00  0.00     0.008 C 
BRANCH  13  14
ATOM     14  C   UNL     1       9.521 -14.258  -2.648  1.00  0.00    -0.003 C 
ATOM     15  C   UNL     1       8.302 -13.390  -2.957  1.00  0.00     0.004 C 
ENDBRANCH  13  14
ENDBRANCH   1  13
TORSDOF 4
ENDMDL
