MODEL 1
REMARK VINA RESULT:    -4.551      0.000      0.000
REMARK INTER + INTRA:          -5.862
REMARK INTER:                  -5.615
REMARK INTRA:                  -0.247
REMARK UNBOUND:                -0.247
REMARK SMILES C=CCc1ccc(OC)c(OC)c1
REMARK SMILES IDX 7 1 10 2 13 3 4 4 5 5 6 6 8 7 9 8 11 9 12 10 3 11 2 12 1 13
REMARK H PARENT
REMARK Flexibility Score: inf
ROOT
ATOM      1  C   UNL     1     184.118 189.068 189.036  1.00  0.00     0.160 A 
ATOM      2  C   UNL     1     184.398 189.929 190.109  1.00  0.00     0.160 A 
ATOM      3  C   UNL     1     184.904 191.219 189.852  1.00  0.00     0.054 A 
ATOM      4  C   UNL     1     185.123 191.652 188.536  1.00  0.00    -0.040 A 
ATOM      5  C   UNL     1     184.851 190.782 187.473  1.00  0.00     0.008 A 
ATOM      6  C   UNL     1     184.350 189.502 187.717  1.00  0.00     0.051 A 
ENDROOT
BRANCH   1   7
ATOM      7  O   UNL     1     183.614 187.789 189.322  1.00  0.00    -0.493 OA
ATOM      8  C   UNL     1     183.189 186.852 188.339  1.00  0.00     0.278 C 
ENDBRANCH   1   7
BRANCH   2   9
ATOM      9  O   UNL     1     184.161 189.468 191.414  1.00  0.00    -0.493 OA
ATOM     10  C   UNL     1     185.181 189.112 192.341  1.00  0.00     0.278 C 
ENDBRANCH   2   9
BRANCH   4  11
ATOM     11  C   UNL     1     185.692 193.021 188.274  1.00  0.00     0.062 C 
BRANCH  11  12
ATOM     12  C   UNL     1     185.831 193.794 189.555  1.00  0.00    -0.030 C 
ATOM     13  C   UNL     1     186.592 194.890 189.635  1.00  0.00     0.004 C 
ENDBRANCH  11  12
ENDBRANCH   4  11
TORSDOF 4
ENDMDL
MODEL 2
REMARK VINA RESULT:    -4.510      1.666      3.018
REMARK INTER + INTRA:          -5.811
REMARK INTER:                  -5.557
REMARK INTRA:                  -0.255
REMARK UNBOUND:                -0.247
REMARK SMILES C=CCc1ccc(OC)c(OC)c1
REMARK SMILES IDX 7 1 10 2 13 3 4 4 5 5 6 6 8 7 9 8 11 9 12 10 3 11 2 12 1 13
REMARK H PARENT
REMARK Flexibility Score: inf
ROOT
ATOM      1  C   UNL     1     184.470 189.576 188.158  1.00  0.00     0.160 A 
ATOM      2  C   UNL     1     185.096 190.277 187.116  1.00  0.00     0.160 A 
ATOM      3  C   UNL     1     185.556 191.590 187.338  1.00  0.00     0.054 A 
ATOM      4  C   UNL     1     185.398 192.199 188.592  1.00  0.00    -0.040 A 
ATOM      5  C   UNL     1     184.763 191.495 189.623  1.00  0.00     0.008 A 
ATOM      6  C   UNL     1     184.304 190.194 189.412  1.00  0.00     0.051 A 
ENDROOT
BRANCH   1   7
ATOM      7  O   UNL     1     184.023 188.268 187.907  1.00  0.00    -0.493 OA
ATOM      8  C   UNL     1     183.486 187.396 188.897  1.00  0.00     0.278 C 
ENDBRANCH   1   7
BRANCH   2   9
ATOM      9  O   UNL     1     185.243 189.637 185.875  1.00  0.00    -0.493 OA
ATOM     10  C   UNL     1     186.442 189.630 185.107  1.00  0.00     0.278 C 
ENDBRANCH   2   9
BRANCH   4  11
ATOM     11  C   UNL     1     185.866 193.613 188.811  1.00  0.00     0.062 C 
BRANCH  11  12
ATOM     12  C   UNL     1     186.488 193.764 190.172  1.00  0.00    -0.030 C 
ATOM     13  C   UNL     1     186.629 194.960 190.751  1.00  0.00     0.004 C 
ENDBRANCH  11  12
ENDBRANCH   4  11
TORSDOF 4
ENDMDL
MODEL 3
REMARK VINA RESULT:    -4.423      1.535      3.060
REMARK INTER + INTRA:          -5.705
REMARK INTER:                  -5.454
REMARK INTRA:                  -0.251
REMARK UNBOUND:                -0.247
REMARK SMILES C=CCc1ccc(OC)c(OC)c1
REMARK SMILES IDX 7 1 10 2 13 3 4 4 5 5 6 6 8 7 9 8 11 9 12 10 3 11 2 12 1 13
REMARK H PARENT
REMARK Flexibility Score: inf
ROOT
ATOM      1  C   UNL     1     184.685 190.610 189.605  1.00  0.00     0.160 A 
ATOM      2  C   UNL     1     184.754 191.241 188.353  1.00  0.00     0.160 A 
ATOM      3  C   UNL     1     185.347 192.516 188.248  1.00  0.00     0.054 A 
ATOM      4  C   UNL     1     185.873 193.154 189.381  1.00  0.00    -0.040 A 
ATOM      5  C   UNL     1     185.790 192.520 190.628  1.00  0.00     0.008 A 
ATOM      6  C   UNL     1     185.204 191.259 190.741  1.00  0.00     0.051 A 
ENDROOT
BRANCH   1   7
ATOM      7  O   UNL     1     184.090 189.340 189.678  1.00  0.00    -0.493 OA
ATOM      8  C   UNL     1     183.425 188.827 190.828  1.00  0.00     0.278 C 
ENDBRANCH   1   7
BRANCH   2   9
ATOM      9  O   UNL     1     184.223 190.573 187.238  1.00  0.00    -0.493 OA
ATOM     10  C   UNL     1     184.969 189.717 186.379  1.00  0.00     0.278 C 
ENDBRANCH   2   9
BRANCH   4  11
ATOM     11  C   UNL     1     186.477 194.528 189.264  1.00  0.00     0.062 C 
BRANCH  11  12
ATOM     12  C   UNL     1     186.659 195.147 190.621  1.00  0.00    -0.030 C 
ATOM     13  C   UNL     1     186.441 196.448 190.835  1.00  0.00     0.004 C 
ENDBRANCH  11  12
ENDBRANCH   4  11
TORSDOF 4
ENDMDL
MODEL 4
REMARK VINA RESULT:    -4.386      2.522      4.214
REMARK INTER + INTRA:          -5.659
REMARK INTER:                  -5.363
REMARK INTRA:                  -0.296
REMARK UNBOUND:                -0.247
REMARK SMILES C=CCc1ccc(OC)c(OC)c1
REMARK SMILES IDX 7 1 10 2 13 3 4 4 5 5 6 6 8 7 9 8 11 9 12 10 3 11 2 12 1 13
REMARK H PARENT
REMARK Flexibility Score: inf
ROOT
ATOM      1  C   UNL     1     184.620 190.700 188.674  1.00  0.00     0.160 A 
ATOM      2  C   UNL     1     185.527 191.760 188.517  1.00  0.00     0.160 A 
ATOM      3  C   UNL     1     186.351 191.807 187.376  1.00  0.00     0.054 A 
ATOM      4  C   UNL     1     186.270 190.810 186.393  1.00  0.00    -0.040 A 
ATOM      5  C   UNL     1     185.369 189.750 186.563  1.00  0.00     0.008 A 
ATOM      6  C   UNL     1     184.548 189.695 187.691  1.00  0.00     0.051 A 
ENDROOT
BRANCH   1   7
ATOM      7  O   UNL     1     183.811 190.679 189.821  1.00  0.00    -0.493 OA
ATOM      8  C   UNL     1     183.804 189.631 190.785  1.00  0.00     0.278 C 
ENDBRANCH   1   7
BRANCH   2   9
ATOM      9  O   UNL     1     185.580 192.745 189.516  1.00  0.00    -0.493 OA
ATOM     10  C   UNL     1     186.078 194.064 189.323  1.00  0.00     0.278 C 
ENDBRANCH   2   9
BRANCH   4  11
ATOM     11  C   UNL     1     187.175 190.854 185.192  1.00  0.00     0.062 C 
BRANCH  11  12
ATOM     12  C   UNL     1     187.175 189.532 184.476  1.00  0.00    -0.030 C 
ATOM     13  C   UNL     1     188.268 188.766 184.415  1.00  0.00     0.004 C 
ENDBRANCH  11  12
ENDBRANCH   4  11
TORSDOF 4
ENDMDL
MODEL 5
REMARK VINA RESULT:    -4.349      1.122      1.546
REMARK INTER + INTRA:          -5.614
REMARK INTER:                  -5.319
REMARK INTRA:                  -0.295
REMARK UNBOUND:                -0.247
REMARK SMILES C=CCc1ccc(OC)c(OC)c1
REMARK SMILES IDX 7 1 10 2 13 3 4 4 5 5 6 6 8 7 9 8 11 9 12 10 3 11 2 12 1 13
REMARK H PARENT
REMARK Flexibility Score: inf
ROOT
ATOM      1  C   UNL     1     184.580 190.498 188.950  1.00  0.00     0.160 A 
ATOM      2  C   UNL     1     184.953 191.045 190.188  1.00  0.00     0.160 A 
ATOM      3  C   UNL     1     185.558 192.317 190.233  1.00  0.00     0.054 A 
ATOM      4  C   UNL     1     185.784 193.042 189.054  1.00  0.00    -0.040 A 
ATOM      5  C   UNL     1     185.419 192.484 187.823  1.00  0.00     0.008 A 
ATOM      6  C   UNL     1     184.819 191.225 187.768  1.00  0.00     0.051 A 
ENDROOT
BRANCH   1   7
ATOM      7  O   UNL     1     183.979 189.229 188.936  1.00  0.00    -0.493 OA
ATOM      8  C   UNL     1     184.656 188.019 188.614  1.00  0.00     0.278 C 
ENDBRANCH   1   7
BRANCH   2   9
ATOM      9  O   UNL     1     184.707 190.296 191.350  1.00  0.00    -0.493 OA
ATOM     10  C   UNL     1     185.677 189.493 192.013  1.00  0.00     0.278 C 
ENDBRANCH   2   9
BRANCH   4  11
ATOM     11  C   UNL     1     186.458 194.388 189.110  1.00  0.00     0.062 C 
BRANCH  11  12
ATOM     12  C   UNL     1     186.533 194.887 190.526  1.00  0.00    -0.030 C 
ATOM     13  C   UNL     1     186.511 196.192 190.813  1.00  0.00     0.004 C 
ENDBRANCH  11  12
ENDBRANCH   4  11
TORSDOF 4
ENDMDL
MODEL 6
REMARK VINA RESULT:    -4.255      1.744      3.551
REMARK INTER + INTRA:          -5.497
REMARK INTER:                  -5.215
REMARK INTRA:                  -0.282
REMARK UNBOUND:                -0.247
REMARK SMILES C=CCc1ccc(OC)c(OC)c1
REMARK SMILES IDX 7 1 10 2 13 3 4 4 5 5 6 6 8 7 9 8 11 9 12 10 3 11 2 12 1 13
REMARK H PARENT
REMARK Flexibility Score: inf
ROOT
ATOM      1  C   UNL     1     184.787 187.722 191.584  1.00  0.00     0.160 A 
ATOM      2  C   UNL     1     184.120 187.673 190.350  1.00  0.00     0.160 A 
ATOM      3  C   UNL     1     183.868 188.869 189.648  1.00  0.00     0.054 A 
ATOM      4  C   UNL     1     184.282 190.103 190.168  1.00  0.00    -0.040 A 
ATOM      5  C   UNL     1     184.938 190.143 191.405  1.00  0.00     0.008 A 
ATOM      6  C   UNL     1     185.192 188.964 192.108  1.00  0.00     0.051 A 
ENDROOT
BRANCH   1   7
ATOM      7  O   UNL     1     185.026 186.514 192.260  1.00  0.00    -0.493 OA
ATOM      8  C   UNL     1     186.041 186.327 193.241  1.00  0.00     0.278 C 
ENDBRANCH   1   7
BRANCH   2   9
ATOM      9  O   UNL     1     183.724 186.420 189.854  1.00  0.00    -0.493 OA
ATOM     10  C   UNL     1     182.380 185.953 189.824  1.00  0.00     0.278 C 
ENDBRANCH   2   9
BRANCH   4  11
ATOM     11  C   UNL     1     183.982 191.378 189.424  1.00  0.00     0.062 C 
BRANCH  11  12
ATOM     12  C   UNL     1     185.249 192.126 189.117  1.00  0.00    -0.030 C 
ATOM     13  C   UNL     1     185.623 192.389 187.861  1.00  0.00     0.004 C 
ENDBRANCH  11  12
ENDBRANCH   4  11
TORSDOF 4
ENDMDL
MODEL 7
REMARK VINA RESULT:    -4.242      4.531      7.406
REMARK INTER + INTRA:          -5.482
REMARK INTER:                  -5.244
REMARK INTRA:                  -0.237
REMARK UNBOUND:                -0.247
REMARK SMILES C=CCc1ccc(OC)c(OC)c1
REMARK SMILES IDX 7 1 10 2 13 3 4 4 5 5 6 6 8 7 9 8 11 9 12 10 3 11 2 12 1 13
REMARK H PARENT
REMARK Flexibility Score: inf
ROOT
ATOM      1  C   UNL     1     186.805 197.280 191.586  1.00  0.00     0.160 A 
ATOM      2  C   UNL     1     186.711 196.098 192.337  1.00  0.00     0.160 A 
ATOM      3  C   UNL     1     186.785 194.851 191.685  1.00  0.00     0.054 A 
ATOM      4  C   UNL     1     186.958 194.781 190.295  1.00  0.00    -0.040 A 
ATOM      5  C   UNL     1     187.041 195.966 189.552  1.00  0.00     0.008 A 
ATOM      6  C   UNL     1     186.969 197.205 190.190  1.00  0.00     0.051 A 
ENDROOT
BRANCH   1   7
ATOM      7  O   UNL     1     186.730 198.508 192.263  1.00  0.00    -0.493 OA
ATOM      8  C   UNL     1     186.928 199.779 191.652  1.00  0.00     0.278 C 
ENDBRANCH   1   7
BRANCH   2   9
ATOM      9  O   UNL     1     186.543 196.203 193.728  1.00  0.00    -0.493 OA
ATOM     10  C   UNL     1     185.989 195.184 194.553  1.00  0.00     0.278 C 
ENDBRANCH   2   9
BRANCH   4  11
ATOM     11  C   UNL     1     187.006 193.445 189.604  1.00  0.00     0.062 C 
BRANCH  11  12
ATOM     12  C   UNL     1     185.659 193.087 189.040  1.00  0.00    -0.030 C 
ATOM     13  C   UNL     1     185.534 192.420 187.889  1.00  0.00     0.004 C 
ENDBRANCH  11  12
ENDBRANCH   4  11
TORSDOF 4
ENDMDL
MODEL 8
REMARK VINA RESULT:    -4.225      3.625      6.254
REMARK INTER + INTRA:          -5.460
REMARK INTER:                  -5.187
REMARK INTRA:                  -0.273
REMARK UNBOUND:                -0.247
REMARK SMILES C=CCc1ccc(OC)c(OC)c1
REMARK SMILES IDX 7 1 10 2 13 3 4 4 5 5 6 6 8 7 9 8 11 9 12 10 3 11 2 12 1 13
REMARK H PARENT
REMARK Flexibility Score: inf
ROOT
ATOM      1  C   UNL     1     186.857 194.418 191.724  1.00  0.00     0.160 A 
ATOM      2  C   UNL     1     186.582 195.223 190.607  1.00  0.00     0.160 A 
ATOM      3  C   UNL     1     186.170 194.622 189.401  1.00  0.00     0.054 A 
ATOM      4  C   UNL     1     186.026 193.229 189.309  1.00  0.00    -0.040 A 
ATOM      5  C   UNL     1     186.313 192.434 190.426  1.00  0.00     0.008 A 
ATOM      6  C   UNL     1     186.722 193.020 191.625  1.00  0.00     0.051 A 
ENDROOT
BRANCH   1   7
ATOM      7  O   UNL     1     187.265 195.044 192.913  1.00  0.00    -0.493 OA
ATOM      8  C   UNL     1     186.453 195.174 194.075  1.00  0.00     0.278 C 
ENDBRANCH   1   7
BRANCH   2   9
ATOM      9  O   UNL     1     186.730 196.613 190.734  1.00  0.00    -0.493 OA
ATOM     10  C   UNL     1     187.600 197.408 189.937  1.00  0.00     0.278 C 
ENDBRANCH   2   9
BRANCH   4  11
ATOM     11  C   UNL     1     185.613 192.595 188.008  1.00  0.00     0.062 C 
BRANCH  11  12
ATOM     12  C   UNL     1     184.610 191.501 188.244  1.00  0.00    -0.030 C 
ATOM     13  C   UNL     1     184.372 190.556 187.328  1.00  0.00     0.004 C 
ENDBRANCH  11  12
ENDBRANCH   4  11
TORSDOF 4
ENDMDL
MODEL 9
REMARK VINA RESULT:    -4.146      4.483      7.047
REMARK INTER + INTRA:          -5.363
REMARK INTER:                  -5.044
REMARK INTRA:                  -0.318
REMARK UNBOUND:                -0.247
REMARK SMILES C=CCc1ccc(OC)c(OC)c1
REMARK SMILES IDX 7 1 10 2 13 3 4 4 5 5 6 6 8 7 9 8 11 9 12 10 3 11 2 12 1 13
REMARK H PARENT
REMARK Flexibility Score: inf
ROOT
ATOM      1  C   UNL     1     188.794 195.392 189.692  1.00  0.00     0.160 A 
ATOM      2  C   UNL     1     187.476 195.863 189.599  1.00  0.00     0.160 A 
ATOM      3  C   UNL     1     186.420 194.947 189.422  1.00  0.00     0.054 A 
ATOM      4  C   UNL     1     186.674 193.570 189.344  1.00  0.00    -0.040 A 
ATOM      5  C   UNL     1     187.995 193.109 189.428  1.00  0.00     0.008 A 
ATOM      6  C   UNL     1     189.047 194.009 189.603  1.00  0.00     0.051 A 
ENDROOT
BRANCH   1   7
ATOM      7  O   UNL     1     189.826 196.328 189.869  1.00  0.00    -0.493 OA
ATOM      8  C   UNL     1     190.454 196.609 191.116  1.00  0.00     0.278 C 
ENDBRANCH   1   7
BRANCH   2   9
ATOM      9  O   UNL     1     187.254 197.247 189.686  1.00  0.00    -0.493 OA
ATOM     10  C   UNL     1     186.821 197.923 190.862  1.00  0.00     0.278 C 
ENDBRANCH   2   9
BRANCH   4  11
ATOM     11  C   UNL     1     185.543 192.601 189.126  1.00  0.00     0.062 C 
BRANCH  11  12
ATOM     12  C   UNL     1     185.370 192.306 187.662  1.00  0.00    -0.030 C 
ATOM     13  C   UNL     1     185.929 191.235 187.091  1.00  0.00     0.004 C 
ENDBRANCH  11  12
ENDBRANCH   4  11
TORSDOF 4
ENDMDL
