MODEL 1
REMARK VINA RESULT:    -6.727      0.000      0.000
REMARK INTER + INTRA:         -10.802
REMARK INTER:                  -9.873
REMARK INTRA:                  -0.929
REMARK UNBOUND:                -0.929
REMARK SMILES O=c1c(O[C@@H]2O[C@H](CO)[C@H](O)[C@H](O)[C@H]2O)c(-c2ccc(O)c(O)c2)oc2cc(O)cc(O)c12
REMARK SMILES IDX 4 1 3 2 16 3 25 4 2 5 26 6 1 7 33 8 27 9 31 10 28 11 30 12
REMARK SMILES IDX 17 13 18 14 19 15 20 16 24 17 22 18 21 19 23 21 32 23 29 25
REMARK SMILES IDX 5 27 14 28 6 29 12 30 7 31 10 32 15 33 13 35 8 37 9 38 11 40
REMARK H PARENT 21 20 23 22 32 24 29 26 15 34 13 36 9 39 11 41
REMARK Flexibility Score: inf
ROOT
ATOM      1  O   UNL     1       6.655  10.061 -17.703  1.00  0.00    -0.454 OA
ENDROOT
BRANCH   1   2
ATOM      2  C   UNL     1       6.825   8.718 -17.308  1.00  0.00     0.214 A 
ATOM      3  C   UNL     1       7.304   8.467 -16.006  1.00  0.00     0.180 A 
ATOM      4  O   UNL     1       7.534   7.221 -15.608  1.00  0.00    -0.452 OA
ATOM      5  C   UNL     1       6.564   7.612 -18.149  1.00  0.00     0.239 A 
ATOM      6  C   UNL     1       7.312   6.157 -16.368  1.00  0.00     0.146 A 
ATOM      7  O   UNL     1       6.117   7.788 -19.313  1.00  0.00    -0.285 OA
ATOM      8  C   UNL     1       6.805   6.303 -17.678  1.00  0.00     0.111 A 
ATOM      9  C   UNL     1       7.582   4.887 -15.852  1.00  0.00     0.094 A 
ATOM     10  C   UNL     1       6.570   5.142 -18.456  1.00  0.00     0.134 A 
ATOM     11  C   UNL     1       7.353   3.745 -16.627  1.00  0.00     0.123 A 
ATOM     12  C   UNL     1       6.850   3.875 -17.923  1.00  0.00     0.093 A 
BRANCH   3  13
ATOM     13  C   UNL     1       7.602   9.564 -15.057  1.00  0.00     0.025 A 
ATOM     14  C   UNL     1       6.890   9.643 -13.851  1.00  0.00     0.016 A 
ATOM     15  C   UNL     1       7.157  10.665 -12.937  1.00  0.00     0.051 A 
ATOM     16  C   UNL     1       8.123  11.638 -13.225  1.00  0.00     0.157 A 
ATOM     17  C   UNL     1       8.555  10.557 -15.356  1.00  0.00     0.062 A 
ATOM     18  C   UNL     1       8.816  11.588 -14.446  1.00  0.00     0.158 A 
BRANCH  16  19
ATOM     19  O   UNL     1       8.391  12.652 -12.308  1.00  0.00    -0.504 OA
ATOM     20  H   UNL     1       8.028  13.589 -12.431  1.00  0.00     0.293 HD
ENDBRANCH  16  19
BRANCH  18  21
ATOM     21  O   UNL     1       9.761  12.556 -14.776  1.00  0.00    -0.504 OA
ATOM     22  H   UNL     1       9.576  13.277 -15.463  1.00  0.00     0.293 HD
ENDBRANCH  18  21
ENDBRANCH   3  13
BRANCH  10  23
ATOM     23  O   UNL     1       6.057   5.235 -19.752  1.00  0.00    -0.507 OA
ATOM     24  H   UNL     1       5.096   4.988 -19.967  1.00  0.00     0.293 HD
ENDBRANCH  10  23
BRANCH  11  25
ATOM     25  O   UNL     1       7.619   2.477 -16.121  1.00  0.00    -0.508 OA
ATOM     26  H   UNL     1       6.877   1.887 -15.760  1.00  0.00     0.293 HD
ENDBRANCH  11  25
ENDBRANCH   1   2
BRANCH   1  27
ATOM     27  C   UNL     1       7.469  10.810 -18.602  1.00  0.00     0.339 C 
ATOM     28  C   UNL     1       6.576  11.324 -19.752  1.00  0.00     0.214 C 
ATOM     29  O   UNL     1       8.071  11.880 -17.887  1.00  0.00    -0.332 OA
ATOM     30  C   UNL     1       7.405  12.108 -20.800  1.00  0.00     0.180 C 
ATOM     31  C   UNL     1       8.647  12.905 -18.697  1.00  0.00     0.179 C 
ATOM     32  C   UNL     1       8.757  12.568 -20.214  1.00  0.00     0.177 C 
BRANCH  28  33
ATOM     33  O   UNL     1       5.875  10.267 -20.363  1.00  0.00    -0.384 OA
ATOM     34  H   UNL     1       4.905  10.440 -20.247  1.00  0.00     0.211 HD
ENDBRANCH  28  33
BRANCH  30  35
ATOM     35  O   UNL     1       6.671  13.215 -21.261  1.00  0.00    -0.387 OA
ATOM     36  H   UNL     1       7.078  14.021 -20.847  1.00  0.00     0.211 HD
ENDBRANCH  30  35
BRANCH  31  37
ATOM     37  C   UNL     1       7.892  14.223 -18.444  1.00  0.00     0.191 C 
BRANCH  37  38
ATOM     38  O   UNL     1       8.752  15.320 -18.602  1.00  0.00    -0.394 OA
ATOM     39  H   UNL     1       9.058  15.584 -17.694  1.00  0.00     0.210 HD
ENDBRANCH  37  38
ENDBRANCH  31  37
BRANCH  32  40
ATOM     40  O   UNL     1       9.261  13.661 -20.941  1.00  0.00    -0.387 OA
ATOM     41  H   UNL     1      10.207  13.453 -21.162  1.00  0.00     0.211 HD
ENDBRANCH  32  40
ENDBRANCH   1  27
TORSDOF 12
ENDMDL
MODEL 2
REMARK VINA RESULT:    -6.325      2.518      4.220
REMARK INTER + INTRA:         -10.212
REMARK INTER:                 -10.208
REMARK INTRA:                  -0.004
REMARK UNBOUND:                -0.929
REMARK SMILES O=c1c(O[C@@H]2O[C@H](CO)[C@H](O)[C@H](O)[C@H]2O)c(-c2ccc(O)c(O)c2)oc2cc(O)cc(O)c12
REMARK SMILES IDX 4 1 3 2 16 3 25 4 2 5 26 6 1 7 33 8 27 9 31 10 28 11 30 12
REMARK SMILES IDX 17 13 18 14 19 15 20 16 24 17 22 18 21 19 23 21 32 23 29 25
REMARK SMILES IDX 5 27 14 28 6 29 12 30 7 31 10 32 15 33 13 35 8 37 9 38 11 40
REMARK H PARENT 21 20 23 22 32 24 29 26 15 34 13 36 9 39 11 41
REMARK Flexibility Score: inf
ROOT
ATOM      1  O   UNL     1       8.336   9.689 -17.434  1.00  0.00    -0.454 OA
ENDROOT
BRANCH   1   2
ATOM      2  C   UNL     1       8.024   9.542 -16.066  1.00  0.00     0.214 A 
ATOM      3  C   UNL     1       8.406  10.574 -15.186  1.00  0.00     0.180 A 
ATOM      4  O   UNL     1       8.185  10.456 -13.881  1.00  0.00    -0.452 OA
ATOM      5  C   UNL     1       7.370   8.411 -15.526  1.00  0.00     0.239 A 
ATOM      6  C   UNL     1       7.584   9.408 -13.333  1.00  0.00     0.146 A 
ATOM      7  O   UNL     1       6.993   7.473 -16.277  1.00  0.00    -0.285 OA
ATOM      8  C   UNL     1       7.138   8.335 -14.135  1.00  0.00     0.111 A 
ATOM      9  C   UNL     1       7.395   9.382 -11.950  1.00  0.00     0.094 A 
ATOM     10  C   UNL     1       6.490   7.237 -13.515  1.00  0.00     0.134 A 
ATOM     11  C   UNL     1       6.759   8.294 -11.342  1.00  0.00     0.123 A 
ATOM     12  C   UNL     1       6.311   7.227 -12.123  1.00  0.00     0.093 A 
BRANCH   3  13
ATOM     13  C   UNL     1       9.093  11.796 -15.664  1.00  0.00     0.025 A 
ATOM     14  C   UNL     1      10.454  11.736 -15.994  1.00  0.00     0.016 A 
ATOM     15  C   UNL     1      11.123  12.874 -16.452  1.00  0.00     0.051 A 
ATOM     16  C   UNL     1      10.445  14.095 -16.565  1.00  0.00     0.157 A 
ATOM     17  C   UNL     1       8.420  13.031 -15.754  1.00  0.00     0.062 A 
ATOM     18  C   UNL     1       9.090  14.173 -16.204  1.00  0.00     0.158 A 
BRANCH  16  19
ATOM     19  O   UNL     1      11.114  15.226 -17.029  1.00  0.00    -0.504 OA
ATOM     20  H   UNL     1      10.617  16.072 -17.280  1.00  0.00     0.293 HD
ENDBRANCH  16  19
BRANCH  18  21
ATOM     21  O   UNL     1       8.396  15.378 -16.276  1.00  0.00    -0.504 OA
ATOM     22  H   UNL     1       8.647  16.179 -15.710  1.00  0.00     0.293 HD
ENDBRANCH  18  21
ENDBRANCH   3  13
BRANCH  10  23
ATOM     23  O   UNL     1       6.020   6.159 -14.268  1.00  0.00    -0.507 OA
ATOM     24  H   UNL     1       5.224   6.248 -14.892  1.00  0.00     0.293 HD
ENDBRANCH  10  23
BRANCH  11  25
ATOM     25  O   UNL     1       6.566   8.261  -9.965  1.00  0.00    -0.508 OA
ATOM     26  H   UNL     1       5.649   8.412  -9.558  1.00  0.00     0.293 HD
ENDBRANCH  11  25
ENDBRANCH   1   2
BRANCH   1  27
ATOM     27  C   UNL     1       8.453  10.904 -18.170  1.00  0.00     0.339 C 
ATOM     28  C   UNL     1       9.382  10.652 -19.377  1.00  0.00     0.214 C 
ATOM     29  O   UNL     1       7.156  11.313 -18.582  1.00  0.00    -0.332 OA
ATOM     30  C   UNL     1       9.599  11.948 -20.199  1.00  0.00     0.180 C 
ATOM     31  C   UNL     1       7.129  12.319 -19.595  1.00  0.00     0.179 C 
ATOM     32  C   UNL     1       8.501  12.991 -19.898  1.00  0.00     0.177 C 
BRANCH  28  33
ATOM     33  O   UNL     1      10.616  10.114 -18.965  1.00  0.00    -0.384 OA
ATOM     34  H   UNL     1      11.262  10.234 -19.708  1.00  0.00     0.211 HD
ENDBRANCH  28  33
BRANCH  30  35
ATOM     35  O   UNL     1       9.621  11.645 -21.572  1.00  0.00    -0.387 OA
ATOM     36  H   UNL     1      10.574  11.504 -21.818  1.00  0.00     0.211 HD
ENDBRANCH  30  35
BRANCH  31  37
ATOM     37  C   UNL     1       6.471  11.736 -20.859  1.00  0.00     0.191 C 
BRANCH  37  38
ATOM     38  O   UNL     1       5.889  12.757 -21.626  1.00  0.00    -0.394 OA
ATOM     39  H   UNL     1       6.544  12.999 -22.333  1.00  0.00     0.210 HD
ENDBRANCH  37  38
ENDBRANCH  31  37
BRANCH  32  40
ATOM     40  O   UNL     1       8.393  13.909 -20.958  1.00  0.00    -0.387 OA
ATOM     41  H   UNL     1       7.450  13.886 -21.268  1.00  0.00     0.211 HD
ENDBRANCH  32  40
ENDBRANCH   1  27
TORSDOF 12
ENDMDL
MODEL 3
REMARK VINA RESULT:    -6.213      1.734      5.634
REMARK INTER + INTRA:         -10.047
REMARK INTER:                  -9.464
REMARK INTRA:                  -0.584
REMARK UNBOUND:                -0.929
REMARK SMILES O=c1c(O[C@@H]2O[C@H](CO)[C@H](O)[C@H](O)[C@H]2O)c(-c2ccc(O)c(O)c2)oc2cc(O)cc(O)c12
REMARK SMILES IDX 4 1 3 2 16 3 25 4 2 5 26 6 1 7 33 8 27 9 31 10 28 11 30 12
REMARK SMILES IDX 17 13 18 14 19 15 20 16 24 17 22 18 21 19 23 21 32 23 29 25
REMARK SMILES IDX 5 27 14 28 6 29 12 30 7 31 10 32 15 33 13 35 8 37 9 38 11 40
REMARK H PARENT 21 20 23 22 32 24 29 26 15 34 13 36 9 39 11 41
REMARK Flexibility Score: inf
ROOT
ATOM      1  O   UNL     1       7.985   9.437 -17.579  1.00  0.00    -0.454 OA
ENDROOT
BRANCH   1   2
ATOM      2  C   UNL     1       7.632   8.949 -16.304  1.00  0.00     0.214 A 
ATOM      3  C   UNL     1       7.100   7.646 -16.218  1.00  0.00     0.180 A 
ATOM      4  O   UNL     1       6.701   7.163 -15.047  1.00  0.00    -0.452 OA
ATOM      5  C   UNL     1       7.762   9.697 -15.111  1.00  0.00     0.239 A 
ATOM      6  C   UNL     1       6.795   7.836 -13.907  1.00  0.00     0.146 A 
ATOM      7  O   UNL     1       8.249  10.858 -15.137  1.00  0.00    -0.285 OA
ATOM      8  C   UNL     1       7.341   9.138 -13.885  1.00  0.00     0.111 A 
ATOM      9  C   UNL     1       6.350   7.236 -12.727  1.00  0.00     0.094 A 
ATOM     10  C   UNL     1       7.436   9.822 -12.647  1.00  0.00     0.134 A 
ATOM     11  C   UNL     1       6.441   7.918 -11.509  1.00  0.00     0.123 A 
ATOM     12  C   UNL     1       6.981   9.204 -11.472  1.00  0.00     0.093 A 
BRANCH   3  13
ATOM     13  C   UNL     1       6.932   6.789 -17.414  1.00  0.00     0.025 A 
ATOM     14  C   UNL     1       7.068   5.399 -17.290  1.00  0.00     0.016 A 
ATOM     15  C   UNL     1       6.908   4.570 -18.403  1.00  0.00     0.051 A 
ATOM     16  C   UNL     1       6.633   5.120 -19.661  1.00  0.00     0.157 A 
ATOM     17  C   UNL     1       6.680   7.342 -18.685  1.00  0.00     0.062 A 
ATOM     18  C   UNL     1       6.529   6.513 -19.802  1.00  0.00     0.158 A 
BRANCH  16  19
ATOM     19  O   UNL     1       6.467   4.289 -20.767  1.00  0.00    -0.504 OA
ATOM     20  H   UNL     1       5.911   4.570 -21.565  1.00  0.00     0.293 HD
ENDBRANCH  16  19
BRANCH  18  21
ATOM     21  O   UNL     1       6.286   7.093 -21.045  1.00  0.00    -0.504 OA
ATOM     22  H   UNL     1       5.889   6.570 -21.815  1.00  0.00     0.293 HD
ENDBRANCH  18  21
ENDBRANCH   3  13
BRANCH  10  23
ATOM     23  O   UNL     1       7.981  11.105 -12.572  1.00  0.00    -0.507 OA
ATOM     24  H   UNL     1       8.877  11.282 -12.129  1.00  0.00     0.293 HD
ENDBRANCH  10  23
BRANCH  11  25
ATOM     25  O   UNL     1       6.001   7.327 -10.329  1.00  0.00    -0.508 OA
ATOM     26  H   UNL     1       5.094   6.876 -10.270  1.00  0.00     0.293 HD
ENDBRANCH  11  25
ENDBRANCH   1   2
BRANCH   1  27
ATOM     27  C   UNL     1       7.760  10.744 -18.100  1.00  0.00     0.339 C 
ATOM     28  C   UNL     1       8.934  11.103 -19.034  1.00  0.00     0.214 C 
ATOM     29  O   UNL     1       6.518  10.749 -18.791  1.00  0.00    -0.332 OA
ATOM     30  C   UNL     1       8.784  12.538 -19.600  1.00  0.00     0.180 C 
ATOM     31  C   UNL     1       6.301  11.877 -19.641  1.00  0.00     0.179 C 
ATOM     32  C   UNL     1       7.327  13.036 -19.478  1.00  0.00     0.177 C 
BRANCH  28  33
ATOM     33  O   UNL     1      10.170  10.958 -18.376  1.00  0.00    -0.384 OA
ATOM     34  H   UNL     1      10.415  11.839 -17.992  1.00  0.00     0.211 HD
ENDBRANCH  28  33
BRANCH  30  35
ATOM     35  O   UNL     1       9.199  12.569 -20.943  1.00  0.00    -0.387 OA
ATOM     36  H   UNL     1       8.382  12.703 -21.493  1.00  0.00     0.211 HD
ENDBRANCH  30  35
BRANCH  31  37
ATOM     37  C   UNL     1       6.195  11.389 -21.098  1.00  0.00     0.191 C 
BRANCH  37  38
ATOM     38  O   UNL     1       6.311   9.992 -21.158  1.00  0.00    -0.394 OA
ATOM     39  H   UNL     1       7.251   9.768 -20.926  1.00  0.00     0.210 HD
ENDBRANCH  37  38
ENDBRANCH  31  37
BRANCH  32  40
ATOM     40  O   UNL     1       7.082  14.065 -20.406  1.00  0.00    -0.387 OA
ATOM     41  H   UNL     1       7.226  13.681 -21.311  1.00  0.00     0.211 HD
ENDBRANCH  32  40
ENDBRANCH   1  27
TORSDOF 12
ENDMDL
MODEL 4
REMARK VINA RESULT:    -6.073      4.714      9.010
REMARK INTER + INTRA:          -9.843
REMARK INTER:                 -10.265
REMARK INTRA:                   0.423
REMARK UNBOUND:                -0.929
REMARK SMILES O=c1c(O[C@@H]2O[C@H](CO)[C@H](O)[C@H](O)[C@H]2O)c(-c2ccc(O)c(O)c2)oc2cc(O)cc(O)c12
REMARK SMILES IDX 4 1 3 2 16 3 25 4 2 5 26 6 1 7 33 8 27 9 31 10 28 11 30 12
REMARK SMILES IDX 17 13 18 14 19 15 20 16 24 17 22 18 21 19 23 21 32 23 29 25
REMARK SMILES IDX 5 27 14 28 6 29 12 30 7 31 10 32 15 33 13 35 8 37 9 38 11 40
REMARK H PARENT 21 20 23 22 32 24 29 26 15 34 13 36 9 39 11 41
REMARK Flexibility Score: inf
ROOT
ATOM      1  O   UNL     1       7.330  15.964 -17.381  1.00  0.00    -0.454 OA
ENDROOT
BRANCH   1   2
ATOM      2  C   UNL     1       7.763  16.170 -18.707  1.00  0.00     0.214 A 
ATOM      3  C   UNL     1       7.830  17.496 -19.182  1.00  0.00     0.180 A 
ATOM      4  O   UNL     1       8.178  17.738 -20.440  1.00  0.00    -0.452 OA
ATOM      5  C   UNL     1       8.112  15.125 -19.592  1.00  0.00     0.239 A 
ATOM      6  C   UNL     1       8.503  16.787 -21.306  1.00  0.00     0.146 A 
ATOM      7  O   UNL     1       8.085  13.927 -19.206  1.00  0.00    -0.285 OA
ATOM      8  C   UNL     1       8.494  15.429 -20.917  1.00  0.00     0.111 A 
ATOM      9  C   UNL     1       8.859  17.147 -22.607  1.00  0.00     0.094 A 
ATOM     10  C   UNL     1       8.858  14.441 -21.866  1.00  0.00     0.134 A 
ATOM     11  C   UNL     1       9.212  16.167 -23.541  1.00  0.00     0.123 A 
ATOM     12  C   UNL     1       9.210  14.821 -23.170  1.00  0.00     0.093 A 
BRANCH   3  13
ATOM     13  C   UNL     1       7.486  18.653 -18.324  1.00  0.00     0.025 A 
ATOM     14  C   UNL     1       6.234  18.693 -17.693  1.00  0.00     0.016 A 
ATOM     15  C   UNL     1       5.889  19.772 -16.874  1.00  0.00     0.051 A 
ATOM     16  C   UNL     1       6.780  20.837 -16.692  1.00  0.00     0.157 A 
ATOM     17  C   UNL     1       8.371  19.737 -18.160  1.00  0.00     0.062 A 
ATOM     18  C   UNL     1       8.022  20.822 -17.348  1.00  0.00     0.158 A 
BRANCH  16  19
ATOM     19  O   UNL     1       6.434  21.906 -15.870  1.00  0.00    -0.504 OA
ATOM     20  H   UNL     1       6.737  22.852 -16.071  1.00  0.00     0.293 HD
ENDBRANCH  16  19
BRANCH  18  21
ATOM     21  O   UNL     1       8.919  21.879 -17.213  1.00  0.00    -0.504 OA
ATOM     22  H   UNL     1       8.620  22.807 -16.938  1.00  0.00     0.293 HD
ENDBRANCH  18  21
ENDBRANCH   3  13
BRANCH  10  23
ATOM     23  O   UNL     1       8.877  13.086 -21.525  1.00  0.00    -0.507 OA
ATOM     24  H   UNL     1       9.720  12.629 -21.194  1.00  0.00     0.293 HD
ENDBRANCH  10  23
BRANCH  11  25
ATOM     25  O   UNL     1       9.570  16.517 -24.839  1.00  0.00    -0.508 OA
ATOM     26  H   UNL     1      10.297  16.017 -25.340  1.00  0.00     0.293 HD
ENDBRANCH  11  25
ENDBRANCH   1   2
BRANCH   1  27
ATOM     27  C   UNL     1       7.813  14.997 -16.452  1.00  0.00     0.339 C 
ATOM     28  C   UNL     1       7.277  13.612 -16.870  1.00  0.00     0.214 C 
ATOM     29  O   UNL     1       9.234  15.033 -16.456  1.00  0.00    -0.332 OA
ATOM     30  C   UNL     1       7.721  12.512 -15.872  1.00  0.00     0.180 C 
ATOM     31  C   UNL     1       9.872  13.917 -15.834  1.00  0.00     0.179 C 
ATOM     32  C   UNL     1       8.927  12.978 -15.028  1.00  0.00     0.177 C 
BRANCH  28  33
ATOM     33  O   UNL     1       5.875  13.627 -16.999  1.00  0.00    -0.384 OA
ATOM     34  H   UNL     1       5.609  12.820 -17.511  1.00  0.00     0.211 HD
ENDBRANCH  28  33
BRANCH  30  35
ATOM     35  O   UNL     1       8.040  11.333 -16.569  1.00  0.00    -0.387 OA
ATOM     36  H   UNL     1       7.333  10.671 -16.349  1.00  0.00     0.211 HD
ENDBRANCH  30  35
BRANCH  31  37
ATOM     37  C   UNL     1      10.689  13.156 -16.895  1.00  0.00     0.191 C 
BRANCH  37  38
ATOM     38  O   UNL     1      11.557  12.240 -16.282  1.00  0.00    -0.394 OA
ATOM     39  H   UNL     1      11.307  12.200 -15.321  1.00  0.00     0.210 HD
ENDBRANCH  37  38
ENDBRANCH  31  37
BRANCH  32  40
ATOM     40  O   UNL     1       9.627  11.869 -14.519  1.00  0.00    -0.387 OA
ATOM     41  H   UNL     1      10.030  11.398 -15.295  1.00  0.00     0.211 HD
ENDBRANCH  32  40
ENDBRANCH   1  27
TORSDOF 12
ENDMDL
MODEL 5
REMARK VINA RESULT:    -6.004      2.498      8.193
REMARK INTER + INTRA:          -9.741
REMARK INTER:                  -9.613
REMARK INTRA:                  -0.129
REMARK UNBOUND:                -0.929
REMARK SMILES O=c1c(O[C@@H]2O[C@H](CO)[C@H](O)[C@H](O)[C@H]2O)c(-c2ccc(O)c(O)c2)oc2cc(O)cc(O)c12
REMARK SMILES IDX 4 1 3 2 16 3 25 4 2 5 26 6 1 7 33 8 27 9 31 10 28 11 30 12
REMARK SMILES IDX 17 13 18 14 19 15 20 16 24 17 22 18 21 19 23 21 32 23 29 25
REMARK SMILES IDX 5 27 14 28 6 29 12 30 7 31 10 32 15 33 13 35 8 37 9 38 11 40
REMARK H PARENT 21 20 23 22 32 24 29 26 15 34 13 36 9 39 11 41
REMARK Flexibility Score: inf
ROOT
ATOM      1  O   UNL     1       7.048  13.501 -17.164  1.00  0.00    -0.454 OA
ENDROOT
BRANCH   1   2
ATOM      2  C   UNL     1       7.464  13.870 -18.460  1.00  0.00     0.214 A 
ATOM      3  C   UNL     1       7.766  12.841 -19.375  1.00  0.00     0.180 A 
ATOM      4  O   UNL     1       8.215  13.137 -20.589  1.00  0.00    -0.452 OA
ATOM      5  C   UNL     1       7.616  15.209 -18.887  1.00  0.00     0.239 A 
ATOM      6  C   UNL     1       8.381  14.378 -21.025  1.00  0.00     0.146 A 
ATOM      7  O   UNL     1       7.339  16.161 -18.110  1.00  0.00    -0.285 OA
ATOM      8  C   UNL     1       8.079  15.478 -20.193  1.00  0.00     0.111 A 
ATOM      9  C   UNL     1       8.856  14.583 -22.322  1.00  0.00     0.094 A 
ATOM     10  C   UNL     1       8.258  16.791 -20.697  1.00  0.00     0.134 A 
ATOM     11  C   UNL     1       9.037  15.881 -22.814  1.00  0.00     0.123 A 
ATOM     12  C   UNL     1       8.739  16.978 -22.003  1.00  0.00     0.093 A 
BRANCH   3  13
ATOM     13  C   UNL     1       7.633  11.410 -19.015  1.00  0.00     0.025 A 
ATOM     14  C   UNL     1       6.414  10.754 -19.239  1.00  0.00     0.016 A 
ATOM     15  C   UNL     1       6.266   9.403 -18.913  1.00  0.00     0.051 A 
ATOM     16  C   UNL     1       7.328   8.694 -18.337  1.00  0.00     0.157 A 
ATOM     17  C   UNL     1       8.691  10.701 -18.413  1.00  0.00     0.062 A 
ATOM     18  C   UNL     1       8.542   9.352 -18.077  1.00  0.00     0.158 A 
BRANCH  16  19
ATOM     19  O   UNL     1       7.178   7.346 -18.020  1.00  0.00    -0.504 OA
ATOM     20  H   UNL     1       6.584   7.042 -17.259  1.00  0.00     0.293 HD
ENDBRANCH  16  19
BRANCH  18  21
ATOM     21  O   UNL     1       9.607   8.683 -17.478  1.00  0.00    -0.504 OA
ATOM     22  H   UNL     1       9.567   7.695 -17.259  1.00  0.00     0.293 HD
ENDBRANCH  18  21
ENDBRANCH   3  13
BRANCH  10  23
ATOM     23  O   UNL     1       7.960  17.910 -19.917  1.00  0.00    -0.507 OA
ATOM     24  H   UNL     1       7.422  18.690 -20.282  1.00  0.00     0.293 HD
ENDBRANCH  10  23
BRANCH  11  25
ATOM     25  O   UNL     1       9.508  16.094 -24.105  1.00  0.00    -0.508 OA
ATOM     26  H   UNL     1       9.682  17.030 -24.455  1.00  0.00     0.293 HD
ENDBRANCH  11  25
ENDBRANCH   1   2
BRANCH   1  27
ATOM     27  C   UNL     1       7.608  12.493 -16.327  1.00  0.00     0.339 C 
ATOM     28  C   UNL     1       8.131  13.164 -15.040  1.00  0.00     0.214 C 
ATOM     29  O   UNL     1       6.604  11.527 -16.045  1.00  0.00    -0.332 OA
ATOM     30  C   UNL     1       8.804  12.132 -14.100  1.00  0.00     0.180 C 
ATOM     31  C   UNL     1       6.902  10.638 -14.968  1.00  0.00     0.179 C 
ATOM     32  C   UNL     1       8.370  10.692 -14.451  1.00  0.00     0.177 C 
BRANCH  28  33
ATOM     33  O   UNL     1       9.020  14.214 -15.340  1.00  0.00    -0.384 OA
ATOM     34  H   UNL     1       9.891  14.004 -14.915  1.00  0.00     0.211 HD
ENDBRANCH  28  33
BRANCH  30  35
ATOM     35  O   UNL     1       8.487  12.425 -12.762  1.00  0.00    -0.387 OA
ATOM     36  H   UNL     1       7.498  12.509 -12.714  1.00  0.00     0.211 HD
ENDBRANCH  30  35
BRANCH  31  37
ATOM     37  C   UNL     1       5.875  10.858 -13.841  1.00  0.00     0.191 C 
BRANCH  37  38
ATOM     38  O   UNL     1       5.877   9.770 -12.956  1.00  0.00    -0.394 OA
ATOM     39  H   UNL     1       4.981   9.742 -12.527  1.00  0.00     0.210 HD
ENDBRANCH  37  38
ENDBRANCH  31  37
BRANCH  32  40
ATOM     40  O   UNL     1       8.549   9.843 -13.344  1.00  0.00    -0.387 OA
ATOM     41  H   UNL     1       7.711   9.321 -13.238  1.00  0.00     0.211 HD
ENDBRANCH  32  40
ENDBRANCH   1  27
TORSDOF 12
ENDMDL
MODEL 6
REMARK VINA RESULT:    -5.952      2.239      5.156
REMARK INTER + INTRA:          -9.665
REMARK INTER:                  -9.514
REMARK INTRA:                  -0.151
REMARK UNBOUND:                -0.929
REMARK SMILES O=c1c(O[C@@H]2O[C@H](CO)[C@H](O)[C@H](O)[C@H]2O)c(-c2ccc(O)c(O)c2)oc2cc(O)cc(O)c12
REMARK SMILES IDX 4 1 3 2 16 3 25 4 2 5 26 6 1 7 33 8 27 9 31 10 28 11 30 12
REMARK SMILES IDX 17 13 18 14 19 15 20 16 24 17 22 18 21 19 23 21 32 23 29 25
REMARK SMILES IDX 5 27 14 28 6 29 12 30 7 31 10 32 15 33 13 35 8 37 9 38 11 40
REMARK H PARENT 21 20 23 22 32 24 29 26 15 34 13 36 9 39 11 41
REMARK Flexibility Score: inf
ROOT
ATOM      1  O   UNL     1       7.212  12.811 -15.572  1.00  0.00    -0.454 OA
ENDROOT
BRANCH   1   2
ATOM      2  C   UNL     1       7.062  11.409 -15.576  1.00  0.00     0.214 A 
ATOM      3  C   UNL     1       6.926  10.762 -16.821  1.00  0.00     0.180 A 
ATOM      4  O   UNL     1       6.727   9.450 -16.874  1.00  0.00    -0.452 OA
ATOM      5  C   UNL     1       7.020  10.619 -14.404  1.00  0.00     0.239 A 
ATOM      6  C   UNL     1       6.670   8.675 -15.799  1.00  0.00     0.146 A 
ATOM      7  O   UNL     1       7.156  11.151 -13.271  1.00  0.00    -0.285 OA
ATOM      8  C   UNL     1       6.823   9.225 -14.508  1.00  0.00     0.111 A 
ATOM      9  C   UNL     1       6.460   7.304 -15.962  1.00  0.00     0.094 A 
ATOM     10  C   UNL     1       6.769   8.363 -13.383  1.00  0.00     0.134 A 
ATOM     11  C   UNL     1       6.401   6.458 -14.849  1.00  0.00     0.123 A 
ATOM     12  C   UNL     1       6.554   6.989 -13.567  1.00  0.00     0.093 A 
BRANCH   3  13
ATOM     13  C   UNL     1       6.962  11.509 -18.099  1.00  0.00     0.025 A 
ATOM     14  C   UNL     1       5.926  12.403 -18.402  1.00  0.00     0.016 A 
ATOM     15  C   UNL     1       5.940  13.124 -19.600  1.00  0.00     0.051 A 
ATOM     16  C   UNL     1       6.979  12.944 -20.522  1.00  0.00     0.157 A 
ATOM     17  C   UNL     1       7.993  11.311 -19.039  1.00  0.00     0.062 A 
ATOM     18  C   UNL     1       8.003  12.024 -20.242  1.00  0.00     0.158 A 
BRANCH  16  19
ATOM     19  O   UNL     1       6.992  13.669 -21.711  1.00  0.00    -0.504 OA
ATOM     20  H   UNL     1       6.136  13.962 -22.165  1.00  0.00     0.293 HD
ENDBRANCH  16  19
BRANCH  18  21
ATOM     21  O   UNL     1       9.035  11.800 -21.151  1.00  0.00    -0.504 OA
ATOM     22  H   UNL     1      10.001  11.723 -20.860  1.00  0.00     0.293 HD
ENDBRANCH  18  21
ENDBRANCH   3  13
BRANCH  10  23
ATOM     23  O   UNL     1       6.928   8.859 -12.087  1.00  0.00    -0.507 OA
ATOM     24  H   UNL     1       6.232   8.703 -11.365  1.00  0.00     0.293 HD
ENDBRANCH  10  23
BRANCH  11  25
ATOM     25  O   UNL     1       6.194   5.092 -15.003  1.00  0.00    -0.508 OA
ATOM     26  H   UNL     1       6.877   4.504 -15.468  1.00  0.00     0.293 HD
ENDBRANCH  11  25
ENDBRANCH   1   2
BRANCH   1  27
ATOM     27  C   UNL     1       8.423  13.554 -15.686  1.00  0.00     0.339 C 
ATOM     28  C   UNL     1       9.586  12.559 -15.884  1.00  0.00     0.214 C 
ATOM     29  O   UNL     1       8.305  14.450 -16.782  1.00  0.00    -0.332 OA
ATOM     30  C   UNL     1      10.948  13.295 -15.965  1.00  0.00     0.180 C 
ATOM     31  C   UNL     1       9.532  15.026 -17.231  1.00  0.00     0.179 C 
ATOM     32  C   UNL     1      10.756  14.791 -16.297  1.00  0.00     0.177 C 
BRANCH  28  33
ATOM     33  O   UNL     1       9.606  11.590 -14.863  1.00  0.00    -0.384 OA
ATOM     34  H   UNL     1       9.261  10.742 -15.244  1.00  0.00     0.211 HD
ENDBRANCH  28  33
BRANCH  30  35
ATOM     35  O   UNL     1      11.766  12.682 -16.930  1.00  0.00    -0.387 OA
ATOM     36  H   UNL     1      11.198  12.026 -17.413  1.00  0.00     0.211 HD
ENDBRANCH  30  35
BRANCH  31  37
ATOM     37  C   UNL     1       9.801  14.562 -18.676  1.00  0.00     0.191 C 
BRANCH  37  38
ATOM     38  O   UNL     1      10.456  15.568 -19.401  1.00  0.00    -0.394 OA
ATOM     39  H   UNL     1      10.167  16.438 -19.017  1.00  0.00     0.210 HD
ENDBRANCH  37  38
ENDBRANCH  31  37
BRANCH  32  40
ATOM     40  O   UNL     1      11.931  15.323 -16.856  1.00  0.00    -0.387 OA
ATOM     41  H   UNL     1      12.690  14.790 -16.502  1.00  0.00     0.211 HD
ENDBRANCH  32  40
ENDBRANCH   1  27
TORSDOF 12
ENDMDL
MODEL 7
REMARK VINA RESULT:    -5.851      4.712      9.152
REMARK INTER + INTRA:          -9.517
REMARK INTER:                  -9.247
REMARK INTRA:                  -0.270
REMARK UNBOUND:                -0.929
REMARK SMILES O=c1c(O[C@@H]2O[C@H](CO)[C@H](O)[C@H](O)[C@H]2O)c(-c2ccc(O)c(O)c2)oc2cc(O)cc(O)c12
REMARK SMILES IDX 4 1 3 2 16 3 25 4 2 5 26 6 1 7 33 8 27 9 31 10 28 11 30 12
REMARK SMILES IDX 17 13 18 14 19 15 20 16 24 17 22 18 21 19 23 21 32 23 29 25
REMARK SMILES IDX 5 27 14 28 6 29 12 30 7 31 10 32 15 33 13 35 8 37 9 38 11 40
REMARK H PARENT 21 20 23 22 32 24 29 26 15 34 13 36 9 39 11 41
REMARK Flexibility Score: inf
ROOT
ATOM      1  O   UNL     1       8.212  15.608 -17.472  1.00  0.00    -0.454 OA
ENDROOT
BRANCH   1   2
ATOM      2  C   UNL     1       8.364  15.935 -18.835  1.00  0.00     0.214 A 
ATOM      3  C   UNL     1       8.106  17.264 -19.229  1.00  0.00     0.180 A 
ATOM      4  O   UNL     1       8.180  17.608 -20.509  1.00  0.00    -0.452 OA
ATOM      5  C   UNL     1       8.739  15.004 -19.831  1.00  0.00     0.239 A 
ATOM      6  C   UNL     1       8.518  16.764 -21.475  1.00  0.00     0.146 A 
ATOM      7  O   UNL     1       8.997  13.811 -19.523  1.00  0.00    -0.285 OA
ATOM      8  C   UNL     1       8.823  15.418 -21.178  1.00  0.00     0.111 A 
ATOM      9  C   UNL     1       8.571  17.227 -22.792  1.00  0.00     0.094 A 
ATOM     10  C   UNL     1       9.191  14.548 -22.235  1.00  0.00     0.134 A 
ATOM     11  C   UNL     1       8.929  16.362 -23.832  1.00  0.00     0.123 A 
ATOM     12  C   UNL     1       9.237  15.030 -23.552  1.00  0.00     0.093 A 
BRANCH   3  13
ATOM     13  C   UNL     1       7.710  18.307 -18.253  1.00  0.00     0.025 A 
ATOM     14  C   UNL     1       6.629  18.069 -17.393  1.00  0.00     0.016 A 
ATOM     15  C   UNL     1       6.241  19.035 -16.460  1.00  0.00     0.051 A 
ATOM     16  C   UNL     1       6.913  20.261 -16.391  1.00  0.00     0.157 A 
ATOM     17  C   UNL     1       8.369  19.551 -18.198  1.00  0.00     0.062 A 
ATOM     18  C   UNL     1       7.975  20.522 -17.272  1.00  0.00     0.158 A 
BRANCH  16  19
ATOM     19  O   UNL     1       6.527  21.219 -15.455  1.00  0.00    -0.504 OA
ATOM     20  H   UNL     1       5.914  20.990 -14.682  1.00  0.00     0.293 HD
ENDBRANCH  16  19
BRANCH  18  21
ATOM     21  O   UNL     1       8.645  21.743 -17.249  1.00  0.00    -0.504 OA
ATOM     22  H   UNL     1       8.928  22.218 -18.097  1.00  0.00     0.293 HD
ENDBRANCH  18  21
ENDBRANCH   3  13
BRANCH  10  23
ATOM     23  O   UNL     1       9.515  13.211 -21.989  1.00  0.00    -0.507 OA
ATOM     24  H   UNL     1       8.802  12.512 -21.810  1.00  0.00     0.293 HD
ENDBRANCH  10  23
BRANCH  11  25
ATOM     25  O   UNL     1       8.987  16.815 -25.146  1.00  0.00    -0.508 OA
ATOM     26  H   UNL     1       9.859  16.824 -25.663  1.00  0.00     0.293 HD
ENDBRANCH  11  25
ENDBRANCH   1   2
BRANCH   1  27
ATOM     27  C   UNL     1       8.254  14.311 -16.882  1.00  0.00     0.339 C 
ATOM     28  C   UNL     1       9.110  14.388 -15.600  1.00  0.00     0.214 C 
ATOM     29  O   UNL     1       6.925  13.896 -16.601  1.00  0.00    -0.332 OA
ATOM     30  C   UNL     1       9.244  12.998 -14.928  1.00  0.00     0.180 C 
ATOM     31  C   UNL     1       6.810  12.778 -15.721  1.00  0.00     0.179 C 
ATOM     32  C   UNL     1       8.144  12.033 -15.419  1.00  0.00     0.177 C 
BRANCH  28  33
ATOM     33  O   UNL     1      10.380  14.934 -15.869  1.00  0.00    -0.384 OA
ATOM     34  H   UNL     1      10.339  15.906 -15.677  1.00  0.00     0.211 HD
ENDBRANCH  28  33
BRANCH  30  35
ATOM     35  O   UNL     1       9.187  13.134 -13.530  1.00  0.00    -0.387 OA
ATOM     36  H   UNL     1       9.152  14.108 -13.338  1.00  0.00     0.211 HD
ENDBRANCH  30  35
BRANCH  31  37
ATOM     37  C   UNL     1       6.086  13.226 -14.437  1.00  0.00     0.191 C 
BRANCH  37  38
ATOM     38  O   UNL     1       5.875  14.613 -14.451  1.00  0.00    -0.394 OA
ATOM     39  H   UNL     1       5.104  14.784 -15.055  1.00  0.00     0.210 HD
ENDBRANCH  37  38
ENDBRANCH  31  37
BRANCH  32  40
ATOM     40  O   UNL     1       7.947  10.999 -14.485  1.00  0.00    -0.387 OA
ATOM     41  H   UNL     1       8.363  10.181 -14.865  1.00  0.00     0.211 HD
ENDBRANCH  32  40
ENDBRANCH   1  27
TORSDOF 12
ENDMDL
MODEL 8
REMARK VINA RESULT:    -5.772      2.068      3.068
REMARK INTER + INTRA:          -9.400
REMARK INTER:                  -8.954
REMARK INTRA:                  -0.446
REMARK UNBOUND:                -0.929
REMARK SMILES O=c1c(O[C@@H]2O[C@H](CO)[C@H](O)[C@H](O)[C@H]2O)c(-c2ccc(O)c(O)c2)oc2cc(O)cc(O)c12
REMARK SMILES IDX 4 1 3 2 16 3 25 4 2 5 26 6 1 7 33 8 27 9 31 10 28 11 30 12
REMARK SMILES IDX 17 13 18 14 19 15 20 16 24 17 22 18 21 19 23 21 32 23 29 25
REMARK SMILES IDX 5 27 14 28 6 29 12 30 7 31 10 32 15 33 13 35 8 37 9 38 11 40
REMARK H PARENT 21 20 23 22 32 24 29 26 15 34 13 36 9 39 11 41
REMARK Flexibility Score: inf
ROOT
ATOM      1  O   UNL     1       6.459  10.065 -16.677  1.00  0.00    -0.454 OA
ENDROOT
BRANCH   1   2
ATOM      2  C   UNL     1       6.531   8.725 -17.110  1.00  0.00     0.214 A 
ATOM      3  C   UNL     1       6.726   7.724 -16.136  1.00  0.00     0.180 A 
ATOM      4  O   UNL     1       6.857   6.454 -16.500  1.00  0.00    -0.452 OA
ATOM      5  C   UNL     1       6.441   8.330 -18.465  1.00  0.00     0.239 A 
ATOM      6  C   UNL     1       6.789   6.043 -17.760  1.00  0.00     0.146 A 
ATOM      7  O   UNL     1       6.248   9.187 -19.367  1.00  0.00    -0.285 OA
ATOM      8  C   UNL     1       6.567   6.966 -18.805  1.00  0.00     0.111 A 
ATOM      9  C   UNL     1       6.935   4.682 -18.037  1.00  0.00     0.094 A 
ATOM     10  C   UNL     1       6.489   6.488 -20.137  1.00  0.00     0.134 A 
ATOM     11  C   UNL     1       6.862   4.216 -19.355  1.00  0.00     0.123 A 
ATOM     12  C   UNL     1       6.641   5.117 -20.398  1.00  0.00     0.093 A 
BRANCH   3  13
ATOM     13  C   UNL     1       6.830   8.046 -14.694  1.00  0.00     0.025 A 
ATOM     14  C   UNL     1       6.423   7.096 -13.746  1.00  0.00     0.016 A 
ATOM     15  C   UNL     1       6.516   7.374 -12.380  1.00  0.00     0.051 A 
ATOM     16  C   UNL     1       6.995   8.615 -11.942  1.00  0.00     0.157 A 
ATOM     17  C   UNL     1       7.288   9.302 -14.251  1.00  0.00     0.062 A 
ATOM     18  C   UNL     1       7.373   9.585 -12.884  1.00  0.00     0.158 A 
BRANCH  16  19
ATOM     19  O   UNL     1       7.093   8.885 -10.579  1.00  0.00    -0.504 OA
ATOM     20  H   UNL     1       7.791   9.520 -10.211  1.00  0.00     0.293 HD
ENDBRANCH  16  19
BRANCH  18  21
ATOM     21  O   UNL     1       7.825  10.839 -12.481  1.00  0.00    -0.504 OA
ATOM     22  H   UNL     1       8.636  11.279 -12.900  1.00  0.00     0.293 HD
ENDBRANCH  18  21
ENDBRANCH   3  13
BRANCH  10  23
ATOM     23  O   UNL     1       6.258   7.360 -21.204  1.00  0.00    -0.507 OA
ATOM     24  H   UNL     1       5.947   8.315 -21.057  1.00  0.00     0.293 HD
ENDBRANCH  10  23
BRANCH  11  25
ATOM     25  O   UNL     1       7.005   2.863 -19.640  1.00  0.00    -0.508 OA
ATOM     26  H   UNL     1       6.274   2.343 -20.114  1.00  0.00     0.293 HD
ENDBRANCH  11  25
ENDBRANCH   1   2
BRANCH   1  27
ATOM     27  C   UNL     1       7.279  11.155 -17.090  1.00  0.00     0.339 C 
ATOM     28  C   UNL     1       7.214  12.250 -16.004  1.00  0.00     0.214 C 
ATOM     29  O   UNL     1       8.605  10.680 -17.278  1.00  0.00    -0.332 OA
ATOM     30  C   UNL     1       8.044  13.494 -16.410  1.00  0.00     0.180 C 
ATOM     31  C   UNL     1       9.606  11.695 -17.372  1.00  0.00     0.179 C 
ATOM     32  C   UNL     1       9.065  13.148 -17.515  1.00  0.00     0.177 C 
BRANCH  28  33
ATOM     33  O   UNL     1       5.882  12.612 -15.726  1.00  0.00    -0.384 OA
ATOM     34  H   UNL     1       5.827  12.850 -14.765  1.00  0.00     0.211 HD
ENDBRANCH  28  33
BRANCH  30  35
ATOM     35  O   UNL     1       8.703  14.018 -15.283  1.00  0.00    -0.387 OA
ATOM     36  H   UNL     1       8.189  14.819 -14.998  1.00  0.00     0.211 HD
ENDBRANCH  30  35
BRANCH  31  37
ATOM     37  C   UNL     1      10.578  11.546 -16.186  1.00  0.00     0.191 C 
BRANCH  37  38
ATOM     38  O   UNL     1      11.860  11.990 -16.543  1.00  0.00    -0.394 OA
ATOM     39  H   UNL     1      11.917  12.950 -16.289  1.00  0.00     0.210 HD
ENDBRANCH  37  38
ENDBRANCH  31  37
BRANCH  32  40
ATOM     40  O   UNL     1      10.117  14.082 -17.520  1.00  0.00    -0.387 OA
ATOM     41  H   UNL     1      10.630  13.949 -16.681  1.00  0.00     0.211 HD
ENDBRANCH  32  40
ENDBRANCH   1  27
TORSDOF 12
ENDMDL
MODEL 9
REMARK VINA RESULT:    -5.589      2.882      7.343
REMARK INTER + INTRA:          -9.132
REMARK INTER:                  -9.380
REMARK INTRA:                   0.248
REMARK UNBOUND:                -0.929
REMARK SMILES O=c1c(O[C@@H]2O[C@H](CO)[C@H](O)[C@H](O)[C@H]2O)c(-c2ccc(O)c(O)c2)oc2cc(O)cc(O)c12
REMARK SMILES IDX 4 1 3 2 16 3 25 4 2 5 26 6 1 7 33 8 27 9 31 10 28 11 30 12
REMARK SMILES IDX 17 13 18 14 19 15 20 16 24 17 22 18 21 19 23 21 32 23 29 25
REMARK SMILES IDX 5 27 14 28 6 29 12 30 7 31 10 32 15 33 13 35 8 37 9 38 11 40
REMARK H PARENT 21 20 23 22 32 24 29 26 15 34 13 36 9 39 11 41
REMARK Flexibility Score: inf
ROOT
ATOM      1  O   UNL     1       7.728  11.114 -18.558  1.00  0.00    -0.454 OA
ENDROOT
BRANCH   1   2
ATOM      2  C   UNL     1       7.799  12.522 -18.591  1.00  0.00     0.214 A 
ATOM      3  C   UNL     1       7.557  13.225 -17.393  1.00  0.00     0.180 A 
ATOM      4  O   UNL     1       7.557  14.553 -17.386  1.00  0.00    -0.452 OA
ATOM      5  C   UNL     1       8.077  13.269 -19.759  1.00  0.00     0.239 A 
ATOM      6  C   UNL     1       7.803  15.291 -18.461  1.00  0.00     0.146 A 
ATOM      7  O   UNL     1       8.318  12.683 -20.848  1.00  0.00    -0.285 OA
ATOM      8  C   UNL     1       8.085  14.680 -19.702  1.00  0.00     0.111 A 
ATOM      9  C   UNL     1       7.784  16.683 -18.347  1.00  0.00     0.094 A 
ATOM     10  C   UNL     1       8.355  15.500 -20.826  1.00  0.00     0.134 A 
ATOM     11  C   UNL     1       8.045  17.488 -19.461  1.00  0.00     0.123 A 
ATOM     12  C   UNL     1       8.328  16.897 -20.693  1.00  0.00     0.093 A 
BRANCH   3  13
ATOM     13  C   UNL     1       7.260  12.526 -16.122  1.00  0.00     0.025 A 
ATOM     14  C   UNL     1       6.172  11.644 -16.060  1.00  0.00     0.016 A 
ATOM     15  C   UNL     1       5.875  10.968 -14.873  1.00  0.00     0.051 A 
ATOM     16  C   UNL     1       6.648  11.182 -13.725  1.00  0.00     0.157 A 
ATOM     17  C   UNL     1       8.021  12.758 -14.959  1.00  0.00     0.062 A 
ATOM     18  C   UNL     1       7.719  12.090 -13.768  1.00  0.00     0.158 A 
BRANCH  16  19
ATOM     19  O   UNL     1       6.353  10.501 -12.546  1.00  0.00    -0.504 OA
ATOM     20  H   UNL     1       5.579  10.775 -11.953  1.00  0.00     0.293 HD
ENDBRANCH  16  19
BRANCH  18  21
ATOM     21  O   UNL     1       8.489  12.348 -12.636  1.00  0.00    -0.504 OA
ATOM     22  H   UNL     1       8.102  12.791 -11.812  1.00  0.00     0.293 HD
ENDBRANCH  18  21
ENDBRANCH   3  13
BRANCH  10  23
ATOM     23  O   UNL     1       8.652  14.942 -22.072  1.00  0.00    -0.507 OA
ATOM     24  H   UNL     1       8.204  14.092 -22.398  1.00  0.00     0.293 HD
ENDBRANCH  10  23
BRANCH  11  25
ATOM     25  O   UNL     1       8.029  18.875 -19.356  1.00  0.00    -0.508 OA
ATOM     26  H   UNL     1       8.730  19.447 -19.815  1.00  0.00     0.293 HD
ENDBRANCH  11  25
ENDBRANCH   1   2
BRANCH   1  27
ATOM     27  C   UNL     1       8.749  10.204 -18.160  1.00  0.00     0.339 C 
ATOM     28  C   UNL     1       9.943  11.020 -17.619  1.00  0.00     0.214 C 
ATOM     29  O   UNL     1       8.220   9.331 -17.172  1.00  0.00    -0.332 OA
ATOM     30  C   UNL     1      11.118  10.095 -17.213  1.00  0.00     0.180 C 
ATOM     31  C   UNL     1       9.190   8.582 -16.439  1.00  0.00     0.179 C 
ATOM     32  C   UNL     1      10.639   8.642 -17.006  1.00  0.00     0.177 C 
BRANCH  28  33
ATOM     33  O   UNL     1      10.369  11.980 -18.557  1.00  0.00    -0.384 OA
ATOM     34  H   UNL     1      11.307  11.769 -18.801  1.00  0.00     0.211 HD
ENDBRANCH  28  33
BRANCH  30  35
ATOM     35  O   UNL     1      11.725  10.580 -16.041  1.00  0.00    -0.387 OA
ATOM     36  H   UNL     1      11.150  11.316 -15.704  1.00  0.00     0.211 HD
ENDBRANCH  30  35
BRANCH  31  37
ATOM     37  C   UNL     1       9.125   8.998 -14.957  1.00  0.00     0.191 C 
BRANCH  37  38
ATOM     38  O   UNL     1       9.608   7.968 -14.136  1.00  0.00    -0.394 OA
ATOM     39  H   UNL     1       9.937   8.392 -13.300  1.00  0.00     0.210 HD
ENDBRANCH  37  38
ENDBRANCH  31  37
BRANCH  32  40
ATOM     40  O   UNL     1      11.537   7.943 -16.179  1.00  0.00    -0.387 OA
ATOM     41  H   UNL     1      12.216   8.597 -15.868  1.00  0.00     0.211 HD
ENDBRANCH  32  40
ENDBRANCH   1  27
TORSDOF 12
ENDMDL
