MODEL 1
REMARK VINA RESULT:    -5.348      0.000      0.000
REMARK INTER + INTRA:          -7.751
REMARK INTER:                  -7.380
REMARK INTRA:                  -0.371
REMARK UNBOUND:                -0.371
REMARK SMILES O=C([O-])[C@H]1O[C@@H](Oc2cc3oc(-c4ccccc4)cc(=O)c3c(O)c2O)[C@@H](O)[C@@H](O)[C@@H]1O
REMARK SMILES IDX 7 1 6 2 4 3 31 4 5 5 29 6 27 7 2 8 1 9 3 10 32 11 30 13
REMARK SMILES IDX 28 15 8 17 25 18 9 19 23 20 10 21 22 22 11 23 20 24 12 25
REMARK SMILES IDX 19 26 21 27 26 28 24 30 13 32 14 33 18 34 15 35 17 36 16 37
REMARK H PARENT 32 12 30 14 28 16 26 29 24 31
REMARK Flexibility Score: inf
ROOT
ATOM      1  O   UNL     1     -11.895  -7.240  -5.146  1.00  0.00    -0.458 OA
ENDROOT
BRANCH   1   2
ATOM      2  C   UNL     1     -12.450  -6.288  -6.062  1.00  0.00     0.339 C 
ATOM      3  C   UNL     1     -10.477  -5.563  -7.196  1.00  0.00     0.199 C 
ATOM      4  C   UNL     1     -10.705  -4.051  -6.890  1.00  0.00     0.180 C 
ATOM      5  O   UNL     1     -11.692  -6.301  -7.268  1.00  0.00    -0.328 OA
ATOM      6  C   UNL     1     -12.161  -3.798  -6.444  1.00  0.00     0.181 C 
ATOM      7  C   UNL     1     -12.601  -4.868  -5.434  1.00  0.00     0.214 C 
BRANCH   3   8
ATOM      8  C   UNL     1      -9.468  -6.237  -6.294  1.00  0.00     0.073 C 
ATOM      9  O   UNL     1      -8.742  -7.159  -6.753  1.00  0.00    -0.547 OA
ATOM     10  O   UNL     1      -9.365  -5.902  -4.949  1.00  0.00    -0.547 OA
ENDBRANCH   3   8
BRANCH   4  11
ATOM     11  O   UNL     1     -10.434  -3.291  -8.043  1.00  0.00    -0.387 OA
ATOM     12  H   UNL     1     -11.034  -2.499  -8.018  1.00  0.00     0.211 HD
ENDBRANCH   4  11
BRANCH   6  13
ATOM     13  O   UNL     1     -12.326  -2.502  -5.922  1.00  0.00    -0.387 OA
ATOM     14  H   UNL     1     -11.844  -1.866  -6.513  1.00  0.00     0.211 HD
ENDBRANCH   6  13
BRANCH   7  15
ATOM     15  O   UNL     1     -11.832  -4.753  -4.262  1.00  0.00    -0.384 OA
ATOM     16  H   UNL     1     -12.236  -4.035  -3.709  1.00  0.00     0.211 HD
ENDBRANCH   7  15
ENDBRANCH   1   2
BRANCH   1  17
ATOM     17  C   UNL     1     -11.822  -8.642  -5.271  1.00  0.00     0.172 A 
ATOM     18  C   UNL     1     -12.881  -9.534  -4.966  1.00  0.00     0.201 A 
ATOM     19  C   UNL     1     -10.612  -9.151  -5.744  1.00  0.00     0.098 A 
ATOM     20  C   UNL     1     -12.678 -10.935  -5.085  1.00  0.00     0.176 A 
ATOM     21  C   UNL     1     -10.416 -10.518  -5.904  1.00  0.00     0.146 A 
ATOM     22  C   UNL     1     -11.443 -11.427  -5.576  1.00  0.00     0.111 A 
ATOM     23  O   UNL     1      -9.246 -10.952  -6.365  1.00  0.00    -0.456 OA
ATOM     24  C   UNL     1     -11.174 -12.803  -5.750  1.00  0.00     0.197 A 
ATOM     25  C   UNL     1      -8.965 -12.238  -6.550  1.00  0.00     0.138 A 
ATOM     26  C   UNL     1      -9.931 -13.207  -6.239  1.00  0.00     0.100 A 
ATOM     27  O   UNL     1     -12.032 -13.684  -5.472  1.00  0.00    -0.289 OA
BRANCH  18  28
ATOM     28  O   UNL     1     -14.121  -9.021  -4.583  1.00  0.00    -0.502 OA
ATOM     29  H   UNL     1     -14.574  -8.230  -5.017  1.00  0.00     0.293 HD
ENDBRANCH  18  28
BRANCH  20  30
ATOM     30  O   UNL     1     -13.672 -11.848  -4.715  1.00  0.00    -0.504 OA
ATOM     31  H   UNL     1     -14.030 -11.955  -3.776  1.00  0.00     0.293 HD
ENDBRANCH  20  30
BRANCH  25  32
ATOM     32  C   UNL     1      -7.624 -12.610  -7.069  1.00  0.00     0.017 A 
ATOM     33  C   UNL     1      -7.411 -13.805  -7.785  1.00  0.00     0.012 A 
ATOM     34  C   UNL     1      -6.539 -11.735  -6.872  1.00  0.00     0.012 A 
ATOM     35  C   UNL     1      -6.139 -14.123  -8.270  1.00  0.00     0.001 A 
ATOM     36  C   UNL     1      -5.269 -12.059  -7.358  1.00  0.00     0.001 A 
ATOM     37  C   UNL     1      -5.069 -13.252  -8.054  1.00  0.00     0.000 A 
ENDBRANCH  25  32
ENDBRANCH   1  17
TORSDOF 9
ENDMDL
MODEL 2
REMARK VINA RESULT:    -5.334      1.065      2.137
REMARK INTER + INTRA:          -7.732
REMARK INTER:                  -6.719
REMARK INTRA:                  -1.013
REMARK UNBOUND:                -0.371
REMARK SMILES O=C([O-])[C@H]1O[C@@H](Oc2cc3oc(-c4ccccc4)cc(=O)c3c(O)c2O)[C@@H](O)[C@@H](O)[C@@H]1O
REMARK SMILES IDX 7 1 6 2 4 3 31 4 5 5 29 6 27 7 2 8 1 9 3 10 32 11 30 13
REMARK SMILES IDX 28 15 8 17 25 18 9 19 23 20 10 21 22 22 11 23 20 24 12 25
REMARK SMILES IDX 19 26 21 27 26 28 24 30 13 32 14 33 18 34 15 35 17 36 16 37
REMARK H PARENT 32 12 30 14 28 16 26 29 24 31
REMARK Flexibility Score: inf
ROOT
ATOM      1  O   UNL     1     -11.184  -7.579  -5.108  1.00  0.00    -0.458 OA
ENDROOT
BRANCH   1   2
ATOM      2  C   UNL     1     -10.285  -6.526  -5.479  1.00  0.00     0.339 C 
ATOM      3  C   UNL     1     -11.592  -4.609  -4.911  1.00  0.00     0.199 C 
ATOM      4  C   UNL     1     -11.497  -3.968  -6.330  1.00  0.00     0.180 C 
ATOM      5  O   UNL     1     -10.468  -5.423  -4.597  1.00  0.00    -0.328 OA
ATOM      6  C   UNL     1     -10.361  -4.618  -7.146  1.00  0.00     0.181 C 
ATOM      7  C   UNL     1     -10.396  -6.144  -6.987  1.00  0.00     0.214 C 
BRANCH   3   8
ATOM      8  C   UNL     1     -12.894  -5.328  -4.637  1.00  0.00     0.073 C 
ATOM      9  O   UNL     1     -13.592  -5.739  -5.602  1.00  0.00    -0.547 OA
ATOM     10  O   UNL     1     -13.371  -5.490  -3.341  1.00  0.00    -0.547 OA
ENDBRANCH   3   8
BRANCH   4  11
ATOM     11  O   UNL     1     -11.252  -2.589  -6.208  1.00  0.00    -0.387 OA
ATOM     12  H   UNL     1     -11.081  -2.240  -7.123  1.00  0.00     0.211 HD
ENDBRANCH   4  11
BRANCH   6  13
ATOM     13  O   UNL     1     -10.416  -4.242  -8.502  1.00  0.00    -0.387 OA
ATOM     14  H   UNL     1      -9.705  -4.736  -8.989  1.00  0.00     0.211 HD
ENDBRANCH   6  13
BRANCH   7  15
ATOM     15  O   UNL     1     -11.585  -6.648  -7.547  1.00  0.00    -0.384 OA
ATOM     16  H   UNL     1     -12.334  -6.098  -7.200  1.00  0.00     0.211 HD
ENDBRANCH   7  15
ENDBRANCH   1   2
BRANCH   1  17
ATOM     17  C   UNL     1     -11.119  -8.948  -5.437  1.00  0.00     0.172 A 
ATOM     18  C   UNL     1     -12.220  -9.840  -5.397  1.00  0.00     0.201 A 
ATOM     19  C   UNL     1      -9.868  -9.420  -5.839  1.00  0.00     0.098 A 
ATOM     20  C   UNL     1     -12.026 -11.213  -5.705  1.00  0.00     0.176 A 
ATOM     21  C   UNL     1      -9.676 -10.753  -6.184  1.00  0.00     0.146 A 
ATOM     22  C   UNL     1     -10.749 -11.667  -6.120  1.00  0.00     0.111 A 
ATOM     23  O   UNL     1      -8.466 -11.151  -6.567  1.00  0.00    -0.456 OA
ATOM     24  C   UNL     1     -10.482 -13.009  -6.470  1.00  0.00     0.197 A 
ATOM     25  C   UNL     1      -8.184 -12.404  -6.914  1.00  0.00     0.138 A 
ATOM     26  C   UNL     1      -9.196 -13.376  -6.868  1.00  0.00     0.100 A 
ATOM     27  O   UNL     1     -11.381 -13.892  -6.431  1.00  0.00    -0.289 OA
BRANCH  18  28
ATOM     28  O   UNL     1     -13.489  -9.349  -5.086  1.00  0.00    -0.502 OA
ATOM     29  H   UNL     1     -13.763  -9.000  -4.179  1.00  0.00     0.293 HD
ENDBRANCH  18  28
BRANCH  20  30
ATOM     30  O   UNL     1     -13.071 -12.137  -5.596  1.00  0.00    -0.504 OA
ATOM     31  H   UNL     1     -13.491 -12.621  -6.377  1.00  0.00     0.293 HD
ENDBRANCH  20  30
BRANCH  25  32
ATOM     32  C   UNL     1      -6.797 -12.737  -7.325  1.00  0.00     0.017 A 
ATOM     33  C   UNL     1      -6.516 -13.837  -8.160  1.00  0.00     0.012 A 
ATOM     34  C   UNL     1      -5.733 -11.920  -6.898  1.00  0.00     0.012 A 
ATOM     35  C   UNL     1      -5.201 -14.120  -8.539  1.00  0.00     0.001 A 
ATOM     36  C   UNL     1      -4.420 -12.209  -7.279  1.00  0.00     0.001 A 
ATOM     37  C   UNL     1      -4.154 -13.309  -8.097  1.00  0.00     0.000 A 
ENDBRANCH  25  32
ENDBRANCH   1  17
TORSDOF 9
ENDMDL
MODEL 3
REMARK VINA RESULT:    -5.013      1.510      2.825
REMARK INTER + INTRA:          -7.289
REMARK INTER:                  -6.309
REMARK INTRA:                  -0.980
REMARK UNBOUND:                -0.371
REMARK SMILES O=C([O-])[C@H]1O[C@@H](Oc2cc3oc(-c4ccccc4)cc(=O)c3c(O)c2O)[C@@H](O)[C@@H](O)[C@@H]1O
REMARK SMILES IDX 7 1 6 2 4 3 31 4 5 5 29 6 27 7 2 8 1 9 3 10 32 11 30 13
REMARK SMILES IDX 28 15 8 17 25 18 9 19 23 20 10 21 22 22 11 23 20 24 12 25
REMARK SMILES IDX 19 26 21 27 26 28 24 30 13 32 14 33 18 34 15 35 17 36 16 37
REMARK H PARENT 32 12 30 14 28 16 26 29 24 31
REMARK Flexibility Score: inf
ROOT
ATOM      1  O   UNL     1     -10.490  -7.356  -4.839  1.00  0.00    -0.458 OA
ENDROOT
BRANCH   1   2
ATOM      2  C   UNL     1      -9.953  -6.104  -5.284  1.00  0.00     0.339 C 
ATOM      3  C   UNL     1     -11.821  -4.664  -4.911  1.00  0.00     0.199 C 
ATOM      4  C   UNL     1     -11.869  -4.138  -6.378  1.00  0.00     0.180 C 
ATOM      5  O   UNL     1     -10.513  -5.051  -4.506  1.00  0.00    -0.328 OA
ATOM      6  C   UNL     1     -10.549  -4.453  -7.113  1.00  0.00     0.181 C 
ATOM      7  C   UNL     1     -10.110  -5.895  -6.822  1.00  0.00     0.214 C 
BRANCH   3   8
ATOM      8  C   UNL     1     -12.842  -5.736  -4.599  1.00  0.00     0.073 C 
ATOM      9  O   UNL     1     -13.285  -6.461  -5.529  1.00  0.00    -0.547 OA
ATOM     10  O   UNL     1     -13.350  -5.897  -3.315  1.00  0.00    -0.547 OA
ENDBRANCH   3   8
BRANCH   4  11
ATOM     11  O   UNL     1     -12.076  -2.746  -6.373  1.00  0.00    -0.387 OA
ATOM     12  H   UNL     1     -11.181  -2.318  -6.327  1.00  0.00     0.211 HD
ENDBRANCH   4  11
BRANCH   6  13
ATOM     13  O   UNL     1     -10.658  -4.221  -8.497  1.00  0.00    -0.387 OA
ATOM     14  H   UNL     1      -9.769  -4.379  -8.908  1.00  0.00     0.211 HD
ENDBRANCH   6  13
BRANCH   7  15
ATOM     15  O   UNL     1     -11.052  -6.792  -7.357  1.00  0.00    -0.384 OA
ATOM     16  H   UNL     1     -11.192  -7.512  -6.689  1.00  0.00     0.211 HD
ENDBRANCH   7  15
ENDBRANCH   1   2
BRANCH   1  17
ATOM     17  C   UNL     1     -10.256  -8.647  -5.355  1.00  0.00     0.172 A 
ATOM     18  C   UNL     1     -11.268  -9.529  -5.808  1.00  0.00     0.201 A 
ATOM     19  C   UNL     1      -8.920  -9.044  -5.421  1.00  0.00     0.098 A 
ATOM     20  C   UNL     1     -10.918 -10.828  -6.265  1.00  0.00     0.176 A 
ATOM     21  C   UNL     1      -8.562 -10.298  -5.905  1.00  0.00     0.146 A 
ATOM     22  C   UNL     1      -9.554 -11.206  -6.331  1.00  0.00     0.111 A 
ATOM     23  O   UNL     1      -7.273 -10.626  -5.953  1.00  0.00    -0.456 OA
ATOM     24  C   UNL     1      -9.123 -12.467  -6.800  1.00  0.00     0.197 A 
ATOM     25  C   UNL     1      -6.834 -11.800  -6.399  1.00  0.00     0.138 A 
ATOM     26  C   UNL     1      -7.759 -12.762  -6.832  1.00  0.00     0.100 A 
ATOM     27  O   UNL     1      -9.943 -13.341  -7.190  1.00  0.00    -0.289 OA
BRANCH  18  28
ATOM     28  O   UNL     1     -12.595  -9.097  -5.831  1.00  0.00    -0.502 OA
ATOM     29  H   UNL     1     -12.889  -8.138  -5.719  1.00  0.00     0.293 HD
ENDBRANCH  18  28
BRANCH  20  30
ATOM     30  O   UNL     1     -11.896 -11.755  -6.642  1.00  0.00    -0.504 OA
ATOM     31  H   UNL     1     -12.404 -12.345  -5.999  1.00  0.00     0.293 HD
ENDBRANCH  20  30
BRANCH  25  32
ATOM     32  C   UNL     1      -5.373 -12.059  -6.408  1.00  0.00     0.017 A 
ATOM     33  C   UNL     1      -4.473 -11.254  -5.682  1.00  0.00     0.012 A 
ATOM     34  C   UNL     1      -4.869 -13.156  -7.133  1.00  0.00     0.012 A 
ATOM     35  C   UNL     1      -3.102 -11.529  -5.702  1.00  0.00     0.001 A 
ATOM     36  C   UNL     1      -3.497 -13.425  -7.151  1.00  0.00     0.001 A 
ATOM     37  C   UNL     1      -2.615 -12.611  -6.438  1.00  0.00     0.000 A 
ENDBRANCH  25  32
ENDBRANCH   1  17
TORSDOF 9
ENDMDL
MODEL 4
REMARK VINA RESULT:    -4.473      4.162      6.941
REMARK INTER + INTRA:          -6.543
REMARK INTER:                  -5.330
REMARK INTRA:                  -1.213
REMARK UNBOUND:                -0.371
REMARK SMILES O=C([O-])[C@H]1O[C@@H](Oc2cc3oc(-c4ccccc4)cc(=O)c3c(O)c2O)[C@@H](O)[C@@H](O)[C@@H]1O
REMARK SMILES IDX 7 1 6 2 4 3 31 4 5 5 29 6 27 7 2 8 1 9 3 10 32 11 30 13
REMARK SMILES IDX 28 15 8 17 25 18 9 19 23 20 10 21 22 22 11 23 20 24 12 25
REMARK SMILES IDX 19 26 21 27 26 28 24 30 13 32 14 33 18 34 15 35 17 36 16 37
REMARK H PARENT 32 12 30 14 28 16 26 29 24 31
REMARK Flexibility Score: inf
ROOT
ATOM      1  O   UNL     1     -10.262 -12.751  -6.884  1.00  0.00    -0.458 OA
ENDROOT
BRANCH   1   2
ATOM      2  C   UNL     1     -10.797 -13.484  -5.775  1.00  0.00     0.339 C 
ATOM      3  C   UNL     1     -12.987 -12.542  -5.636  1.00  0.00     0.199 C 
ATOM      4  C   UNL     1     -12.851 -12.129  -4.138  1.00  0.00     0.180 C 
ATOM      5  O   UNL     1     -12.194 -13.676  -5.970  1.00  0.00    -0.328 OA
ATOM      6  C   UNL     1     -11.667 -12.864  -3.476  1.00  0.00     0.181 C 
ATOM      7  C   UNL     1     -10.441 -12.839  -4.400  1.00  0.00     0.214 C 
BRANCH   3   8
ATOM      8  C   UNL     1     -12.781 -11.409  -6.616  1.00  0.00     0.073 C 
ATOM      9  O   UNL     1     -13.106 -11.564  -7.823  1.00  0.00    -0.547 OA
ATOM     10  O   UNL     1     -12.180 -10.217  -6.226  1.00  0.00    -0.547 OA
ENDBRANCH   3   8
BRANCH   4  11
ATOM     11  O   UNL     1     -14.037 -12.448  -3.453  1.00  0.00    -0.387 OA
ATOM     12  H   UNL     1     -14.729 -11.798  -3.749  1.00  0.00     0.211 HD
ENDBRANCH   4  11
BRANCH   6  13
ATOM     13  O   UNL     1     -11.365 -12.327  -2.210  1.00  0.00    -0.387 OA
ATOM     14  H   UNL     1     -11.992 -12.721  -1.549  1.00  0.00     0.211 HD
ENDBRANCH   6  13
BRANCH   7  15
ATOM     15  O   UNL     1     -10.004 -11.511  -4.566  1.00  0.00    -0.384 OA
ATOM     16  H   UNL     1     -10.797 -10.923  -4.477  1.00  0.00     0.211 HD
ENDBRANCH   7  15
ENDBRANCH   1   2
BRANCH   1  17
ATOM     17  C   UNL     1      -9.093 -13.008  -7.628  1.00  0.00     0.172 A 
ATOM     18  C   UNL     1      -9.074 -13.388  -8.994  1.00  0.00     0.201 A 
ATOM     19  C   UNL     1      -7.887 -12.855  -6.942  1.00  0.00     0.098 A 
ATOM     20  C   UNL     1      -7.835 -13.668  -9.630  1.00  0.00     0.176 A 
ATOM     21  C   UNL     1      -6.666 -13.087  -7.566  1.00  0.00     0.146 A 
ATOM     22  C   UNL     1      -6.623 -13.497  -8.915  1.00  0.00     0.111 A 
ATOM     23  O   UNL     1      -5.545 -12.921  -6.870  1.00  0.00    -0.456 OA
ATOM     24  C   UNL     1      -5.351 -13.729  -9.484  1.00  0.00     0.197 A 
ATOM     25  C   UNL     1      -4.333 -13.119  -7.379  1.00  0.00     0.138 A 
ATOM     26  C   UNL     1      -4.205 -13.538  -8.712  1.00  0.00     0.100 A 
ATOM     27  O   UNL     1      -5.222 -14.107 -10.679  1.00  0.00    -0.289 OA
BRANCH  18  28
ATOM     28  O   UNL     1     -10.273 -13.449  -9.705  1.00  0.00    -0.502 OA
ATOM     29  H   UNL     1     -11.004 -12.755  -9.660  1.00  0.00     0.293 HD
ENDBRANCH  18  28
BRANCH  20  30
ATOM     30  O   UNL     1      -7.783 -14.125 -10.951  1.00  0.00    -0.504 OA
ATOM     31  H   UNL     1      -7.557 -15.071 -11.222  1.00  0.00     0.293 HD
ENDBRANCH  20  30
BRANCH  25  32
ATOM     32  C   UNL     1      -3.148 -12.904  -6.509  1.00  0.00     0.017 A 
ATOM     33  C   UNL     1      -3.030 -11.766  -5.687  1.00  0.00     0.012 A 
ATOM     34  C   UNL     1      -2.128 -13.874  -6.477  1.00  0.00     0.012 A 
ATOM     35  C   UNL     1      -1.907 -11.595  -4.871  1.00  0.00     0.001 A 
ATOM     36  C   UNL     1      -1.007 -13.697  -5.661  1.00  0.00     0.001 A 
ATOM     37  C   UNL     1      -0.896 -12.558  -4.860  1.00  0.00     0.000 A 
ENDBRANCH  25  32
ENDBRANCH   1  17
TORSDOF 9
ENDMDL
MODEL 5
REMARK VINA RESULT:    -4.041      5.661     10.003
REMARK INTER + INTRA:          -5.948
REMARK INTER:                  -4.784
REMARK INTRA:                  -1.164
REMARK UNBOUND:                -0.371
REMARK SMILES O=C([O-])[C@H]1O[C@@H](Oc2cc3oc(-c4ccccc4)cc(=O)c3c(O)c2O)[C@@H](O)[C@@H](O)[C@@H]1O
REMARK SMILES IDX 7 1 6 2 4 3 31 4 5 5 29 6 27 7 2 8 1 9 3 10 32 11 30 13
REMARK SMILES IDX 28 15 8 17 25 18 9 19 23 20 10 21 22 22 11 23 20 24 12 25
REMARK SMILES IDX 19 26 21 27 26 28 24 30 13 32 14 33 18 34 15 35 17 36 16 37
REMARK H PARENT 32 12 30 14 28 16 26 29 24 31
REMARK Flexibility Score: inf
ROOT
ATOM      1  O   UNL     1      -2.580 -13.257  -6.875  1.00  0.00    -0.458 OA
ENDROOT
BRANCH   1   2
ATOM      2  C   UNL     1      -2.082 -14.125  -5.848  1.00  0.00     0.339 C 
ATOM      3  C   UNL     1      -2.228 -12.688  -3.946  1.00  0.00     0.199 C 
ATOM      4  C   UNL     1      -0.727 -12.845  -3.554  1.00  0.00     0.180 C 
ATOM      5  O   UNL     1      -2.744 -13.828  -4.623  1.00  0.00    -0.328 OA
ATOM      6  C   UNL     1      -0.104 -14.066  -4.264  1.00  0.00     0.181 C 
ATOM      7  C   UNL     1      -0.526 -14.096  -5.739  1.00  0.00     0.214 C 
BRANCH   3   8
ATOM      8  C   UNL     1      -2.549 -11.408  -4.685  1.00  0.00     0.073 C 
ATOM      9  O   UNL     1      -3.751 -11.107  -4.913  1.00  0.00    -0.547 OA
ATOM     10  O   UNL     1      -1.541 -10.585  -5.175  1.00  0.00    -0.547 OA
ENDBRANCH   3   8
BRANCH   4  11
ATOM     11  O   UNL     1      -0.619 -13.012  -2.162  1.00  0.00    -0.387 OA
ATOM     12  H   UNL     1      -0.759 -12.119  -1.749  1.00  0.00     0.211 HD
ENDBRANCH   4  11
BRANCH   6  13
ATOM     13  O   UNL     1       1.297 -14.083  -4.131  1.00  0.00    -0.387 OA
ATOM     14  H   UNL     1       1.581 -13.219  -3.734  1.00  0.00     0.211 HD
ENDBRANCH   6  13
BRANCH   7  15
ATOM     15  O   UNL     1       0.004 -12.974  -6.404  1.00  0.00    -0.384 OA
ATOM     16  H   UNL     1      -0.411 -12.938  -7.304  1.00  0.00     0.211 HD
ENDBRANCH   7  15
ENDBRANCH   1   2
BRANCH   1  17
ATOM     17  C   UNL     1      -3.734 -13.407  -7.670  1.00  0.00     0.172 A 
ATOM     18  C   UNL     1      -3.728 -13.773  -9.039  1.00  0.00     0.201 A 
ATOM     19  C   UNL     1      -4.951 -13.183  -7.025  1.00  0.00     0.098 A 
ATOM     20  C   UNL     1      -4.953 -13.847  -9.754  1.00  0.00     0.176 A 
ATOM     21  C   UNL     1      -6.160 -13.294  -7.705  1.00  0.00     0.146 A 
ATOM     22  C   UNL     1      -6.177 -13.625  -9.076  1.00  0.00     0.111 A 
ATOM     23  O   UNL     1      -7.293 -13.078  -7.042  1.00  0.00    -0.456 OA
ATOM     24  C   UNL     1      -7.438 -13.708  -9.709  1.00  0.00     0.197 A 
ATOM     25  C   UNL     1      -8.495 -13.159  -7.606  1.00  0.00     0.138 A 
ATOM     26  C   UNL     1      -8.598 -13.474  -8.969  1.00  0.00     0.100 A 
ATOM     27  O   UNL     1      -7.544 -13.988 -10.933  1.00  0.00    -0.289 OA
BRANCH  18  28
ATOM     28  O   UNL     1      -2.518 -14.088  -9.659  1.00  0.00    -0.502 OA
ATOM     29  H   UNL     1      -1.616 -13.737  -9.371  1.00  0.00     0.293 HD
ENDBRANCH  18  28
BRANCH  20  30
ATOM     30  O   UNL     1      -4.979 -14.125 -11.125  1.00  0.00    -0.504 OA
ATOM     31  H   UNL     1      -5.033 -13.424 -11.850  1.00  0.00     0.293 HD
ENDBRANCH  20  30
BRANCH  25  32
ATOM     32  C   UNL     1      -9.695 -12.896  -6.771  1.00  0.00     0.017 A 
ATOM     33  C   UNL     1     -10.813 -13.753  -6.791  1.00  0.00     0.012 A 
ATOM     34  C   UNL     1      -9.710 -11.780  -5.913  1.00  0.00     0.012 A 
ATOM     35  C   UNL     1     -11.925 -13.485  -5.986  1.00  0.00     0.001 A 
ATOM     36  C   UNL     1     -10.824 -11.516  -5.112  1.00  0.00     0.001 A 
ATOM     37  C   UNL     1     -11.931 -12.366  -5.150  1.00  0.00     0.000 A 
ENDBRANCH  25  32
ENDBRANCH   1  17
TORSDOF 9
ENDMDL
MODEL 6
REMARK VINA RESULT:    -4.024      2.966      6.112
REMARK INTER + INTRA:          -5.924
REMARK INTER:                  -4.706
REMARK INTRA:                  -1.218
REMARK UNBOUND:                -0.371
REMARK SMILES O=C([O-])[C@H]1O[C@@H](Oc2cc3oc(-c4ccccc4)cc(=O)c3c(O)c2O)[C@@H](O)[C@@H](O)[C@@H]1O
REMARK SMILES IDX 7 1 6 2 4 3 31 4 5 5 29 6 27 7 2 8 1 9 3 10 32 11 30 13
REMARK SMILES IDX 28 15 8 17 25 18 9 19 23 20 10 21 22 22 11 23 20 24 12 25
REMARK SMILES IDX 19 26 21 27 26 28 24 30 13 32 14 33 18 34 15 35 17 36 16 37
REMARK H PARENT 32 12 30 14 28 16 26 29 24 31
REMARK Flexibility Score: inf
ROOT
ATOM      1  O   UNL     1     -10.542 -12.509  -6.353  1.00  0.00    -0.458 OA
ENDROOT
BRANCH   1   2
ATOM      2  C   UNL     1     -10.652 -11.460  -5.383  1.00  0.00     0.339 C 
ATOM      3  C   UNL     1     -12.906 -11.765  -4.656  1.00  0.00     0.199 C 
ATOM      4  C   UNL     1     -13.337 -10.298  -4.965  1.00  0.00     0.180 C 
ATOM      5  O   UNL     1     -11.524 -11.878  -4.338  1.00  0.00    -0.328 OA
ATOM      6  C   UNL     1     -12.100  -9.393  -5.143  1.00  0.00     0.181 C 
ATOM      7  C   UNL     1     -11.051 -10.092  -6.019  1.00  0.00     0.214 C 
BRANCH   3   8
ATOM      8  C   UNL     1     -13.322 -12.771  -5.706  1.00  0.00     0.073 C 
ATOM      9  O   UNL     1     -13.178 -14.001  -5.479  1.00  0.00    -0.547 OA
ATOM     10  O   UNL     1     -13.803 -12.364  -6.946  1.00  0.00    -0.547 OA
ENDBRANCH   3   8
BRANCH   4  11
ATOM     11  O   UNL     1     -14.125  -9.806  -3.909  1.00  0.00    -0.387 OA
ATOM     12  H   UNL     1     -14.063 -10.465  -3.167  1.00  0.00     0.211 HD
ENDBRANCH   4  11
BRANCH   6  13
ATOM     13  O   UNL     1     -12.449  -8.135  -5.669  1.00  0.00    -0.387 OA
ATOM     14  H   UNL     1     -13.129  -8.273  -6.379  1.00  0.00     0.211 HD
ENDBRANCH   6  13
BRANCH   7  15
ATOM     15  O   UNL     1     -11.564 -10.273  -7.316  1.00  0.00    -0.384 OA
ATOM     16  H   UNL     1     -12.526 -10.500  -7.227  1.00  0.00     0.211 HD
ENDBRANCH   7  15
ENDBRANCH   1   2
BRANCH   1  17
ATOM     17  C   UNL     1      -9.451 -12.823  -7.189  1.00  0.00     0.172 A 
ATOM     18  C   UNL     1      -9.565 -13.239  -8.539  1.00  0.00     0.201 A 
ATOM     19  C   UNL     1      -8.186 -12.689  -6.617  1.00  0.00     0.098 A 
ATOM     20  C   UNL     1      -8.396 -13.576  -9.273  1.00  0.00     0.176 A 
ATOM     21  C   UNL     1      -7.032 -12.976  -7.339  1.00  0.00     0.146 A 
ATOM     22  C   UNL     1      -7.121 -13.424  -8.674  1.00  0.00     0.111 A 
ATOM     23  O   UNL     1      -5.849 -12.826  -6.749  1.00  0.00    -0.456 OA
ATOM     24  C   UNL     1      -5.912 -13.710  -9.346  1.00  0.00     0.197 A 
ATOM     25  C   UNL     1      -4.693 -13.076  -7.357  1.00  0.00     0.138 A 
ATOM     26  C   UNL     1      -4.696 -13.535  -8.683  1.00  0.00     0.100 A 
ATOM     27  O   UNL     1      -5.901 -14.125 -10.536  1.00  0.00    -0.289 OA
BRANCH  18  28
ATOM     28  O   UNL     1     -10.824 -13.283  -9.140  1.00  0.00    -0.502 OA
ATOM     29  H   UNL     1     -11.333 -12.474  -9.465  1.00  0.00     0.293 HD
ENDBRANCH  18  28
BRANCH  20  30
ATOM     30  O   UNL     1      -8.476 -14.070 -10.580  1.00  0.00    -0.504 OA
ATOM     31  H   UNL     1      -9.324 -14.110 -11.126  1.00  0.00     0.293 HD
ENDBRANCH  20  30
BRANCH  25  32
ATOM     32  C   UNL     1      -3.431 -12.875  -6.602  1.00  0.00     0.017 A 
ATOM     33  C   UNL     1      -2.379 -13.812  -6.653  1.00  0.00     0.012 A 
ATOM     34  C   UNL     1      -3.260 -11.706  -5.837  1.00  0.00     0.012 A 
ATOM     35  C   UNL     1      -1.198 -13.590  -5.939  1.00  0.00     0.001 A 
ATOM     36  C   UNL     1      -2.078 -11.490  -5.124  1.00  0.00     0.001 A 
ATOM     37  C   UNL     1      -1.049 -12.432  -5.173  1.00  0.00     0.000 A 
ENDBRANCH  25  32
ENDBRANCH   1  17
TORSDOF 9
ENDMDL
MODEL 7
REMARK VINA RESULT:    -3.865      1.658      2.875
REMARK INTER + INTRA:          -5.704
REMARK INTER:                  -5.373
REMARK INTRA:                  -0.331
REMARK UNBOUND:                -0.371
REMARK SMILES O=C([O-])[C@H]1O[C@@H](Oc2cc3oc(-c4ccccc4)cc(=O)c3c(O)c2O)[C@@H](O)[C@@H](O)[C@@H]1O
REMARK SMILES IDX 7 1 6 2 4 3 31 4 5 5 29 6 27 7 2 8 1 9 3 10 32 11 30 13
REMARK SMILES IDX 28 15 8 17 25 18 9 19 23 20 10 21 22 22 11 23 20 24 12 25
REMARK SMILES IDX 19 26 21 27 26 28 24 30 13 32 14 33 18 34 15 35 17 36 16 37
REMARK H PARENT 32 12 30 14 28 16 26 29 24 31
REMARK Flexibility Score: inf
ROOT
ATOM      1  O   UNL     1     -10.157  -5.867  -5.824  1.00  0.00    -0.458 OA
ENDROOT
BRANCH   1   2
ATOM      2  C   UNL     1      -9.756  -5.023  -6.910  1.00  0.00     0.339 C 
ATOM      3  C   UNL     1     -11.703  -3.664  -7.157  1.00  0.00     0.199 C 
ATOM      4  C   UNL     1     -11.896  -3.994  -8.669  1.00  0.00     0.180 C 
ATOM      5  O   UNL     1     -10.343  -3.737  -6.745  1.00  0.00    -0.328 OA
ATOM      6  C   UNL     1     -10.611  -4.609  -9.261  1.00  0.00     0.181 C 
ATOM      7  C   UNL     1     -10.037  -5.664  -8.305  1.00  0.00     0.214 C 
BRANCH   3   8
ATOM      8  C   UNL     1     -12.610  -4.440  -6.228  1.00  0.00     0.073 C 
ATOM      9  O   UNL     1     -13.443  -5.252  -6.709  1.00  0.00    -0.547 OA
ATOM     10  O   UNL     1     -12.586  -4.230  -4.853  1.00  0.00    -0.547 OA
ENDBRANCH   3   8
BRANCH   4  11
ATOM     11  O   UNL     1     -12.215  -2.817  -9.371  1.00  0.00    -0.387 OA
ATOM     12  H   UNL     1     -11.533  -2.137  -9.124  1.00  0.00     0.211 HD
ENDBRANCH   4  11
BRANCH   6  13
ATOM     13  O   UNL     1     -10.835  -5.146 -10.542  1.00  0.00    -0.387 OA
ATOM     14  H   UNL     1     -11.639  -4.708 -10.925  1.00  0.00     0.211 HD
ENDBRANCH   6  13
BRANCH   7  15
ATOM     15  O   UNL     1     -10.940  -6.738  -8.191  1.00  0.00    -0.384 OA
ATOM     16  H   UNL     1     -10.977  -6.996  -7.234  1.00  0.00     0.211 HD
ENDBRANCH   7  15
ENDBRANCH   1   2
BRANCH   1  17
ATOM     17  C   UNL     1     -10.124  -7.274  -5.743  1.00  0.00     0.172 A 
ATOM     18  C   UNL     1     -11.259  -8.095  -5.524  1.00  0.00     0.201 A 
ATOM     19  C   UNL     1      -8.872  -7.866  -5.910  1.00  0.00     0.098 A 
ATOM     20  C   UNL     1     -11.099  -9.503  -5.414  1.00  0.00     0.176 A 
ATOM     21  C   UNL     1      -8.710  -9.246  -5.846  1.00  0.00     0.146 A 
ATOM     22  C   UNL     1      -9.818 -10.081  -5.596  1.00  0.00     0.111 A 
ATOM     23  O   UNL     1      -7.495  -9.760  -6.019  1.00  0.00    -0.456 OA
ATOM     24  C   UNL     1      -9.582 -11.472  -5.531  1.00  0.00     0.197 A 
ATOM     25  C   UNL     1      -7.241 -11.065  -5.974  1.00  0.00     0.138 A 
ATOM     26  C   UNL     1      -8.290 -11.963  -5.721  1.00  0.00     0.100 A 
ATOM     27  O   UNL     1     -10.514 -12.290  -5.301  1.00  0.00    -0.289 OA
BRANCH  18  28
ATOM     28  O   UNL     1     -12.524  -7.512  -5.451  1.00  0.00    -0.502 OA
ATOM     29  H   UNL     1     -13.364  -7.909  -5.846  1.00  0.00     0.293 HD
ENDBRANCH  18  28
BRANCH  20  30
ATOM     30  O   UNL     1     -12.182 -10.336  -5.116  1.00  0.00    -0.504 OA
ATOM     31  H   UNL     1     -12.105 -11.237  -4.666  1.00  0.00     0.293 HD
ENDBRANCH  20  30
BRANCH  25  32
ATOM     32  C   UNL     1      -5.846 -11.529  -6.180  1.00  0.00     0.017 A 
ATOM     33  C   UNL     1      -5.532 -12.541  -7.109  1.00  0.00     0.012 A 
ATOM     34  C   UNL     1      -4.802 -10.926  -5.454  1.00  0.00     0.012 A 
ATOM     35  C   UNL     1      -4.207 -12.951  -7.288  1.00  0.00     0.001 A 
ATOM     36  C   UNL     1      -3.479 -11.341  -5.637  1.00  0.00     0.001 A 
ATOM     37  C   UNL     1      -3.183 -12.353  -6.551  1.00  0.00     0.000 A 
ENDBRANCH  25  32
ENDBRANCH   1  17
TORSDOF 9
ENDMDL
MODEL 8
REMARK VINA RESULT:    -3.276      5.186      9.835
REMARK INTER + INTRA:          -4.892
REMARK INTER:                  -4.539
REMARK INTRA:                  -0.352
REMARK UNBOUND:                -0.371
REMARK SMILES O=C([O-])[C@H]1O[C@@H](Oc2cc3oc(-c4ccccc4)cc(=O)c3c(O)c2O)[C@@H](O)[C@@H](O)[C@@H]1O
REMARK SMILES IDX 7 1 6 2 4 3 31 4 5 5 29 6 27 7 2 8 1 9 3 10 32 11 30 13
REMARK SMILES IDX 28 15 8 17 25 18 9 19 23 20 10 21 22 22 11 23 20 24 12 25
REMARK SMILES IDX 19 26 21 27 26 28 24 30 13 32 14 33 18 34 15 35 17 36 16 37
REMARK H PARENT 32 12 30 14 28 16 26 29 24 31
REMARK Flexibility Score: inf
ROOT
ATOM      1  O   UNL     1      -2.644 -12.120  -6.277  1.00  0.00    -0.458 OA
ENDROOT
BRANCH   1   2
ATOM      2  C   UNL     1      -2.461 -11.748  -4.905  1.00  0.00     0.339 C 
ATOM      3  C   UNL     1      -0.165 -12.326  -4.592  1.00  0.00     0.199 C 
ATOM      4  C   UNL     1      -0.435 -13.252  -3.367  1.00  0.00     0.180 C 
ATOM      5  O   UNL     1      -1.127 -11.285  -4.720  1.00  0.00    -0.328 OA
ATOM      6  C   UNL     1      -1.839 -12.990  -2.784  1.00  0.00     0.181 C 
ATOM      7  C   UNL     1      -2.872 -12.880  -3.915  1.00  0.00     0.214 C 
BRANCH   3   8
ATOM      8  C   UNL     1       0.037 -13.062  -5.898  1.00  0.00     0.073 C 
ATOM      9  O   UNL     1       0.926 -12.671  -6.700  1.00  0.00    -0.547 OA
ATOM     10  O   UNL     1      -0.782 -14.125  -6.262  1.00  0.00    -0.547 OA
ENDBRANCH   3   8
BRANCH   4  11
ATOM     11  O   UNL     1       0.533 -13.013  -2.374  1.00  0.00    -0.387 OA
ATOM     12  H   UNL     1       1.010 -13.871  -2.219  1.00  0.00     0.211 HD
ENDBRANCH   4  11
BRANCH   6  13
ATOM     13  O   UNL     1      -2.205 -13.976  -1.849  1.00  0.00    -0.387 OA
ATOM     14  H   UNL     1      -2.506 -13.520  -1.020  1.00  0.00     0.211 HD
ENDBRANCH   6  13
BRANCH   7  15
ATOM     15  O   UNL     1      -2.975 -14.116  -4.580  1.00  0.00    -0.384 OA
ATOM     16  H   UNL     1      -3.838 -14.121  -5.068  1.00  0.00     0.211 HD
ENDBRANCH   7  15
ENDBRANCH   1   2
BRANCH   1  17
ATOM     17  C   UNL     1      -3.832 -12.490  -6.938  1.00  0.00     0.172 A 
ATOM     18  C   UNL     1      -3.886 -13.211  -8.157  1.00  0.00     0.201 A 
ATOM     19  C   UNL     1      -5.021 -12.115  -6.310  1.00  0.00     0.098 A 
ATOM     20  C   UNL     1      -5.144 -13.488  -8.756  1.00  0.00     0.176 A 
ATOM     21  C   UNL     1      -6.259 -12.418  -6.867  1.00  0.00     0.146 A 
ATOM     22  C   UNL     1      -6.337 -13.105  -8.096  1.00  0.00     0.111 A 
ATOM     23  O   UNL     1      -7.363 -12.044  -6.225  1.00  0.00    -0.456 OA
ATOM     24  C   UNL     1      -7.626 -13.369  -8.612  1.00  0.00     0.197 A 
ATOM     25  C   UNL     1      -8.589 -12.286  -6.678  1.00  0.00     0.138 A 
ATOM     26  C   UNL     1      -8.753 -12.957  -7.899  1.00  0.00     0.100 A 
ATOM     27  O   UNL     1      -7.786 -13.969  -9.709  1.00  0.00    -0.289 OA
BRANCH  18  28
ATOM     28  O   UNL     1      -2.701 -13.668  -8.736  1.00  0.00    -0.502 OA
ATOM     29  H   UNL     1      -2.441 -13.524  -9.701  1.00  0.00     0.293 HD
ENDBRANCH  18  28
BRANCH  20  30
ATOM     30  O   UNL     1      -5.232 -14.124 -10.000  1.00  0.00    -0.504 OA
ATOM     31  H   UNL     1      -5.743 -14.978 -10.171  1.00  0.00     0.293 HD
ENDBRANCH  20  30
BRANCH  25  32
ATOM     32  C   UNL     1      -9.751 -11.822  -5.879  1.00  0.00     0.017 A 
ATOM     33  C   UNL     1     -10.221 -10.496  -5.957  1.00  0.00     0.012 A 
ATOM     34  C   UNL     1     -10.424 -12.732  -5.042  1.00  0.00     0.012 A 
ATOM     35  C   UNL     1     -11.324 -10.090  -5.199  1.00  0.00     0.001 A 
ATOM     36  C   UNL     1     -11.525 -12.321  -4.286  1.00  0.00     0.001 A 
ATOM     37  C   UNL     1     -11.973 -11.001  -4.363  1.00  0.00     0.000 A 
ENDBRANCH  25  32
ENDBRANCH   1  17
TORSDOF 9
ENDMDL
MODEL 9
REMARK VINA RESULT:    -2.748      2.555      7.966
REMARK INTER + INTRA:          -4.163
REMARK INTER:                  -3.480
REMARK INTRA:                  -0.683
REMARK UNBOUND:                -0.371
REMARK SMILES O=C([O-])[C@H]1O[C@@H](Oc2cc3oc(-c4ccccc4)cc(=O)c3c(O)c2O)[C@@H](O)[C@@H](O)[C@@H]1O
REMARK SMILES IDX 7 1 6 2 4 3 31 4 5 5 29 6 27 7 2 8 1 9 3 10 32 11 30 13
REMARK SMILES IDX 28 15 8 17 25 18 9 19 23 20 10 21 22 22 11 23 20 24 12 25
REMARK SMILES IDX 19 26 21 27 26 28 24 30 13 32 14 33 18 34 15 35 17 36 16 37
REMARK H PARENT 32 12 30 14 28 16 26 29 24 31
REMARK Flexibility Score: inf
ROOT
ATOM      1  O   UNL     1      -7.421 -12.347  -6.626  1.00  0.00    -0.458 OA
ENDROOT
BRANCH   1   2
ATOM      2  C   UNL     1      -7.045 -13.385  -7.540  1.00  0.00     0.339 C 
ATOM      3  C   UNL     1      -4.664 -13.215  -7.446  1.00  0.00     0.199 C 
ATOM      4  C   UNL     1      -4.491 -13.037  -8.986  1.00  0.00     0.180 C 
ATOM      5  O   UNL     1      -5.821 -13.970  -7.105  1.00  0.00    -0.328 OA
ATOM      6  C   UNL     1      -5.773 -13.463  -9.731  1.00  0.00     0.181 C 
ATOM      7  C   UNL     1      -7.013 -12.900  -9.022  1.00  0.00     0.214 C 
BRANCH   3   8
ATOM      8  C   UNL     1      -4.586 -11.928  -6.656  1.00  0.00     0.073 C 
ATOM      9  O   UNL     1      -5.051 -10.867  -7.150  1.00  0.00    -0.547 OA
ATOM     10  O   UNL     1      -3.952 -11.877  -5.419  1.00  0.00    -0.547 OA
ENDBRANCH   3   8
BRANCH   4  11
ATOM     11  O   UNL     1      -3.411 -13.822  -9.431  1.00  0.00    -0.387 OA
ATOM     12  H   UNL     1      -3.161 -13.487 -10.333  1.00  0.00     0.211 HD
ENDBRANCH   4  11
BRANCH   6  13
ATOM     13  O   UNL     1      -5.738 -13.077 -11.084  1.00  0.00    -0.387 OA
ATOM     14  H   UNL     1      -6.648 -12.779 -11.345  1.00  0.00     0.211 HD
ENDBRANCH   6  13
BRANCH   7  15
ATOM     15  O   UNL     1      -6.997 -11.494  -9.090  1.00  0.00    -0.384 OA
ATOM     16  H   UNL     1      -6.753 -11.155  -8.190  1.00  0.00     0.211 HD
ENDBRANCH   7  15
ENDBRANCH   1   2
BRANCH   1  17
ATOM     17  C   UNL     1      -8.714 -11.908  -6.277  1.00  0.00     0.172 A 
ATOM     18  C   UNL     1      -9.767 -12.759  -5.855  1.00  0.00     0.201 A 
ATOM     19  C   UNL     1      -8.932 -10.532  -6.350  1.00  0.00     0.098 A 
ATOM     20  C   UNL     1     -11.046 -12.210  -5.573  1.00  0.00     0.176 A 
ATOM     21  C   UNL     1     -10.169  -9.978  -6.036  1.00  0.00     0.146 A 
ATOM     22  C   UNL     1     -11.241 -10.808  -5.645  1.00  0.00     0.111 A 
ATOM     23  O   UNL     1     -10.323  -8.660  -6.115  1.00  0.00    -0.456 OA
ATOM     24  C   UNL     1     -12.474 -10.183  -5.353  1.00  0.00     0.197 A 
ATOM     25  C   UNL     1     -11.466  -8.040  -5.836  1.00  0.00     0.138 A 
ATOM     26  C   UNL     1     -12.584  -8.795  -5.449  1.00  0.00     0.100 A 
ATOM     27  O   UNL     1     -13.486 -10.850  -5.007  1.00  0.00    -0.289 OA
BRANCH  18  28
ATOM     28  O   UNL     1      -9.522 -14.123  -5.691  1.00  0.00    -0.502 OA
ATOM     29  H   UNL     1     -10.239 -14.831  -5.623  1.00  0.00     0.293 HD
ENDBRANCH  18  28
BRANCH  20  30
ATOM     30  O   UNL     1     -12.130 -13.028  -5.234  1.00  0.00    -0.504 OA
ATOM     31  H   UNL     1     -12.059 -14.012  -5.020  1.00  0.00     0.293 HD
ENDBRANCH  20  30
BRANCH  25  32
ATOM     32  C   UNL     1     -11.526  -6.561  -5.959  1.00  0.00     0.017 A 
ATOM     33  C   UNL     1     -10.641  -5.851  -6.794  1.00  0.00     0.012 A 
ATOM     34  C   UNL     1     -12.509  -5.847  -5.249  1.00  0.00     0.012 A 
ATOM     35  C   UNL     1     -10.727  -4.459  -6.897  1.00  0.00     0.001 A 
ATOM     36  C   UNL     1     -12.590  -4.455  -5.355  1.00  0.00     0.001 A 
ATOM     37  C   UNL     1     -11.699  -3.762  -6.176  1.00  0.00     0.000 A 
ENDBRANCH  25  32
ENDBRANCH   1  17
TORSDOF 9
ENDMDL
