MODEL 1
REMARK VINA RESULT:    -4.862      0.000      0.000
REMARK INTER + INTRA:          -5.463
REMARK INTER:                  -5.288
REMARK INTRA:                  -0.175
REMARK UNBOUND:                -0.175
REMARK SMILES Cc1ccc(C(C)C)c(O)c1
REMARK SMILES IDX 1 1 2 2 11 3 9 4 5 5 4 6 3 7 10 8 6 10 7 11 8 12
REMARK H PARENT 10 9
REMARK Flexibility Score: inf
ROOT
ATOM      1  C   UNL     1     -11.872   0.379  32.620  1.00  0.00     0.044 C 
ATOM      2  C   UNL     1     -12.391   1.021  31.367  1.00  0.00    -0.047 A 
ATOM      3  C   UNL     1     -12.096   2.359  31.085  1.00  0.00     0.049 A 
ATOM      4  C   UNL     1     -12.601   2.989  29.940  1.00  0.00     0.119 A 
ATOM      5  C   UNL     1     -13.441   2.260  29.045  1.00  0.00    -0.004 A 
ATOM      6  C   UNL     1     -13.742   0.918  29.360  1.00  0.00     0.008 A 
ATOM      7  C   UNL     1     -13.230   0.310  30.507  1.00  0.00     0.004 A 
ENDROOT
BRANCH   4   8
ATOM      8  O   UNL     1     -12.237   4.323  29.752  1.00  0.00    -0.508 OA
ATOM      9  H   UNL     1     -11.955   4.952  30.484  1.00  0.00     0.293 HD
ENDBRANCH   4   8
BRANCH   5  10
ATOM     10  C   UNL     1     -14.046   2.833  27.763  1.00  0.00     0.017 C 
ATOM     11  C   UNL     1     -15.575   2.705  27.712  1.00  0.00     0.012 C 
ATOM     12  C   UNL     1     -13.355   2.317  26.494  1.00  0.00     0.012 C 
ENDBRANCH   5  10
TORSDOF 2
ENDMDL
MODEL 2
REMARK VINA RESULT:    -4.623      1.477      2.078
REMARK INTER + INTRA:          -5.203
REMARK INTER:                  -5.149
REMARK INTRA:                  -0.054
REMARK UNBOUND:                -0.175
REMARK SMILES Cc1ccc(C(C)C)c(O)c1
REMARK SMILES IDX 1 1 2 2 11 3 9 4 5 5 4 6 3 7 10 8 6 10 7 11 8 12
REMARK H PARENT 10 9
REMARK Flexibility Score: inf
ROOT
ATOM      1  C   UNL     1     -11.665   0.758  32.957  1.00  0.00     0.044 C 
ATOM      2  C   UNL     1     -12.200   1.352  31.687  1.00  0.00    -0.047 A 
ATOM      3  C   UNL     1     -12.972   0.577  30.815  1.00  0.00     0.049 A 
ATOM      4  C   UNL     1     -13.450   1.101  29.607  1.00  0.00     0.119 A 
ATOM      5  C   UNL     1     -13.139   2.447  29.249  1.00  0.00    -0.004 A 
ATOM      6  C   UNL     1     -12.343   3.204  30.134  1.00  0.00     0.008 A 
ATOM      7  C   UNL     1     -11.876   2.663  31.331  1.00  0.00     0.004 A 
ENDROOT
BRANCH   4   8
ATOM      8  O   UNL     1     -14.216   0.243  28.817  1.00  0.00    -0.508 OA
ATOM      9  H   UNL     1     -14.041  -0.739  28.695  1.00  0.00     0.293 HD
ENDBRANCH   4   8
BRANCH   5  10
ATOM     10  C   UNL     1     -13.607   3.133  27.964  1.00  0.00     0.017 C 
ATOM     11  C   UNL     1     -15.134   3.269  27.879  1.00  0.00     0.012 C 
ATOM     12  C   UNL     1     -12.985   2.523  26.701  1.00  0.00     0.012 C 
ENDBRANCH   5  10
TORSDOF 2
ENDMDL
MODEL 3
REMARK VINA RESULT:    -4.361      7.665      9.464
REMARK INTER + INTRA:          -4.918
REMARK INTER:                  -4.745
REMARK INTRA:                  -0.173
REMARK UNBOUND:                -0.175
REMARK SMILES Cc1ccc(C(C)C)c(O)c1
REMARK SMILES IDX 1 1 2 2 11 3 9 4 5 5 4 6 3 7 10 8 6 10 7 11 8 12
REMARK H PARENT 10 9
REMARK Flexibility Score: inf
ROOT
ATOM      1  C   UNL     1     -14.506  12.094  29.734  1.00  0.00     0.044 C 
ATOM      2  C   UNL     1     -13.393  11.315  30.372  1.00  0.00    -0.047 A 
ATOM      3  C   UNL     1     -13.528   9.940  30.590  1.00  0.00     0.049 A 
ATOM      4  C   UNL     1     -12.515   9.202  31.218  1.00  0.00     0.119 A 
ATOM      5  C   UNL     1     -11.326   9.860  31.652  1.00  0.00    -0.004 A 
ATOM      6  C   UNL     1     -11.220  11.251  31.439  1.00  0.00     0.008 A 
ATOM      7  C   UNL     1     -12.240  11.968  30.814  1.00  0.00     0.004 A 
ENDROOT
BRANCH   4   8
ATOM      8  O   UNL     1     -12.751   7.836  31.378  1.00  0.00    -0.508 OA
ATOM      9  H   UNL     1     -12.331   7.108  30.827  1.00  0.00     0.293 HD
ENDBRANCH   4   8
BRANCH   5  10
ATOM     10  C   UNL     1     -10.152   9.164  32.341  1.00  0.00     0.017 C 
ATOM     11  C   UNL     1     -10.023   9.531  33.826  1.00  0.00     0.012 C 
ATOM     12  C   UNL     1      -8.835   9.310  31.568  1.00  0.00     0.012 C 
ENDBRANCH   5  10
TORSDOF 2
ENDMDL
MODEL 4
REMARK VINA RESULT:    -4.349      9.980     10.802
REMARK INTER + INTRA:          -4.905
REMARK INTER:                  -4.719
REMARK INTRA:                  -0.187
REMARK UNBOUND:                -0.175
REMARK SMILES Cc1ccc(C(C)C)c(O)c1
REMARK SMILES IDX 1 1 2 2 11 3 9 4 5 5 4 6 3 7 10 8 6 10 7 11 8 12
REMARK H PARENT 10 9
REMARK Flexibility Score: inf
ROOT
ATOM      1  C   UNL     1      -5.132  -0.357  31.846  1.00  0.00     0.044 C 
ATOM      2  C   UNL     1      -4.126  -0.109  30.761  1.00  0.00    -0.047 A 
ATOM      3  C   UNL     1      -3.067   0.781  30.969  1.00  0.00     0.049 A 
ATOM      4  C   UNL     1      -2.138   1.055  29.956  1.00  0.00     0.119 A 
ATOM      5  C   UNL     1      -2.276   0.426  28.683  1.00  0.00    -0.004 A 
ATOM      6  C   UNL     1      -3.362  -0.453  28.489  1.00  0.00     0.008 A 
ATOM      7  C   UNL     1      -4.277  -0.711  29.510  1.00  0.00     0.004 A 
ENDROOT
BRANCH   4   8
ATOM      8  O   UNL     1      -1.118   1.952  30.275  1.00  0.00    -0.508 OA
ATOM      9  H   UNL     1      -1.254   2.858  30.688  1.00  0.00     0.293 HD
ENDBRANCH   4   8
BRANCH   5  10
ATOM     10  C   UNL     1      -1.326   0.638  27.504  1.00  0.00     0.017 C 
ATOM     11  C   UNL     1      -1.649   1.901  26.693  1.00  0.00     0.012 C 
ATOM     12  C   UNL     1      -1.166  -0.614  26.632  1.00  0.00     0.012 C 
ENDBRANCH   5  10
TORSDOF 2
ENDMDL
MODEL 5
REMARK VINA RESULT:    -4.318      9.728     10.934
REMARK INTER + INTRA:          -4.871
REMARK INTER:                  -4.684
REMARK INTRA:                  -0.187
REMARK UNBOUND:                -0.175
REMARK SMILES Cc1ccc(C(C)C)c(O)c1
REMARK SMILES IDX 1 1 2 2 11 3 9 4 5 5 4 6 3 7 10 8 6 10 7 11 8 12
REMARK H PARENT 10 9
REMARK Flexibility Score: inf
ROOT
ATOM      1  C   UNL     1      -0.890  -0.195  26.714  1.00  0.00     0.044 C 
ATOM      2  C   UNL     1      -1.743   0.008  27.931  1.00  0.00    -0.047 A 
ATOM      3  C   UNL     1      -1.267   0.761  29.009  1.00  0.00     0.049 A 
ATOM      4  C   UNL     1      -2.032   0.933  30.171  1.00  0.00     0.119 A 
ATOM      5  C   UNL     1      -3.318   0.322  30.265  1.00  0.00    -0.004 A 
ATOM      6  C   UNL     1      -3.770  -0.450  29.174  1.00  0.00     0.008 A 
ATOM      7  C   UNL     1      -2.992  -0.609  28.027  1.00  0.00     0.004 A 
ENDROOT
BRANCH   4   8
ATOM      8  O   UNL     1      -1.463   1.709  31.181  1.00  0.00    -0.508 OA
ATOM      9  H   UNL     1      -0.961   2.568  31.035  1.00  0.00     0.293 HD
ENDBRANCH   4   8
BRANCH   5  10
ATOM     10  C   UNL     1      -4.248   0.440  31.474  1.00  0.00     0.017 C 
ATOM     11  C   UNL     1      -5.109  -0.812  31.694  1.00  0.00     0.012 C 
ATOM     12  C   UNL     1      -5.063   1.740  31.476  1.00  0.00     0.012 C 
ENDBRANCH   5  10
TORSDOF 2
ENDMDL
MODEL 6
REMARK VINA RESULT:    -4.316      7.855      9.552
REMARK INTER + INTRA:          -4.869
REMARK INTER:                  -4.682
REMARK INTRA:                  -0.187
REMARK UNBOUND:                -0.175
REMARK SMILES Cc1ccc(C(C)C)c(O)c1
REMARK SMILES IDX 1 1 2 2 11 3 9 4 5 5 4 6 3 7 10 8 6 10 7 11 8 12
REMARK H PARENT 10 9
REMARK Flexibility Score: inf
ROOT
ATOM      1  C   UNL     1     -14.936  11.973  29.502  1.00  0.00     0.044 C 
ATOM      2  C   UNL     1     -13.745  11.346  30.166  1.00  0.00    -0.047 A 
ATOM      3  C   UNL     1     -12.578  12.089  30.370  1.00  0.00     0.049 A 
ATOM      4  C   UNL     1     -11.443  11.512  30.955  1.00  0.00     0.119 A 
ATOM      5  C   UNL     1     -11.468  10.139  31.343  1.00  0.00    -0.004 A 
ATOM      6  C   UNL     1     -12.649   9.404  31.109  1.00  0.00     0.008 A 
ATOM      7  C   UNL     1     -13.768   9.996  30.524  1.00  0.00     0.004 A 
ENDROOT
BRANCH   4   8
ATOM      8  O   UNL     1     -10.336  12.346  31.118  1.00  0.00    -0.508 OA
ATOM      9  H   UNL     1     -10.028  13.034  30.453  1.00  0.00     0.293 HD
ENDBRANCH   4   8
BRANCH   5  10
ATOM     10  C   UNL     1     -10.299   9.400  31.994  1.00  0.00     0.017 C 
ATOM     11  C   UNL     1     -10.235   7.916  31.605  1.00  0.00     0.012 C 
ATOM     12  C   UNL     1     -10.216   9.629  33.508  1.00  0.00     0.012 C 
ENDBRANCH   5  10
TORSDOF 2
ENDMDL
MODEL 7
REMARK VINA RESULT:    -4.306      1.964      3.026
REMARK INTER + INTRA:          -4.858
REMARK INTER:                  -4.671
REMARK INTRA:                  -0.187
REMARK UNBOUND:                -0.175
REMARK SMILES Cc1ccc(C(C)C)c(O)c1
REMARK SMILES IDX 1 1 2 2 11 3 9 4 5 5 4 6 3 7 10 8 6 10 7 11 8 12
REMARK H PARENT 10 9
REMARK Flexibility Score: inf
ROOT
ATOM      1  C   UNL     1     -10.759   4.487  32.574  1.00  0.00     0.044 C 
ATOM      2  C   UNL     1     -11.537   3.564  31.683  1.00  0.00    -0.047 A 
ATOM      3  C   UNL     1     -11.705   2.220  32.033  1.00  0.00     0.049 A 
ATOM      4  C   UNL     1     -12.397   1.333  31.198  1.00  0.00     0.119 A 
ATOM      5  C   UNL     1     -12.934   1.800  29.961  1.00  0.00    -0.004 A 
ATOM      6  C   UNL     1     -12.736   3.154  29.619  1.00  0.00     0.008 A 
ATOM      7  C   UNL     1     -12.043   4.021  30.464  1.00  0.00     0.004 A 
ENDROOT
BRANCH   4   8
ATOM      8  O   UNL     1     -12.511   0.017  31.649  1.00  0.00    -0.508 OA
ATOM      9  H   UNL     1     -11.786  -0.499  32.115  1.00  0.00     0.293 HD
ENDBRANCH   4   8
BRANCH   5  10
ATOM     10  C   UNL     1     -13.711   0.932  28.971  1.00  0.00     0.017 C 
ATOM     11  C   UNL     1     -12.799   0.099  28.059  1.00  0.00     0.012 C 
ATOM     12  C   UNL     1     -14.779   1.717  28.199  1.00  0.00     0.012 C 
ENDBRANCH   5  10
TORSDOF 2
ENDMDL
MODEL 8
REMARK VINA RESULT:    -4.292     12.328     14.204
REMARK INTER + INTRA:          -4.843
REMARK INTER:                  -4.736
REMARK INTRA:                  -0.107
REMARK UNBOUND:                -0.175
REMARK SMILES Cc1ccc(C(C)C)c(O)c1
REMARK SMILES IDX 1 1 2 2 11 3 9 4 5 5 4 6 3 7 10 8 6 10 7 11 8 12
REMARK H PARENT 10 9
REMARK Flexibility Score: inf
ROOT
ATOM      1  C   UNL     1      -8.875  12.765  19.190  1.00  0.00     0.044 C 
ATOM      2  C   UNL     1      -9.869  11.687  18.872  1.00  0.00    -0.047 A 
ATOM      3  C   UNL     1      -9.556  10.345  19.112  1.00  0.00     0.049 A 
ATOM      4  C   UNL     1     -10.454   9.320  18.788  1.00  0.00     0.119 A 
ATOM      5  C   UNL     1     -11.710   9.643  18.192  1.00  0.00    -0.004 A 
ATOM      6  C   UNL     1     -11.996  11.001  17.940  1.00  0.00     0.008 A 
ATOM      7  C   UNL     1     -11.087  12.007  18.269  1.00  0.00     0.004 A 
ENDROOT
BRANCH   4   8
ATOM      8  O   UNL     1     -10.043   8.018  19.078  1.00  0.00    -0.508 OA
ATOM      9  H   UNL     1      -9.651   7.718  19.954  1.00  0.00     0.293 HD
ENDBRANCH   4   8
BRANCH   5  10
ATOM     10  C   UNL     1     -12.774   8.617  17.800  1.00  0.00     0.017 C 
ATOM     11  C   UNL     1     -13.859   9.199  16.882  1.00  0.00     0.012 C 
ATOM     12  C   UNL     1     -13.346   7.860  19.004  1.00  0.00     0.012 C 
ENDBRANCH   5  10
TORSDOF 2
ENDMDL
MODEL 9
REMARK VINA RESULT:    -4.174     12.450     14.270
REMARK INTER + INTRA:          -4.715
REMARK INTER:                  -4.528
REMARK INTRA:                  -0.187
REMARK UNBOUND:                -0.175
REMARK SMILES Cc1ccc(C(C)C)c(O)c1
REMARK SMILES IDX 1 1 2 2 11 3 9 4 5 5 4 6 3 7 10 8 6 10 7 11 8 12
REMARK H PARENT 10 9
REMARK Flexibility Score: inf
ROOT
ATOM      1  C   UNL     1      -9.249  13.124  19.124  1.00  0.00     0.044 C 
ATOM      2  C   UNL     1      -9.821  11.773  18.809  1.00  0.00    -0.047 A 
ATOM      3  C   UNL     1     -10.947  11.656  17.988  1.00  0.00     0.049 A 
ATOM      4  C   UNL     1     -11.519  10.407  17.712  1.00  0.00     0.119 A 
ATOM      5  C   UNL     1     -10.952   9.229  18.284  1.00  0.00    -0.004 A 
ATOM      6  C   UNL     1      -9.828   9.372  19.125  1.00  0.00     0.008 A 
ATOM      7  C   UNL     1      -9.275  10.625  19.389  1.00  0.00     0.004 A 
ENDROOT
BRANCH   4   8
ATOM      8  O   UNL     1     -12.635  10.406  16.875  1.00  0.00    -0.508 OA
ATOM      9  H   UNL     1     -12.613  10.247  15.883  1.00  0.00     0.293 HD
ENDBRANCH   4   8
BRANCH   5  10
ATOM     10  C   UNL     1     -11.480   7.813  18.053  1.00  0.00     0.017 C 
ATOM     11  C   UNL     1     -12.657   7.454  18.972  1.00  0.00     0.012 C 
ATOM     12  C   UNL     1     -10.370   6.754  18.054  1.00  0.00     0.012 C 
ENDBRANCH   5  10
TORSDOF 2
ENDMDL
