MODEL 1
REMARK VINA RESULT:    -4.633      0.000      0.000
REMARK INTER + INTRA:          -5.090
REMARK INTER:                  -5.039
REMARK INTRA:                  -0.050
REMARK UNBOUND:                -0.050
REMARK SMILES CCc1cccc(O)c1
REMARK SMILES IDX 3 1 9 2 7 3 6 4 5 5 4 6 2 7 1 8 8 9
REMARK H PARENT 8 10
REMARK Flexibility Score: inf
ROOT
ATOM      1  C   UNL     1      29.081  13.127 -16.041  1.00  0.00    -0.045 A 
ATOM      2  C   UNL     1      28.920  13.273 -17.429  1.00  0.00     0.049 A 
ATOM      3  C   UNL     1      29.252  14.483 -18.056  1.00  0.00     0.115 A 
ATOM      4  C   UNL     1      29.755  15.545 -17.298  1.00  0.00     0.046 A 
ATOM      5  C   UNL     1      29.929  15.401 -15.919  1.00  0.00     0.004 A 
ATOM      6  C   UNL     1      29.599  14.196 -15.291  1.00  0.00     0.004 A 
ENDROOT
BRANCH   1   7
ATOM      7  C   UNL     1      28.756  11.819 -15.372  1.00  0.00     0.032 C 
ATOM      8  C   UNL     1      29.440  10.661 -16.092  1.00  0.00     0.009 C 
ENDBRANCH   1   7
BRANCH   3   9
ATOM      9  O   UNL     1      29.089  14.638 -19.431  1.00  0.00    -0.508 OA
ATOM     10  H   UNL     1      28.268  15.088 -19.819  1.00  0.00     0.293 HD
ENDBRANCH   3   9
TORSDOF 2
ENDMDL
MODEL 2
REMARK VINA RESULT:    -4.555     18.223     20.012
REMARK INTER + INTRA:          -5.005
REMARK INTER:                  -4.933
REMARK INTRA:                  -0.072
REMARK UNBOUND:                -0.050
REMARK SMILES CCc1cccc(O)c1
REMARK SMILES IDX 3 1 9 2 7 3 6 4 5 5 4 6 2 7 1 8 8 9
REMARK H PARENT 8 10
REMARK Flexibility Score: inf
ROOT
ATOM      1  C   UNL     1      16.279   0.145 -13.910  1.00  0.00    -0.045 A 
ATOM      2  C   UNL     1      16.046   0.369 -12.542  1.00  0.00     0.049 A 
ATOM      3  C   UNL     1      14.803   0.054 -11.976  1.00  0.00     0.115 A 
ATOM      4  C   UNL     1      13.794  -0.496 -12.773  1.00  0.00     0.046 A 
ATOM      5  C   UNL     1      14.024  -0.733 -14.131  1.00  0.00     0.004 A 
ATOM      6  C   UNL     1      15.263  -0.420 -14.698  1.00  0.00     0.004 A 
ENDROOT
BRANCH   1   7
ATOM      7  C   UNL     1      17.624   0.452 -14.511  1.00  0.00     0.032 C 
ATOM      8  C   UNL     1      17.486   0.808 -15.988  1.00  0.00     0.009 C 
ENDBRANCH   1   7
BRANCH   3   9
ATOM      9  O   UNL     1      14.561   0.279 -10.622  1.00  0.00    -0.508 OA
ATOM     10  H   UNL     1      13.619   0.309 -10.251  1.00  0.00     0.293 HD
ENDBRANCH   3   9
TORSDOF 2
ENDMDL
MODEL 3
REMARK VINA RESULT:    -4.553     19.469     21.057
REMARK INTER + INTRA:          -5.002
REMARK INTER:                  -4.950
REMARK INTRA:                  -0.052
REMARK UNBOUND:                -0.050
REMARK SMILES CCc1cccc(O)c1
REMARK SMILES IDX 3 1 9 2 7 3 6 4 5 5 4 6 2 7 1 8 8 9
REMARK H PARENT 8 10
REMARK Flexibility Score: inf
ROOT
ATOM      1  C   UNL     1      13.950  -0.659 -14.026  1.00  0.00    -0.045 A 
ATOM      2  C   UNL     1      13.691  -0.405 -12.669  1.00  0.00     0.049 A 
ATOM      3  C   UNL     1      14.705   0.087 -11.835  1.00  0.00     0.115 A 
ATOM      4  C   UNL     1      15.978   0.335 -12.359  1.00  0.00     0.046 A 
ATOM      5  C   UNL     1      16.238   0.096 -13.711  1.00  0.00     0.004 A 
ATOM      6  C   UNL     1      15.229  -0.394 -14.544  1.00  0.00     0.004 A 
ENDROOT
BRANCH   1   7
ATOM      7  C   UNL     1      12.853  -1.156 -14.928  1.00  0.00     0.032 C 
ATOM      8  C   UNL     1      11.484  -0.785 -14.368  1.00  0.00     0.009 C 
ENDBRANCH   1   7
BRANCH   3   9
ATOM      9  O   UNL     1      14.458   0.336 -10.486  1.00  0.00    -0.508 OA
ATOM     10  H   UNL     1      15.168   0.180  -9.781  1.00  0.00     0.293 HD
ENDBRANCH   3   9
TORSDOF 2
ENDMDL
MODEL 4
REMARK VINA RESULT:    -4.462      0.914      3.211
REMARK INTER + INTRA:          -4.903
REMARK INTER:                  -4.852
REMARK INTRA:                  -0.051
REMARK UNBOUND:                -0.050
REMARK SMILES CCc1cccc(O)c1
REMARK SMILES IDX 3 1 9 2 7 3 6 4 5 5 4 6 2 7 1 8 8 9
REMARK H PARENT 8 10
REMARK Flexibility Score: inf
ROOT
ATOM      1  C   UNL     1      29.679  15.120 -15.890  1.00  0.00    -0.045 A 
ATOM      2  C   UNL     1      29.650  15.283 -17.285  1.00  0.00     0.049 A 
ATOM      3  C   UNL     1      29.251  14.223 -18.113  1.00  0.00     0.115 A 
ATOM      4  C   UNL     1      28.873  13.002 -17.547  1.00  0.00     0.046 A 
ATOM      5  C   UNL     1      28.889  12.838 -16.159  1.00  0.00     0.004 A 
ATOM      6  C   UNL     1      29.285  13.893 -15.332  1.00  0.00     0.004 A 
ENDROOT
BRANCH   1   7
ATOM      7  C   UNL     1      30.075  16.267 -15.000  1.00  0.00     0.032 C 
ATOM      8  C   UNL     1      30.754  17.368 -15.809  1.00  0.00     0.009 C 
ENDBRANCH   1   7
BRANCH   3   9
ATOM      9  O   UNL     1      29.225  14.375 -19.498  1.00  0.00    -0.508 OA
ATOM     10  H   UNL     1      30.002  14.081 -20.077  1.00  0.00     0.293 HD
ENDBRANCH   3   9
TORSDOF 2
ENDMDL
MODEL 5
REMARK VINA RESULT:    -4.330      1.354      2.551
REMARK INTER + INTRA:          -4.760
REMARK INTER:                  -4.714
REMARK INTRA:                  -0.046
REMARK UNBOUND:                -0.050
REMARK SMILES CCc1cccc(O)c1
REMARK SMILES IDX 3 1 9 2 7 3 6 4 5 5 4 6 2 7 1 8 8 9
REMARK H PARENT 8 10
REMARK Flexibility Score: inf
ROOT
ATOM      1  C   UNL     1      29.164  12.729 -15.885  1.00  0.00    -0.045 A 
ATOM      2  C   UNL     1      28.870  13.636 -16.917  1.00  0.00     0.049 A 
ATOM      3  C   UNL     1      29.431  13.464 -18.190  1.00  0.00     0.115 A 
ATOM      4  C   UNL     1      30.279  12.380 -18.437  1.00  0.00     0.046 A 
ATOM      5  C   UNL     1      30.566  11.468 -17.418  1.00  0.00     0.004 A 
ATOM      6  C   UNL     1      30.007  11.637 -16.148  1.00  0.00     0.004 A 
ENDROOT
BRANCH   1   7
ATOM      7  C   UNL     1      28.536  12.894 -14.527  1.00  0.00     0.032 C 
ATOM      8  C   UNL     1      28.965  14.213 -13.891  1.00  0.00     0.009 C 
ENDBRANCH   1   7
BRANCH   3   9
ATOM      9  O   UNL     1      29.149  14.363 -19.218  1.00  0.00    -0.508 OA
ATOM     10  H   UNL     1      28.578  14.096 -20.012  1.00  0.00     0.293 HD
ENDBRANCH   3   9
TORSDOF 2
ENDMDL
MODEL 6
REMARK VINA RESULT:    -4.268      1.462      1.715
REMARK INTER + INTRA:          -4.692
REMARK INTER:                  -4.640
REMARK INTRA:                  -0.052
REMARK UNBOUND:                -0.050
REMARK SMILES CCc1cccc(O)c1
REMARK SMILES IDX 3 1 9 2 7 3 6 4 5 5 4 6 2 7 1 8 8 9
REMARK H PARENT 8 10
REMARK Flexibility Score: inf
ROOT
ATOM      1  C   UNL     1      30.266  12.159 -17.136  1.00  0.00    -0.045 A 
ATOM      2  C   UNL     1      29.781  12.769 -18.305  1.00  0.00     0.049 A 
ATOM      3  C   UNL     1      29.444  14.130 -18.305  1.00  0.00     0.115 A 
ATOM      4  C   UNL     1      29.600  14.886 -17.138  1.00  0.00     0.046 A 
ATOM      5  C   UNL     1      30.094  14.287 -15.976  1.00  0.00     0.004 A 
ATOM      6  C   UNL     1      30.431  12.931 -15.974  1.00  0.00     0.004 A 
ENDROOT
BRANCH   1   7
ATOM      7  C   UNL     1      30.659  10.706 -17.145  1.00  0.00     0.032 C 
ATOM      8  C   UNL     1      30.874  10.214 -18.572  1.00  0.00     0.009 C 
ENDBRANCH   1   7
BRANCH   3   9
ATOM      9  O   UNL     1      28.957  14.741 -19.458  1.00  0.00    -0.508 OA
ATOM     10  H   UNL     1      29.547  15.331 -20.034  1.00  0.00     0.293 HD
ENDBRANCH   3   9
TORSDOF 2
ENDMDL
MODEL 7
REMARK VINA RESULT:    -4.207      2.146      3.206
REMARK INTER + INTRA:          -4.626
REMARK INTER:                  -4.566
REMARK INTRA:                  -0.061
REMARK UNBOUND:                -0.050
REMARK SMILES CCc1cccc(O)c1
REMARK SMILES IDX 3 1 9 2 7 3 6 4 5 5 4 6 2 7 1 8 8 9
REMARK H PARENT 8 10
REMARK Flexibility Score: inf
ROOT
ATOM      1  C   UNL     1      29.203  13.545 -16.754  1.00  0.00    -0.045 A 
ATOM      2  C   UNL     1      29.742  14.725 -16.215  1.00  0.00     0.049 A 
ATOM      3  C   UNL     1      29.650  14.979 -14.839  1.00  0.00     0.115 A 
ATOM      4  C   UNL     1      29.026  14.051 -13.999  1.00  0.00     0.046 A 
ATOM      5  C   UNL     1      28.499  12.870 -14.529  1.00  0.00     0.004 A 
ATOM      6  C   UNL     1      28.591  12.614 -15.900  1.00  0.00     0.004 A 
ENDROOT
BRANCH   1   7
ATOM      7  C   UNL     1      29.331  13.256 -18.226  1.00  0.00     0.032 C 
ATOM      8  C   UNL     1      30.311  12.113 -18.468  1.00  0.00     0.009 C 
ENDBRANCH   1   7
BRANCH   3   9
ATOM      9  O   UNL     1      30.177  16.149 -14.296  1.00  0.00    -0.508 OA
ATOM     10  H   UNL     1      29.904  17.062 -14.640  1.00  0.00     0.293 HD
ENDBRANCH   3   9
TORSDOF 2
ENDMDL
MODEL 8
REMARK VINA RESULT:    -4.166      8.952      9.538
REMARK INTER + INTRA:          -4.581
REMARK INTER:                  -4.515
REMARK INTRA:                  -0.066
REMARK UNBOUND:                -0.050
REMARK SMILES CCc1cccc(O)c1
REMARK SMILES IDX 3 1 9 2 7 3 6 4 5 5 4 6 2 7 1 8 8 9
REMARK H PARENT 8 10
REMARK Flexibility Score: inf
ROOT
ATOM      1  C   UNL     1      22.120  17.676 -14.641  1.00  0.00    -0.045 A 
ATOM      2  C   UNL     1      22.821  17.189 -13.526  1.00  0.00     0.049 A 
ATOM      3  C   UNL     1      22.186  17.087 -12.280  1.00  0.00     0.115 A 
ATOM      4  C   UNL     1      20.846  17.464 -12.149  1.00  0.00     0.046 A 
ATOM      5  C   UNL     1      20.139  17.938 -13.258  1.00  0.00     0.004 A 
ATOM      6  C   UNL     1      20.770  18.039 -14.501  1.00  0.00     0.004 A 
ENDROOT
BRANCH   1   7
ATOM      7  C   UNL     1      22.791  17.754 -15.986  1.00  0.00     0.032 C 
ATOM      8  C   UNL     1      22.014  16.951 -17.025  1.00  0.00     0.009 C 
ENDBRANCH   1   7
BRANCH   3   9
ATOM      9  O   UNL     1      22.877  16.611 -11.167  1.00  0.00    -0.508 OA
ATOM     10  H   UNL     1      23.889  16.585 -11.144  1.00  0.00     0.293 HD
ENDBRANCH   3   9
TORSDOF 2
ENDMDL
MODEL 9
REMARK VINA RESULT:    -4.156     17.827     18.442
REMARK INTER + INTRA:          -4.570
REMARK INTER:                  -4.519
REMARK INTRA:                  -0.052
REMARK UNBOUND:                -0.050
REMARK SMILES CCc1cccc(O)c1
REMARK SMILES IDX 3 1 9 2 7 3 6 4 5 5 4 6 2 7 1 8 8 9
REMARK H PARENT 8 10
REMARK Flexibility Score: inf
ROOT
ATOM      1  C   UNL     1      11.748   8.361 -16.493  1.00  0.00    -0.045 A 
ATOM      2  C   UNL     1      12.410   7.925 -17.653  1.00  0.00     0.049 A 
ATOM      3  C   UNL     1      13.024   6.664 -17.685  1.00  0.00     0.115 A 
ATOM      4  C   UNL     1      12.970   5.834 -16.561  1.00  0.00     0.046 A 
ATOM      5  C   UNL     1      12.303   6.258 -15.408  1.00  0.00     0.004 A 
ATOM      6  C   UNL     1      11.689   7.513 -15.374  1.00  0.00     0.004 A 
ENDROOT
BRANCH   1   7
ATOM      7  C   UNL     1      11.061   9.699 -16.469  1.00  0.00     0.032 C 
ATOM      8  C   UNL     1      10.876  10.236 -17.885  1.00  0.00     0.009 C 
ENDBRANCH   1   7
BRANCH   3   9
ATOM      9  O   UNL     1      13.688   6.226 -18.830  1.00  0.00    -0.508 OA
ATOM     10  H   UNL     1      13.834   6.839 -19.623  1.00  0.00     0.293 HD
ENDBRANCH   3   9
TORSDOF 2
ENDMDL
