MODEL 1
REMARK VINA RESULT:    -3.277      0.000      0.000
REMARK INTER + INTRA:          -8.476
REMARK INTER:                  -5.959
REMARK INTRA:                  -2.517
REMARK UNBOUND:                -2.517
REMARK SMILES CCCCCCCCCCCCCC[C@@H](C)C(=O)[O-]
REMARK SMILES IDX 9 1 10 2 11 3 12 4 13 5 14 6 15 7 16 8 17 9 18 10 19 11 8 12
REMARK SMILES IDX 7 13 6 14 5 15 4 16 3 17 2 18 1 19
REMARK H PARENT
REMARK Flexibility Score: inf
ROOT
ATOM      1  C   UNL     1     152.929 152.424 159.826  1.00  0.00     0.000 C 
ENDROOT
BRANCH   1   2
ATOM      2  C   UNL     1     153.865 152.092 158.647  1.00  0.00     0.000 C 
BRANCH   2   3
ATOM      3  C   UNL     1     154.882 153.193 158.295  1.00  0.00     0.000 C 
BRANCH   3   4
ATOM      4  C   UNL     1     154.576 153.885 156.959  1.00  0.00     0.000 C 
BRANCH   4   5
ATOM      5  C   UNL     1     153.967 155.276 157.188  1.00  0.00     0.001 C 
BRANCH   5   6
ATOM      6  C   UNL     1     154.137 155.772 158.637  1.00  0.00     0.009 C 
BRANCH   6   7
ATOM      7  C   UNL     1     154.851 157.137 158.761  1.00  0.00     0.032 C 
ATOM      8  C   UNL     1     154.061 158.073 159.681  1.00  0.00     0.014 C 
BRANCH   7   9
ATOM      9  C   UNL     1     156.258 156.983 159.272  1.00  0.00     0.044 C 
ATOM     10  O   UNL     1     156.669 157.683 160.236  1.00  0.00    -0.550 OA
ATOM     11  O   UNL     1     157.112 156.060 158.683  1.00  0.00    -0.550 OA
ENDBRANCH   7   9
ENDBRANCH   6   7
ENDBRANCH   5   6
ENDBRANCH   4   5
ENDBRANCH   3   4
ENDBRANCH   2   3
ENDBRANCH   1   2
BRANCH   1  12
ATOM     12  C   UNL     1     151.620 153.139 159.435  1.00  0.00     0.000 C 
BRANCH  12  13
ATOM     13  C   UNL     1     151.047 152.748 158.058  1.00  0.00    -0.000 C 
BRANCH  13  14
ATOM     14  C   UNL     1     150.668 153.929 157.145  1.00  0.00    -0.000 C 
BRANCH  14  15
ATOM     15  C   UNL     1     149.397 154.659 157.609  1.00  0.00    -0.000 C 
BRANCH  15  16
ATOM     16  C   UNL     1     149.508 156.191 157.491  1.00  0.00    -0.000 C 
BRANCH  16  17
ATOM     17  C   UNL     1     150.621 156.835 158.337  1.00  0.00    -0.000 C 
BRANCH  17  18
ATOM     18  C   UNL     1     150.456 156.576 159.842  1.00  0.00    -0.003 C 
ATOM     19  C   UNL     1     150.308 157.886 160.611  1.00  0.00     0.004 C 
ENDBRANCH  17  18
ENDBRANCH  16  17
ENDBRANCH  15  16
ENDBRANCH  14  15
ENDBRANCH  13  14
ENDBRANCH  12  13
ENDBRANCH   1  12
TORSDOF 14
ENDMDL
MODEL 2
REMARK VINA RESULT:    -3.244      2.039      3.528
REMARK INTER + INTRA:          -8.415
REMARK INTER:                  -6.934
REMARK INTRA:                  -1.481
REMARK UNBOUND:                -2.517
REMARK SMILES CCCCCCCCCCCCCC[C@@H](C)C(=O)[O-]
REMARK SMILES IDX 9 1 10 2 11 3 12 4 13 5 14 6 15 7 16 8 17 9 18 10 19 11 8 12
REMARK SMILES IDX 7 13 6 14 5 15 4 16 3 17 2 18 1 19
REMARK H PARENT
REMARK Flexibility Score: inf
ROOT
ATOM      1  C   UNL     1     154.922 152.092 157.470  1.00  0.00     0.000 C 
ENDROOT
BRANCH   1   2
ATOM      2  C   UNL     1     154.635 153.548 157.052  1.00  0.00     0.000 C 
BRANCH   2   3
ATOM      3  C   UNL     1     154.634 154.566 158.207  1.00  0.00     0.000 C 
BRANCH   3   4
ATOM      4  C   UNL     1     156.036 155.097 158.538  1.00  0.00     0.000 C 
BRANCH   4   5
ATOM      5  C   UNL     1     156.027 156.627 158.670  1.00  0.00     0.001 C 
BRANCH   5   6
ATOM      6  C   UNL     1     157.399 157.262 158.376  1.00  0.00     0.009 C 
BRANCH   6   7
ATOM      7  C   UNL     1     158.181 157.693 159.637  1.00  0.00     0.032 C 
ATOM      8  C   UNL     1     157.234 157.833 160.833  1.00  0.00     0.014 C 
BRANCH   7   9
ATOM      9  C   UNL     1     159.282 156.722 159.966  1.00  0.00     0.044 C 
ATOM     10  O   UNL     1     159.600 155.812 159.154  1.00  0.00    -0.550 OA
ATOM     11  O   UNL     1     159.962 156.830 161.173  1.00  0.00    -0.550 OA
ENDBRANCH   7   9
ENDBRANCH   6   7
ENDBRANCH   5   6
ENDBRANCH   4   5
ENDBRANCH   3   4
ENDBRANCH   2   3
ENDBRANCH   1   2
BRANCH   1  12
ATOM     12  C   UNL     1     153.671 151.246 157.782  1.00  0.00     0.000 C 
BRANCH  12  13
ATOM     13  C   UNL     1     153.468 150.902 159.271  1.00  0.00    -0.000 C 
BRANCH  13  14
ATOM     14  C   UNL     1     152.888 152.039 160.134  1.00  0.00    -0.000 C 
BRANCH  14  15
ATOM     15  C   UNL     1     151.509 152.513 159.649  1.00  0.00    -0.000 C 
BRANCH  15  16
ATOM     16  C   UNL     1     151.505 153.985 159.197  1.00  0.00    -0.000 C 
BRANCH  16  17
ATOM     17  C   UNL     1     150.687 154.279 157.926  1.00  0.00    -0.000 C 
BRANCH  17  18
ATOM     18  C   UNL     1     150.137 153.009 157.261  1.00  0.00    -0.003 C 
ATOM     19  C   UNL     1     149.009 153.342 156.288  1.00  0.00     0.004 C 
ENDBRANCH  17  18
ENDBRANCH  16  17
ENDBRANCH  15  16
ENDBRANCH  14  15
ENDBRANCH  13  14
ENDBRANCH  12  13
ENDBRANCH   1  12
TORSDOF 14
ENDMDL
MODEL 3
REMARK VINA RESULT:    -3.236      2.503      5.806
REMARK INTER + INTRA:          -8.402
REMARK INTER:                  -6.089
REMARK INTRA:                  -2.313
REMARK UNBOUND:                -2.517
REMARK SMILES CCCCCCCCCCCCCC[C@@H](C)C(=O)[O-]
REMARK SMILES IDX 9 1 10 2 11 3 12 4 13 5 14 6 15 7 16 8 17 9 18 10 19 11 8 12
REMARK SMILES IDX 7 13 6 14 5 15 4 16 3 17 2 18 1 19
REMARK H PARENT
REMARK Flexibility Score: inf
ROOT
ATOM      1  C   UNL     1     153.538 155.447 154.963  1.00  0.00     0.000 C 
ENDROOT
BRANCH   1   2
ATOM      2  C   UNL     1     152.578 156.571 155.400  1.00  0.00     0.000 C 
BRANCH   2   3
ATOM      3  C   UNL     1     151.300 156.094 156.112  1.00  0.00     0.000 C 
BRANCH   3   4
ATOM      4  C   UNL     1     151.298 156.410 157.615  1.00  0.00     0.000 C 
BRANCH   4   5
ATOM      5  C   UNL     1     150.577 155.309 158.406  1.00  0.00     0.001 C 
BRANCH   5   6
ATOM      6  C   UNL     1     151.543 154.431 159.224  1.00  0.00     0.009 C 
BRANCH   6   7
ATOM      7  C   UNL     1     151.399 152.915 158.962  1.00  0.00     0.032 C 
ATOM      8  C   UNL     1     151.242 152.643 157.463  1.00  0.00     0.014 C 
BRANCH   7   9
ATOM      9  C   UNL     1     152.572 152.144 159.503  1.00  0.00     0.044 C 
ATOM     10  O   UNL     1     153.256 151.403 158.746  1.00  0.00    -0.550 OA
ATOM     11  O   UNL     1     152.912 152.251 160.845  1.00  0.00    -0.550 OA
ENDBRANCH   7   9
ENDBRANCH   6   7
ENDBRANCH   5   6
ENDBRANCH   4   5
ENDBRANCH   3   4
ENDBRANCH   2   3
ENDBRANCH   1   2
BRANCH   1  12
ATOM     12  C   UNL     1     154.780 155.268 155.859  1.00  0.00     0.000 C 
BRANCH  12  13
ATOM     13  C   UNL     1     154.655 154.175 156.941  1.00  0.00    -0.000 C 
BRANCH  13  14
ATOM     14  C   UNL     1     155.095 154.598 158.355  1.00  0.00    -0.000 C 
BRANCH  14  15
ATOM     15  C   UNL     1     154.825 156.083 158.646  1.00  0.00    -0.000 C 
BRANCH  15  16
ATOM     16  C   UNL     1     156.100 156.864 159.016  1.00  0.00    -0.000 C 
BRANCH  16  17
ATOM     17  C   UNL     1     157.391 156.026 159.066  1.00  0.00    -0.000 C 
BRANCH  17  18
ATOM     18  C   UNL     1     158.413 156.561 160.080  1.00  0.00    -0.003 C 
ATOM     19  C   UNL     1     157.775 157.582 161.018  1.00  0.00     0.004 C 
ENDBRANCH  17  18
ENDBRANCH  16  17
ENDBRANCH  15  16
ENDBRANCH  14  15
ENDBRANCH  13  14
ENDBRANCH  12  13
ENDBRANCH   1  12
TORSDOF 14
ENDMDL
MODEL 4
REMARK VINA RESULT:    -3.225      3.055      5.168
REMARK INTER + INTRA:          -8.382
REMARK INTER:                  -6.204
REMARK INTRA:                  -2.178
REMARK UNBOUND:                -2.517
REMARK SMILES CCCCCCCCCCCCCC[C@@H](C)C(=O)[O-]
REMARK SMILES IDX 9 1 10 2 11 3 12 4 13 5 14 6 15 7 16 8 17 9 18 10 19 11 8 12
REMARK SMILES IDX 7 13 6 14 5 15 4 16 3 17 2 18 1 19
REMARK H PARENT
REMARK Flexibility Score: inf
ROOT
ATOM      1  C   UNL     1     151.983 152.688 159.958  1.00  0.00     0.000 C 
ENDROOT
BRANCH   1   2
ATOM      2  C   UNL     1     151.301 153.123 158.645  1.00  0.00     0.000 C 
BRANCH   2   3
ATOM      3  C   UNL     1     151.297 154.640 158.387  1.00  0.00     0.000 C 
BRANCH   3   4
ATOM      4  C   UNL     1     150.043 155.117 157.639  1.00  0.00     0.000 C 
BRANCH   4   5
ATOM      5  C   UNL     1     150.404 156.168 156.579  1.00  0.00     0.001 C 
BRANCH   5   6
ATOM      6  C   UNL     1     151.679 155.811 155.792  1.00  0.00     0.009 C 
BRANCH   6   7
ATOM      7  C   UNL     1     151.512 155.865 154.257  1.00  0.00     0.032 C 
ATOM      8  C   UNL     1     150.054 155.598 153.866  1.00  0.00     0.014 C 
BRANCH   7   9
ATOM      9  C   UNL     1     151.959 157.187 153.696  1.00  0.00     0.044 C 
ATOM     10  O   UNL     1     151.405 157.669 152.671  1.00  0.00    -0.550 OA
ATOM     11  O   UNL     1     152.987 157.890 154.313  1.00  0.00    -0.550 OA
ENDBRANCH   7   9
ENDBRANCH   6   7
ENDBRANCH   5   6
ENDBRANCH   4   5
ENDBRANCH   3   4
ENDBRANCH   2   3
ENDBRANCH   1   2
BRANCH   1  12
ATOM     12  C   UNL     1     153.133 151.675 159.790  1.00  0.00     0.000 C 
BRANCH  12  13
ATOM     13  C   UNL     1     153.168 150.946 158.431  1.00  0.00    -0.000 C 
BRANCH  13  14
ATOM     14  C   UNL     1     154.441 151.178 157.594  1.00  0.00    -0.000 C 
BRANCH  14  15
ATOM     15  C   UNL     1     155.065 152.563 157.827  1.00  0.00    -0.000 C 
BRANCH  15  16
ATOM     16  C   UNL     1     154.589 153.615 156.808  1.00  0.00    -0.000 C 
BRANCH  16  17
ATOM     17  C   UNL     1     154.966 155.070 157.142  1.00  0.00    -0.000 C 
BRANCH  17  18
ATOM     18  C   UNL     1     154.922 155.369 158.648  1.00  0.00    -0.003 C 
ATOM     19  C   UNL     1     154.297 156.735 158.918  1.00  0.00     0.004 C 
ENDBRANCH  17  18
ENDBRANCH  16  17
ENDBRANCH  15  16
ENDBRANCH  14  15
ENDBRANCH  13  14
ENDBRANCH  12  13
ENDBRANCH   1  12
TORSDOF 14
ENDMDL
MODEL 5
REMARK VINA RESULT:    -3.140      3.040      5.412
REMARK INTER + INTRA:          -8.227
REMARK INTER:                  -5.811
REMARK INTRA:                  -2.416
REMARK UNBOUND:                -2.517
REMARK SMILES CCCCCCCCCCCCCC[C@@H](C)C(=O)[O-]
REMARK SMILES IDX 9 1 10 2 11 3 12 4 13 5 14 6 15 7 16 8 17 9 18 10 19 11 8 12
REMARK SMILES IDX 7 13 6 14 5 15 4 16 3 17 2 18 1 19
REMARK H PARENT
REMARK Flexibility Score: inf
ROOT
ATOM      1  C   UNL     1     154.504 151.500 157.762  1.00  0.00     0.000 C 
ENDROOT
BRANCH   1   2
ATOM      2  C   UNL     1     153.552 151.412 158.971  1.00  0.00     0.000 C 
BRANCH   2   3
ATOM      3  C   UNL     1     152.133 151.953 158.721  1.00  0.00     0.000 C 
BRANCH   3   4
ATOM      4  C   UNL     1     151.761 153.113 159.656  1.00  0.00     0.000 C 
BRANCH   4   5
ATOM      5  C   UNL     1     151.304 154.340 158.853  1.00  0.00     0.001 C 
BRANCH   5   6
ATOM      6  C   UNL     1     151.439 154.143 157.332  1.00  0.00     0.009 C 
BRANCH   6   7
ATOM      7  C   UNL     1     150.116 154.310 156.551  1.00  0.00     0.032 C 
ATOM      8  C   UNL     1     149.220 153.082 156.745  1.00  0.00     0.014 C 
BRANCH   7   9
ATOM      9  C   UNL     1     149.379 155.553 156.967  1.00  0.00     0.044 C 
ATOM     10  O   UNL     1     149.840 156.694 156.696  1.00  0.00    -0.550 OA
ATOM     11  O   UNL     1     148.175 155.448 157.654  1.00  0.00    -0.550 OA
ENDBRANCH   7   9
ENDBRANCH   6   7
ENDBRANCH   5   6
ENDBRANCH   4   5
ENDBRANCH   3   4
ENDBRANCH   2   3
ENDBRANCH   1   2
BRANCH   1  12
ATOM     12  C   UNL     1     154.947 152.928 157.386  1.00  0.00     0.000 C 
BRANCH  12  13
ATOM     13  C   UNL     1     155.175 153.878 158.580  1.00  0.00    -0.000 C 
BRANCH  13  14
ATOM     14  C   UNL     1     155.542 155.327 158.205  1.00  0.00    -0.000 C 
BRANCH  14  15
ATOM     15  C   UNL     1     154.556 156.359 158.774  1.00  0.00    -0.000 C 
BRANCH  15  16
ATOM     16  C   UNL     1     153.647 156.980 157.696  1.00  0.00    -0.000 C 
BRANCH  16  17
ATOM     17  C   UNL     1     154.382 157.562 156.475  1.00  0.00    -0.000 C 
BRANCH  17  18
ATOM     18  C   UNL     1     153.772 157.114 155.138  1.00  0.00    -0.003 C 
ATOM     19  C   UNL     1     154.015 155.628 154.894  1.00  0.00     0.004 C 
ENDBRANCH  17  18
ENDBRANCH  16  17
ENDBRANCH  15  16
ENDBRANCH  14  15
ENDBRANCH  13  14
ENDBRANCH  12  13
ENDBRANCH   1  12
TORSDOF 14
ENDMDL
MODEL 6
REMARK VINA RESULT:    -3.129      2.968      3.652
REMARK INTER + INTRA:          -8.207
REMARK INTER:                  -5.877
REMARK INTRA:                  -2.331
REMARK UNBOUND:                -2.517
REMARK SMILES CCCCCCCCCCCCCC[C@@H](C)C(=O)[O-]
REMARK SMILES IDX 9 1 10 2 11 3 12 4 13 5 14 6 15 7 16 8 17 9 18 10 19 11 8 12
REMARK SMILES IDX 7 13 6 14 5 15 4 16 3 17 2 18 1 19
REMARK H PARENT
REMARK Flexibility Score: inf
ROOT
ATOM      1  C   UNL     1     153.437 151.289 158.166  1.00  0.00     0.000 C 
ENDROOT
BRANCH   1   2
ATOM      2  C   UNL     1     154.589 152.042 157.471  1.00  0.00     0.000 C 
BRANCH   2   3
ATOM      3  C   UNL     1     155.172 153.220 158.273  1.00  0.00     0.000 C 
BRANCH   3   4
ATOM      4  C   UNL     1     154.746 154.588 157.720  1.00  0.00     0.000 C 
BRANCH   4   5
ATOM      5  C   UNL     1     154.617 154.546 156.190  1.00  0.00     0.001 C 
BRANCH   5   6
ATOM      6  C   UNL     1     154.320 155.927 155.577  1.00  0.00     0.009 C 
BRANCH   6   7
ATOM      7  C   UNL     1     152.835 156.347 155.651  1.00  0.00     0.032 C 
ATOM      8  C   UNL     1     152.715 157.823 156.048  1.00  0.00     0.014 C 
BRANCH   7   9
ATOM      9  C   UNL     1     152.124 156.109 154.346  1.00  0.00     0.044 C 
ATOM     10  O   UNL     1     150.898 156.374 154.226  1.00  0.00    -0.550 OA
ATOM     11  O   UNL     1     152.823 155.596 153.261  1.00  0.00    -0.550 OA
ENDBRANCH   7   9
ENDBRANCH   6   7
ENDBRANCH   5   6
ENDBRANCH   4   5
ENDBRANCH   3   4
ENDBRANCH   2   3
ENDBRANCH   1   2
BRANCH   1  12
ATOM     12  C   UNL     1     153.117 151.767 159.597  1.00  0.00     0.000 C 
BRANCH  12  13
ATOM     13  C   UNL     1     151.888 152.691 159.718  1.00  0.00    -0.000 C 
BRANCH  13  14
ATOM     14  C   UNL     1     151.017 152.794 158.452  1.00  0.00    -0.000 C 
BRANCH  14  15
ATOM     15  C   UNL     1     151.082 154.181 157.793  1.00  0.00    -0.000 C 
BRANCH  15  16
ATOM     16  C   UNL     1     151.305 155.318 158.808  1.00  0.00    -0.000 C 
BRANCH  16  17
ATOM     17  C   UNL     1     150.116 156.280 158.986  1.00  0.00    -0.000 C 
BRANCH  17  18
ATOM     18  C   UNL     1     149.522 156.752 157.650  1.00  0.00    -0.003 C 
ATOM     19  C   UNL     1     148.114 156.200 157.449  1.00  0.00     0.004 C 
ENDBRANCH  17  18
ENDBRANCH  16  17
ENDBRANCH  15  16
ENDBRANCH  14  15
ENDBRANCH  13  14
ENDBRANCH  12  13
ENDBRANCH   1  12
TORSDOF 14
ENDMDL
MODEL 7
REMARK VINA RESULT:    -3.115      1.806      3.720
REMARK INTER + INTRA:          -8.181
REMARK INTER:                  -5.961
REMARK INTRA:                  -2.220
REMARK UNBOUND:                -2.517
REMARK SMILES CCCCCCCCCCCCCC[C@@H](C)C(=O)[O-]
REMARK SMILES IDX 9 1 10 2 11 3 12 4 13 5 14 6 15 7 16 8 17 9 18 10 19 11 8 12
REMARK SMILES IDX 7 13 6 14 5 15 4 16 3 17 2 18 1 19
REMARK H PARENT
REMARK Flexibility Score: inf
ROOT
ATOM      1  C   UNL     1     154.686 154.806 157.747  1.00  0.00     0.000 C 
ENDROOT
BRANCH   1   2
ATOM      2  C   UNL     1     154.335 154.784 156.246  1.00  0.00     0.000 C 
BRANCH   2   3
ATOM      3  C   UNL     1     155.141 155.765 155.375  1.00  0.00     0.000 C 
BRANCH   3   4
ATOM      4  C   UNL     1     155.591 157.016 156.143  1.00  0.00     0.000 C 
BRANCH   4   5
ATOM      5  C   UNL     1     157.020 157.418 155.749  1.00  0.00     0.001 C 
BRANCH   5   6
ATOM      6  C   UNL     1     157.992 157.419 156.944  1.00  0.00     0.009 C 
BRANCH   6   7
ATOM      7  C   UNL     1     157.311 157.212 158.316  1.00  0.00     0.032 C 
ATOM      8  C   UNL     1     157.973 156.057 159.074  1.00  0.00     0.014 C 
BRANCH   7   9
ATOM      9  C   UNL     1     157.352 158.463 159.151  1.00  0.00     0.044 C 
ATOM     10  O   UNL     1     158.105 159.422 158.833  1.00  0.00    -0.550 OA
ATOM     11  O   UNL     1     156.550 158.568 160.280  1.00  0.00    -0.550 OA
ENDBRANCH   7   9
ENDBRANCH   6   7
ENDBRANCH   5   6
ENDBRANCH   4   5
ENDBRANCH   3   4
ENDBRANCH   2   3
ENDBRANCH   1   2
BRANCH   1  12
ATOM     12  C   UNL     1     155.219 153.474 158.310  1.00  0.00     0.000 C 
BRANCH  12  13
ATOM     13  C   UNL     1     154.859 152.223 157.482  1.00  0.00    -0.000 C 
BRANCH  13  14
ATOM     14  C   UNL     1     153.569 151.500 157.915  1.00  0.00    -0.000 C 
BRANCH  14  15
ATOM     15  C   UNL     1     153.152 151.831 159.357  1.00  0.00    -0.000 C 
BRANCH  15  16
ATOM     16  C   UNL     1     151.842 152.636 159.433  1.00  0.00    -0.000 C 
BRANCH  16  17
ATOM     17  C   UNL     1     151.126 152.853 158.087  1.00  0.00    -0.000 C 
BRANCH  17  18
ATOM     18  C   UNL     1     150.902 154.337 157.759  1.00  0.00    -0.003 C 
ATOM     19  C   UNL     1     151.255 155.222 158.951  1.00  0.00     0.004 C 
ENDBRANCH  17  18
ENDBRANCH  16  17
ENDBRANCH  15  16
ENDBRANCH  14  15
ENDBRANCH  13  14
ENDBRANCH  12  13
ENDBRANCH   1  12
TORSDOF 14
ENDMDL
MODEL 8
REMARK VINA RESULT:    -3.110      2.420      5.417
REMARK INTER + INTRA:          -8.172
REMARK INTER:                  -5.849
REMARK INTRA:                  -2.323
REMARK UNBOUND:                -2.517
REMARK SMILES CCCCCCCCCCCCCC[C@@H](C)C(=O)[O-]
REMARK SMILES IDX 9 1 10 2 11 3 12 4 13 5 14 6 15 7 16 8 17 9 18 10 19 11 8 12
REMARK SMILES IDX 7 13 6 14 5 15 4 16 3 17 2 18 1 19
REMARK H PARENT
REMARK Flexibility Score: inf
ROOT
ATOM      1  C   UNL     1     152.102 157.670 156.999  1.00  0.00     0.000 C 
ENDROOT
BRANCH   1   2
ATOM      2  C   UNL     1     151.004 157.373 158.039  1.00  0.00     0.000 C 
BRANCH   2   3
ATOM      3  C   UNL     1     151.223 156.094 158.867  1.00  0.00     0.000 C 
BRANCH   3   4
ATOM      4  C   UNL     1     150.491 154.873 158.289  1.00  0.00     0.000 C 
BRANCH   4   5
ATOM      5  C   UNL     1     151.415 153.647 158.253  1.00  0.00     0.001 C 
BRANCH   5   6
ATOM      6  C   UNL     1     152.878 153.989 158.591  1.00  0.00     0.009 C 
BRANCH   6   7
ATOM      7  C   UNL     1     153.693 152.804 159.155  1.00  0.00     0.032 C 
ATOM      8  C   UNL     1     152.822 151.946 160.079  1.00  0.00     0.014 C 
BRANCH   7   9
ATOM      9  C   UNL     1     154.267 151.952 158.056  1.00  0.00     0.044 C 
ATOM     10  O   UNL     1     155.434 152.158 157.627  1.00  0.00    -0.550 OA
ATOM     11  O   UNL     1     153.509 150.924 157.508  1.00  0.00    -0.550 OA
ENDBRANCH   7   9
ENDBRANCH   6   7
ENDBRANCH   5   6
ENDBRANCH   4   5
ENDBRANCH   3   4
ENDBRANCH   2   3
ENDBRANCH   1   2
BRANCH   1  12
ATOM     12  C   UNL     1     151.759 157.253 155.554  1.00  0.00     0.000 C 
BRANCH  12  13
ATOM     13  C   UNL     1     152.226 155.839 155.154  1.00  0.00    -0.000 C 
BRANCH  13  14
ATOM     14  C   UNL     1     153.678 155.747 154.645  1.00  0.00    -0.000 C 
BRANCH  14  15
ATOM     15  C   UNL     1     154.656 155.239 155.716  1.00  0.00    -0.000 C 
BRANCH  15  16
ATOM     16  C   UNL     1     155.535 156.357 156.306  1.00  0.00    -0.000 C 
BRANCH  16  17
ATOM     17  C   UNL     1     155.461 156.512 157.835  1.00  0.00    -0.000 C 
BRANCH  17  18
ATOM     18  C   UNL     1     156.283 155.454 158.586  1.00  0.00    -0.003 C 
ATOM     19  C   UNL     1     157.586 156.044 159.115  1.00  0.00     0.004 C 
ENDBRANCH  17  18
ENDBRANCH  16  17
ENDBRANCH  15  16
ENDBRANCH  14  15
ENDBRANCH  13  14
ENDBRANCH  12  13
ENDBRANCH   1  12
TORSDOF 14
ENDMDL
MODEL 9
REMARK VINA RESULT:    -1.561      2.386      3.233
REMARK INTER + INTRA:          -5.356
REMARK INTER:                  -3.546
REMARK INTRA:                  -1.810
REMARK UNBOUND:                -2.517
REMARK SMILES CCCCCCCCCCCCCC[C@@H](C)C(=O)[O-]
REMARK SMILES IDX 9 1 10 2 11 3 12 4 13 5 14 6 15 7 16 8 17 9 18 10 19 11 8 12
REMARK SMILES IDX 7 13 6 14 5 15 4 16 3 17 2 18 1 19
REMARK H PARENT
REMARK Flexibility Score: inf
ROOT
ATOM      1  C   UNL     1     152.989 152.068 159.872  1.00  0.00     0.000 C 
ENDROOT
BRANCH   1   2
ATOM      2  C   UNL     1     153.135 150.875 158.907  1.00  0.00     0.000 C 
BRANCH   2   3
ATOM      3  C   UNL     1     153.743 151.219 157.536  1.00  0.00     0.000 C 
BRANCH   3   4
ATOM      4  C   UNL     1     155.235 151.576 157.615  1.00  0.00     0.000 C 
BRANCH   4   5
ATOM      5  C   UNL     1     155.432 153.096 157.704  1.00  0.00     0.001 C 
BRANCH   5   6
ATOM      6  C   UNL     1     154.513 153.876 156.745  1.00  0.00     0.009 C 
BRANCH   6   7
ATOM      7  C   UNL     1     154.177 155.309 157.214  1.00  0.00     0.032 C 
ATOM      8  C   UNL     1     154.699 155.545 158.635  1.00  0.00     0.014 C 
BRANCH   7   9
ATOM      9  C   UNL     1     154.743 156.345 156.282  1.00  0.00     0.044 C 
ATOM     10  O   UNL     1     155.646 156.041 155.457  1.00  0.00    -0.550 OA
ATOM     11  O   UNL     1     154.267 157.650 156.324  1.00  0.00    -0.550 OA
ENDBRANCH   7   9
ENDBRANCH   6   7
ENDBRANCH   5   6
ENDBRANCH   4   5
ENDBRANCH   3   4
ENDBRANCH   2   3
ENDBRANCH   1   2
BRANCH   1  12
ATOM     12  C   UNL     1     152.019 153.171 159.401  1.00  0.00     0.000 C 
BRANCH  12  13
ATOM     13  C   UNL     1     151.049 152.752 158.278  1.00  0.00    -0.000 C 
BRANCH  13  14
ATOM     14  C   UNL     1     150.605 153.888 157.337  1.00  0.00    -0.000 C 
BRANCH  14  15
ATOM     15  C   UNL     1     149.414 153.496 156.448  1.00  0.00    -0.000 C 
BRANCH  15  16
ATOM     16  C   UNL     1     148.859 154.678 155.632  1.00  0.00    -0.000 C 
BRANCH  16  17
ATOM     17  C   UNL     1     149.788 155.903 155.537  1.00  0.00    -0.000 C 
BRANCH  17  18
ATOM     18  C   UNL     1     150.342 156.127 154.122  1.00  0.00    -0.003 C 
ATOM     19  C   UNL     1     151.816 155.741 154.042  1.00  0.00     0.004 C 
ENDBRANCH  17  18
ENDBRANCH  16  17
ENDBRANCH  15  16
ENDBRANCH  14  15
ENDBRANCH  13  14
ENDBRANCH  12  13
ENDBRANCH   1  12
TORSDOF 14
ENDMDL
