MODEL 1
REMARK VINA RESULT:    -6.238      0.000      0.000
REMARK INTER + INTRA:          -7.889
REMARK INTER:                  -7.514
REMARK INTRA:                  -0.375
REMARK UNBOUND:                -0.375
REMARK SMILES Oc1cc(O)c2c(c1)O[C@H](c1ccc(O)c(O)c1)[C@@H](O)C2
REMARK SMILES IDX 21 1 19 2 10 3 9 4 7 5 8 6 2 7 3 8 4 9 6 10 20 11 11 13
REMARK SMILES IDX 18 14 12 15 16 16 13 17 14 18 17 19 15 21 5 23 1 25
REMARK H PARENT 20 12 17 20 15 22 5 24 1 26
REMARK Flexibility Score: inf
ROOT
ATOM      1  C   UNL     1      -9.125 -16.258  22.083  1.00  0.00     0.079 C 
ATOM      2  C   UNL     1     -10.234 -17.323  22.171  1.00  0.00     0.164 C 
ATOM      3  C   UNL     1     -11.038 -17.351  20.860  1.00  0.00     0.232 C 
ATOM      4  O   UNL     1     -11.569 -16.054  20.591  1.00  0.00    -0.482 OA
ATOM      5  C   UNL     1     -10.847 -14.883  20.844  1.00  0.00     0.131 A 
ATOM      6  C   UNL     1     -11.349 -13.664  20.383  1.00  0.00     0.093 A 
ATOM      7  C   UNL     1     -10.640 -12.479  20.609  1.00  0.00     0.122 A 
ATOM      8  C   UNL     1      -9.421 -12.519  21.289  1.00  0.00     0.092 A 
ATOM      9  C   UNL     1      -8.902 -13.732  21.757  1.00  0.00     0.126 A 
ATOM     10  C   UNL     1      -9.637 -14.927  21.570  1.00  0.00     0.039 A 
ENDROOT
BRANCH   2  11
ATOM     11  O   UNL     1      -9.663 -18.585  22.403  1.00  0.00    -0.389 OA
ATOM     12  H   UNL     1     -10.393 -19.251  22.298  1.00  0.00     0.211 HD
ENDBRANCH   2  11
BRANCH   3  13
ATOM     13  C   UNL     1     -12.164 -18.356  20.931  1.00  0.00    -0.001 A 
ATOM     14  C   UNL     1     -13.180 -18.214  21.890  1.00  0.00     0.057 A 
ATOM     15  C   UNL     1     -12.235 -19.414  20.010  1.00  0.00     0.012 A 
ATOM     16  C   UNL     1     -14.241 -19.125  21.945  1.00  0.00     0.157 A 
ATOM     17  C   UNL     1     -13.293 -20.326  20.061  1.00  0.00     0.050 A 
ATOM     18  C   UNL     1     -14.298 -20.188  21.027  1.00  0.00     0.157 A 
BRANCH  16  19
ATOM     19  O   UNL     1     -15.229 -18.956  22.915  1.00  0.00    -0.504 OA
ATOM     20  H   UNL     1     -15.016 -18.630  23.850  1.00  0.00     0.293 HD
ENDBRANCH  16  19
BRANCH  18  21
ATOM     21  O   UNL     1     -15.352 -21.099  21.077  1.00  0.00    -0.504 OA
ATOM     22  H   UNL     1     -16.193 -20.908  21.611  1.00  0.00     0.293 HD
ENDBRANCH  18  21
ENDBRANCH   3  13
BRANCH   9  23
ATOM     23  O   UNL     1      -7.658 -13.713  22.390  1.00  0.00    -0.507 OA
ATOM     24  H   UNL     1      -7.153 -12.860  22.596  1.00  0.00     0.293 HD
ENDBRANCH   9  23
BRANCH   7  25
ATOM     25  O   UNL     1     -11.135 -11.258  20.154  1.00  0.00    -0.508 OA
ATOM     26  H   UNL     1     -11.087 -10.423  20.724  1.00  0.00     0.293 HD
ENDBRANCH   7  25
TORSDOF 6
ENDMDL
MODEL 2
REMARK VINA RESULT:    -6.229      5.083      7.868
REMARK INTER + INTRA:          -7.879
REMARK INTER:                  -7.551
REMARK INTRA:                  -0.328
REMARK UNBOUND:                -0.375
REMARK SMILES Oc1cc(O)c2c(c1)O[C@H](c1ccc(O)c(O)c1)[C@@H](O)C2
REMARK SMILES IDX 21 1 19 2 10 3 9 4 7 5 8 6 2 7 3 8 4 9 6 10 20 11 11 13
REMARK SMILES IDX 18 14 12 15 16 16 13 17 14 18 17 19 15 21 5 23 1 25
REMARK H PARENT 20 12 17 20 15 22 5 24 1 26
REMARK Flexibility Score: inf
ROOT
ATOM      1  C   UNL     1      -7.004 -12.890  22.327  1.00  0.00     0.079 C 
ATOM      2  C   UNL     1      -5.915 -13.855  21.821  1.00  0.00     0.164 C 
ATOM      3  C   UNL     1      -5.767 -13.723  20.296  1.00  0.00     0.232 C 
ATOM      4  O   UNL     1      -7.024 -13.964  19.665  1.00  0.00    -0.482 OA
ATOM      5  C   UNL     1      -8.231 -13.512  20.206  1.00  0.00     0.131 A 
ATOM      6  C   UNL     1      -9.398 -13.617  19.445  1.00  0.00     0.093 A 
ATOM      7  C   UNL     1     -10.617 -13.158  19.955  1.00  0.00     0.122 A 
ATOM      8  C   UNL     1     -10.664 -12.583  21.227  1.00  0.00     0.092 A 
ATOM      9  C   UNL     1      -9.505 -12.468  22.004  1.00  0.00     0.126 A 
ATOM     10  C   UNL     1      -8.277 -12.971  21.510  1.00  0.00     0.039 A 
ENDROOT
BRANCH   2  11
ATOM     11  O   UNL     1      -4.691 -13.559  22.444  1.00  0.00    -0.389 OA
ATOM     12  H   UNL     1      -4.535 -14.272  23.118  1.00  0.00     0.211 HD
ENDBRANCH   2  11
BRANCH   3  13
ATOM     13  C   UNL     1      -4.736 -14.690  19.762  1.00  0.00    -0.001 A 
ATOM     14  C   UNL     1      -3.470 -14.228  19.366  1.00  0.00     0.057 A 
ATOM     15  C   UNL     1      -5.013 -16.066  19.700  1.00  0.00     0.012 A 
ATOM     16  C   UNL     1      -2.501 -15.121  18.895  1.00  0.00     0.157 A 
ATOM     17  C   UNL     1      -4.048 -16.961  19.231  1.00  0.00     0.050 A 
ATOM     18  C   UNL     1      -2.790 -16.495  18.826  1.00  0.00     0.157 A 
BRANCH  16  19
ATOM     19  O   UNL     1      -1.256 -14.627  18.505  1.00  0.00    -0.504 OA
ATOM     20  H   UNL     1      -0.722 -15.046  17.753  1.00  0.00     0.293 HD
ENDBRANCH  16  19
BRANCH  18  21
ATOM     21  O   UNL     1      -1.829 -17.389  18.357  1.00  0.00    -0.504 OA
ATOM     22  H   UNL     1      -1.317 -17.216  17.500  1.00  0.00     0.293 HD
ENDBRANCH  18  21
ENDBRANCH   3  13
BRANCH   9  23
ATOM     23  O   UNL     1      -9.608 -11.843  23.248  1.00  0.00    -0.507 OA
ATOM     24  H   UNL     1     -10.397 -11.270  23.518  1.00  0.00     0.293 HD
ENDBRANCH   9  23
BRANCH   7  25
ATOM     25  O   UNL     1     -11.785 -13.261  19.203  1.00  0.00    -0.508 OA
ATOM     26  H   UNL     1     -12.200 -14.160  18.991  1.00  0.00     0.293 HD
ENDBRANCH   7  25
TORSDOF 6
ENDMDL
MODEL 3
REMARK VINA RESULT:    -6.130      1.986      7.126
REMARK INTER + INTRA:          -7.759
REMARK INTER:                  -7.503
REMARK INTRA:                  -0.256
REMARK UNBOUND:                -0.375
REMARK SMILES Oc1cc(O)c2c(c1)O[C@H](c1ccc(O)c(O)c1)[C@@H](O)C2
REMARK SMILES IDX 21 1 19 2 10 3 9 4 7 5 8 6 2 7 3 8 4 9 6 10 20 11 11 13
REMARK SMILES IDX 18 14 12 15 16 16 13 17 14 18 17 19 15 21 5 23 1 25
REMARK H PARENT 20 12 17 20 15 22 5 24 1 26
REMARK Flexibility Score: inf
ROOT
ATOM      1  C   UNL     1     -13.271 -15.082  19.201  1.00  0.00     0.079 C 
ATOM      2  C   UNL     1     -12.198 -14.190  19.855  1.00  0.00     0.164 C 
ATOM      3  C   UNL     1     -10.985 -15.044  20.261  1.00  0.00     0.232 C 
ATOM      4  O   UNL     1     -11.403 -16.096  21.131  1.00  0.00    -0.482 OA
ATOM      5  C   UNL     1     -12.605 -16.785  20.946  1.00  0.00     0.131 A 
ATOM      6  C   UNL     1     -12.860 -17.922  21.717  1.00  0.00     0.093 A 
ATOM      7  C   UNL     1     -14.048 -18.641  21.542  1.00  0.00     0.122 A 
ATOM      8  C   UNL     1     -14.976 -18.224  20.585  1.00  0.00     0.092 A 
ATOM      9  C   UNL     1     -14.737 -17.087  19.804  1.00  0.00     0.126 A 
ATOM     10  C   UNL     1     -13.558 -16.332  20.007  1.00  0.00     0.039 A 
ENDROOT
BRANCH   2  11
ATOM     11  O   UNL     1     -11.794 -13.193  18.953  1.00  0.00    -0.389 OA
ATOM     12  H   UNL     1     -10.887 -12.903  19.236  1.00  0.00     0.211 HD
ENDBRANCH   2  11
BRANCH   3  13
ATOM     13  C   UNL     1      -9.932 -14.206  20.947  1.00  0.00    -0.001 A 
ATOM     14  C   UNL     1     -10.306 -13.207  21.860  1.00  0.00     0.057 A 
ATOM     15  C   UNL     1      -8.566 -14.447  20.718  1.00  0.00     0.012 A 
ATOM     16  C   UNL     1      -9.337 -12.445  22.521  1.00  0.00     0.157 A 
ATOM     17  C   UNL     1      -7.595 -13.688  21.375  1.00  0.00     0.050 A 
ATOM     18  C   UNL     1      -7.973 -12.684  22.277  1.00  0.00     0.157 A 
BRANCH  16  19
ATOM     19  O   UNL     1      -9.745 -11.457  23.418  1.00  0.00    -0.504 OA
ATOM     20  H   UNL     1      -9.893 -10.497  23.130  1.00  0.00     0.293 HD
ENDBRANCH  16  19
BRANCH  18  21
ATOM     21  O   UNL     1      -7.002 -11.927  22.931  1.00  0.00    -0.504 OA
ATOM     22  H   UNL     1      -7.226 -11.038  23.364  1.00  0.00     0.293 HD
ENDBRANCH  18  21
ENDBRANCH   3  13
BRANCH   9  23
ATOM     23  O   UNL     1     -15.682 -16.747  18.834  1.00  0.00    -0.507 OA
ATOM     24  H   UNL     1     -16.212 -17.432  18.310  1.00  0.00     0.293 HD
ENDBRANCH   9  23
BRANCH   7  25
ATOM     25  O   UNL     1     -14.311 -19.775  22.307  1.00  0.00    -0.508 OA
ATOM     26  H   UNL     1     -14.477 -19.713  23.305  1.00  0.00     0.293 HD
ENDBRANCH   7  25
TORSDOF 6
ENDMDL
MODEL 4
REMARK VINA RESULT:    -5.999      3.060      3.828
REMARK INTER + INTRA:          -7.601
REMARK INTER:                  -7.228
REMARK INTRA:                  -0.373
REMARK UNBOUND:                -0.375
REMARK SMILES Oc1cc(O)c2c(c1)O[C@H](c1ccc(O)c(O)c1)[C@@H](O)C2
REMARK SMILES IDX 21 1 19 2 10 3 9 4 7 5 8 6 2 7 3 8 4 9 6 10 20 11 11 13
REMARK SMILES IDX 18 14 12 15 16 16 13 17 14 18 17 19 15 21 5 23 1 25
REMARK H PARENT 20 12 17 20 15 22 5 24 1 26
REMARK Flexibility Score: inf
ROOT
ATOM      1  C   UNL     1      -9.606 -15.758  22.913  1.00  0.00     0.079 C 
ATOM      2  C   UNL     1      -9.442 -17.244  22.538  1.00  0.00     0.164 C 
ATOM      3  C   UNL     1      -8.609 -17.369  21.251  1.00  0.00     0.232 C 
ATOM      4  O   UNL     1      -9.225 -16.622  20.202  1.00  0.00    -0.482 OA
ATOM      5  C   UNL     1      -9.830 -15.381  20.423  1.00  0.00     0.131 A 
ATOM      6  C   UNL     1     -10.243 -14.622  19.326  1.00  0.00     0.093 A 
ATOM      7  C   UNL     1     -10.836 -13.370  19.517  1.00  0.00     0.122 A 
ATOM      8  C   UNL     1     -11.007 -12.874  20.812  1.00  0.00     0.092 A 
ATOM      9  C   UNL     1     -10.599 -13.621  21.924  1.00  0.00     0.126 A 
ATOM     10  C   UNL     1     -10.038 -14.907  21.737  1.00  0.00     0.039 A 
ENDROOT
BRANCH   2  11
ATOM     11  O   UNL     1      -8.804 -17.930  23.584  1.00  0.00    -0.389 OA
ATOM     12  H   UNL     1      -9.224 -18.829  23.633  1.00  0.00     0.211 HD
ENDBRANCH   2  11
BRANCH   3  13
ATOM     13  C   UNL     1      -8.469 -18.813  20.830  1.00  0.00    -0.001 A 
ATOM     14  C   UNL     1      -9.591 -19.537  20.395  1.00  0.00     0.057 A 
ATOM     15  C   UNL     1      -7.208 -19.435  20.822  1.00  0.00     0.012 A 
ATOM     16  C   UNL     1      -9.465 -20.867  19.978  1.00  0.00     0.157 A 
ATOM     17  C   UNL     1      -7.077 -20.763  20.407  1.00  0.00     0.050 A 
ATOM     18  C   UNL     1      -8.202 -21.485  19.985  1.00  0.00     0.157 A 
BRANCH  16  19
ATOM     19  O   UNL     1     -10.602 -21.556  19.558  1.00  0.00    -0.504 OA
ATOM     20  H   UNL     1     -11.198 -22.056  20.207  1.00  0.00     0.293 HD
ENDBRANCH  16  19
BRANCH  18  21
ATOM     21  O   UNL     1      -8.070 -22.809  19.571  1.00  0.00    -0.504 OA
ATOM     22  H   UNL     1      -7.272 -23.373  19.843  1.00  0.00     0.293 HD
ENDBRANCH  18  21
ENDBRANCH   3  13
BRANCH   9  23
ATOM     23  O   UNL     1     -10.755 -13.052  23.189  1.00  0.00    -0.507 OA
ATOM     24  H   UNL     1     -10.327 -12.176  23.461  1.00  0.00     0.293 HD
ENDBRANCH   9  23
BRANCH   7  25
ATOM     25  O   UNL     1     -11.253 -12.607  18.428  1.00  0.00    -0.508 OA
ATOM     26  H   UNL     1     -10.926 -11.658  18.291  1.00  0.00     0.293 HD
ENDBRANCH   7  25
TORSDOF 6
ENDMDL
MODEL 5
REMARK VINA RESULT:    -5.985      5.149      8.148
REMARK INTER + INTRA:          -7.584
REMARK INTER:                  -7.478
REMARK INTRA:                  -0.106
REMARK UNBOUND:                -0.375
REMARK SMILES Oc1cc(O)c2c(c1)O[C@H](c1ccc(O)c(O)c1)[C@@H](O)C2
REMARK SMILES IDX 21 1 19 2 10 3 9 4 7 5 8 6 2 7 3 8 4 9 6 10 20 11 11 13
REMARK SMILES IDX 18 14 12 15 16 16 13 17 14 18 17 19 15 21 5 23 1 25
REMARK H PARENT 20 12 17 20 15 22 5 24 1 26
REMARK Flexibility Score: inf
ROOT
ATOM      1  C   UNL     1      -8.377 -13.011  17.747  1.00  0.00     0.079 C 
ATOM      2  C   UNL     1      -6.892 -13.418  17.790  1.00  0.00     0.164 C 
ATOM      3  C   UNL     1      -6.721 -14.683  18.649  1.00  0.00     0.232 C 
ATOM      4  O   UNL     1      -7.246 -14.454  19.956  1.00  0.00    -0.482 OA
ATOM      5  C   UNL     1      -8.414 -13.717  20.174  1.00  0.00     0.131 A 
ATOM      6  C   UNL     1      -8.972 -13.693  21.455  1.00  0.00     0.093 A 
ATOM      7  C   UNL     1     -10.149 -12.976  21.698  1.00  0.00     0.122 A 
ATOM      8  C   UNL     1     -10.772 -12.291  20.652  1.00  0.00     0.092 A 
ATOM      9  C   UNL     1     -10.228 -12.305  19.363  1.00  0.00     0.126 A 
ATOM     10  C   UNL     1      -9.014 -12.992  19.121  1.00  0.00     0.039 A 
ENDROOT
BRANCH   2  11
ATOM     11  O   UNL     1      -6.429 -13.665  16.487  1.00  0.00    -0.389 OA
ATOM     12  H   UNL     1      -6.079 -12.802  16.142  1.00  0.00     0.211 HD
ENDBRANCH   2  11
BRANCH   3  13
ATOM     13  C   UNL     1      -5.268 -15.083  18.749  1.00  0.00    -0.001 A 
ATOM     14  C   UNL     1      -4.257 -14.117  18.621  1.00  0.00     0.057 A 
ATOM     15  C   UNL     1      -4.911 -16.415  19.018  1.00  0.00     0.012 A 
ATOM     16  C   UNL     1      -2.909 -14.474  18.739  1.00  0.00     0.157 A 
ATOM     17  C   UNL     1      -3.567 -16.777  19.138  1.00  0.00     0.050 A 
ATOM     18  C   UNL     1      -2.560 -15.812  18.998  1.00  0.00     0.157 A 
BRANCH  16  19
ATOM     19  O   UNL     1      -1.932 -13.489  18.601  1.00  0.00    -0.504 OA
ATOM     20  H   UNL     1      -0.945 -13.714  18.543  1.00  0.00     0.293 HD
ENDBRANCH  16  19
BRANCH  18  21
ATOM     21  O   UNL     1      -1.220 -16.174  19.115  1.00  0.00    -0.504 OA
ATOM     22  H   UNL     1      -0.495 -15.706  18.583  1.00  0.00     0.293 HD
ENDBRANCH  18  21
ENDBRANCH   3  13
BRANCH   9  23
ATOM     23  O   UNL     1     -10.921 -11.638  18.351  1.00  0.00    -0.507 OA
ATOM     24  H   UNL     1     -10.574 -10.803  17.897  1.00  0.00     0.293 HD
ENDBRANCH   9  23
BRANCH   7  25
ATOM     25  O   UNL     1     -10.712 -12.946  22.972  1.00  0.00    -0.508 OA
ATOM     26  H   UNL     1     -11.596 -13.396  23.171  1.00  0.00     0.293 HD
ENDBRANCH   7  25
TORSDOF 6
ENDMDL
MODEL 6
REMARK VINA RESULT:    -5.975      2.141      6.657
REMARK INTER + INTRA:          -7.572
REMARK INTER:                  -7.214
REMARK INTRA:                  -0.358
REMARK UNBOUND:                -0.375
REMARK SMILES Oc1cc(O)c2c(c1)O[C@H](c1ccc(O)c(O)c1)[C@@H](O)C2
REMARK SMILES IDX 21 1 19 2 10 3 9 4 7 5 8 6 2 7 3 8 4 9 6 10 20 11 11 13
REMARK SMILES IDX 18 14 12 15 16 16 13 17 14 18 17 19 15 21 5 23 1 25
REMARK H PARENT 20 12 17 20 15 22 5 24 1 26
REMARK Flexibility Score: inf
ROOT
ATOM      1  C   UNL     1     -11.036 -17.859  22.650  1.00  0.00     0.079 C 
ATOM      2  C   UNL     1      -9.646 -17.317  22.267  1.00  0.00     0.164 C 
ATOM      3  C   UNL     1      -9.742 -15.819  21.932  1.00  0.00     0.232 C 
ATOM      4  O   UNL     1     -10.696 -15.617  20.889  1.00  0.00    -0.482 OA
ATOM      5  C   UNL     1     -11.890 -16.340  20.818  1.00  0.00     0.131 A 
ATOM      6  C   UNL     1     -12.858 -15.961  19.885  1.00  0.00     0.093 A 
ATOM      7  C   UNL     1     -14.069 -16.657  19.802  1.00  0.00     0.122 A 
ATOM      8  C   UNL     1     -14.313 -17.729  20.664  1.00  0.00     0.092 A 
ATOM      9  C   UNL     1     -13.354 -18.123  21.605  1.00  0.00     0.126 A 
ATOM     10  C   UNL     1     -12.110 -17.450  21.663  1.00  0.00     0.039 A 
ENDROOT
BRANCH   2  11
ATOM     11  O   UNL     1      -8.751 -17.507  23.333  1.00  0.00    -0.389 OA
ATOM     12  H   UNL     1      -8.053 -18.136  23.010  1.00  0.00     0.211 HD
ENDBRANCH   2  11
BRANCH   3  13
ATOM     13  C   UNL     1      -8.402 -15.267  21.508  1.00  0.00    -0.001 A 
ATOM     14  C   UNL     1      -7.822 -14.197  22.211  1.00  0.00     0.057 A 
ATOM     15  C   UNL     1      -7.697 -15.845  20.439  1.00  0.00     0.012 A 
ATOM     16  C   UNL     1      -6.568 -13.697  21.842  1.00  0.00     0.157 A 
ATOM     17  C   UNL     1      -6.444 -15.349  20.067  1.00  0.00     0.050 A 
ATOM     18  C   UNL     1      -5.875 -14.275  20.763  1.00  0.00     0.157 A 
BRANCH  16  19
ATOM     19  O   UNL     1      -6.026 -12.631  22.559  1.00  0.00    -0.504 OA
ATOM     20  H   UNL     1      -5.668 -12.742  23.501  1.00  0.00     0.293 HD
ENDBRANCH  16  19
BRANCH  18  21
ATOM     21  O   UNL     1      -4.626 -13.780  20.390  1.00  0.00    -0.504 OA
ATOM     22  H   UNL     1      -3.804 -13.929  20.964  1.00  0.00     0.293 HD
ENDBRANCH  18  21
ENDBRANCH   3  13
BRANCH   9  23
ATOM     23  O   UNL     1     -13.675 -19.173  22.468  1.00  0.00    -0.507 OA
ATOM     24  H   UNL     1     -14.398 -19.852  22.271  1.00  0.00     0.293 HD
ENDBRANCH   9  23
BRANCH   7  25
ATOM     25  O   UNL     1     -15.039 -16.287  18.873  1.00  0.00    -0.508 OA
ATOM     26  H   UNL     1     -14.820 -16.192  17.889  1.00  0.00     0.293 HD
ENDBRANCH   7  25
TORSDOF 6
ENDMDL
MODEL 7
REMARK VINA RESULT:    -5.973      4.377      7.780
REMARK INTER + INTRA:          -7.570
REMARK INTER:                  -7.226
REMARK INTRA:                  -0.345
REMARK UNBOUND:                -0.375
REMARK SMILES Oc1cc(O)c2c(c1)O[C@H](c1ccc(O)c(O)c1)[C@@H](O)C2
REMARK SMILES IDX 21 1 19 2 10 3 9 4 7 5 8 6 2 7 3 8 4 9 6 10 20 11 11 13
REMARK SMILES IDX 18 14 12 15 16 16 13 17 14 18 17 19 15 21 5 23 1 25
REMARK H PARENT 20 12 17 20 15 22 5 24 1 26
REMARK Flexibility Score: inf
ROOT
ATOM      1  C   UNL     1      -9.173 -15.102  19.689  1.00  0.00     0.079 C 
ATOM      2  C   UNL     1      -7.771 -15.122  19.051  1.00  0.00     0.164 C 
ATOM      3  C   UNL     1      -6.696 -15.141  20.151  1.00  0.00     0.232 C 
ATOM      4  O   UNL     1      -6.869 -14.019  21.016  1.00  0.00    -0.482 OA
ATOM      5  C   UNL     1      -8.132 -13.558  21.399  1.00  0.00     0.131 A 
ATOM      6  C   UNL     1      -8.226 -12.580  22.392  1.00  0.00     0.093 A 
ATOM      7  C   UNL     1      -9.477 -12.112  22.806  1.00  0.00     0.122 A 
ATOM      8  C   UNL     1     -10.638 -12.634  22.230  1.00  0.00     0.092 A 
ATOM      9  C   UNL     1     -10.564 -13.615  21.235  1.00  0.00     0.126 A 
ATOM     10  C   UNL     1      -9.299 -14.060  20.781  1.00  0.00     0.039 A 
ENDROOT
BRANCH   2  11
ATOM     11  O   UNL     1      -7.635 -16.259  18.237  1.00  0.00    -0.389 OA
ATOM     12  H   UNL     1      -8.554 -16.539  17.985  1.00  0.00     0.211 HD
ENDBRANCH   2  11
BRANCH   3  13
ATOM     13  C   UNL     1      -5.307 -15.116  19.558  1.00  0.00    -0.001 A 
ATOM     14  C   UNL     1      -4.494 -16.260  19.609  1.00  0.00     0.057 A 
ATOM     15  C   UNL     1      -4.830 -13.966  18.907  1.00  0.00     0.012 A 
ATOM     16  C   UNL     1      -3.217 -16.254  19.038  1.00  0.00     0.157 A 
ATOM     17  C   UNL     1      -3.555 -13.955  18.336  1.00  0.00     0.050 A 
ATOM     18  C   UNL     1      -2.742 -15.095  18.399  1.00  0.00     0.157 A 
BRANCH  16  19
ATOM     19  O   UNL     1      -2.435 -17.406  19.112  1.00  0.00    -0.504 OA
ATOM     20  H   UNL     1      -1.598 -17.526  18.553  1.00  0.00     0.293 HD
ENDBRANCH  16  19
BRANCH  18  21
ATOM     21  O   UNL     1      -1.470 -15.082  17.829  1.00  0.00    -0.504 OA
ATOM     22  H   UNL     1      -0.761 -15.754  18.100  1.00  0.00     0.293 HD
ENDBRANCH  18  21
ENDBRANCH   3  13
BRANCH   9  23
ATOM     23  O   UNL     1     -11.760 -14.129  20.730  1.00  0.00    -0.507 OA
ATOM     24  H   UNL     1     -12.649 -14.031  21.203  1.00  0.00     0.293 HD
ENDBRANCH   9  23
BRANCH   7  25
ATOM     25  O   UNL     1      -9.579 -11.135  23.794  1.00  0.00    -0.508 OA
ATOM     26  H   UNL     1      -9.741 -10.163  23.562  1.00  0.00     0.293 HD
ENDBRANCH   7  25
TORSDOF 6
ENDMDL
MODEL 8
REMARK VINA RESULT:    -5.948      3.435      4.841
REMARK INTER + INTRA:          -7.540
REMARK INTER:                  -7.173
REMARK INTRA:                  -0.367
REMARK UNBOUND:                -0.375
REMARK SMILES Oc1cc(O)c2c(c1)O[C@H](c1ccc(O)c(O)c1)[C@@H](O)C2
REMARK SMILES IDX 21 1 19 2 10 3 9 4 7 5 8 6 2 7 3 8 4 9 6 10 20 11 11 13
REMARK SMILES IDX 18 14 12 15 16 16 13 17 14 18 17 19 15 21 5 23 1 25
REMARK H PARENT 20 12 17 20 15 22 5 24 1 26
REMARK Flexibility Score: inf
ROOT
ATOM      1  C   UNL     1     -10.694 -12.935  21.343  1.00  0.00     0.079 C 
ATOM      2  C   UNL     1     -11.178 -13.502  19.994  1.00  0.00     0.164 C 
ATOM      3  C   UNL     1     -10.601 -14.911  19.782  1.00  0.00     0.232 C 
ATOM      4  O   UNL     1      -9.176 -14.866  19.856  1.00  0.00    -0.482 OA
ATOM      5  C   UNL     1      -8.501 -14.058  20.776  1.00  0.00     0.131 A 
ATOM      6  C   UNL     1      -7.119 -14.205  20.922  1.00  0.00     0.093 A 
ATOM      7  C   UNL     1      -6.420 -13.421  21.847  1.00  0.00     0.122 A 
ATOM      8  C   UNL     1      -7.110 -12.495  22.633  1.00  0.00     0.092 A 
ATOM      9  C   UNL     1      -8.495 -12.335  22.500  1.00  0.00     0.126 A 
ATOM     10  C   UNL     1      -9.200 -13.094  21.536  1.00  0.00     0.039 A 
ENDROOT
BRANCH   2  11
ATOM     11  O   UNL     1     -12.582 -13.558  19.980  1.00  0.00    -0.389 OA
ATOM     12  H   UNL     1     -12.850 -14.146  20.734  1.00  0.00     0.211 HD
ENDBRANCH   2  11
BRANCH   3  13
ATOM     13  C   UNL     1     -11.021 -15.478  18.446  1.00  0.00    -0.001 A 
ATOM     14  C   UNL     1     -11.825 -16.628  18.386  1.00  0.00     0.057 A 
ATOM     15  C   UNL     1     -10.655 -14.835  17.251  1.00  0.00     0.012 A 
ATOM     16  C   UNL     1     -12.242 -17.144  17.154  1.00  0.00     0.157 A 
ATOM     17  C   UNL     1     -11.069 -15.347  16.018  1.00  0.00     0.050 A 
ATOM     18  C   UNL     1     -11.861 -16.501  15.962  1.00  0.00     0.157 A 
BRANCH  16  19
ATOM     19  O   UNL     1     -13.035 -18.290  17.132  1.00  0.00    -0.504 OA
ATOM     20  H   UNL     1     -14.043 -18.246  17.036  1.00  0.00     0.293 HD
ENDBRANCH  16  19
BRANCH  18  21
ATOM     21  O   UNL     1     -12.272 -17.011  14.731  1.00  0.00    -0.504 OA
ATOM     22  H   UNL     1     -12.162 -17.992  14.500  1.00  0.00     0.293 HD
ENDBRANCH  18  21
ENDBRANCH   3  13
BRANCH   9  23
ATOM     23  O   UNL     1      -9.134 -11.426  23.346  1.00  0.00    -0.507 OA
ATOM     24  H   UNL     1      -8.681 -10.995  24.142  1.00  0.00     0.293 HD
ENDBRANCH   9  23
BRANCH   7  25
ATOM     25  O   UNL     1      -5.042 -13.559  21.997  1.00  0.00    -0.508 OA
ATOM     26  H   UNL     1      -4.618 -13.663  22.911  1.00  0.00     0.293 HD
ENDBRANCH   7  25
TORSDOF 6
ENDMDL
MODEL 9
REMARK VINA RESULT:    -5.900      3.903      7.061
REMARK INTER + INTRA:          -7.483
REMARK INTER:                  -7.115
REMARK INTRA:                  -0.367
REMARK UNBOUND:                -0.375
REMARK SMILES Oc1cc(O)c2c(c1)O[C@H](c1ccc(O)c(O)c1)[C@@H](O)C2
REMARK SMILES IDX 21 1 19 2 10 3 9 4 7 5 8 6 2 7 3 8 4 9 6 10 20 11 11 13
REMARK SMILES IDX 18 14 12 15 16 16 13 17 14 18 17 19 15 21 5 23 1 25
REMARK H PARENT 20 12 17 20 15 22 5 24 1 26
REMARK Flexibility Score: inf
ROOT
ATOM      1  C   UNL     1     -16.996 -19.549  19.622  1.00  0.00     0.079 C 
ATOM      2  C   UNL     1     -15.518 -19.733  20.016  1.00  0.00     0.164 C 
ATOM      3  C   UNL     1     -14.869 -18.361  20.266  1.00  0.00     0.232 C 
ATOM      4  O   UNL     1     -15.010 -17.541  19.105  1.00  0.00    -0.482 OA
ATOM      5  C   UNL     1     -16.172 -17.539  18.329  1.00  0.00     0.131 A 
ATOM      6  C   UNL     1     -16.315 -16.579  17.323  1.00  0.00     0.093 A 
ATOM      7  C   UNL     1     -17.474 -16.544  16.541  1.00  0.00     0.122 A 
ATOM      8  C   UNL     1     -18.497 -17.466  16.775  1.00  0.00     0.092 A 
ATOM      9  C   UNL     1     -18.372 -18.434  17.778  1.00  0.00     0.126 A 
ATOM     10  C   UNL     1     -17.183 -18.502  18.543  1.00  0.00     0.039 A 
ENDROOT
BRANCH   2  11
ATOM     11  O   UNL     1     -15.431 -20.516  21.179  1.00  0.00    -0.389 OA
ATOM     12  H   UNL     1     -14.755 -21.221  20.997  1.00  0.00     0.211 HD
ENDBRANCH   2  11
BRANCH   3  13
ATOM     13  C   UNL     1     -13.406 -18.504  20.612  1.00  0.00    -0.001 A 
ATOM     14  C   UNL     1     -12.932 -18.096  21.869  1.00  0.00     0.057 A 
ATOM     15  C   UNL     1     -12.511 -19.090  19.700  1.00  0.00     0.012 A 
ATOM     16  C   UNL     1     -11.583 -18.250  22.208  1.00  0.00     0.157 A 
ATOM     17  C   UNL     1     -11.163 -19.246  20.034  1.00  0.00     0.050 A 
ATOM     18  C   UNL     1     -10.692 -18.827  21.286  1.00  0.00     0.157 A 
BRANCH  16  19
ATOM     19  O   UNL     1     -11.147 -17.828  23.464  1.00  0.00    -0.504 OA
ATOM     20  H   UNL     1     -11.527 -18.211  24.322  1.00  0.00     0.293 HD
ENDBRANCH  16  19
BRANCH  18  21
ATOM     21  O   UNL     1      -9.347 -18.982  21.617  1.00  0.00    -0.504 OA
ATOM     22  H   UNL     1      -9.061 -19.348  22.518  1.00  0.00     0.293 HD
ENDBRANCH  18  21
ENDBRANCH   3  13
BRANCH   9  23
ATOM     23  O   UNL     1     -19.447 -19.298  17.993  1.00  0.00    -0.507 OA
ATOM     24  H   UNL     1     -20.154 -19.140  18.700  1.00  0.00     0.293 HD
ENDBRANCH   9  23
BRANCH   7  25
ATOM     25  O   UNL     1     -17.623 -15.591  15.535  1.00  0.00    -0.508 OA
ATOM     26  H   UNL     1     -17.418 -14.613  15.698  1.00  0.00     0.293 HD
ENDBRANCH   7  25
TORSDOF 6
ENDMDL
