MODEL 1
REMARK VINA RESULT:    -2.951      0.000      0.000
REMARK INTER + INTRA:          -3.759
REMARK INTER:                  -3.468
REMARK INTRA:                  -0.291
REMARK UNBOUND:                -0.291
REMARK SMILES O=c1cc(-c2ccc(O)c(O)c2)oc2cc(O)cc(O)c12
REMARK SMILES IDX 4 1 3 2 2 3 1 4 21 5 19 6 18 7 16 8 15 9 14 10 13 11 5 12
REMARK SMILES IDX 6 13 7 14 8 15 12 16 10 17 9 18 11 20 20 22 17 24
REMARK H PARENT 9 19 11 21 20 23 17 25
REMARK Flexibility Score: inf
ROOT
ATOM      1  C   UNL     1      42.488  18.284  35.603  1.00  0.00     0.138 A 
ATOM      2  C   UNL     1      42.331  17.987  36.963  1.00  0.00     0.100 A 
ATOM      3  C   UNL     1      41.070  18.090  37.552  1.00  0.00     0.197 A 
ATOM      4  O   UNL     1      40.972  17.878  38.788  1.00  0.00    -0.289 OA
ATOM      5  C   UNL     1      39.955  18.461  36.764  1.00  0.00     0.107 A 
ATOM      6  C   UNL     1      38.616  18.559  37.247  1.00  0.00     0.134 A 
ATOM      7  C   UNL     1      37.612  19.049  36.402  1.00  0.00     0.093 A 
ATOM      8  C   UNL     1      37.888  19.388  35.075  1.00  0.00     0.123 A 
ATOM      9  C   UNL     1      39.182  19.245  34.579  1.00  0.00     0.094 A 
ATOM     10  C   UNL     1      40.212  18.791  35.407  1.00  0.00     0.146 A 
ATOM     11  O   UNL     1      41.434  18.683  34.898  1.00  0.00    -0.456 OA
ENDROOT
BRANCH   1  12
ATOM     12  C   UNL     1      43.806  18.190  34.926  1.00  0.00     0.021 A 
ATOM     13  C   UNL     1      43.858  18.003  33.534  1.00  0.00     0.016 A 
ATOM     14  C   UNL     1      45.085  17.905  32.875  1.00  0.00     0.051 A 
ATOM     15  C   UNL     1      46.284  17.979  33.596  1.00  0.00     0.157 A 
ATOM     16  C   UNL     1      45.015  18.251  35.647  1.00  0.00     0.062 A 
ATOM     17  C   UNL     1      46.246  18.150  34.990  1.00  0.00     0.158 A 
BRANCH  15  18
ATOM     18  O   UNL     1      47.506  17.881  32.935  1.00  0.00    -0.504 OA
ATOM     19  H   UNL     1      47.574  17.508  31.994  1.00  0.00     0.293 HD
ENDBRANCH  15  18
BRANCH  17  20
ATOM     20  O   UNL     1      47.422  18.217  35.737  1.00  0.00    -0.504 OA
ATOM     21  H   UNL     1      48.191  17.575  35.590  1.00  0.00     0.293 HD
ENDBRANCH  17  20
ENDBRANCH   1  12
BRANCH   6  22
ATOM     22  O   UNL     1      38.217  18.167  38.527  1.00  0.00    -0.507 OA
ATOM     23  H   UNL     1      37.582  17.409  38.727  1.00  0.00     0.293 HD
ENDBRANCH   6  22
BRANCH   8  24
ATOM     24  O   UNL     1      36.880  19.861  34.238  1.00  0.00    -0.508 OA
ATOM     25  H   UNL     1      37.080  20.194  33.302  1.00  0.00     0.293 HD
ENDBRANCH   8  24
TORSDOF 5
ENDMDL
MODEL 2
REMARK VINA RESULT:    -2.672      1.294      2.691
REMARK INTER + INTRA:          -3.432
REMARK INTER:                  -3.116
REMARK INTRA:                  -0.317
REMARK UNBOUND:                -0.291
REMARK SMILES O=c1cc(-c2ccc(O)c(O)c2)oc2cc(O)cc(O)c12
REMARK SMILES IDX 4 1 3 2 2 3 1 4 21 5 19 6 18 7 16 8 15 9 14 10 13 11 5 12
REMARK SMILES IDX 6 13 7 14 8 15 12 16 10 17 9 18 11 20 20 22 17 24
REMARK H PARENT 9 19 11 21 20 23 17 25
REMARK Flexibility Score: inf
ROOT
ATOM      1  C   UNL     1      42.262  18.478  35.361  1.00  0.00     0.138 A 
ATOM      2  C   UNL     1      41.115  18.419  34.556  1.00  0.00     0.100 A 
ATOM      3  C   UNL     1      39.854  18.526  35.142  1.00  0.00     0.197 A 
ATOM      4  O   UNL     1      38.843  18.407  34.403  1.00  0.00    -0.289 OA
ATOM      5  C   UNL     1      39.743  18.727  36.538  1.00  0.00     0.107 A 
ATOM      6  C   UNL     1      38.511  18.892  37.240  1.00  0.00     0.134 A 
ATOM      7  C   UNL     1      38.518  18.967  38.638  1.00  0.00     0.093 A 
ATOM      8  C   UNL     1      39.717  18.945  39.356  1.00  0.00     0.123 A 
ATOM      9  C   UNL     1      40.928  18.838  38.676  1.00  0.00     0.094 A 
ATOM     10  C   UNL     1      40.951  18.727  37.284  1.00  0.00     0.146 A 
ATOM     11  O   UNL     1      42.127  18.612  36.676  1.00  0.00    -0.456 OA
ENDROOT
BRANCH   1  12
ATOM     12  C   UNL     1      43.627  18.370  34.789  1.00  0.00     0.021 A 
ATOM     13  C   UNL     1      43.787  17.992  33.444  1.00  0.00     0.016 A 
ATOM     14  C   UNL     1      45.060  17.877  32.884  1.00  0.00     0.051 A 
ATOM     15  C   UNL     1      46.200  18.125  33.659  1.00  0.00     0.157 A 
ATOM     16  C   UNL     1      44.778  18.605  35.567  1.00  0.00     0.062 A 
ATOM     17  C   UNL     1      46.055  18.488  35.009  1.00  0.00     0.158 A 
BRANCH  15  18
ATOM     18  O   UNL     1      47.469  18.010  33.097  1.00  0.00    -0.504 OA
ATOM     19  H   UNL     1      48.125  18.783  33.102  1.00  0.00     0.293 HD
ENDBRANCH  15  18
BRANCH  17  20
ATOM     20  O   UNL     1      47.170  18.730  35.811  1.00  0.00    -0.504 OA
ATOM     21  H   UNL     1      47.163  18.564  36.809  1.00  0.00     0.293 HD
ENDBRANCH  17  20
ENDBRANCH   1  12
BRANCH   6  22
ATOM     22  O   UNL     1      37.266  19.012  36.615  1.00  0.00    -0.507 OA
ATOM     23  H   UNL     1      36.964  19.811  36.079  1.00  0.00     0.293 HD
ENDBRANCH   6  22
BRANCH   8  24
ATOM     24  O   UNL     1      39.714  19.035  40.746  1.00  0.00    -0.508 OA
ATOM     25  H   UNL     1      40.577  19.076  41.276  1.00  0.00     0.293 HD
ENDBRANCH   8  24
TORSDOF 5
ENDMDL
MODEL 3
REMARK VINA RESULT:    -1.382      4.502      7.088
REMARK INTER + INTRA:          -1.916
REMARK INTER:                  -1.641
REMARK INTRA:                  -0.274
REMARK UNBOUND:                -0.291
REMARK SMILES O=c1cc(-c2ccc(O)c(O)c2)oc2cc(O)cc(O)c12
REMARK SMILES IDX 4 1 3 2 2 3 1 4 21 5 19 6 18 7 16 8 15 9 14 10 13 11 5 12
REMARK SMILES IDX 6 13 7 14 8 15 12 16 10 17 9 18 11 20 20 22 17 24
REMARK H PARENT 9 19 11 21 20 23 17 25
REMARK Flexibility Score: inf
ROOT
ATOM      1  C   UNL     1      39.347  22.229  36.521  1.00  0.00     0.138 A 
ATOM      2  C   UNL     1      38.115  21.570  36.405  1.00  0.00     0.100 A 
ATOM      3  C   UNL     1      38.012  20.432  35.605  1.00  0.00     0.197 A 
ATOM      4  O   UNL     1      36.881  19.899  35.471  1.00  0.00    -0.289 OA
ATOM      5  C   UNL     1      39.160  19.932  34.944  1.00  0.00     0.107 A 
ATOM      6  C   UNL     1      39.184  18.756  34.136  1.00  0.00     0.134 A 
ATOM      7  C   UNL     1      40.351  18.424  33.436  1.00  0.00     0.093 A 
ATOM      8  C   UNL     1      41.512  19.191  33.564  1.00  0.00     0.123 A 
ATOM      9  C   UNL     1      41.513  20.310  34.393  1.00  0.00     0.094 A 
ATOM     10  C   UNL     1      40.355  20.687  35.077  1.00  0.00     0.146 A 
ATOM     11  O   UNL     1      40.396  21.770  35.846  1.00  0.00    -0.456 OA
ENDROOT
BRANCH   1  12
ATOM     12  C   UNL     1      39.511  23.443  37.359  1.00  0.00     0.021 A 
ATOM     13  C   UNL     1      38.801  24.611  37.032  1.00  0.00     0.016 A 
ATOM     14  C   UNL     1      38.943  25.768  37.800  1.00  0.00     0.051 A 
ATOM     15  C   UNL     1      39.805  25.784  38.904  1.00  0.00     0.157 A 
ATOM     16  C   UNL     1      40.387  23.469  38.463  1.00  0.00     0.062 A 
ATOM     17  C   UNL     1      40.532  24.627  39.233  1.00  0.00     0.158 A 
BRANCH  15  18
ATOM     18  O   UNL     1      39.944  26.940  39.669  1.00  0.00    -0.504 OA
ATOM     19  H   UNL     1      40.849  27.371  39.821  1.00  0.00     0.293 HD
ENDBRANCH  15  18
BRANCH  17  20
ATOM     20  O   UNL     1      41.408  24.615  40.318  1.00  0.00    -0.504 OA
ATOM     21  H   UNL     1      41.318  23.948  41.076  1.00  0.00     0.293 HD
ENDBRANCH  17  20
ENDBRANCH   1  12
BRANCH   6  22
ATOM     22  O   UNL     1      38.107  17.875  34.007  1.00  0.00    -0.507 OA
ATOM     23  H   UNL     1      37.248  17.933  34.532  1.00  0.00     0.293 HD
ENDBRANCH   6  22
BRANCH   8  24
ATOM     24  O   UNL     1      42.672  18.844  32.875  1.00  0.00    -0.508 OA
ATOM     25  H   UNL     1      43.390  18.269  33.302  1.00  0.00     0.293 HD
ENDBRANCH   8  24
TORSDOF 5
ENDMDL
MODEL 4
REMARK VINA RESULT:    -0.165      4.980      7.176
REMARK INTER + INTRA:          -0.485
REMARK INTER:                  -0.190
REMARK INTRA:                  -0.295
REMARK UNBOUND:                -0.291
REMARK SMILES O=c1cc(-c2ccc(O)c(O)c2)oc2cc(O)cc(O)c12
REMARK SMILES IDX 4 1 3 2 2 3 1 4 21 5 19 6 18 7 16 8 15 9 14 10 13 11 5 12
REMARK SMILES IDX 6 13 7 14 8 15 12 16 10 17 9 18 11 20 20 22 17 24
REMARK H PARENT 9 19 11 21 20 23 17 25
REMARK Flexibility Score: inf
ROOT
ATOM      1  C   UNL     1      39.339  22.581  37.106  1.00  0.00     0.138 A 
ATOM      2  C   UNL     1      38.217  21.866  37.548  1.00  0.00     0.100 A 
ATOM      3  C   UNL     1      37.923  20.625  36.983  1.00  0.00     0.197 A 
ATOM      4  O   UNL     1      36.875  20.036  37.355  1.00  0.00    -0.289 OA
ATOM      5  C   UNL     1      38.777  20.082  35.994  1.00  0.00     0.107 A 
ATOM      6  C   UNL     1      38.600  18.807  35.378  1.00  0.00     0.134 A 
ATOM      7  C   UNL     1      39.443  18.426  34.327  1.00  0.00     0.093 A 
ATOM      8  C   UNL     1      40.495  19.247  33.911  1.00  0.00     0.123 A 
ATOM      9  C   UNL     1      40.709  20.470  34.543  1.00  0.00     0.094 A 
ATOM     10  C   UNL     1      39.864  20.893  35.572  1.00  0.00     0.146 A 
ATOM     11  O   UNL     1      40.094  22.073  36.138  1.00  0.00    -0.456 OA
ENDROOT
BRANCH   1  12
ATOM     12  C   UNL     1      39.699  23.905  37.674  1.00  0.00     0.021 A 
ATOM     13  C   UNL     1      40.648  24.705  37.015  1.00  0.00     0.016 A 
ATOM     14  C   UNL     1      41.008  25.951  37.531  1.00  0.00     0.051 A 
ATOM     15  C   UNL     1      40.436  26.417  38.721  1.00  0.00     0.157 A 
ATOM     16  C   UNL     1      39.136  24.373  38.878  1.00  0.00     0.062 A 
ATOM     17  C   UNL     1      39.497  25.620  39.398  1.00  0.00     0.158 A 
BRANCH  15  18
ATOM     18  O   UNL     1      40.797  27.662  39.233  1.00  0.00    -0.504 OA
ATOM     19  H   UNL     1      40.442  27.994  40.123  1.00  0.00     0.293 HD
ENDBRANCH  15  18
BRANCH  17  20
ATOM     20  O   UNL     1      38.918  26.050  40.592  1.00  0.00    -0.504 OA
ATOM     21  H   UNL     1      38.392  25.427  41.191  1.00  0.00     0.293 HD
ENDBRANCH  17  20
ENDBRANCH   1  12
BRANCH   6  22
ATOM     22  O   UNL     1      37.635  17.876  35.773  1.00  0.00    -0.507 OA
ATOM     23  H   UNL     1      36.975  18.013  36.523  1.00  0.00     0.293 HD
ENDBRANCH   6  22
BRANCH   8  24
ATOM     24  O   UNL     1      41.338  18.852  32.875  1.00  0.00    -0.508 OA
ATOM     25  H   UNL     1      42.302  19.159  32.829  1.00  0.00     0.293 HD
ENDBRANCH   8  24
TORSDOF 5
ENDMDL
