MODEL 1
REMARK VINA RESULT:    -4.174      0.000      0.000
REMARK INTER + INTRA:          -9.662
REMARK INTER:                  -7.590
REMARK INTRA:                  -2.072
REMARK UNBOUND:                -2.072
REMARK SMILES CCCCCCCCCCCCCCCC(=O)[O-]
REMARK SMILES IDX 9 1 10 2 11 3 12 4 13 5 14 6 15 7 16 8 17 9 18 10 8 11 7 12
REMARK SMILES IDX 6 13 5 14 4 15 3 16 2 17 1 18
REMARK H PARENT
REMARK Flexibility Score: inf
ROOT
ATOM      1  C   UNL     1       8.496 -17.720  22.536  1.00  0.00     0.000 C 
ENDROOT
BRANCH   1   2
ATOM      2  C   UNL     1       7.442 -16.611  22.398  1.00  0.00     0.000 C 
BRANCH   2   3
ATOM      3  C   UNL     1       7.150 -15.960  23.755  1.00  0.00     0.000 C 
BRANCH   3   4
ATOM      4  C   UNL     1       6.392 -16.926  24.677  1.00  0.00     0.000 C 
BRANCH   4   5
ATOM      5  C   UNL     1       7.083 -17.121  26.039  1.00  0.00     0.000 C 
BRANCH   5   6
ATOM      6  C   UNL     1       8.266 -16.171  26.315  1.00  0.00     0.006 C 
BRANCH   6   7
ATOM      7  C   UNL     1       9.613 -16.877  26.539  1.00  0.00     0.053 C 
BRANCH   7   8
ATOM      8  C   UNL     1      10.666 -16.393  25.590  1.00  0.00     0.041 C 
ATOM      9  O   UNL     1      11.796 -16.947  25.564  1.00  0.00    -0.550 OA
ATOM     10  O   UNL     1      10.387 -15.354  24.711  1.00  0.00    -0.550 OA
ENDBRANCH   7   8
ENDBRANCH   6   7
ENDBRANCH   5   6
ENDBRANCH   4   5
ENDBRANCH   3   4
ENDBRANCH   2   3
ENDBRANCH   1   2
BRANCH   1  11
ATOM     11  C   UNL     1       8.188 -18.945  21.659  1.00  0.00     0.000 C 
BRANCH  11  12
ATOM     12  C   UNL     1       7.136 -19.873  22.290  1.00  0.00    -0.000 C 
BRANCH  12  13
ATOM     13  C   UNL     1       7.755 -20.875  23.278  1.00  0.00    -0.000 C 
BRANCH  13  14
ATOM     14  C   UNL     1       7.351 -20.598  24.736  1.00  0.00    -0.000 C 
BRANCH  14  15
ATOM     15  C   UNL     1       8.522 -20.803  25.719  1.00  0.00    -0.000 C 
BRANCH  15  16
ATOM     16  C   UNL     1       8.114 -20.748  27.204  1.00  0.00    -0.000 C 
BRANCH  16  17
ATOM     17  C   UNL     1       6.596 -20.625  27.436  1.00  0.00    -0.003 C 
ATOM     18  C   UNL     1       6.083 -21.599  28.496  1.00  0.00     0.004 C 
ENDBRANCH  16  17
ENDBRANCH  15  16
ENDBRANCH  14  15
ENDBRANCH  13  14
ENDBRANCH  12  13
ENDBRANCH  11  12
ENDBRANCH   1  11
TORSDOF 14
ENDMDL
MODEL 2
REMARK VINA RESULT:    -4.132      2.183      3.791
REMARK INTER + INTRA:          -9.587
REMARK INTER:                  -7.653
REMARK INTRA:                  -1.934
REMARK UNBOUND:                -2.072
REMARK SMILES CCCCCCCCCCCCCCCC(=O)[O-]
REMARK SMILES IDX 9 1 10 2 11 3 12 4 13 5 14 6 15 7 16 8 17 9 18 10 8 11 7 12
REMARK SMILES IDX 6 13 5 14 4 15 3 16 2 17 1 18
REMARK H PARENT
REMARK Flexibility Score: inf
ROOT
ATOM      1  C   UNL     1       6.394 -13.840  19.943  1.00  0.00     0.000 C 
ENDROOT
BRANCH   1   2
ATOM      2  C   UNL     1       5.728 -14.194  21.282  1.00  0.00     0.000 C 
BRANCH   2   3
ATOM      3  C   UNL     1       6.359 -13.403  22.434  1.00  0.00     0.000 C 
BRANCH   3   4
ATOM      4  C   UNL     1       6.984 -14.346  23.471  1.00  0.00     0.000 C 
BRANCH   4   5
ATOM      5  C   UNL     1       6.017 -15.448  23.941  1.00  0.00     0.000 C 
BRANCH   5   6
ATOM      6  C   UNL     1       6.653 -16.841  24.128  1.00  0.00     0.006 C 
BRANCH   6   7
ATOM      7  C   UNL     1       8.171 -16.822  24.370  1.00  0.00     0.053 C 
BRANCH   7   8
ATOM      8  C   UNL     1       8.510 -16.970  25.821  1.00  0.00     0.041 C 
ATOM      9  O   UNL     1       8.102 -16.121  26.656  1.00  0.00    -0.550 OA
ATOM     10  O   UNL     1       9.247 -18.065  26.257  1.00  0.00    -0.550 OA
ENDBRANCH   7   8
ENDBRANCH   6   7
ENDBRANCH   5   6
ENDBRANCH   4   5
ENDBRANCH   3   4
ENDBRANCH   2   3
ENDBRANCH   1   2
BRANCH   1  11
ATOM     11  C   UNL     1       7.062 -15.051  19.273  1.00  0.00     0.000 C 
BRANCH  11  12
ATOM     12  C   UNL     1       7.780 -15.963  20.284  1.00  0.00    -0.000 C 
BRANCH  12  13
ATOM     13  C   UNL     1       7.451 -17.449  20.069  1.00  0.00    -0.000 C 
BRANCH  13  14
ATOM     14  C   UNL     1       8.309 -18.380  20.943  1.00  0.00    -0.000 C 
BRANCH  14  15
ATOM     15  C   UNL     1       7.493 -19.547  21.534  1.00  0.00    -0.000 C 
BRANCH  15  16
ATOM     16  C   UNL     1       8.108 -20.167  22.804  1.00  0.00    -0.000 C 
BRANCH  16  17
ATOM     17  C   UNL     1       7.101 -20.385  23.949  1.00  0.00    -0.003 C 
ATOM     18  C   UNL     1       7.742 -21.022  25.182  1.00  0.00     0.004 C 
ENDBRANCH  16  17
ENDBRANCH  15  16
ENDBRANCH  14  15
ENDBRANCH  13  14
ENDBRANCH  12  13
ENDBRANCH  11  12
ENDBRANCH   1  11
TORSDOF 14
ENDMDL
MODEL 3
REMARK VINA RESULT:    -4.126      2.517      4.105
REMARK INTER + INTRA:          -9.575
REMARK INTER:                  -7.247
REMARK INTRA:                  -2.328
REMARK UNBOUND:                -2.072
REMARK SMILES CCCCCCCCCCCCCCCC(=O)[O-]
REMARK SMILES IDX 9 1 10 2 11 3 12 4 13 5 14 6 15 7 16 8 17 9 18 10 8 11 7 12
REMARK SMILES IDX 6 13 5 14 4 15 3 16 2 17 1 18
REMARK H PARENT
REMARK Flexibility Score: inf
ROOT
ATOM      1  C   UNL     1      10.111 -15.109  24.164  1.00  0.00     0.000 C 
ENDROOT
BRANCH   1   2
ATOM      2  C   UNL     1       8.807 -14.652  24.838  1.00  0.00     0.000 C 
BRANCH   2   3
ATOM      3  C   UNL     1       7.610 -14.839  23.899  1.00  0.00     0.000 C 
BRANCH   3   4
ATOM      4  C   UNL     1       6.590 -15.819  24.496  1.00  0.00     0.000 C 
BRANCH   4   5
ATOM      5  C   UNL     1       6.716 -17.242  23.921  1.00  0.00     0.000 C 
BRANCH   5   6
ATOM      6  C   UNL     1       7.561 -17.355  22.635  1.00  0.00     0.006 C 
BRANCH   6   7
ATOM      7  C   UNL     1       8.401 -18.638  22.534  1.00  0.00     0.053 C 
BRANCH   7   8
ATOM      8  C   UNL     1       7.824 -19.611  21.552  1.00  0.00     0.041 C 
ATOM      9  O   UNL     1       8.159 -19.558  20.339  1.00  0.00    -0.550 OA
ATOM     10  O   UNL     1       6.946 -20.598  21.981  1.00  0.00    -0.550 OA
ENDBRANCH   7   8
ENDBRANCH   6   7
ENDBRANCH   5   6
ENDBRANCH   4   5
ENDBRANCH   3   4
ENDBRANCH   2   3
ENDBRANCH   1   2
BRANCH   1  11
ATOM     11  C   UNL     1      10.779 -16.283  24.897  1.00  0.00     0.000 C 
BRANCH  11  12
ATOM     12  C   UNL     1      10.131 -16.572  26.263  1.00  0.00    -0.000 C 
BRANCH  12  13
ATOM     13  C   UNL     1       9.385 -17.916  26.284  1.00  0.00    -0.000 C 
BRANCH  13  14
ATOM     14  C   UNL     1      10.308 -19.112  25.991  1.00  0.00    -0.000 C 
BRANCH  14  15
ATOM     15  C   UNL     1       9.652 -20.461  26.350  1.00  0.00    -0.000 C 
BRANCH  15  16
ATOM     16  C   UNL     1       8.782 -21.056  25.226  1.00  0.00    -0.000 C 
BRANCH  16  17
ATOM     17  C   UNL     1       7.266 -20.905  25.455  1.00  0.00    -0.003 C 
ATOM     18  C   UNL     1       6.901 -20.826  26.936  1.00  0.00     0.004 C 
ENDBRANCH  16  17
ENDBRANCH  15  16
ENDBRANCH  14  15
ENDBRANCH  13  14
ENDBRANCH  12  13
ENDBRANCH  11  12
ENDBRANCH   1  11
TORSDOF 14
ENDMDL
MODEL 4
REMARK VINA RESULT:    -4.117      1.721      3.949
REMARK INTER + INTRA:          -9.558
REMARK INTER:                  -7.578
REMARK INTRA:                  -1.980
REMARK UNBOUND:                -2.072
REMARK SMILES CCCCCCCCCCCCCCCC(=O)[O-]
REMARK SMILES IDX 9 1 10 2 11 3 12 4 13 5 14 6 15 7 16 8 17 9 18 10 8 11 7 12
REMARK SMILES IDX 6 13 5 14 4 15 3 16 2 17 1 18
REMARK H PARENT
REMARK Flexibility Score: inf
ROOT
ATOM      1  C   UNL     1       7.011 -16.401  25.662  1.00  0.00     0.000 C 
ENDROOT
BRANCH   1   2
ATOM      2  C   UNL     1       6.179 -16.485  24.373  1.00  0.00     0.000 C 
BRANCH   2   3
ATOM      3  C   UNL     1       6.141 -15.130  23.655  1.00  0.00     0.000 C 
BRANCH   3   4
ATOM      4  C   UNL     1       6.937 -15.180  22.344  1.00  0.00     0.000 C 
BRANCH   4   5
ATOM      5  C   UNL     1       7.695 -16.506  22.151  1.00  0.00     0.000 C 
BRANCH   5   6
ATOM      6  C   UNL     1       9.225 -16.369  22.007  1.00  0.00     0.006 C 
BRANCH   6   7
ATOM      7  C   UNL     1      10.001 -16.455  23.330  1.00  0.00     0.053 C 
BRANCH   7   8
ATOM      8  C   UNL     1      10.445 -15.107  23.810  1.00  0.00     0.041 C 
ATOM      9  O   UNL     1       9.631 -14.346  24.397  1.00  0.00    -0.550 OA
ATOM     10  O   UNL     1      11.764 -14.706  23.640  1.00  0.00    -0.550 OA
ENDBRANCH   7   8
ENDBRANCH   6   7
ENDBRANCH   5   6
ENDBRANCH   4   5
ENDBRANCH   3   4
ENDBRANCH   2   3
ENDBRANCH   1   2
BRANCH   1  11
ATOM     11  C   UNL     1       7.194 -17.767  26.341  1.00  0.00     0.000 C 
BRANCH  11  12
ATOM     12  C   UNL     1       8.237 -18.646  25.628  1.00  0.00    -0.000 C 
BRANCH  12  13
ATOM     13  C   UNL     1       7.995 -20.147  25.860  1.00  0.00    -0.000 C 
BRANCH  13  14
ATOM     14  C   UNL     1       7.189 -20.800  24.724  1.00  0.00    -0.000 C 
BRANCH  14  15
ATOM     15  C   UNL     1       7.130 -19.916  23.462  1.00  0.00    -0.000 C 
BRANCH  15  16
ATOM     16  C   UNL     1       8.161 -20.293  22.381  1.00  0.00    -0.000 C 
BRANCH  16  17
ATOM     17  C   UNL     1       7.538 -20.718  21.037  1.00  0.00    -0.003 C 
ATOM     18  C   UNL     1       7.899 -22.151  20.649  1.00  0.00     0.004 C 
ENDBRANCH  16  17
ENDBRANCH  15  16
ENDBRANCH  14  15
ENDBRANCH  13  14
ENDBRANCH  12  13
ENDBRANCH  11  12
ENDBRANCH   1  11
TORSDOF 14
ENDMDL
MODEL 5
REMARK VINA RESULT:    -4.109      1.633      2.465
REMARK INTER + INTRA:          -9.543
REMARK INTER:                  -7.098
REMARK INTRA:                  -2.445
REMARK UNBOUND:                -2.072
REMARK SMILES CCCCCCCCCCCCCCCC(=O)[O-]
REMARK SMILES IDX 9 1 10 2 11 3 12 4 13 5 14 6 15 7 16 8 17 9 18 10 8 11 7 12
REMARK SMILES IDX 6 13 5 14 4 15 3 16 2 17 1 18
REMARK H PARENT
REMARK Flexibility Score: inf
ROOT
ATOM      1  C   UNL     1       7.760 -18.158  22.880  1.00  0.00     0.000 C 
ENDROOT
BRANCH   1   2
ATOM      2  C   UNL     1       7.274 -16.813  23.442  1.00  0.00     0.000 C 
BRANCH   2   3
ATOM      3  C   UNL     1       6.618 -16.998  24.816  1.00  0.00     0.000 C 
BRANCH   3   4
ATOM      4  C   UNL     1       7.463 -16.347  25.920  1.00  0.00     0.000 C 
BRANCH   4   5
ATOM      5  C   UNL     1       8.680 -17.200  26.326  1.00  0.00     0.000 C 
BRANCH   5   6
ATOM      6  C   UNL     1      10.042 -16.482  26.229  1.00  0.00     0.006 C 
BRANCH   6   7
ATOM      7  C   UNL     1      10.706 -16.557  24.845  1.00  0.00     0.053 C 
BRANCH   7   8
ATOM      8  C   UNL     1      10.836 -15.206  24.211  1.00  0.00     0.041 C 
ATOM      9  O   UNL     1      11.927 -14.854  23.692  1.00  0.00    -0.550 OA
ATOM     10  O   UNL     1       9.742 -14.351  24.161  1.00  0.00    -0.550 OA
ENDBRANCH   7   8
ENDBRANCH   6   7
ENDBRANCH   5   6
ENDBRANCH   4   5
ENDBRANCH   3   4
ENDBRANCH   2   3
ENDBRANCH   1   2
BRANCH   1  11
ATOM     11  C   UNL     1       6.713 -19.275  23.023  1.00  0.00     0.000 C 
BRANCH  11  12
ATOM     12  C   UNL     1       7.331 -20.608  23.481  1.00  0.00    -0.000 C 
BRANCH  12  13
ATOM     13  C   UNL     1       7.698 -20.601  24.974  1.00  0.00    -0.000 C 
BRANCH  13  14
ATOM     14  C   UNL     1       9.053 -21.274  25.255  1.00  0.00    -0.000 C 
BRANCH  14  15
ATOM     15  C   UNL     1      10.242 -20.326  25.005  1.00  0.00    -0.000 C 
BRANCH  15  16
ATOM     16  C   UNL     1      11.277 -20.299  26.146  1.00  0.00    -0.000 C 
BRANCH  16  17
ATOM     17  C   UNL     1      10.659 -20.204  27.555  1.00  0.00    -0.003 C 
ATOM     18  C   UNL     1      11.487 -19.335  28.502  1.00  0.00     0.004 C 
ENDBRANCH  16  17
ENDBRANCH  15  16
ENDBRANCH  14  15
ENDBRANCH  13  14
ENDBRANCH  12  13
ENDBRANCH  11  12
ENDBRANCH   1  11
TORSDOF 14
ENDMDL
MODEL 6
REMARK VINA RESULT:    -4.084      3.067      5.314
REMARK INTER + INTRA:          -9.498
REMARK INTER:                  -6.998
REMARK INTRA:                  -2.500
REMARK UNBOUND:                -2.072
REMARK SMILES CCCCCCCCCCCCCCCC(=O)[O-]
REMARK SMILES IDX 9 1 10 2 11 3 12 4 13 5 14 6 15 7 16 8 17 9 18 10 8 11 7 12
REMARK SMILES IDX 6 13 5 14 4 15 3 16 2 17 1 18
REMARK H PARENT
REMARK Flexibility Score: inf
ROOT
ATOM      1  C   UNL     1       7.500 -16.488  22.076  1.00  0.00     0.000 C 
ENDROOT
BRANCH   1   2
ATOM      2  C   UNL     1       8.886 -17.116  21.864  1.00  0.00     0.000 C 
BRANCH   2   3
ATOM      3  C   UNL     1       8.852 -18.625  22.136  1.00  0.00     0.000 C 
BRANCH   3   4
ATOM      4  C   UNL     1       7.409 -19.150  22.145  1.00  0.00     0.000 C 
BRANCH   4   5
ATOM      5  C   UNL     1       7.245 -20.438  22.972  1.00  0.00     0.000 C 
BRANCH   5   6
ATOM      6  C   UNL     1       8.564 -21.121  23.389  1.00  0.00     0.006 C 
BRANCH   6   7
ATOM      7  C   UNL     1       8.816 -22.483  22.724  1.00  0.00     0.053 C 
BRANCH   7   8
ATOM      8  C   UNL     1       9.062 -22.353  21.252  1.00  0.00     0.041 C 
ATOM      9  O   UNL     1       8.133 -22.583  20.433  1.00  0.00    -0.550 OA
ATOM     10  O   UNL     1      10.305 -21.944  20.787  1.00  0.00    -0.550 OA
ENDBRANCH   7   8
ENDBRANCH   6   7
ENDBRANCH   5   6
ENDBRANCH   4   5
ENDBRANCH   3   4
ENDBRANCH   2   3
ENDBRANCH   1   2
BRANCH   1  11
ATOM     11  C   UNL     1       7.567 -15.124  22.781  1.00  0.00     0.000 C 
BRANCH  11  12
ATOM     12  C   UNL     1       6.909 -15.145  24.173  1.00  0.00    -0.000 C 
BRANCH  12  13
ATOM     13  C   UNL     1       6.407 -16.545  24.562  1.00  0.00    -0.000 C 
BRANCH  13  14
ATOM     14  C   UNL     1       6.981 -17.029  25.905  1.00  0.00    -0.000 C 
BRANCH  14  15
ATOM     15  C   UNL     1       8.061 -18.115  25.724  1.00  0.00    -0.000 C 
BRANCH  15  16
ATOM     16  C   UNL     1       9.395 -17.801  26.428  1.00  0.00    -0.000 C 
BRANCH  16  17
ATOM     17  C   UNL     1       9.843 -16.332  26.301  1.00  0.00    -0.003 C 
ATOM     18  C   UNL     1      10.548 -16.045  24.976  1.00  0.00     0.004 C 
ENDBRANCH  16  17
ENDBRANCH  15  16
ENDBRANCH  14  15
ENDBRANCH  13  14
ENDBRANCH  12  13
ENDBRANCH  11  12
ENDBRANCH   1  11
TORSDOF 14
ENDMDL
MODEL 7
REMARK VINA RESULT:    -4.066      2.557      3.898
REMARK INTER + INTRA:          -9.466
REMARK INTER:                  -7.240
REMARK INTRA:                  -2.225
REMARK UNBOUND:                -2.072
REMARK SMILES CCCCCCCCCCCCCCCC(=O)[O-]
REMARK SMILES IDX 9 1 10 2 11 3 12 4 13 5 14 6 15 7 16 8 17 9 18 10 8 11 7 12
REMARK SMILES IDX 6 13 5 14 4 15 3 16 2 17 1 18
REMARK H PARENT
REMARK Flexibility Score: inf
ROOT
ATOM      1  C   UNL     1       8.665 -18.239  22.290  1.00  0.00     0.000 C 
ENDROOT
BRANCH   1   2
ATOM      2  C   UNL     1      10.156 -18.581  22.150  1.00  0.00     0.000 C 
BRANCH   2   3
ATOM      3  C   UNL     1      10.969 -17.971  23.298  1.00  0.00     0.000 C 
BRANCH   3   4
ATOM      4  C   UNL     1      10.058 -17.217  24.276  1.00  0.00     0.000 C 
BRANCH   4   5
ATOM      5  C   UNL     1      10.581 -15.810  24.622  1.00  0.00     0.000 C 
BRANCH   5   6
ATOM      6  C   UNL     1       9.673 -14.647  24.172  1.00  0.00     0.006 C 
BRANCH   6   7
ATOM      7  C   UNL     1       8.304 -14.598  24.869  1.00  0.00     0.053 C 
BRANCH   7   8
ATOM      8  C   UNL     1       7.175 -14.790  23.904  1.00  0.00     0.041 C 
ATOM      9  O   UNL     1       6.493 -15.848  23.932  1.00  0.00    -0.550 OA
ATOM     10  O   UNL     1       6.853 -13.787  22.999  1.00  0.00    -0.550 OA
ENDBRANCH   7   8
ENDBRANCH   6   7
ENDBRANCH   5   6
ENDBRANCH   4   5
ENDBRANCH   3   4
ENDBRANCH   2   3
ENDBRANCH   1   2
BRANCH   1  11
ATOM     11  C   UNL     1       7.747 -19.360  21.777  1.00  0.00     0.000 C 
BRANCH  11  12
ATOM     12  C   UNL     1       6.756 -19.850  22.848  1.00  0.00    -0.000 C 
BRANCH  12  13
ATOM     13  C   UNL     1       7.340 -19.766  24.268  1.00  0.00    -0.000 C 
BRANCH  13  14
ATOM     14  C   UNL     1       7.881 -21.116  24.768  1.00  0.00    -0.000 C 
BRANCH  14  15
ATOM     15  C   UNL     1       9.396 -21.267  24.525  1.00  0.00    -0.000 C 
BRANCH  15  16
ATOM     16  C   UNL     1       9.783 -22.520  23.716  1.00  0.00    -0.000 C 
BRANCH  16  17
ATOM     17  C   UNL     1      10.017 -22.255  22.216  1.00  0.00    -0.003 C 
ATOM     18  C   UNL     1       8.972 -22.930  21.330  1.00  0.00     0.004 C 
ENDBRANCH  16  17
ENDBRANCH  15  16
ENDBRANCH  14  15
ENDBRANCH  13  14
ENDBRANCH  12  13
ENDBRANCH  11  12
ENDBRANCH   1  11
TORSDOF 14
ENDMDL
MODEL 8
REMARK VINA RESULT:    -4.053      2.010      3.501
REMARK INTER + INTRA:          -9.442
REMARK INTER:                  -7.212
REMARK INTRA:                  -2.229
REMARK UNBOUND:                -2.072
REMARK SMILES CCCCCCCCCCCCCCCC(=O)[O-]
REMARK SMILES IDX 9 1 10 2 11 3 12 4 13 5 14 6 15 7 16 8 17 9 18 10 8 11 7 12
REMARK SMILES IDX 6 13 5 14 4 15 3 16 2 17 1 18
REMARK H PARENT
REMARK Flexibility Score: inf
ROOT
ATOM      1  C   UNL     1       7.795 -15.475  23.077  1.00  0.00     0.000 C 
ENDROOT
BRANCH   1   2
ATOM      2  C   UNL     1       6.388 -15.271  23.661  1.00  0.00     0.000 C 
BRANCH   2   3
ATOM      3  C   UNL     1       6.077 -16.331  24.725  1.00  0.00     0.000 C 
BRANCH   3   4
ATOM      4  C   UNL     1       7.116 -16.297  25.855  1.00  0.00     0.000 C 
BRANCH   4   5
ATOM      5  C   UNL     1       7.687 -17.688  26.187  1.00  0.00     0.000 C 
BRANCH   5   6
ATOM      6  C   UNL     1       9.227 -17.769  26.232  1.00  0.00     0.006 C 
BRANCH   6   7
ATOM      7  C   UNL     1       9.938 -16.406  26.218  1.00  0.00     0.053 C 
BRANCH   7   8
ATOM      8  C   UNL     1      11.017 -16.347  25.181  1.00  0.00     0.041 C 
ATOM      9  O   UNL     1      11.062 -15.385  24.369  1.00  0.00    -0.550 OA
ATOM     10  O   UNL     1      11.993 -17.334  25.133  1.00  0.00    -0.550 OA
ENDBRANCH   7   8
ENDBRANCH   6   7
ENDBRANCH   5   6
ENDBRANCH   4   5
ENDBRANCH   3   4
ENDBRANCH   2   3
ENDBRANCH   1   2
BRANCH   1  11
ATOM     11  C   UNL     1       7.842 -16.579  22.009  1.00  0.00     0.000 C 
BRANCH  11  12
ATOM     12  C   UNL     1       9.051 -17.515  22.180  1.00  0.00    -0.000 C 
BRANCH  12  13
ATOM     13  C   UNL     1       8.658 -18.880  22.769  1.00  0.00    -0.000 C 
BRANCH  13  14
ATOM     14  C   UNL     1       7.141 -19.134  22.715  1.00  0.00    -0.000 C 
BRANCH  14  15
ATOM     15  C   UNL     1       6.786 -20.389  21.893  1.00  0.00    -0.000 C 
BRANCH  15  16
ATOM     16  C   UNL     1       7.964 -20.966  21.084  1.00  0.00    -0.000 C 
BRANCH  16  17
ATOM     17  C   UNL     1       8.377 -22.390  21.502  1.00  0.00    -0.003 C 
ATOM     18  C   UNL     1       9.878 -22.635  21.349  1.00  0.00     0.004 C 
ENDBRANCH  16  17
ENDBRANCH  15  16
ENDBRANCH  14  15
ENDBRANCH  13  14
ENDBRANCH  12  13
ENDBRANCH  11  12
ENDBRANCH   1  11
TORSDOF 14
ENDMDL
MODEL 9
REMARK VINA RESULT:    -4.020      1.799      3.157
REMARK INTER + INTRA:          -9.381
REMARK INTER:                  -6.966
REMARK INTRA:                  -2.416
REMARK UNBOUND:                -2.072
REMARK SMILES CCCCCCCCCCCCCCCC(=O)[O-]
REMARK SMILES IDX 9 1 10 2 11 3 12 4 13 5 14 6 15 7 16 8 17 9 18 10 8 11 7 12
REMARK SMILES IDX 6 13 5 14 4 15 3 16 2 17 1 18
REMARK H PARENT
REMARK Flexibility Score: inf
ROOT
ATOM      1  C   UNL     1       7.310 -15.491  23.640  1.00  0.00     0.000 C 
ENDROOT
BRANCH   1   2
ATOM      2  C   UNL     1       6.249 -16.362  24.330  1.00  0.00     0.000 C 
BRANCH   2   3
ATOM      3  C   UNL     1       6.712 -16.784  25.730  1.00  0.00     0.000 C 
BRANCH   3   4
ATOM      4  C   UNL     1       8.124 -16.257  26.024  1.00  0.00     0.000 C 
BRANCH   4   5
ATOM      5  C   UNL     1       9.156 -17.383  26.222  1.00  0.00     0.000 C 
BRANCH   5   6
ATOM      6  C   UNL     1      10.590 -17.042  25.768  1.00  0.00     0.006 C 
BRANCH   6   7
ATOM      7  C   UNL     1      10.743 -16.805  24.258  1.00  0.00     0.053 C 
BRANCH   7   8
ATOM      8  C   UNL     1      11.255 -15.431  23.953  1.00  0.00     0.041 C 
ATOM      9  O   UNL     1      10.478 -14.442  23.999  1.00  0.00    -0.550 OA
ATOM     10  O   UNL     1      12.598 -15.238  23.655  1.00  0.00    -0.550 OA
ENDBRANCH   7   8
ENDBRANCH   6   7
ENDBRANCH   5   6
ENDBRANCH   4   5
ENDBRANCH   3   4
ENDBRANCH   2   3
ENDBRANCH   1   2
BRANCH   1  11
ATOM     11  C   UNL     1       7.248 -15.583  22.107  1.00  0.00     0.000 C 
BRANCH  11  12
ATOM     12  C   UNL     1       8.292 -16.557  21.531  1.00  0.00    -0.000 C 
BRANCH  12  13
ATOM     13  C   UNL     1       7.650 -17.683  20.705  1.00  0.00    -0.000 C 
BRANCH  13  14
ATOM     14  C   UNL     1       7.930 -19.079  21.286  1.00  0.00    -0.000 C 
BRANCH  14  15
ATOM     15  C   UNL     1       8.204 -19.038  22.803  1.00  0.00    -0.000 C 
BRANCH  15  16
ATOM     16  C   UNL     1       7.192 -19.838  23.647  1.00  0.00    -0.000 C 
BRANCH  16  17
ATOM     17  C   UNL     1       7.793 -21.070  24.351  1.00  0.00    -0.003 C 
ATOM     18  C   UNL     1       9.263 -20.876  24.721  1.00  0.00     0.004 C 
ENDBRANCH  16  17
ENDBRANCH  15  16
ENDBRANCH  14  15
ENDBRANCH  13  14
ENDBRANCH  12  13
ENDBRANCH  11  12
ENDBRANCH   1  11
TORSDOF 14
ENDMDL
