MODEL 1
REMARK VINA RESULT:    -2.927      0.000      0.000
REMARK INTER + INTRA:         -13.121
REMARK INTER:                  -7.375
REMARK INTRA:                  -5.746
REMARK UNBOUND:                -5.746
REMARK SMILES CCCCCCCCCCCCCCCCCCCCCCCCCCCC(=O)[O-]
REMARK SMILES IDX 15 1 16 2 17 3 18 4 19 5 20 6 21 7 22 8 23 9 24 10 25 11
REMARK SMILES IDX 26 12 27 13 28 14 29 15 30 16 14 17 13 18 12 19 11 20 10 21
REMARK SMILES IDX 9 22 8 23 7 24 6 25 5 26 4 27 3 28 2 29 1 30
REMARK H PARENT
REMARK Flexibility Score: inf
ROOT
ATOM      1  C   UNL     1     -28.900 -17.103   2.167  1.00  0.00     0.000 C 
ENDROOT
BRANCH   1   2
ATOM      2  C   UNL     1     -28.152 -16.069   3.030  1.00  0.00     0.000 C 
BRANCH   2   3
ATOM      3  C   UNL     1     -27.230 -16.720   4.071  1.00  0.00     0.000 C 
BRANCH   3   4
ATOM      4  C   UNL     1     -26.972 -15.815   5.287  1.00  0.00     0.000 C 
BRANCH   4   5
ATOM      5  C   UNL     1     -25.468 -15.540   5.499  1.00  0.00     0.000 C 
BRANCH   5   6
ATOM      6  C   UNL     1     -24.678 -15.368   4.188  1.00  0.00     0.000 C 
BRANCH   6   7
ATOM      7  C   UNL     1     -24.871 -14.009   3.493  1.00  0.00     0.000 C 
BRANCH   7   8
ATOM      8  C   UNL     1     -24.869 -12.831   4.478  1.00  0.00     0.000 C 
BRANCH   8   9
ATOM      9  C   UNL     1     -26.241 -12.143   4.511  1.00  0.00     0.000 C 
BRANCH   9  10
ATOM     10  C   UNL     1     -27.152 -12.563   3.344  1.00  0.00     0.000 C 
BRANCH  10  11
ATOM     11  C   UNL     1     -28.658 -12.474   3.671  1.00  0.00     0.000 C 
BRANCH  11  12
ATOM     12  C   UNL     1     -29.467 -11.862   2.514  1.00  0.00     0.006 C 
BRANCH  12  13
ATOM     13  C   UNL     1     -29.538 -12.794   1.298  1.00  0.00     0.053 C 
BRANCH  13  14
ATOM     14  C   UNL     1     -30.068 -12.088   0.087  1.00  0.00     0.041 C 
ATOM     15  O   UNL     1     -29.275 -11.622  -0.773  1.00  0.00    -0.550 OA
ATOM     16  O   UNL     1     -31.438 -11.966  -0.104  1.00  0.00    -0.550 OA
ENDBRANCH  13  14
ENDBRANCH  12  13
ENDBRANCH  11  12
ENDBRANCH  10  11
ENDBRANCH   9  10
ENDBRANCH   8   9
ENDBRANCH   7   8
ENDBRANCH   6   7
ENDBRANCH   5   6
ENDBRANCH   4   5
ENDBRANCH   3   4
ENDBRANCH   2   3
ENDBRANCH   1   2
BRANCH   1  17
ATOM     17  C   UNL     1     -30.131 -16.505   1.466  1.00  0.00     0.000 C 
BRANCH  17  18
ATOM     18  C   UNL     1     -31.426 -17.264   1.795  1.00  0.00     0.000 C 
BRANCH  18  19
ATOM     19  C   UNL     1     -32.330 -16.508   2.784  1.00  0.00     0.000 C 
BRANCH  19  20
ATOM     20  C   UNL     1     -32.001 -15.005   2.914  1.00  0.00     0.000 C 
BRANCH  20  21
ATOM     21  C   UNL     1     -31.980 -14.535   4.381  1.00  0.00     0.000 C 
BRANCH  21  22
ATOM     22  C   UNL     1     -30.777 -15.084   5.165  1.00  0.00    -0.000 C 
BRANCH  22  23
ATOM     23  C   UNL     1     -31.190 -16.069   6.273  1.00  0.00    -0.000 C 
BRANCH  23  24
ATOM     24  C   UNL     1     -30.215 -17.252   6.398  1.00  0.00    -0.000 C 
BRANCH  24  25
ATOM     25  C   UNL     1     -30.417 -18.308   5.295  1.00  0.00    -0.000 C 
BRANCH  25  26
ATOM     26  C   UNL     1     -29.380 -19.447   5.377  1.00  0.00    -0.000 C 
BRANCH  26  27
ATOM     27  C   UNL     1     -29.410 -20.402   4.171  1.00  0.00    -0.000 C 
BRANCH  27  28
ATOM     28  C   UNL     1     -30.799 -20.498   3.517  1.00  0.00    -0.000 C 
BRANCH  28  29
ATOM     29  C   UNL     1     -30.725 -20.881   2.032  1.00  0.00    -0.003 C 
ATOM     30  C   UNL     1     -29.294 -20.916   1.500  1.00  0.00     0.004 C 
ENDBRANCH  28  29
ENDBRANCH  27  28
ENDBRANCH  26  27
ENDBRANCH  25  26
ENDBRANCH  24  25
ENDBRANCH  23  24
ENDBRANCH  22  23
ENDBRANCH  21  22
ENDBRANCH  20  21
ENDBRANCH  19  20
ENDBRANCH  18  19
ENDBRANCH  17  18
ENDBRANCH   1  17
TORSDOF 26
ENDMDL
MODEL 2
REMARK VINA RESULT:    -2.809      2.861      4.965
REMARK INTER + INTRA:         -12.825
REMARK INTER:                  -7.464
REMARK INTRA:                  -5.361
REMARK UNBOUND:                -5.746
REMARK SMILES CCCCCCCCCCCCCCCCCCCCCCCCCCCC(=O)[O-]
REMARK SMILES IDX 15 1 16 2 17 3 18 4 19 5 20 6 21 7 22 8 23 9 24 10 25 11
REMARK SMILES IDX 26 12 27 13 28 14 29 15 30 16 14 17 13 18 12 19 11 20 10 21
REMARK SMILES IDX 9 22 8 23 7 24 6 25 5 26 4 27 3 28 2 29 1 30
REMARK H PARENT
REMARK Flexibility Score: inf
ROOT
ATOM      1  C   UNL     1     -29.301 -11.766   0.177  1.00  0.00     0.000 C 
ENDROOT
BRANCH   1   2
ATOM      2  C   UNL     1     -29.795 -13.131   0.691  1.00  0.00     0.000 C 
BRANCH   2   3
ATOM      3  C   UNL     1     -29.482 -13.354   2.178  1.00  0.00     0.000 C 
BRANCH   3   4
ATOM      4  C   UNL     1     -28.715 -12.179   2.808  1.00  0.00     0.000 C 
BRANCH   4   5
ATOM      5  C   UNL     1     -29.311 -11.757   4.168  1.00  0.00     0.000 C 
BRANCH   5   6
ATOM      6  C   UNL     1     -28.323 -10.989   5.066  1.00  0.00     0.000 C 
BRANCH   6   7
ATOM      7  C   UNL     1     -26.927 -10.776   4.455  1.00  0.00     0.000 C 
BRANCH   7   8
ATOM      8  C   UNL     1     -25.827 -11.542   5.203  1.00  0.00     0.000 C 
BRANCH   8   9
ATOM      9  C   UNL     1     -26.435 -12.500   6.237  1.00  0.00     0.000 C 
BRANCH   9  10
ATOM     10  C   UNL     1     -26.072 -13.973   5.980  1.00  0.00     0.000 C 
BRANCH  10  11
ATOM     11  C   UNL     1     -26.890 -14.623   4.843  1.00  0.00     0.000 C 
BRANCH  11  12
ATOM     12  C   UNL     1     -25.988 -15.215   3.746  1.00  0.00     0.006 C 
BRANCH  12  13
ATOM     13  C   UNL     1     -24.879 -14.246   3.320  1.00  0.00     0.053 C 
BRANCH  13  14
ATOM     14  C   UNL     1     -23.708 -14.967   2.726  1.00  0.00     0.041 C 
ATOM     15  O   UNL     1     -22.559 -14.453   2.768  1.00  0.00    -0.550 OA
ATOM     16  O   UNL     1     -23.880 -16.218   2.148  1.00  0.00    -0.550 OA
ENDBRANCH  13  14
ENDBRANCH  12  13
ENDBRANCH  11  12
ENDBRANCH  10  11
ENDBRANCH   9  10
ENDBRANCH   8   9
ENDBRANCH   7   8
ENDBRANCH   6   7
ENDBRANCH   5   6
ENDBRANCH   4   5
ENDBRANCH   3   4
ENDBRANCH   2   3
ENDBRANCH   1   2
BRANCH   1  17
ATOM     17  C   UNL     1     -30.352 -11.044  -0.682  1.00  0.00     0.000 C 
BRANCH  17  18
ATOM     18  C   UNL     1     -31.738 -11.013  -0.018  1.00  0.00     0.000 C 
BRANCH  18  19
ATOM     19  C   UNL     1     -31.760 -10.198   1.287  1.00  0.00     0.000 C 
BRANCH  19  20
ATOM     20  C   UNL     1     -32.483 -10.903   2.456  1.00  0.00     0.000 C 
BRANCH  20  21
ATOM     21  C   UNL     1     -33.030 -12.287   2.057  1.00  0.00     0.000 C 
BRANCH  21  22
ATOM     22  C   UNL     1     -33.441 -13.137   3.269  1.00  0.00    -0.000 C 
BRANCH  22  23
ATOM     23  C   UNL     1     -32.868 -12.602   4.592  1.00  0.00    -0.000 C 
BRANCH  23  24
ATOM     24  C   UNL     1     -32.015 -13.650   5.328  1.00  0.00    -0.000 C 
BRANCH  24  25
ATOM     25  C   UNL     1     -31.866 -14.960   4.532  1.00  0.00    -0.000 C 
BRANCH  25  26
ATOM     26  C   UNL     1     -30.543 -15.689   4.846  1.00  0.00    -0.000 C 
BRANCH  26  27
ATOM     27  C   UNL     1     -30.439 -17.087   4.212  1.00  0.00    -0.000 C 
BRANCH  27  28
ATOM     28  C   UNL     1     -29.079 -17.341   3.540  1.00  0.00    -0.000 C 
BRANCH  28  29
ATOM     29  C   UNL     1     -29.040 -16.852   2.085  1.00  0.00    -0.003 C 
ATOM     30  C   UNL     1     -30.396 -16.952   1.390  1.00  0.00     0.004 C 
ENDBRANCH  28  29
ENDBRANCH  27  28
ENDBRANCH  26  27
ENDBRANCH  25  26
ENDBRANCH  24  25
ENDBRANCH  23  24
ENDBRANCH  22  23
ENDBRANCH  21  22
ENDBRANCH  20  21
ENDBRANCH  19  20
ENDBRANCH  18  19
ENDBRANCH  17  18
ENDBRANCH   1  17
TORSDOF 26
ENDMDL
MODEL 3
REMARK VINA RESULT:    -2.740     11.923     14.641
REMARK INTER + INTRA:         -12.650
REMARK INTER:                  -7.697
REMARK INTRA:                  -4.953
REMARK UNBOUND:                -5.746
REMARK SMILES CCCCCCCCCCCCCCCCCCCCCCCCCCCC(=O)[O-]
REMARK SMILES IDX 15 1 16 2 17 3 18 4 19 5 20 6 21 7 22 8 23 9 24 10 25 11
REMARK SMILES IDX 26 12 27 13 28 14 29 15 30 16 14 17 13 18 12 19 11 20 10 21
REMARK SMILES IDX 9 22 8 23 7 24 6 25 5 26 4 27 3 28 2 29 1 30
REMARK H PARENT
REMARK Flexibility Score: inf
ROOT
ATOM      1  C   UNL     1     -19.197 -26.244  -4.088  1.00  0.00     0.000 C 
ENDROOT
BRANCH   1   2
ATOM      2  C   UNL     1     -20.714 -26.232  -4.357  1.00  0.00     0.000 C 
BRANCH   2   3
ATOM      3  C   UNL     1     -21.521 -25.662  -3.181  1.00  0.00     0.000 C 
BRANCH   3   4
ATOM      4  C   UNL     1     -22.205 -24.327  -3.520  1.00  0.00     0.000 C 
BRANCH   4   5
ATOM      5  C   UNL     1     -21.705 -23.174  -2.623  1.00  0.00     0.000 C 
BRANCH   5   6
ATOM      6  C   UNL     1     -20.232 -22.795  -2.864  1.00  0.00     0.000 C 
BRANCH   6   7
ATOM      7  C   UNL     1     -20.011 -21.364  -3.385  1.00  0.00     0.000 C 
BRANCH   7   8
ATOM      8  C   UNL     1     -19.211 -21.325  -4.696  1.00  0.00     0.000 C 
BRANCH   8   9
ATOM      9  C   UNL     1     -19.235 -22.694  -5.390  1.00  0.00     0.000 C 
BRANCH   9  10
ATOM     10  C   UNL     1     -20.436 -22.869  -6.335  1.00  0.00     0.000 C 
BRANCH  10  11
ATOM     11  C   UNL     1     -20.449 -21.872  -7.514  1.00  0.00     0.000 C 
BRANCH  11  12
ATOM     12  C   UNL     1     -21.826 -21.213  -7.701  1.00  0.00     0.006 C 
BRANCH  12  13
ATOM     13  C   UNL     1     -22.647 -21.204  -6.405  1.00  0.00     0.053 C 
BRANCH  13  14
ATOM     14  C   UNL     1     -22.836 -19.815  -5.876  1.00  0.00     0.041 C 
ATOM     15  O   UNL     1     -21.839 -19.127  -5.533  1.00  0.00    -0.550 OA
ATOM     16  O   UNL     1     -24.110 -19.271  -5.786  1.00  0.00    -0.550 OA
ENDBRANCH  13  14
ENDBRANCH  12  13
ENDBRANCH  11  12
ENDBRANCH  10  11
ENDBRANCH   9  10
ENDBRANCH   8   9
ENDBRANCH   7   8
ENDBRANCH   6   7
ENDBRANCH   5   6
ENDBRANCH   4   5
ENDBRANCH   3   4
ENDBRANCH   2   3
ENDBRANCH   1   2
BRANCH   1  17
ATOM     17  C   UNL     1     -18.863 -26.083  -2.596  1.00  0.00     0.000 C 
BRANCH  17  18
ATOM     18  C   UNL     1     -17.609 -26.869  -2.183  1.00  0.00     0.000 C 
BRANCH  18  19
ATOM     19  C   UNL     1     -17.873 -27.862  -1.037  1.00  0.00     0.000 C 
BRANCH  19  20
ATOM     20  C   UNL     1     -19.369 -28.063  -0.712  1.00  0.00     0.000 C 
BRANCH  20  21
ATOM     21  C   UNL     1     -19.879 -29.452  -1.140  1.00  0.00     0.000 C 
BRANCH  21  22
ATOM     22  C   UNL     1     -20.033 -29.588  -2.663  1.00  0.00    -0.000 C 
BRANCH  22  23
ATOM     23  C   UNL     1     -21.465 -29.960  -3.085  1.00  0.00    -0.000 C 
BRANCH  23  24
ATOM     24  C   UNL     1     -22.503 -29.604  -2.007  1.00  0.00    -0.000 C 
BRANCH  24  25
ATOM     25  C   UNL     1     -23.530 -28.564  -2.491  1.00  0.00    -0.000 C 
BRANCH  25  26
ATOM     26  C   UNL     1     -23.973 -27.608  -1.364  1.00  0.00    -0.000 C 
BRANCH  26  27
ATOM     27  C   UNL     1     -23.100 -27.694  -0.100  1.00  0.00    -0.000 C 
BRANCH  27  28
ATOM     28  C   UNL     1     -22.465 -26.347   0.283  1.00  0.00    -0.000 C 
BRANCH  28  29
ATOM     29  C   UNL     1     -22.384 -26.144   1.803  1.00  0.00    -0.003 C 
ATOM     30  C   UNL     1     -21.226 -26.909   2.442  1.00  0.00     0.004 C 
ENDBRANCH  28  29
ENDBRANCH  27  28
ENDBRANCH  26  27
ENDBRANCH  25  26
ENDBRANCH  24  25
ENDBRANCH  23  24
ENDBRANCH  22  23
ENDBRANCH  21  22
ENDBRANCH  20  21
ENDBRANCH  19  20
ENDBRANCH  18  19
ENDBRANCH  17  18
ENDBRANCH   1  17
TORSDOF 26
ENDMDL
MODEL 4
REMARK VINA RESULT:    -2.718     10.241     14.549
REMARK INTER + INTRA:         -12.596
REMARK INTER:                  -7.283
REMARK INTRA:                  -5.313
REMARK UNBOUND:                -5.746
REMARK SMILES CCCCCCCCCCCCCCCCCCCCCCCCCCCC(=O)[O-]
REMARK SMILES IDX 15 1 16 2 17 3 18 4 19 5 20 6 21 7 22 8 23 9 24 10 25 11
REMARK SMILES IDX 26 12 27 13 28 14 29 15 30 16 14 17 13 18 12 19 11 20 10 21
REMARK SMILES IDX 9 22 8 23 7 24 6 25 5 26 4 27 3 28 2 29 1 30
REMARK H PARENT
REMARK Flexibility Score: inf
ROOT
ATOM      1  C   UNL     1     -22.428 -26.008   0.328  1.00  0.00     0.000 C 
ENDROOT
BRANCH   1   2
ATOM      2  C   UNL     1     -21.542 -26.622   1.428  1.00  0.00     0.000 C 
BRANCH   2   3
ATOM      3  C   UNL     1     -22.352 -27.126   2.631  1.00  0.00     0.000 C 
BRANCH   3   4
ATOM      4  C   UNL     1     -22.324 -28.657   2.769  1.00  0.00     0.000 C 
BRANCH   4   5
ATOM      5  C   UNL     1     -23.677 -29.299   2.392  1.00  0.00     0.000 C 
BRANCH   5   6
ATOM      6  C   UNL     1     -24.879 -28.347   2.542  1.00  0.00     0.000 C 
BRANCH   6   7
ATOM      7  C   UNL     1     -25.722 -28.167   1.267  1.00  0.00     0.000 C 
BRANCH   7   8
ATOM      8  C   UNL     1     -25.834 -26.699   0.830  1.00  0.00     0.000 C 
BRANCH   8   9
ATOM      9  C   UNL     1     -26.084 -26.597  -0.681  1.00  0.00     0.000 C 
BRANCH   9  10
ATOM     10  C   UNL     1     -26.314 -25.152  -1.157  1.00  0.00     0.000 C 
BRANCH  10  11
ATOM     11  C   UNL     1     -25.354 -24.709  -2.281  1.00  0.00     0.000 C 
BRANCH  11  12
ATOM     12  C   UNL     1     -24.376 -23.617  -1.811  1.00  0.00     0.006 C 
BRANCH  12  13
ATOM     13  C   UNL     1     -25.027 -22.639  -0.825  1.00  0.00     0.053 C 
BRANCH  13  14
ATOM     14  C   UNL     1     -24.224 -22.498   0.431  1.00  0.00     0.041 C 
ATOM     15  O   UNL     1     -24.376 -23.317   1.375  1.00  0.00    -0.550 OA
ATOM     16  O   UNL     1     -23.290 -21.477   0.551  1.00  0.00    -0.550 OA
ENDBRANCH  13  14
ENDBRANCH  12  13
ENDBRANCH  11  12
ENDBRANCH  10  11
ENDBRANCH   9  10
ENDBRANCH   8   9
ENDBRANCH   7   8
ENDBRANCH   6   7
ENDBRANCH   5   6
ENDBRANCH   4   5
ENDBRANCH   3   4
ENDBRANCH   2   3
ENDBRANCH   1   2
BRANCH   1  17
ATOM     17  C   UNL     1     -22.257 -26.712  -1.028  1.00  0.00     0.000 C 
BRANCH  17  18
ATOM     18  C   UNL     1     -22.801 -28.150  -1.021  1.00  0.00     0.000 C 
BRANCH  18  19
ATOM     19  C   UNL     1     -21.766 -29.186  -1.494  1.00  0.00     0.000 C 
BRANCH  19  20
ATOM     20  C   UNL     1     -20.861 -29.730  -0.367  1.00  0.00     0.000 C 
BRANCH  20  21
ATOM     21  C   UNL     1     -19.367 -29.676  -0.740  1.00  0.00     0.000 C 
BRANCH  21  22
ATOM     22  C   UNL     1     -18.682 -28.384  -0.267  1.00  0.00    -0.000 C 
BRANCH  22  23
ATOM     23  C   UNL     1     -17.979 -27.633  -1.411  1.00  0.00    -0.000 C 
BRANCH  23  24
ATOM     24  C   UNL     1     -18.915 -26.638  -2.120  1.00  0.00    -0.000 C 
BRANCH  24  25
ATOM     25  C   UNL     1     -19.373 -27.136  -3.503  1.00  0.00    -0.000 C 
BRANCH  25  26
ATOM     26  C   UNL     1     -18.912 -26.204  -4.644  1.00  0.00    -0.000 C 
BRANCH  26  27
ATOM     27  C   UNL     1     -19.299 -24.729  -4.434  1.00  0.00    -0.000 C 
BRANCH  27  28
ATOM     28  C   UNL     1     -20.791 -24.540  -4.115  1.00  0.00    -0.000 C 
BRANCH  28  29
ATOM     29  C   UNL     1     -21.026 -23.579  -2.940  1.00  0.00    -0.003 C 
ATOM     30  C   UNL     1     -20.093 -22.370  -2.970  1.00  0.00     0.004 C 
ENDBRANCH  28  29
ENDBRANCH  27  28
ENDBRANCH  26  27
ENDBRANCH  25  26
ENDBRANCH  24  25
ENDBRANCH  23  24
ENDBRANCH  22  23
ENDBRANCH  21  22
ENDBRANCH  20  21
ENDBRANCH  19  20
ENDBRANCH  18  19
ENDBRANCH  17  18
ENDBRANCH   1  17
TORSDOF 26
ENDMDL
MODEL 5
REMARK VINA RESULT:    -2.698      1.258      4.053
REMARK INTER + INTRA:         -12.546
REMARK INTER:                  -7.196
REMARK INTRA:                  -5.351
REMARK UNBOUND:                -5.746
REMARK SMILES CCCCCCCCCCCCCCCCCCCCCCCCCCCC(=O)[O-]
REMARK SMILES IDX 15 1 16 2 17 3 18 4 19 5 20 6 21 7 22 8 23 9 24 10 25 11
REMARK SMILES IDX 26 12 27 13 28 14 29 15 30 16 14 17 13 18 12 19 11 20 10 21
REMARK SMILES IDX 9 22 8 23 7 24 6 25 5 26 4 27 3 28 2 29 1 30
REMARK H PARENT
REMARK Flexibility Score: inf
ROOT
ATOM      1  C   UNL     1     -26.579 -16.349   3.628  1.00  0.00     0.000 C 
ENDROOT
BRANCH   1   2
ATOM      2  C   UNL     1     -25.203 -15.860   3.140  1.00  0.00     0.000 C 
BRANCH   2   3
ATOM      3  C   UNL     1     -24.409 -15.133   4.235  1.00  0.00     0.000 C 
BRANCH   3   4
ATOM      4  C   UNL     1     -23.925 -13.741   3.794  1.00  0.00     0.000 C 
BRANCH   4   5
ATOM      5  C   UNL     1     -24.615 -12.609   4.586  1.00  0.00     0.000 C 
BRANCH   5   6
ATOM      6  C   UNL     1     -26.108 -12.435   4.247  1.00  0.00     0.000 C 
BRANCH   6   7
ATOM      7  C   UNL     1     -27.059 -12.540   5.452  1.00  0.00     0.000 C 
BRANCH   7   8
ATOM      8  C   UNL     1     -28.302 -11.650   5.308  1.00  0.00     0.000 C 
BRANCH   8   9
ATOM      9  C   UNL     1     -29.542 -12.494   4.980  1.00  0.00     0.000 C 
BRANCH   9  10
ATOM     10  C   UNL     1     -30.289 -12.005   3.727  1.00  0.00     0.000 C 
BRANCH  10  11
ATOM     11  C   UNL     1     -29.370 -11.355   2.671  1.00  0.00     0.000 C 
BRANCH  11  12
ATOM     12  C   UNL     1     -29.143 -12.272   1.457  1.00  0.00     0.006 C 
BRANCH  12  13
ATOM     13  C   UNL     1     -30.443 -12.562   0.696  1.00  0.00     0.053 C 
BRANCH  13  14
ATOM     14  C   UNL     1     -30.755 -11.489  -0.302  1.00  0.00     0.041 C 
ATOM     15  O   UNL     1     -31.837 -10.850  -0.227  1.00  0.00    -0.550 OA
ATOM     16  O   UNL     1     -29.841 -11.179  -1.299  1.00  0.00    -0.550 OA
ENDBRANCH  13  14
ENDBRANCH  12  13
ENDBRANCH  11  12
ENDBRANCH  10  11
ENDBRANCH   9  10
ENDBRANCH   8   9
ENDBRANCH   7   8
ENDBRANCH   6   7
ENDBRANCH   5   6
ENDBRANCH   4   5
ENDBRANCH   3   4
ENDBRANCH   2   3
ENDBRANCH   1   2
BRANCH   1  17
ATOM     17  C   UNL     1     -26.717 -16.287   5.159  1.00  0.00     0.000 C 
BRANCH  17  18
ATOM     18  C   UNL     1     -28.156 -15.997   5.612  1.00  0.00     0.000 C 
BRANCH  18  19
ATOM     19  C   UNL     1     -28.563 -16.794   6.864  1.00  0.00     0.000 C 
BRANCH  19  20
ATOM     20  C   UNL     1     -28.923 -18.269   6.582  1.00  0.00     0.000 C 
BRANCH  20  21
ATOM     21  C   UNL     1     -30.025 -18.409   5.515  1.00  0.00     0.000 C 
BRANCH  21  22
ATOM     22  C   UNL     1     -29.557 -19.185   4.273  1.00  0.00    -0.000 C 
BRANCH  22  23
ATOM     23  C   UNL     1     -30.716 -19.550   3.329  1.00  0.00    -0.000 C 
BRANCH  23  24
ATOM     24  C   UNL     1     -30.610 -18.837   1.970  1.00  0.00    -0.000 C 
BRANCH  24  25
ATOM     25  C   UNL     1     -29.402 -17.885   1.890  1.00  0.00    -0.000 C 
BRANCH  25  26
ATOM     26  C   UNL     1     -29.814 -16.447   1.513  1.00  0.00    -0.000 C 
BRANCH  26  27
ATOM     27  C   UNL     1     -30.170 -15.565   2.722  1.00  0.00    -0.000 C 
BRANCH  27  28
ATOM     28  C   UNL     1     -31.684 -15.336   2.871  1.00  0.00    -0.000 C 
BRANCH  28  29
ATOM     29  C   UNL     1     -32.192 -15.656   4.284  1.00  0.00    -0.003 C 
ATOM     30  C   UNL     1     -33.167 -16.833   4.310  1.00  0.00     0.004 C 
ENDBRANCH  28  29
ENDBRANCH  27  28
ENDBRANCH  26  27
ENDBRANCH  25  26
ENDBRANCH  24  25
ENDBRANCH  23  24
ENDBRANCH  22  23
ENDBRANCH  21  22
ENDBRANCH  20  21
ENDBRANCH  19  20
ENDBRANCH  18  19
ENDBRANCH  17  18
ENDBRANCH   1  17
TORSDOF 26
ENDMDL
MODEL 6
REMARK VINA RESULT:    -2.691     12.612     16.000
REMARK INTER + INTRA:         -12.528
REMARK INTER:                  -7.330
REMARK INTRA:                  -5.198
REMARK UNBOUND:                -5.746
REMARK SMILES CCCCCCCCCCCCCCCCCCCCCCCCCCCC(=O)[O-]
REMARK SMILES IDX 15 1 16 2 17 3 18 4 19 5 20 6 21 7 22 8 23 9 24 10 25 11
REMARK SMILES IDX 26 12 27 13 28 14 29 15 30 16 14 17 13 18 12 19 11 20 10 21
REMARK SMILES IDX 9 22 8 23 7 24 6 25 5 26 4 27 3 28 2 29 1 30
REMARK H PARENT
REMARK Flexibility Score: inf
ROOT
ATOM      1  C   UNL     1     -20.583 -29.772  -1.187  1.00  0.00     0.000 C 
ENDROOT
BRANCH   1   2
ATOM      2  C   UNL     1     -21.571 -29.898  -0.013  1.00  0.00     0.000 C 
BRANCH   2   3
ATOM      3  C   UNL     1     -22.532 -28.703   0.086  1.00  0.00     0.000 C 
BRANCH   3   4
ATOM      4  C   UNL     1     -22.051 -27.634   1.082  1.00  0.00     0.000 C 
BRANCH   4   5
ATOM      5  C   UNL     1     -21.631 -26.328   0.375  1.00  0.00     0.000 C 
BRANCH   5   6
ATOM      6  C   UNL     1     -22.143 -26.214  -1.074  1.00  0.00     0.000 C 
BRANCH   6   7
ATOM      7  C   UNL     1     -22.188 -24.781  -1.631  1.00  0.00     0.000 C 
BRANCH   7   8
ATOM      8  C   UNL     1     -22.499 -24.736  -3.134  1.00  0.00     0.000 C 
BRANCH   8   9
ATOM      9  C   UNL     1     -21.327 -24.129  -3.917  1.00  0.00     0.000 C 
BRANCH   9  10
ATOM     10  C   UNL     1     -20.262 -23.492  -3.008  1.00  0.00     0.000 C 
BRANCH  10  11
ATOM     11  C   UNL     1     -20.367 -21.955  -2.912  1.00  0.00     0.000 C 
BRANCH  11  12
ATOM     12  C   UNL     1     -19.545 -21.248  -4.003  1.00  0.00     0.006 C 
BRANCH  12  13
ATOM     13  C   UNL     1     -20.385 -20.251  -4.810  1.00  0.00     0.053 C 
BRANCH  13  14
ATOM     14  C   UNL     1     -21.271 -20.944  -5.801  1.00  0.00     0.041 C 
ATOM     15  O   UNL     1     -22.499 -21.081  -5.564  1.00  0.00    -0.550 OA
ATOM     16  O   UNL     1     -20.744 -21.415  -6.995  1.00  0.00    -0.550 OA
ENDBRANCH  13  14
ENDBRANCH  12  13
ENDBRANCH  11  12
ENDBRANCH  10  11
ENDBRANCH   9  10
ENDBRANCH   8   9
ENDBRANCH   7   8
ENDBRANCH   6   7
ENDBRANCH   5   6
ENDBRANCH   4   5
ENDBRANCH   3   4
ENDBRANCH   2   3
ENDBRANCH   1   2
BRANCH   1  17
ATOM     17  C   UNL     1     -19.119 -29.721  -0.721  1.00  0.00     0.000 C 
BRANCH  17  18
ATOM     18  C   UNL     1     -18.661 -28.298  -0.365  1.00  0.00     0.000 C 
BRANCH  18  19
ATOM     19  C   UNL     1     -17.844 -27.632  -1.486  1.00  0.00     0.000 C 
BRANCH  19  20
ATOM     20  C   UNL     1     -18.612 -26.534  -2.255  1.00  0.00     0.000 C 
BRANCH  20  21
ATOM     21  C   UNL     1     -18.915 -26.942  -3.709  1.00  0.00     0.000 C 
BRANCH  21  22
ATOM     22  C   UNL     1     -20.231 -27.725  -3.847  1.00  0.00    -0.000 C 
BRANCH  22  23
ATOM     23  C   UNL     1     -20.768 -27.734  -5.288  1.00  0.00    -0.000 C 
BRANCH  23  24
ATOM     24  C   UNL     1     -19.654 -27.528  -6.329  1.00  0.00    -0.000 C 
BRANCH  24  25
ATOM     25  C   UNL     1     -19.888 -26.289  -7.213  1.00  0.00    -0.000 C 
BRANCH  25  26
ATOM     26  C   UNL     1     -18.608 -25.446  -7.390  1.00  0.00    -0.000 C 
BRANCH  26  27
ATOM     27  C   UNL     1     -18.476 -24.296  -6.375  1.00  0.00    -0.000 C 
BRANCH  27  28
ATOM     28  C   UNL     1     -17.092 -24.242  -5.707  1.00  0.00    -0.000 C 
BRANCH  28  29
ATOM     29  C   UNL     1     -16.258 -25.503  -5.974  1.00  0.00    -0.003 C 
ATOM     30  C   UNL     1     -15.295 -25.829  -4.833  1.00  0.00     0.004 C 
ENDBRANCH  28  29
ENDBRANCH  27  28
ENDBRANCH  26  27
ENDBRANCH  25  26
ENDBRANCH  24  25
ENDBRANCH  23  24
ENDBRANCH  22  23
ENDBRANCH  21  22
ENDBRANCH  20  21
ENDBRANCH  19  20
ENDBRANCH  18  19
ENDBRANCH  17  18
ENDBRANCH   1  17
TORSDOF 26
ENDMDL
MODEL 7
REMARK VINA RESULT:    -2.689     12.006     15.806
REMARK INTER + INTRA:         -12.523
REMARK INTER:                  -8.004
REMARK INTRA:                  -4.518
REMARK UNBOUND:                -5.746
REMARK SMILES CCCCCCCCCCCCCCCCCCCCCCCCCCCC(=O)[O-]
REMARK SMILES IDX 15 1 16 2 17 3 18 4 19 5 20 6 21 7 22 8 23 9 24 10 25 11
REMARK SMILES IDX 26 12 27 13 28 14 29 15 30 16 14 17 13 18 12 19 11 20 10 21
REMARK SMILES IDX 9 22 8 23 7 24 6 25 5 26 4 27 3 28 2 29 1 30
REMARK H PARENT
REMARK Flexibility Score: inf
ROOT
ATOM      1  C   UNL     1     -17.943 -27.580  -1.519  1.00  0.00     0.000 C 
ENDROOT
BRANCH   1   2
ATOM      2  C   UNL     1     -18.747 -28.224  -0.374  1.00  0.00     0.000 C 
BRANCH   2   3
ATOM      3  C   UNL     1     -19.211 -29.651  -0.704  1.00  0.00     0.000 C 
BRANCH   3   4
ATOM      4  C   UNL     1     -20.515 -29.680  -1.518  1.00  0.00     0.000 C 
BRANCH   4   5
ATOM      5  C   UNL     1     -21.760 -29.818  -0.616  1.00  0.00     0.000 C 
BRANCH   5   6
ATOM      6  C   UNL     1     -22.802 -28.702  -0.823  1.00  0.00     0.000 C 
BRANCH   6   7
ATOM      7  C   UNL     1     -22.245 -27.406  -1.438  1.00  0.00     0.000 C 
BRANCH   7   8
ATOM      8  C   UNL     1     -21.923 -26.337  -0.384  1.00  0.00     0.000 C 
BRANCH   8   9
ATOM      9  C   UNL     1     -23.069 -25.323  -0.267  1.00  0.00     0.000 C 
BRANCH   9  10
ATOM     10  C   UNL     1     -23.603 -25.180   1.169  1.00  0.00     0.000 C 
BRANCH  10  11
ATOM     11  C   UNL     1     -23.448 -26.460   2.018  1.00  0.00     0.000 C 
BRANCH  11  12
ATOM     12  C   UNL     1     -22.522 -26.245   3.227  1.00  0.00     0.006 C 
BRANCH  12  13
ATOM     13  C   UNL     1     -21.579 -27.433   3.456  1.00  0.00     0.053 C 
BRANCH  13  14
ATOM     14  C   UNL     1     -22.334 -28.696   3.738  1.00  0.00     0.041 C 
ATOM     15  O   UNL     1     -23.028 -28.798   4.784  1.00  0.00    -0.550 OA
ATOM     16  O   UNL     1     -22.291 -29.750   2.836  1.00  0.00    -0.550 OA
ENDBRANCH  13  14
ENDBRANCH  12  13
ENDBRANCH  11  12
ENDBRANCH  10  11
ENDBRANCH   9  10
ENDBRANCH   8   9
ENDBRANCH   7   8
ENDBRANCH   6   7
ENDBRANCH   5   6
ENDBRANCH   4   5
ENDBRANCH   3   4
ENDBRANCH   2   3
ENDBRANCH   1   2
BRANCH   1  17
ATOM     17  C   UNL     1     -18.726 -26.467  -2.235  1.00  0.00     0.000 C 
BRANCH  17  18
ATOM     18  C   UNL     1     -19.101 -26.842  -3.677  1.00  0.00     0.000 C 
BRANCH  18  19
ATOM     19  C   UNL     1     -18.556 -25.847  -4.717  1.00  0.00     0.000 C 
BRANCH  19  20
ATOM     20  C   UNL     1     -19.541 -25.537  -5.866  1.00  0.00     0.000 C 
BRANCH  20  21
ATOM     21  C   UNL     1     -20.973 -26.008  -5.552  1.00  0.00     0.000 C 
BRANCH  21  22
ATOM     22  C   UNL     1     -21.933 -24.844  -5.259  1.00  0.00    -0.000 C 
BRANCH  22  23
ATOM     23  C   UNL     1     -22.149 -24.617  -3.753  1.00  0.00    -0.000 C 
BRANCH  23  24
ATOM     24  C   UNL     1     -21.756 -23.197  -3.312  1.00  0.00    -0.000 C 
BRANCH  24  25
ATOM     25  C   UNL     1     -20.257 -23.069  -2.987  1.00  0.00    -0.000 C 
BRANCH  25  26
ATOM     26  C   UNL     1     -19.536 -22.077  -3.925  1.00  0.00    -0.000 C 
BRANCH  26  27
ATOM     27  C   UNL     1     -20.470 -21.390  -4.936  1.00  0.00    -0.000 C 
BRANCH  27  28
ATOM     28  C   UNL     1     -20.593 -19.874  -4.705  1.00  0.00    -0.000 C 
BRANCH  28  29
ATOM     29  C   UNL     1     -19.687 -19.377  -3.568  1.00  0.00    -0.003 C 
ATOM     30  C   UNL     1     -18.463 -18.617  -4.077  1.00  0.00     0.004 C 
ENDBRANCH  28  29
ENDBRANCH  27  28
ENDBRANCH  26  27
ENDBRANCH  25  26
ENDBRANCH  24  25
ENDBRANCH  23  24
ENDBRANCH  22  23
ENDBRANCH  21  22
ENDBRANCH  20  21
ENDBRANCH  19  20
ENDBRANCH  18  19
ENDBRANCH  17  18
ENDBRANCH   1  17
TORSDOF 26
ENDMDL
MODEL 8
REMARK VINA RESULT:    -2.657     12.086     15.824
REMARK INTER + INTRA:         -12.442
REMARK INTER:                  -7.016
REMARK INTRA:                  -5.426
REMARK UNBOUND:                -5.746
REMARK SMILES CCCCCCCCCCCCCCCCCCCCCCCCCCCC(=O)[O-]
REMARK SMILES IDX 15 1 16 2 17 3 18 4 19 5 20 6 21 7 22 8 23 9 24 10 25 11
REMARK SMILES IDX 26 12 27 13 28 14 29 15 30 16 14 17 13 18 12 19 11 20 10 21
REMARK SMILES IDX 9 22 8 23 7 24 6 25 5 26 4 27 3 28 2 29 1 30
REMARK H PARENT
REMARK Flexibility Score: inf
ROOT
ATOM      1  C   UNL     1     -21.407 -27.996  -4.930  1.00  0.00     0.000 C 
ENDROOT
BRANCH   1   2
ATOM      2  C   UNL     1     -20.131 -28.854  -4.845  1.00  0.00     0.000 C 
BRANCH   2   3
ATOM      3  C   UNL     1     -20.078 -29.715  -3.574  1.00  0.00     0.000 C 
BRANCH   3   4
ATOM      4  C   UNL     1     -21.187 -29.361  -2.569  1.00  0.00     0.000 C 
BRANCH   4   5
ATOM      5  C   UNL     1     -20.827 -29.790  -1.130  1.00  0.00     0.000 C 
BRANCH   5   6
ATOM      6  C   UNL     1     -19.328 -29.655  -0.800  1.00  0.00     0.000 C 
BRANCH   6   7
ATOM      7  C   UNL     1     -18.878 -28.235  -0.414  1.00  0.00     0.000 C 
BRANCH   7   8
ATOM      8  C   UNL     1     -17.688 -27.740  -1.249  1.00  0.00     0.000 C 
BRANCH   8   9
ATOM      9  C   UNL     1     -18.148 -26.737  -2.315  1.00  0.00     0.000 C 
BRANCH   9  10
ATOM     10  C   UNL     1     -19.602 -26.274  -2.118  1.00  0.00     0.000 C 
BRANCH  10  11
ATOM     11  C   UNL     1     -19.880 -24.855  -2.657  1.00  0.00     0.000 C 
BRANCH  11  12
ATOM     12  C   UNL     1     -21.349 -24.439  -2.468  1.00  0.00     0.006 C 
BRANCH  12  13
ATOM     13  C   UNL     1     -22.232 -25.613  -2.024  1.00  0.00     0.053 C 
BRANCH  13  14
ATOM     14  C   UNL     1     -22.727 -25.437  -0.621  1.00  0.00     0.041 C 
ATOM     15  O   UNL     1     -22.264 -26.151   0.307  1.00  0.00    -0.550 OA
ATOM     16  O   UNL     1     -23.680 -24.470  -0.334  1.00  0.00    -0.550 OA
ENDBRANCH  13  14
ENDBRANCH  12  13
ENDBRANCH  11  12
ENDBRANCH  10  11
ENDBRANCH   9  10
ENDBRANCH   8   9
ENDBRANCH   7   8
ENDBRANCH   6   7
ENDBRANCH   5   6
ENDBRANCH   4   5
ENDBRANCH   3   4
ENDBRANCH   2   3
ENDBRANCH   1   2
BRANCH   1  17
ATOM     17  C   UNL     1     -21.130 -26.581  -5.466  1.00  0.00     0.000 C 
BRANCH  17  18
ATOM     18  C   UNL     1     -19.931 -26.537  -6.427  1.00  0.00     0.000 C 
BRANCH  18  19
ATOM     19  C   UNL     1     -18.804 -25.610  -5.939  1.00  0.00     0.000 C 
BRANCH  19  20
ATOM     20  C   UNL     1     -18.771 -24.236  -6.643  1.00  0.00     0.000 C 
BRANCH  20  21
ATOM     21  C   UNL     1     -17.867 -23.225  -5.913  1.00  0.00     0.000 C 
BRANCH  21  22
ATOM     22  C   UNL     1     -18.490 -21.822  -5.826  1.00  0.00    -0.000 C 
BRANCH  22  23
ATOM     23  C   UNL     1     -19.134 -21.541  -4.458  1.00  0.00    -0.000 C 
BRANCH  23  24
ATOM     24  C   UNL     1     -20.670 -21.606  -4.509  1.00  0.00    -0.000 C 
BRANCH  24  25
ATOM     25  C   UNL     1     -21.256 -20.853  -5.717  1.00  0.00    -0.000 C 
BRANCH  25  26
ATOM     26  C   UNL     1     -22.054 -21.782  -6.656  1.00  0.00    -0.000 C 
BRANCH  26  27
ATOM     27  C   UNL     1     -22.341 -23.170  -6.058  1.00  0.00    -0.000 C 
BRANCH  27  28
ATOM     28  C   UNL     1     -23.844 -23.476  -5.948  1.00  0.00    -0.000 C 
BRANCH  28  29
ATOM     29  C   UNL     1     -24.578 -22.497  -5.019  1.00  0.00    -0.003 C 
ATOM     30  C   UNL     1     -24.457 -22.877  -3.544  1.00  0.00     0.004 C 
ENDBRANCH  28  29
ENDBRANCH  27  28
ENDBRANCH  26  27
ENDBRANCH  25  26
ENDBRANCH  24  25
ENDBRANCH  23  24
ENDBRANCH  22  23
ENDBRANCH  21  22
ENDBRANCH  20  21
ENDBRANCH  19  20
ENDBRANCH  18  19
ENDBRANCH  17  18
ENDBRANCH   1  17
TORSDOF 26
ENDMDL
MODEL 9
REMARK VINA RESULT:    -2.644     11.457     14.351
REMARK INTER + INTRA:         -12.409
REMARK INTER:                  -6.912
REMARK INTRA:                  -5.497
REMARK UNBOUND:                -5.746
REMARK SMILES CCCCCCCCCCCCCCCCCCCCCCCCCCCC(=O)[O-]
REMARK SMILES IDX 15 1 16 2 17 3 18 4 19 5 20 6 21 7 22 8 23 9 24 10 25 11
REMARK SMILES IDX 26 12 27 13 28 14 29 15 30 16 14 17 13 18 12 19 11 20 10 21
REMARK SMILES IDX 9 22 8 23 7 24 6 25 5 26 4 27 3 28 2 29 1 30
REMARK H PARENT
REMARK Flexibility Score: inf
ROOT
ATOM      1  C   UNL     1     -23.437 -27.838  -4.176  1.00  0.00     0.000 C 
ENDROOT
BRANCH   1   2
ATOM      2  C   UNL     1     -23.123 -26.591  -5.023  1.00  0.00     0.000 C 
BRANCH   2   3
ATOM      3  C   UNL     1     -22.705 -25.384  -4.170  1.00  0.00     0.000 C 
BRANCH   3   4
ATOM      4  C   UNL     1     -23.894 -24.487  -3.786  1.00  0.00     0.000 C 
BRANCH   4   5
ATOM      5  C   UNL     1     -23.493 -23.392  -2.774  1.00  0.00     0.000 C 
BRANCH   5   6
ATOM      6  C   UNL     1     -22.018 -23.466  -2.333  1.00  0.00     0.000 C 
BRANCH   6   7
ATOM      7  C   UNL     1     -21.172 -22.236  -2.705  1.00  0.00     0.000 C 
BRANCH   7   8
ATOM      8  C   UNL     1     -19.755 -22.606  -3.166  1.00  0.00     0.000 C 
BRANCH   8   9
ATOM      9  C   UNL     1     -19.788 -23.281  -4.544  1.00  0.00     0.000 C 
BRANCH   9  10
ATOM     10  C   UNL     1     -20.184 -22.318  -5.677  1.00  0.00     0.000 C 
BRANCH  10  11
ATOM     11  C   UNL     1     -21.466 -22.738  -6.428  1.00  0.00     0.000 C 
BRANCH  11  12
ATOM     12  C   UNL     1     -22.625 -21.755  -6.190  1.00  0.00     0.006 C 
BRANCH  12  13
ATOM     13  C   UNL     1     -22.131 -20.348  -5.833  1.00  0.00     0.053 C 
BRANCH  13  14
ATOM     14  C   UNL     1     -23.161 -19.303  -6.136  1.00  0.00     0.041 C 
ATOM     15  O   UNL     1     -24.374 -19.513  -5.870  1.00  0.00    -0.550 OA
ATOM     16  O   UNL     1     -22.780 -18.088  -6.689  1.00  0.00    -0.550 OA
ENDBRANCH  13  14
ENDBRANCH  12  13
ENDBRANCH  11  12
ENDBRANCH  10  11
ENDBRANCH   9  10
ENDBRANCH   8   9
ENDBRANCH   7   8
ENDBRANCH   6   7
ENDBRANCH   5   6
ENDBRANCH   4   5
ENDBRANCH   3   4
ENDBRANCH   2   3
ENDBRANCH   1   2
BRANCH   1  17
ATOM     17  C   UNL     1     -22.188 -28.411  -3.485  1.00  0.00     0.000 C 
BRANCH  17  18
ATOM     18  C   UNL     1     -21.066 -28.750  -4.478  1.00  0.00     0.000 C 
BRANCH  18  19
ATOM     19  C   UNL     1     -19.676 -28.304  -3.990  1.00  0.00     0.000 C 
BRANCH  19  20
ATOM     20  C   UNL     1     -19.575 -26.795  -3.677  1.00  0.00     0.000 C 
BRANCH  20  21
ATOM     21  C   UNL     1     -19.341 -26.522  -2.179  1.00  0.00     0.000 C 
BRANCH  21  22
ATOM     22  C   UNL     1     -18.389 -27.539  -1.530  1.00  0.00    -0.000 C 
BRANCH  22  23
ATOM     23  C   UNL     1     -19.035 -28.288  -0.351  1.00  0.00    -0.000 C 
BRANCH  23  24
ATOM     24  C   UNL     1     -19.448 -29.722  -0.724  1.00  0.00    -0.000 C 
BRANCH  24  25
ATOM     25  C   UNL     1     -20.921 -30.022  -0.393  1.00  0.00    -0.000 C 
BRANCH  25  26
ATOM     26  C   UNL     1     -21.550 -28.941   0.511  1.00  0.00    -0.000 C 
BRANCH  26  27
ATOM     27  C   UNL     1     -23.087 -28.895   0.445  1.00  0.00    -0.000 C 
BRANCH  27  28
ATOM     28  C   UNL     1     -23.617 -27.669  -0.318  1.00  0.00    -0.000 C 
BRANCH  28  29
ATOM     29  C   UNL     1     -22.642 -26.483  -0.279  1.00  0.00    -0.003 C 
ATOM     30  C   UNL     1     -23.167 -25.312   0.550  1.00  0.00     0.004 C 
ENDBRANCH  28  29
ENDBRANCH  27  28
ENDBRANCH  26  27
ENDBRANCH  25  26
ENDBRANCH  24  25
ENDBRANCH  23  24
ENDBRANCH  22  23
ENDBRANCH  21  22
ENDBRANCH  20  21
ENDBRANCH  19  20
ENDBRANCH  18  19
ENDBRANCH  17  18
ENDBRANCH   1  17
TORSDOF 26
ENDMDL
