MODEL 1
REMARK VINA RESULT:    -4.756      0.000      0.000
REMARK INTER + INTRA:          -8.148
REMARK INTER:                  -7.258
REMARK INTRA:                  -0.890
REMARK UNBOUND:                -0.890
REMARK SMILES O=C([O-])CCCCCCCCC(=O)[O-]
REMARK SMILES IDX 7 1 6 2 5 3 4 4 2 5 1 6 3 7 8 8 9 9 10 10 11 11 12 12 13 13
REMARK SMILES IDX 14 14
REMARK H PARENT
REMARK Flexibility Score: inf
ROOT
ATOM      1  C   UNL     1      23.053   0.410 -15.251  1.00  0.00     0.000 C 
ENDROOT
BRANCH   1   2
ATOM      2  C   UNL     1      22.366  -0.599 -16.177  1.00  0.00     0.000 C 
BRANCH   2   3
ATOM      3  C   UNL     1      21.506  -1.584 -15.378  1.00  0.00     0.006 C 
BRANCH   3   4
ATOM      4  C   UNL     1      20.014  -1.336 -15.622  1.00  0.00     0.053 C 
BRANCH   4   5
ATOM      5  C   UNL     1      19.678  -1.538 -17.066  1.00  0.00     0.041 C 
ATOM      6  O   UNL     1      19.362  -0.554 -17.785  1.00  0.00    -0.550 OA
ATOM      7  O   UNL     1      19.663  -2.817 -17.605  1.00  0.00    -0.550 OA
ENDBRANCH   4   5
ENDBRANCH   3   4
ENDBRANCH   2   3
ENDBRANCH   1   2
BRANCH   1   8
ATOM      8  C   UNL     1      22.565   1.839 -15.534  1.00  0.00     0.000 C 
BRANCH   8   9
ATOM      9  C   UNL     1      21.159   2.105 -14.976  1.00  0.00     0.000 C 
BRANCH   9  10
ATOM     10  C   UNL     1      20.146   2.472 -16.073  1.00  0.00     0.006 C 
BRANCH  10  11
ATOM     11  C   UNL     1      18.772   2.838 -15.495  1.00  0.00     0.053 C 
BRANCH  11  12
ATOM     12  C   UNL     1      17.741   1.799 -15.817  1.00  0.00     0.041 C 
ATOM     13  O   UNL     1      17.475   0.891 -14.987  1.00  0.00    -0.550 OA
ATOM     14  O   UNL     1      17.053   1.854 -17.022  1.00  0.00    -0.550 OA
ENDBRANCH  11  12
ENDBRANCH  10  11
ENDBRANCH   9  10
ENDBRANCH   8   9
ENDBRANCH   1   8
TORSDOF 9
ENDMDL
MODEL 2
REMARK VINA RESULT:    -4.751      1.952      4.078
REMARK INTER + INTRA:          -8.141
REMARK INTER:                  -7.319
REMARK INTRA:                  -0.823
REMARK UNBOUND:                -0.890
REMARK SMILES O=C([O-])CCCCCCCCC(=O)[O-]
REMARK SMILES IDX 7 1 6 2 5 3 4 4 2 5 1 6 3 7 8 8 9 9 10 10 11 11 12 12 13 13
REMARK SMILES IDX 14 14
REMARK H PARENT
REMARK Flexibility Score: inf
ROOT
ATOM      1  C   UNL     1      21.014  -1.655 -16.035  1.00  0.00     0.000 C 
ENDROOT
BRANCH   1   2
ATOM      2  C   UNL     1      20.475  -0.729 -14.939  1.00  0.00     0.000 C 
BRANCH   2   3
ATOM      3  C   UNL     1      20.592   0.742 -15.353  1.00  0.00     0.006 C 
BRANCH   3   4
ATOM      4  C   UNL     1      19.690   1.630 -14.490  1.00  0.00     0.053 C 
BRANCH   4   5
ATOM      5  C   UNL     1      18.367   1.839 -15.156  1.00  0.00     0.041 C 
ATOM      6  O   UNL     1      18.110   2.933 -15.723  1.00  0.00    -0.550 OA
ATOM      7  O   UNL     1      17.399   0.845 -15.106  1.00  0.00    -0.550 OA
ENDBRANCH   4   5
ENDBRANCH   3   4
ENDBRANCH   2   3
ENDBRANCH   1   2
BRANCH   1   8
ATOM      8  C   UNL     1      19.887  -2.109 -16.976  1.00  0.00     0.000 C 
BRANCH   8   9
ATOM      9  C   UNL     1      20.320  -2.132 -18.450  1.00  0.00     0.000 C 
BRANCH   9  10
ATOM     10  C   UNL     1      21.009  -0.827 -18.884  1.00  0.00     0.006 C 
BRANCH  10  11
ATOM     11  C   UNL     1      20.083   0.068 -19.718  1.00  0.00     0.053 C 
BRANCH  11  12
ATOM     12  C   UNL     1      19.572   1.231 -18.923  1.00  0.00     0.041 C 
ATOM     13  O   UNL     1      20.347   2.169 -18.602  1.00  0.00    -0.550 OA
ATOM     14  O   UNL     1      18.231   1.292 -18.565  1.00  0.00    -0.550 OA
ENDBRANCH  11  12
ENDBRANCH  10  11
ENDBRANCH   9  10
ENDBRANCH   8   9
ENDBRANCH   1   8
TORSDOF 9
ENDMDL
MODEL 3
REMARK VINA RESULT:    -4.617      3.942      4.791
REMARK INTER + INTRA:          -7.936
REMARK INTER:                  -7.519
REMARK INTRA:                  -0.417
REMARK UNBOUND:                -0.890
REMARK SMILES O=C([O-])CCCCCCCCC(=O)[O-]
REMARK SMILES IDX 7 1 6 2 5 3 4 4 2 5 1 6 3 7 8 8 9 9 10 10 11 11 12 12 13 13
REMARK SMILES IDX 14 14
REMARK H PARENT
REMARK Flexibility Score: inf
ROOT
ATOM      1  C   UNL     1      23.284  -0.963 -14.922  1.00  0.00     0.000 C 
ENDROOT
BRANCH   1   2
ATOM      2  C   UNL     1      23.919   0.432 -14.902  1.00  0.00     0.000 C 
BRANCH   2   3
ATOM      3  C   UNL     1      25.039   0.513 -13.858  1.00  0.00     0.006 C 
BRANCH   3   4
ATOM      4  C   UNL     1      25.138  -0.788 -13.055  1.00  0.00     0.053 C 
BRANCH   4   5
ATOM      5  C   UNL     1      26.569  -1.137 -12.796  1.00  0.00     0.041 C 
ATOM      6  O   UNL     1      27.434  -0.227 -12.691  1.00  0.00    -0.550 OA
ATOM      7  O   UNL     1      26.959  -2.467 -12.723  1.00  0.00    -0.550 OA
ENDBRANCH   4   5
ENDBRANCH   3   4
ENDBRANCH   2   3
ENDBRANCH   1   2
BRANCH   1   8
ATOM      8  C   UNL     1      22.048  -0.992 -15.833  1.00  0.00     0.000 C 
BRANCH   8   9
ATOM      9  C   UNL     1      20.732  -0.868 -15.049  1.00  0.00     0.000 C 
BRANCH   9  10
ATOM     10  C   UNL     1      20.160   0.559 -15.076  1.00  0.00     0.006 C 
BRANCH  10  11
ATOM     11  C   UNL     1      19.267   0.803 -16.300  1.00  0.00     0.053 C 
BRANCH  11  12
ATOM     12  C   UNL     1      17.889   1.239 -15.903  1.00  0.00     0.041 C 
ATOM     13  O   UNL     1      17.405   0.881 -14.797  1.00  0.00    -0.550 OA
ATOM     14  O   UNL     1      17.155   2.067 -16.741  1.00  0.00    -0.550 OA
ENDBRANCH  11  12
ENDBRANCH  10  11
ENDBRANCH   9  10
ENDBRANCH   8   9
ENDBRANCH   1   8
TORSDOF 9
ENDMDL
MODEL 4
REMARK VINA RESULT:    -4.586      7.955      9.751
REMARK INTER + INTRA:          -7.889
REMARK INTER:                  -6.939
REMARK INTRA:                  -0.950
REMARK UNBOUND:                -0.890
REMARK SMILES O=C([O-])CCCCCCCCC(=O)[O-]
REMARK SMILES IDX 7 1 6 2 5 3 4 4 2 5 1 6 3 7 8 8 9 9 10 10 11 11 12 12 13 13
REMARK SMILES IDX 14 14
REMARK H PARENT
REMARK Flexibility Score: inf
ROOT
ATOM      1  C   UNL     1      18.699  -0.075 -22.625  1.00  0.00     0.000 C 
ENDROOT
BRANCH   1   2
ATOM      2  C   UNL     1      17.713   1.061 -22.327  1.00  0.00     0.000 C 
BRANCH   2   3
ATOM      3  C   UNL     1      16.815   1.344 -23.536  1.00  0.00     0.006 C 
BRANCH   3   4
ATOM      4  C   UNL     1      16.367   0.040 -24.206  1.00  0.00     0.053 C 
BRANCH   4   5
ATOM      5  C   UNL     1      16.004   0.283 -25.636  1.00  0.00     0.041 C 
ATOM      6  O   UNL     1      16.352  -0.537 -26.526  1.00  0.00    -0.550 OA
ATOM      7  O   UNL     1      15.327   1.441 -25.996  1.00  0.00    -0.550 OA
ENDBRANCH   4   5
ENDBRANCH   3   4
ENDBRANCH   2   3
ENDBRANCH   1   2
BRANCH   1   8
ATOM      8  C   UNL     1      20.057   0.481 -23.078  1.00  0.00     0.000 C 
BRANCH   8   9
ATOM      9  C   UNL     1      20.674  -0.328 -24.229  1.00  0.00     0.000 C 
BRANCH   9  10
ATOM     10  C   UNL     1      19.764  -0.381 -25.468  1.00  0.00     0.006 C 
BRANCH  10  11
ATOM     11  C   UNL     1      19.904  -1.703 -26.234  1.00  0.00     0.053 C 
BRANCH  11  12
ATOM     12  C   UNL     1      19.641  -2.885 -25.350  1.00  0.00     0.041 C 
ATOM     13  O   UNL     1      20.534  -3.754 -25.171  1.00  0.00    -0.550 OA
ATOM     14  O   UNL     1      18.420  -3.008 -24.700  1.00  0.00    -0.550 OA
ENDBRANCH  11  12
ENDBRANCH  10  11
ENDBRANCH   9  10
ENDBRANCH   8   9
ENDBRANCH   1   8
TORSDOF 9
ENDMDL
MODEL 5
REMARK VINA RESULT:    -4.566      5.613      6.825
REMARK INTER + INTRA:          -7.858
REMARK INTER:                  -7.471
REMARK INTRA:                  -0.387
REMARK UNBOUND:                -0.890
REMARK SMILES O=C([O-])CCCCCCCCC(=O)[O-]
REMARK SMILES IDX 7 1 6 2 5 3 4 4 2 5 1 6 3 7 8 8 9 9 10 10 11 11 12 12 13 13
REMARK SMILES IDX 14 14
REMARK H PARENT
REMARK Flexibility Score: inf
ROOT
ATOM      1  C   UNL     1      20.279   0.680 -21.238  1.00  0.00     0.000 C 
ENDROOT
BRANCH   1   2
ATOM      2  C   UNL     1      19.952  -0.175 -20.008  1.00  0.00     0.000 C 
BRANCH   2   3
ATOM      3  C   UNL     1      21.039  -0.038 -18.936  1.00  0.00     0.006 C 
BRANCH   3   4
ATOM      4  C   UNL     1      21.243  -1.358 -18.187  1.00  0.00     0.053 C 
BRANCH   4   5
ATOM      5  C   UNL     1      19.960  -1.813 -17.567  1.00  0.00     0.041 C 
ATOM      6  O   UNL     1      19.402  -1.114 -16.681  1.00  0.00    -0.550 OA
ATOM      7  O   UNL     1      19.406  -3.034 -17.930  1.00  0.00    -0.550 OA
ENDBRANCH   4   5
ENDBRANCH   3   4
ENDBRANCH   2   3
ENDBRANCH   1   2
BRANCH   1   8
ATOM      8  C   UNL     1      19.300   0.390 -22.386  1.00  0.00     0.000 C 
BRANCH   8   9
ATOM      9  C   UNL     1      18.042   1.271 -22.327  1.00  0.00     0.000 C 
BRANCH   9  10
ATOM     10  C   UNL     1      16.778   0.528 -22.789  1.00  0.00     0.006 C 
BRANCH  10  11
ATOM     11  C   UNL     1      16.460   0.789 -24.268  1.00  0.00     0.053 C 
BRANCH  11  12
ATOM     12  C   UNL     1      16.429  -0.483 -25.060  1.00  0.00     0.041 C 
ATOM     13  O   UNL     1      16.160  -0.457 -26.290  1.00  0.00    -0.550 OA
ATOM     14  O   UNL     1      16.729  -1.691 -24.446  1.00  0.00    -0.550 OA
ENDBRANCH  11  12
ENDBRANCH  10  11
ENDBRANCH   9  10
ENDBRANCH   8   9
ENDBRANCH   1   8
TORSDOF 9
ENDMDL
MODEL 6
REMARK VINA RESULT:    -4.536      1.684      2.623
REMARK INTER + INTRA:          -7.813
REMARK INTER:                  -6.765
REMARK INTRA:                  -1.048
REMARK UNBOUND:                -0.890
REMARK SMILES O=C([O-])CCCCCCCCC(=O)[O-]
REMARK SMILES IDX 7 1 6 2 5 3 4 4 2 5 1 6 3 7 8 8 9 9 10 10 11 11 12 12 13 13
REMARK SMILES IDX 14 14
REMARK H PARENT
REMARK Flexibility Score: inf
ROOT
ATOM      1  C   UNL     1      21.538  -1.349 -16.234  1.00  0.00     0.000 C 
ENDROOT
BRANCH   1   2
ATOM      2  C   UNL     1      20.170  -1.926 -16.616  1.00  0.00     0.000 C 
BRANCH   2   3
ATOM      3  C   UNL     1      19.462  -1.032 -17.641  1.00  0.00     0.006 C 
BRANCH   3   4
ATOM      4  C   UNL     1      20.272  -0.932 -18.938  1.00  0.00     0.053 C 
BRANCH   4   5
ATOM      5  C   UNL     1      20.573   0.497 -19.259  1.00  0.00     0.041 C 
ATOM      6  O   UNL     1      21.766   0.899 -19.296  1.00  0.00    -0.550 OA
ATOM      7  O   UNL     1      19.537   1.397 -19.467  1.00  0.00    -0.550 OA
ENDBRANCH   4   5
ENDBRANCH   3   4
ENDBRANCH   2   3
ENDBRANCH   1   2
BRANCH   1   8
ATOM      8  C   UNL     1      21.402  -0.308 -15.113  1.00  0.00     0.000 C 
BRANCH   8   9
ATOM      9  C   UNL     1      21.873   1.090 -15.544  1.00  0.00     0.000 C 
BRANCH   9  10
ATOM     10  C   UNL     1      20.704   2.024 -15.900  1.00  0.00     0.006 C 
BRANCH  10  11
ATOM     11  C   UNL     1      19.602   2.006 -14.832  1.00  0.00     0.053 C 
BRANCH  11  12
ATOM     12  C   UNL     1      18.253   1.748 -15.432  1.00  0.00     0.041 C 
ATOM     13  O   UNL     1      17.870   2.404 -16.436  1.00  0.00    -0.550 OA
ATOM     14  O   UNL     1      17.434   0.761 -14.901  1.00  0.00    -0.550 OA
ENDBRANCH  11  12
ENDBRANCH  10  11
ENDBRANCH   9  10
ENDBRANCH   8   9
ENDBRANCH   1   8
TORSDOF 9
ENDMDL
MODEL 7
REMARK VINA RESULT:    -4.531      7.889      9.032
REMARK INTER + INTRA:          -7.806
REMARK INTER:                  -6.858
REMARK INTRA:                  -0.948
REMARK UNBOUND:                -0.890
REMARK SMILES O=C([O-])CCCCCCCCC(=O)[O-]
REMARK SMILES IDX 7 1 6 2 5 3 4 4 2 5 1 6 3 7 8 8 9 9 10 10 11 11 12 12 13 13
REMARK SMILES IDX 14 14
REMARK H PARENT
REMARK Flexibility Score: inf
ROOT
ATOM      1  C   UNL     1      20.318   0.484 -23.155  1.00  0.00     0.000 C 
ENDROOT
BRANCH   1   2
ATOM      2  C   UNL     1      20.850  -0.327 -24.341  1.00  0.00     0.000 C 
BRANCH   2   3
ATOM      3  C   UNL     1      19.814  -0.399 -25.469  1.00  0.00     0.006 C 
BRANCH   3   4
ATOM      4  C   UNL     1      19.936  -1.714 -26.246  1.00  0.00     0.053 C 
BRANCH   4   5
ATOM      5  C   UNL     1      19.703  -2.882 -25.341  1.00  0.00     0.041 C 
ATOM      6  O   UNL     1      20.591  -3.764 -25.204  1.00  0.00    -0.550 OA
ATOM      7  O   UNL     1      18.486  -3.024 -24.688  1.00  0.00    -0.550 OA
ENDBRANCH   4   5
ENDBRANCH   3   4
ENDBRANCH   2   3
ENDBRANCH   1   2
BRANCH   1   8
ATOM      8  C   UNL     1      18.984  -0.087 -22.651  1.00  0.00     0.000 C 
BRANCH   8   9
ATOM      9  C   UNL     1      17.981   1.008 -22.258  1.00  0.00     0.000 C 
BRANCH   9  10
ATOM     10  C   UNL     1      16.979   1.323 -23.380  1.00  0.00     0.006 C 
BRANCH  10  11
ATOM     11  C   UNL     1      16.379   0.051 -23.995  1.00  0.00     0.053 C 
BRANCH  11  12
ATOM     12  C   UNL     1      15.987   0.260 -25.427  1.00  0.00     0.041 C 
ATOM     13  O   UNL     1      15.261   1.237 -25.749  1.00  0.00    -0.550 OA
ATOM     14  O   UNL     1      16.451  -0.606 -26.408  1.00  0.00    -0.550 OA
ENDBRANCH  11  12
ENDBRANCH  10  11
ENDBRANCH   9  10
ENDBRANCH   8   9
ENDBRANCH   1   8
TORSDOF 9
ENDMDL
MODEL 8
REMARK VINA RESULT:    -4.530      5.634      7.017
REMARK INTER + INTRA:          -7.803
REMARK INTER:                  -7.323
REMARK INTRA:                  -0.480
REMARK UNBOUND:                -0.890
REMARK SMILES O=C([O-])CCCCCCCCC(=O)[O-]
REMARK SMILES IDX 7 1 6 2 5 3 4 4 2 5 1 6 3 7 8 8 9 9 10 10 11 11 12 12 13 13
REMARK SMILES IDX 14 14
REMARK H PARENT
REMARK Flexibility Score: inf
ROOT
ATOM      1  C   UNL     1      19.439   0.359 -22.691  1.00  0.00     0.000 C 
ENDROOT
BRANCH   1   2
ATOM      2  C   UNL     1      18.226   1.267 -22.456  1.00  0.00     0.000 C 
BRANCH   2   3
ATOM      3  C   UNL     1      16.916   0.518 -22.723  1.00  0.00     0.006 C 
BRANCH   3   4
ATOM      4  C   UNL     1      16.433   0.748 -24.159  1.00  0.00     0.053 C 
BRANCH   4   5
ATOM      5  C   UNL     1      16.515  -0.519 -24.949  1.00  0.00     0.041 C 
ATOM      6  O   UNL     1      16.745  -1.613 -24.370  1.00  0.00    -0.550 OA
ATOM      7  O   UNL     1      16.389  -0.486 -26.332  1.00  0.00    -0.550 OA
ENDBRANCH   4   5
ENDBRANCH   3   4
ENDBRANCH   2   3
ENDBRANCH   1   2
BRANCH   1   8
ATOM      8  C   UNL     1      20.463   0.503 -21.555  1.00  0.00     0.000 C 
BRANCH   8   9
ATOM      9  C   UNL     1      19.808   0.513 -20.165  1.00  0.00     0.000 C 
BRANCH   9  10
ATOM     10  C   UNL     1      20.832   0.367 -19.028  1.00  0.00     0.006 C 
BRANCH  10  11
ATOM     11  C   UNL     1      21.002  -1.092 -18.585  1.00  0.00     0.053 C 
BRANCH  11  12
ATOM     12  C   UNL     1      19.820  -1.573 -17.798  1.00  0.00     0.041 C 
ATOM     13  O   UNL     1      19.340  -0.863 -16.876  1.00  0.00    -0.550 OA
ATOM     14  O   UNL     1      19.230  -2.792 -18.108  1.00  0.00    -0.550 OA
ENDBRANCH  11  12
ENDBRANCH  10  11
ENDBRANCH   9  10
ENDBRANCH   8   9
ENDBRANCH   1   8
TORSDOF 9
ENDMDL
MODEL 9
REMARK VINA RESULT:    -4.432      3.046      4.195
REMARK INTER + INTRA:          -7.653
REMARK INTER:                  -6.946
REMARK INTRA:                  -0.707
REMARK UNBOUND:                -0.890
REMARK SMILES O=C([O-])CCCCCCCCC(=O)[O-]
REMARK SMILES IDX 7 1 6 2 5 3 4 4 2 5 1 6 3 7 8 8 9 9 10 10 11 11 12 12 13 13
REMARK SMILES IDX 14 14
REMARK H PARENT
REMARK Flexibility Score: inf
ROOT
ATOM      1  C   UNL     1      20.655  -1.748 -18.621  1.00  0.00     0.000 C 
ENDROOT
BRANCH   1   2
ATOM      2  C   UNL     1      21.035  -0.291 -18.909  1.00  0.00     0.000 C 
BRANCH   2   3
ATOM      3  C   UNL     1      19.847   0.484 -19.491  1.00  0.00     0.006 C 
BRANCH   3   4
ATOM      4  C   UNL     1      19.716   0.238 -20.998  1.00  0.00     0.053 C 
BRANCH   4   5
ATOM      5  C   UNL     1      20.334   1.362 -21.768  1.00  0.00     0.041 C 
ATOM      6  O   UNL     1      21.064   1.120 -22.765  1.00  0.00    -0.550 OA
ATOM      7  O   UNL     1      20.146   2.674 -21.356  1.00  0.00    -0.550 OA
ENDBRANCH   4   5
ENDBRANCH   3   4
ENDBRANCH   2   3
ENDBRANCH   1   2
BRANCH   1   8
ATOM      8  C   UNL     1      19.828  -1.857 -17.331  1.00  0.00     0.000 C 
BRANCH   8   9
ATOM      9  C   UNL     1      20.613  -1.416 -16.086  1.00  0.00     0.000 C 
BRANCH   9  10
ATOM     10  C   UNL     1      19.790  -0.507 -15.159  1.00  0.00     0.006 C 
BRANCH  10  11
ATOM     11  C   UNL     1      19.626   0.908 -15.731  1.00  0.00     0.053 C 
BRANCH  11  12
ATOM     12  C   UNL     1      18.189   1.333 -15.756  1.00  0.00     0.041 C 
ATOM     13  O   UNL     1      17.371   0.848 -14.931  1.00  0.00    -0.550 OA
ATOM     14  O   UNL     1      17.764   2.289 -16.668  1.00  0.00    -0.550 OA
ENDBRANCH  11  12
ENDBRANCH  10  11
ENDBRANCH   9  10
ENDBRANCH   8   9
ENDBRANCH   1   8
TORSDOF 9
ENDMDL
