MODEL 1
REMARK VINA RESULT:    -4.376      0.000      0.000
REMARK INTER + INTRA:         -17.772
REMARK INTER:                 -10.387
REMARK INTRA:                  -7.384
REMARK UNBOUND:                -7.384
REMARK SMILES O=C(OC[C@H]1O[C@H](OC(=O)c2cc(O)c(O)c(O)c2)[C@H](OC(=O)c2cc(O)c(O)c(O)c2)[C@@H](OC(=O)c2cc(O)c(O)c(O)c2)[C@H]1OC(=O)c1cc(O)c(O)c(O)c1)c1cc(O)c(O)c(O)c1
REMARK SMILES IDX 5 1 46 2 33 3 20 4 7 5 6 6 4 7 3 8 2 9 1 10 59 11 60 12
REMARK SMILES IDX 61 13 67 14 63 15 65 16 62 17 64 19 66 21 47 23 48 24 49 25
REMARK SMILES IDX 50 26 58 27 51 28 56 29 52 30 54 31 57 32 53 34 55 36 34 38
REMARK SMILES IDX 35 39 36 40 37 41 45 42 38 43 43 44 39 45 41 46 44 47 40 49
REMARK SMILES IDX 42 51 8 53 9 54 10 55 11 56 19 57 12 58 17 59 13 60 15 61
REMARK SMILES IDX 18 62 14 64 16 66 21 68 22 69 23 70 24 71 32 72 25 73 30 74
REMARK SMILES IDX 26 75 28 76 31 77 27 79 29 81
REMARK H PARENT 62 18 64 20 66 22 57 33 53 35 55 37 44 48 40 50 42 52 18 63
REMARK H PARENT 14 65 16 67 31 78 27 80 29 82
REMARK Flexibility Score: inf
ROOT
ATOM      1  C   UNL     1      84.264  74.567  77.941  1.00  0.00     0.205 C 
ATOM      2  C   UNL     1      83.676  75.040  76.599  1.00  0.00     0.254 C 
ATOM      3  C   UNL     1      82.150  75.044  76.741  1.00  0.00     0.267 C 
ATOM      4  C   UNL     1      81.743  75.949  77.919  1.00  0.00     0.290 C 
ATOM      5  C   UNL     1      82.519  75.528  79.188  1.00  0.00     0.357 C 
ATOM      6  O   UNL     1      83.925  75.485  78.972  1.00  0.00    -0.329 OA
ENDROOT
BRANCH   1   7
ATOM      7  C   UNL     1      85.795  74.412  77.887  1.00  0.00     0.269 C 
BRANCH   7   8
ATOM      8  O   UNL     1      86.287  74.107  79.188  1.00  0.00    -0.459 OA
BRANCH   8   9
ATOM      9  C   UNL     1      87.627  74.305  79.548  1.00  0.00     0.338 C 
ATOM     10  O   UNL     1      88.176  73.530  80.384  1.00  0.00    -0.246 OA
BRANCH   9  11
ATOM     11  C   UNL     1      88.385  75.437  78.977  1.00  0.00     0.067 A 
ATOM     12  C   UNL     1      87.997  76.756  79.248  1.00  0.00     0.066 A 
ATOM     13  C   UNL     1      88.671  77.836  78.674  1.00  0.00     0.162 A 
ATOM     14  C   UNL     1      89.480  75.204  78.120  1.00  0.00     0.066 A 
ATOM     15  C   UNL     1      89.746  77.600  77.784  1.00  0.00     0.200 A 
ATOM     16  C   UNL     1      90.147  76.277  77.519  1.00  0.00     0.162 A 
BRANCH  13  17
ATOM     17  O   UNL     1      88.251  79.120  79.022  1.00  0.00    -0.504 OA
ATOM     18  H   UNL     1      88.522  79.585  79.872  1.00  0.00     0.293 HD
ENDBRANCH  13  17
BRANCH  15  19
ATOM     19  O   UNL     1      90.426  78.644  77.149  1.00  0.00    -0.502 OA
ATOM     20  H   UNL     1      90.868  79.412  77.630  1.00  0.00     0.293 HD
ENDBRANCH  15  19
BRANCH  16  21
ATOM     21  O   UNL     1      91.207  76.005  76.655  1.00  0.00    -0.504 OA
ATOM     22  H   UNL     1      91.601  75.077  76.563  1.00  0.00     0.293 HD
ENDBRANCH  16  21
ENDBRANCH   9  11
ENDBRANCH   8   9
ENDBRANCH   7   8
ENDBRANCH   1   7
BRANCH   2  23
ATOM     23  O   UNL     1      84.118  76.366  76.303  1.00  0.00    -0.452 OA
BRANCH  23  24
ATOM     24  C   UNL     1      84.598  76.775  75.052  1.00  0.00     0.338 C 
ATOM     25  O   UNL     1      83.816  77.312  74.226  1.00  0.00    -0.246 OA
BRANCH  24  26
ATOM     26  C   UNL     1      86.029  76.588  74.723  1.00  0.00     0.067 A 
ATOM     27  C   UNL     1      86.550  75.305  74.477  1.00  0.00     0.066 A 
ATOM     28  C   UNL     1      86.897  77.692  74.709  1.00  0.00     0.066 A 
ATOM     29  C   UNL     1      87.922  75.126  74.234  1.00  0.00     0.162 A 
ATOM     30  C   UNL     1      88.262  77.519  74.457  1.00  0.00     0.162 A 
ATOM     31  C   UNL     1      88.781  76.238  74.221  1.00  0.00     0.200 A 
BRANCH  29  32
ATOM     32  O   UNL     1      88.434  73.850  74.013  1.00  0.00    -0.504 OA
ATOM     33  H   UNL     1      88.582  73.494  73.075  1.00  0.00     0.293 HD
ENDBRANCH  29  32
BRANCH  30  34
ATOM     34  O   UNL     1      89.092  78.639  74.453  1.00  0.00    -0.504 OA
ATOM     35  H   UNL     1      89.782  78.797  73.725  1.00  0.00     0.293 HD
ENDBRANCH  30  34
BRANCH  31  36
ATOM     36  O   UNL     1      90.146  76.088  73.984  1.00  0.00    -0.502 OA
ATOM     37  H   UNL     1      90.772  76.879  73.906  1.00  0.00     0.293 HD
ENDBRANCH  31  36
ENDBRANCH  24  26
ENDBRANCH  23  24
ENDBRANCH   2  23
BRANCH   3  38
ATOM     38  O   UNL     1      81.537  75.472  75.525  1.00  0.00    -0.450 OA
BRANCH  38  39
ATOM     39  C   UNL     1      80.953  74.576  74.618  1.00  0.00     0.338 C 
ATOM     40  O   UNL     1      81.624  74.137  73.645  1.00  0.00    -0.246 OA
BRANCH  39  41
ATOM     41  C   UNL     1      79.557  74.127  74.811  1.00  0.00     0.067 A 
ATOM     42  C   UNL     1      78.576  74.422  73.848  1.00  0.00     0.066 A 
ATOM     43  C   UNL     1      79.196  73.399  75.956  1.00  0.00     0.066 A 
ATOM     44  C   UNL     1      77.256  74.001  74.026  1.00  0.00     0.162 A 
ATOM     45  C   UNL     1      77.877  72.975  76.149  1.00  0.00     0.162 A 
ATOM     46  C   UNL     1      76.890  73.287  75.178  1.00  0.00     0.200 A 
BRANCH  44  47
ATOM     47  O   UNL     1      76.299  74.292  73.052  1.00  0.00    -0.504 OA
ATOM     48  H   UNL     1      76.055  73.622  72.326  1.00  0.00     0.293 HD
ENDBRANCH  44  47
BRANCH  45  49
ATOM     49  O   UNL     1      77.593  72.257  77.310  1.00  0.00    -0.504 OA
ATOM     50  H   UNL     1      76.777  72.408  77.884  1.00  0.00     0.293 HD
ENDBRANCH  45  49
BRANCH  46  51
ATOM     51  O   UNL     1      75.549  72.916  75.316  1.00  0.00    -0.502 OA
ATOM     52  H   UNL     1      74.892  73.400  75.918  1.00  0.00     0.293 HD
ENDBRANCH  46  51
ENDBRANCH  39  41
ENDBRANCH  38  39
ENDBRANCH   3  38
BRANCH   5  53
ATOM     53  O   UNL     1      82.040  74.275  79.674  1.00  0.00    -0.428 OA
BRANCH  53  54
ATOM     54  C   UNL     1      81.698  74.049  81.012  1.00  0.00     0.340 C 
ATOM     55  O   UNL     1      82.584  74.022  81.904  1.00  0.00    -0.246 OA
BRANCH  54  56
ATOM     56  C   UNL     1      80.285  73.849  81.371  1.00  0.00     0.067 A 
ATOM     57  C   UNL     1      79.718  74.525  82.458  1.00  0.00     0.066 A 
ATOM     58  C   UNL     1      79.489  72.983  80.612  1.00  0.00     0.066 A 
ATOM     59  C   UNL     1      78.363  74.374  82.775  1.00  0.00     0.162 A 
ATOM     60  C   UNL     1      78.142  72.795  80.928  1.00  0.00     0.162 A 
ATOM     61  C   UNL     1      77.558  73.499  82.001  1.00  0.00     0.200 A 
BRANCH  59  62
ATOM     62  O   UNL     1      77.866  75.111  83.854  1.00  0.00    -0.504 OA
ATOM     63  H   UNL     1      78.090  76.085  84.027  1.00  0.00     0.293 HD
ENDBRANCH  59  62
BRANCH  60  64
ATOM     64  O   UNL     1      77.401  71.894  80.163  1.00  0.00    -0.504 OA
ATOM     65  H   UNL     1      76.511  71.524  80.482  1.00  0.00     0.293 HD
ENDBRANCH  60  64
BRANCH  61  66
ATOM     66  O   UNL     1      76.193  73.311  82.264  1.00  0.00    -0.502 OA
ATOM     67  H   UNL     1      75.456  73.503  81.599  1.00  0.00     0.293 HD
ENDBRANCH  61  66
ENDBRANCH  54  56
ENDBRANCH  53  54
ENDBRANCH   5  53
BRANCH   4  68
ATOM     68  O   UNL     1      80.349  75.812  78.185  1.00  0.00    -0.448 OA
BRANCH  68  69
ATOM     69  C   UNL     1      79.386  76.766  77.843  1.00  0.00     0.339 C 
ATOM     70  O   UNL     1      79.722  77.967  77.642  1.00  0.00    -0.246 OA
BRANCH  69  71
ATOM     71  C   UNL     1      77.968  76.363  77.734  1.00  0.00     0.067 A 
ATOM     72  C   UNL     1      77.373  75.551  78.708  1.00  0.00     0.066 A 
ATOM     73  C   UNL     1      77.192  76.798  76.648  1.00  0.00     0.066 A 
ATOM     74  C   UNL     1      76.021  75.189  78.612  1.00  0.00     0.162 A 
ATOM     75  C   UNL     1      75.843  76.446  76.544  1.00  0.00     0.162 A 
ATOM     76  C   UNL     1      75.251  75.639  77.528  1.00  0.00     0.200 A 
BRANCH  74  77
ATOM     77  O   UNL     1      75.437  74.391  79.597  1.00  0.00    -0.504 OA
ATOM     78  H   UNL     1      75.027  73.489  79.374  1.00  0.00     0.293 HD
ENDBRANCH  74  77
BRANCH  75  79
ATOM     79  O   UNL     1      75.103  76.910  75.455  1.00  0.00    -0.504 OA
ATOM     80  H   UNL     1      75.418  76.798  74.501  1.00  0.00     0.293 HD
ENDBRANCH  75  79
BRANCH  76  81
ATOM     81  O   UNL     1      73.903  75.292  77.417  1.00  0.00    -0.502 OA
ATOM     82  H   UNL     1      73.211  75.919  77.036  1.00  0.00     0.293 HD
ENDBRANCH  76  81
ENDBRANCH  69  71
ENDBRANCH  68  69
ENDBRANCH   4  68
TORSDOF 31
ENDMDL
MODEL 2
REMARK VINA RESULT:    -4.094     10.310     12.683
REMARK INTER + INTRA:         -17.102
REMARK INTER:                  -9.472
REMARK INTRA:                  -7.630
REMARK UNBOUND:                -7.384
REMARK SMILES O=C(OC[C@H]1O[C@H](OC(=O)c2cc(O)c(O)c(O)c2)[C@H](OC(=O)c2cc(O)c(O)c(O)c2)[C@@H](OC(=O)c2cc(O)c(O)c(O)c2)[C@H]1OC(=O)c1cc(O)c(O)c(O)c1)c1cc(O)c(O)c(O)c1
REMARK SMILES IDX 5 1 46 2 33 3 20 4 7 5 6 6 4 7 3 8 2 9 1 10 59 11 60 12
REMARK SMILES IDX 61 13 67 14 63 15 65 16 62 17 64 19 66 21 47 23 48 24 49 25
REMARK SMILES IDX 50 26 58 27 51 28 56 29 52 30 54 31 57 32 53 34 55 36 34 38
REMARK SMILES IDX 35 39 36 40 37 41 45 42 38 43 43 44 39 45 41 46 44 47 40 49
REMARK SMILES IDX 42 51 8 53 9 54 10 55 11 56 19 57 12 58 17 59 13 60 15 61
REMARK SMILES IDX 18 62 14 64 16 66 21 68 22 69 23 70 24 71 32 72 25 73 30 74
REMARK SMILES IDX 26 75 28 76 31 77 27 79 29 81
REMARK H PARENT 62 18 64 20 66 22 57 33 53 35 55 37 44 48 40 50 42 52 18 63
REMARK H PARENT 14 65 16 67 31 78 27 80 29 82
REMARK Flexibility Score: inf
ROOT
ATOM      1  C   UNL     1      85.558  77.260  91.386  1.00  0.00     0.205 C 
ATOM      2  C   UNL     1      85.719  76.191  90.290  1.00  0.00     0.254 C 
ATOM      3  C   UNL     1      84.315  75.809  89.810  1.00  0.00     0.267 C 
ATOM      4  C   UNL     1      83.580  77.066  89.309  1.00  0.00     0.290 C 
ATOM      5  C   UNL     1      83.625  78.161  90.399  1.00  0.00     0.357 C 
ATOM      6  O   UNL     1      84.950  78.425  90.845  1.00  0.00    -0.329 OA
ENDROOT
BRANCH   1   7
ATOM      7  C   UNL     1      86.902  77.644  92.031  1.00  0.00     0.269 C 
BRANCH   7   8
ATOM      8  O   UNL     1      86.954  79.055  92.215  1.00  0.00    -0.459 OA
BRANCH   8   9
ATOM      9  C   UNL     1      88.136  79.791  92.049  1.00  0.00     0.338 C 
ATOM     10  O   UNL     1      89.069  79.682  92.896  1.00  0.00    -0.246 OA
BRANCH   9  11
ATOM     11  C   UNL     1      88.276  80.715  90.905  1.00  0.00     0.067 A 
ATOM     12  C   UNL     1      87.149  81.101  90.166  1.00  0.00     0.066 A 
ATOM     13  C   UNL     1      87.272  81.932  89.051  1.00  0.00     0.162 A 
ATOM     14  C   UNL     1      89.548  81.183  90.516  1.00  0.00     0.066 A 
ATOM     15  C   UNL     1      88.553  82.371  88.640  1.00  0.00     0.200 A 
ATOM     16  C   UNL     1      89.685  81.995  89.385  1.00  0.00     0.162 A 
BRANCH  13  17
ATOM     17  O   UNL     1      86.101  82.305  88.390  1.00  0.00    -0.504 OA
ATOM     18  H   UNL     1      85.179  82.055  88.705  1.00  0.00     0.293 HD
ENDBRANCH  13  17
BRANCH  15  19
ATOM     19  O   UNL     1      88.735  83.169  87.506  1.00  0.00    -0.502 OA
ATOM     20  H   UNL     1      88.321  82.984  86.605  1.00  0.00     0.293 HD
ENDBRANCH  15  19
BRANCH  16  21
ATOM     21  O   UNL     1      90.963  82.415  89.016  1.00  0.00    -0.504 OA
ATOM     22  H   UNL     1      91.226  83.393  89.008  1.00  0.00     0.293 HD
ENDBRANCH  16  21
ENDBRANCH   9  11
ENDBRANCH   8   9
ENDBRANCH   7   8
ENDBRANCH   1   7
BRANCH   2  23
ATOM     23  O   UNL     1      86.459  76.719  89.188  1.00  0.00    -0.452 OA
BRANCH  23  24
ATOM     24  C   UNL     1      87.565  76.084  88.605  1.00  0.00     0.338 C 
ATOM     25  O   UNL     1      87.805  74.878  88.868  1.00  0.00    -0.246 OA
BRANCH  24  26
ATOM     26  C   UNL     1      88.428  76.839  87.670  1.00  0.00     0.067 A 
ATOM     27  C   UNL     1      89.548  76.231  87.073  1.00  0.00     0.066 A 
ATOM     28  C   UNL     1      88.168  78.194  87.410  1.00  0.00     0.066 A 
ATOM     29  C   UNL     1      90.403  76.972  86.239  1.00  0.00     0.162 A 
ATOM     30  C   UNL     1      89.011  78.933  86.573  1.00  0.00     0.162 A 
ATOM     31  C   UNL     1      90.132  78.327  85.986  1.00  0.00     0.200 A 
BRANCH  29  32
ATOM     32  O   UNL     1      91.522  76.369  85.669  1.00  0.00    -0.504 OA
ATOM     33  H   UNL     1      91.966  75.565  86.098  1.00  0.00     0.293 HD
ENDBRANCH  29  32
BRANCH  30  34
ATOM     34  O   UNL     1      88.720  80.275  86.342  1.00  0.00    -0.504 OA
ATOM     35  H   UNL     1      87.783  80.593  86.112  1.00  0.00     0.293 HD
ENDBRANCH  30  34
BRANCH  31  36
ATOM     36  O   UNL     1      90.964  79.085  85.165  1.00  0.00    -0.502 OA
ATOM     37  H   UNL     1      90.920  79.035  84.156  1.00  0.00     0.293 HD
ENDBRANCH  31  36
ENDBRANCH  24  26
ENDBRANCH  23  24
ENDBRANCH   2  23
BRANCH   3  38
ATOM     38  O   UNL     1      84.391  74.814  88.790  1.00  0.00    -0.450 OA
BRANCH  38  39
ATOM     39  C   UNL     1      83.950  73.497  88.984  1.00  0.00     0.338 C 
ATOM     40  O   UNL     1      84.726  72.530  88.752  1.00  0.00    -0.246 OA
BRANCH  39  41
ATOM     41  C   UNL     1      82.580  73.238  89.481  1.00  0.00     0.067 A 
ATOM     42  C   UNL     1      81.553  72.896  88.585  1.00  0.00     0.066 A 
ATOM     43  C   UNL     1      82.293  73.327  90.852  1.00  0.00     0.066 A 
ATOM     44  C   UNL     1      80.258  72.651  89.049  1.00  0.00     0.162 A 
ATOM     45  C   UNL     1      81.001  73.089  91.329  1.00  0.00     0.162 A 
ATOM     46  C   UNL     1      79.965  72.756  90.418  1.00  0.00     0.200 A 
BRANCH  44  47
ATOM     47  O   UNL     1      79.253  72.299  88.145  1.00  0.00    -0.504 OA
ATOM     48  H   UNL     1      78.954  72.932  87.407  1.00  0.00     0.293 HD
ENDBRANCH  44  47
BRANCH  45  49
ATOM     49  O   UNL     1      80.790  73.197  92.704  1.00  0.00    -0.504 OA
ATOM     50  H   UNL     1      80.977  74.031  93.242  1.00  0.00     0.293 HD
ENDBRANCH  45  49
BRANCH  46  51
ATOM     51  O   UNL     1      78.646  72.528  90.822  1.00  0.00    -0.502 OA
ATOM     52  H   UNL     1      77.872  72.416  90.176  1.00  0.00     0.293 HD
ENDBRANCH  46  51
ENDBRANCH  39  41
ENDBRANCH  38  39
ENDBRANCH   3  38
BRANCH   5  53
ATOM     53  O   UNL     1      82.779  77.811  91.493  1.00  0.00    -0.428 OA
BRANCH  53  54
ATOM     54  C   UNL     1      81.710  78.604  91.924  1.00  0.00     0.340 C 
ATOM     55  O   UNL     1      81.915  79.743  92.417  1.00  0.00    -0.246 OA
BRANCH  54  56
ATOM     56  C   UNL     1      80.335  78.097  91.789  1.00  0.00     0.067 A 
ATOM     57  C   UNL     1      80.007  76.797  92.192  1.00  0.00     0.066 A 
ATOM     58  C   UNL     1      79.336  78.924  91.264  1.00  0.00     0.066 A 
ATOM     59  C   UNL     1      78.691  76.327  92.109  1.00  0.00     0.162 A 
ATOM     60  C   UNL     1      78.023  78.467  91.145  1.00  0.00     0.162 A 
ATOM     61  C   UNL     1      77.680  77.170  91.581  1.00  0.00     0.200 A 
BRANCH  59  62
ATOM     62  O   UNL     1      78.439  75.029  92.565  1.00  0.00    -0.504 OA
ATOM     63  H   UNL     1      78.466  74.756  93.541  1.00  0.00     0.293 HD
ENDBRANCH  59  62
BRANCH  60  64
ATOM     64  O   UNL     1      77.071  79.317  90.583  1.00  0.00    -0.504 OA
ATOM     65  H   UNL     1      77.175  80.327  90.601  1.00  0.00     0.293 HD
ENDBRANCH  60  64
BRANCH  61  66
ATOM     66  O   UNL     1      76.343  76.759  91.479  1.00  0.00    -0.502 OA
ATOM     67  H   UNL     1      75.563  77.262  91.880  1.00  0.00     0.293 HD
ENDBRANCH  61  66
ENDBRANCH  54  56
ENDBRANCH  53  54
ENDBRANCH   5  53
BRANCH   4  68
ATOM     68  O   UNL     1      82.213  76.762  89.041  1.00  0.00    -0.448 OA
BRANCH  68  69
ATOM     69  C   UNL     1      81.484  77.294  87.973  1.00  0.00     0.339 C 
ATOM     70  O   UNL     1      82.077  77.898  87.036  1.00  0.00    -0.246 OA
BRANCH  69  71
ATOM     71  C   UNL     1      80.012  77.156  87.956  1.00  0.00     0.067 A 
ATOM     72  C   UNL     1      79.198  78.189  87.474  1.00  0.00     0.066 A 
ATOM     73  C   UNL     1      79.408  75.976  88.420  1.00  0.00     0.066 A 
ATOM     74  C   UNL     1      77.803  78.046  87.439  1.00  0.00     0.162 A 
ATOM     75  C   UNL     1      78.019  75.822  88.386  1.00  0.00     0.162 A 
ATOM     76  C   UNL     1      77.210  76.857  87.895  1.00  0.00     0.200 A 
BRANCH  74  77
ATOM     77  O   UNL     1      77.004  79.077  86.945  1.00  0.00    -0.504 OA
ATOM     78  H   UNL     1      77.296  79.641  86.153  1.00  0.00     0.293 HD
ENDBRANCH  74  77
BRANCH  75  79
ATOM     79  O   UNL     1      77.459  74.628  88.845  1.00  0.00    -0.504 OA
ATOM     80  H   UNL     1      76.460  74.486  88.898  1.00  0.00     0.293 HD
ENDBRANCH  75  79
BRANCH  76  81
ATOM     81  O   UNL     1      75.823  76.694  87.864  1.00  0.00    -0.502 OA
ATOM     82  H   UNL     1      75.312  76.553  87.006  1.00  0.00     0.293 HD
ENDBRANCH  76  81
ENDBRANCH  69  71
ENDBRANCH  68  69
ENDBRANCH   4  68
TORSDOF 31
ENDMDL
MODEL 3
REMARK VINA RESULT:    -4.045     11.465     16.311
REMARK INTER + INTRA:         -16.986
REMARK INTER:                  -9.217
REMARK INTRA:                  -7.769
REMARK UNBOUND:                -7.384
REMARK SMILES O=C(OC[C@H]1O[C@H](OC(=O)c2cc(O)c(O)c(O)c2)[C@H](OC(=O)c2cc(O)c(O)c(O)c2)[C@@H](OC(=O)c2cc(O)c(O)c(O)c2)[C@H]1OC(=O)c1cc(O)c(O)c(O)c1)c1cc(O)c(O)c(O)c1
REMARK SMILES IDX 5 1 46 2 33 3 20 4 7 5 6 6 4 7 3 8 2 9 1 10 59 11 60 12
REMARK SMILES IDX 61 13 67 14 63 15 65 16 62 17 64 19 66 21 47 23 48 24 49 25
REMARK SMILES IDX 50 26 58 27 51 28 56 29 52 30 54 31 57 32 53 34 55 36 34 38
REMARK SMILES IDX 35 39 36 40 37 41 45 42 38 43 43 44 39 45 41 46 44 47 40 49
REMARK SMILES IDX 42 51 8 53 9 54 10 55 11 56 19 57 12 58 17 59 13 60 15 61
REMARK SMILES IDX 18 62 14 64 16 66 21 68 22 69 23 70 24 71 32 72 25 73 30 74
REMARK SMILES IDX 26 75 28 76 31 77 27 79 29 81
REMARK H PARENT 62 18 64 20 66 22 57 33 53 35 55 37 44 48 40 50 42 52 18 63
REMARK H PARENT 14 65 16 67 31 78 27 80 29 82
REMARK Flexibility Score: inf
ROOT
ATOM      1  C   UNL     1      79.757  80.635  90.414  1.00  0.00     0.205 C 
ATOM      2  C   UNL     1      79.868  82.140  90.107  1.00  0.00     0.254 C 
ATOM      3  C   UNL     1      78.606  82.546  89.338  1.00  0.00     0.267 C 
ATOM      4  C   UNL     1      77.358  82.200  90.172  1.00  0.00     0.290 C 
ATOM      5  C   UNL     1      77.416  80.715  90.600  1.00  0.00     0.357 C 
ATOM      6  O   UNL     1      78.637  80.389  91.253  1.00  0.00    -0.329 OA
ENDROOT
BRANCH   1   7
ATOM      7  C   UNL     1      81.025  80.081  91.089  1.00  0.00     0.269 C 
BRANCH   7   8
ATOM      8  O   UNL     1      80.881  78.679  91.292  1.00  0.00    -0.459 OA
BRANCH   8   9
ATOM      9  C   UNL     1      80.863  77.765  90.230  1.00  0.00     0.338 C 
ATOM     10  O   UNL     1      81.772  77.803  89.350  1.00  0.00    -0.246 OA
BRANCH   9  11
ATOM     11  C   UNL     1      79.766  76.781  90.120  1.00  0.00     0.067 A 
ATOM     12  C   UNL     1      78.601  76.934  90.884  1.00  0.00     0.066 A 
ATOM     13  C   UNL     1      77.578  75.985  90.831  1.00  0.00     0.162 A 
ATOM     14  C   UNL     1      79.897  75.656  89.281  1.00  0.00     0.066 A 
ATOM     15  C   UNL     1      77.726  74.838  90.016  1.00  0.00     0.200 A 
ATOM     16  C   UNL     1      78.889  74.686  89.240  1.00  0.00     0.162 A 
BRANCH  13  17
ATOM     17  O   UNL     1      76.432  76.227  91.590  1.00  0.00    -0.504 OA
ATOM     18  H   UNL     1      75.613  76.689  91.232  1.00  0.00     0.293 HD
ENDBRANCH  13  17
BRANCH  15  19
ATOM     19  O   UNL     1      76.751  73.837  89.961  1.00  0.00    -0.502 OA
ATOM     20  H   UNL     1      75.914  73.823  90.523  1.00  0.00     0.293 HD
ENDBRANCH  15  19
BRANCH  16  21
ATOM     21  O   UNL     1      79.067  73.573  88.418  1.00  0.00    -0.504 OA
ATOM     22  H   UNL     1      79.839  73.505  87.765  1.00  0.00     0.293 HD
ENDBRANCH  16  21
ENDBRANCH   9  11
ENDBRANCH   8   9
ENDBRANCH   7   8
ENDBRANCH   1   7
BRANCH   2  23
ATOM     23  O   UNL     1      79.932  82.890  91.321  1.00  0.00    -0.452 OA
BRANCH  23  24
ATOM     24  C   UNL     1      80.859  83.913  91.567  1.00  0.00     0.338 C 
ATOM     25  O   UNL     1      82.079  83.635  91.694  1.00  0.00    -0.246 OA
BRANCH  24  26
ATOM     26  C   UNL     1      80.391  85.314  91.655  1.00  0.00     0.067 A 
ATOM     27  C   UNL     1      79.155  85.625  92.251  1.00  0.00     0.066 A 
ATOM     28  C   UNL     1      81.157  86.348  91.092  1.00  0.00     0.066 A 
ATOM     29  C   UNL     1      78.685  86.949  92.270  1.00  0.00     0.162 A 
ATOM     30  C   UNL     1      80.697  87.668  91.119  1.00  0.00     0.162 A 
ATOM     31  C   UNL     1      79.460  87.974  91.705  1.00  0.00     0.200 A 
BRANCH  29  32
ATOM     32  O   UNL     1      77.450  87.246  92.842  1.00  0.00    -0.504 OA
ATOM     33  H   UNL     1      77.044  88.172  92.773  1.00  0.00     0.293 HD
ENDBRANCH  29  32
BRANCH  30  34
ATOM     34  O   UNL     1      81.485  88.666  90.548  1.00  0.00    -0.504 OA
ATOM     35  H   UNL     1      81.335  88.995  89.599  1.00  0.00     0.293 HD
ENDBRANCH  30  34
BRANCH  31  36
ATOM     36  O   UNL     1      79.017  89.295  91.709  1.00  0.00    -0.502 OA
ATOM     37  H   UNL     1      78.771  89.781  92.562  1.00  0.00     0.293 HD
ENDBRANCH  31  36
ENDBRANCH  24  26
ENDBRANCH  23  24
ENDBRANCH   2  23
BRANCH   3  38
ATOM     38  O   UNL     1      78.644  83.936  89.017  1.00  0.00    -0.450 OA
BRANCH  38  39
ATOM     39  C   UNL     1      79.079  84.412  87.772  1.00  0.00     0.338 C 
ATOM     40  O   UNL     1      79.154  83.627  86.787  1.00  0.00    -0.246 OA
BRANCH  39  41
ATOM     41  C   UNL     1      79.430  85.839  87.603  1.00  0.00     0.067 A 
ATOM     42  C   UNL     1      78.653  86.839  88.213  1.00  0.00     0.066 A 
ATOM     43  C   UNL     1      80.546  86.210  86.835  1.00  0.00     0.066 A 
ATOM     44  C   UNL     1      78.980  88.188  88.056  1.00  0.00     0.162 A 
ATOM     45  C   UNL     1      80.882  87.557  86.667  1.00  0.00     0.162 A 
ATOM     46  C   UNL     1      80.086  88.562  87.275  1.00  0.00     0.200 A 
BRANCH  44  47
ATOM     47  O   UNL     1      78.204  89.166  88.680  1.00  0.00    -0.504 OA
ATOM     48  H   UNL     1      77.318  89.476  88.287  1.00  0.00     0.293 HD
ENDBRANCH  44  47
BRANCH  45  49
ATOM     49  O   UNL     1      82.003  87.849  85.890  1.00  0.00    -0.504 OA
ATOM     50  H   UNL     1      82.509  88.723  85.932  1.00  0.00     0.293 HD
ENDBRANCH  45  49
BRANCH  46  51
ATOM     51  O   UNL     1      80.349  89.927  87.130  1.00  0.00    -0.502 OA
ATOM     52  H   UNL     1      79.725  90.657  87.453  1.00  0.00     0.293 HD
ENDBRANCH  46  51
ENDBRANCH  39  41
ENDBRANCH  38  39
ENDBRANCH   3  38
BRANCH   5  53
ATOM     53  O   UNL     1      77.196  79.863  89.477  1.00  0.00    -0.428 OA
BRANCH  53  54
ATOM     54  C   UNL     1      76.027  79.114  89.298  1.00  0.00     0.340 C 
ATOM     55  O   UNL     1      75.075  79.206  90.113  1.00  0.00    -0.246 OA
BRANCH  54  56
ATOM     56  C   UNL     1      75.917  78.217  88.136  1.00  0.00     0.067 A 
ATOM     57  C   UNL     1      77.052  77.596  87.599  1.00  0.00     0.066 A 
ATOM     58  C   UNL     1      74.664  77.966  87.565  1.00  0.00     0.066 A 
ATOM     59  C   UNL     1      76.946  76.705  86.524  1.00  0.00     0.162 A 
ATOM     60  C   UNL     1      74.539  77.105  86.475  1.00  0.00     0.162 A 
ATOM     61  C   UNL     1      75.673  76.451  85.951  1.00  0.00     0.200 A 
BRANCH  59  62
ATOM     62  O   UNL     1      78.121  76.100  86.068  1.00  0.00    -0.504 OA
ATOM     63  H   UNL     1      78.167  75.485  85.263  1.00  0.00     0.293 HD
ENDBRANCH  59  62
BRANCH  60  64
ATOM     64  O   UNL     1      73.273  76.916  85.920  1.00  0.00    -0.504 OA
ATOM     65  H   UNL     1      72.505  77.552  86.105  1.00  0.00     0.293 HD
ENDBRANCH  60  64
BRANCH  61  66
ATOM     66  O   UNL     1      75.501  75.563  84.878  1.00  0.00    -0.502 OA
ATOM     67  H   UNL     1      74.949  74.718  84.924  1.00  0.00     0.293 HD
ENDBRANCH  61  66
ENDBRANCH  54  56
ENDBRANCH  53  54
ENDBRANCH   5  53
BRANCH   4  68
ATOM     68  O   UNL     1      76.178  82.392  89.394  1.00  0.00    -0.448 OA
BRANCH  68  69
ATOM     69  C   UNL     1      75.106  83.203  89.779  1.00  0.00     0.339 C 
ATOM     70  O   UNL     1      74.113  82.703  90.378  1.00  0.00    -0.246 OA
BRANCH  69  71
ATOM     71  C   UNL     1      75.137  84.647  89.466  1.00  0.00     0.067 A 
ATOM     72  C   UNL     1      75.165  85.097  88.140  1.00  0.00     0.066 A 
ATOM     73  C   UNL     1      75.129  85.594  90.503  1.00  0.00     0.066 A 
ATOM     74  C   UNL     1      75.172  86.468  87.847  1.00  0.00     0.162 A 
ATOM     75  C   UNL     1      75.132  86.963  90.222  1.00  0.00     0.162 A 
ATOM     76  C   UNL     1      75.152  87.407  88.891  1.00  0.00     0.200 A 
BRANCH  74  77
ATOM     77  O   UNL     1      75.187  86.903  86.521  1.00  0.00    -0.504 OA
ATOM     78  H   UNL     1      76.011  86.799  85.938  1.00  0.00     0.293 HD
ENDBRANCH  74  77
BRANCH  75  79
ATOM     79  O   UNL     1      75.111  87.872  91.281  1.00  0.00    -0.504 OA
ATOM     80  H   UNL     1      75.931  88.392  91.564  1.00  0.00     0.293 HD
ENDBRANCH  75  79
BRANCH  76  81
ATOM     81  O   UNL     1      75.154  88.777  88.619  1.00  0.00    -0.502 OA
ATOM     82  H   UNL     1      74.937  89.470  89.319  1.00  0.00     0.293 HD
ENDBRANCH  76  81
ENDBRANCH  69  71
ENDBRANCH  68  69
ENDBRANCH   4  68
TORSDOF 31
ENDMDL
MODEL 4
REMARK VINA RESULT:    -4.035      1.496      2.927
REMARK INTER + INTRA:         -16.963
REMARK INTER:                  -9.420
REMARK INTRA:                  -7.543
REMARK UNBOUND:                -7.384
REMARK SMILES O=C(OC[C@H]1O[C@H](OC(=O)c2cc(O)c(O)c(O)c2)[C@H](OC(=O)c2cc(O)c(O)c(O)c2)[C@@H](OC(=O)c2cc(O)c(O)c(O)c2)[C@H]1OC(=O)c1cc(O)c(O)c(O)c1)c1cc(O)c(O)c(O)c1
REMARK SMILES IDX 5 1 46 2 33 3 20 4 7 5 6 6 4 7 3 8 2 9 1 10 59 11 60 12
REMARK SMILES IDX 61 13 67 14 63 15 65 16 62 17 64 19 66 21 47 23 48 24 49 25
REMARK SMILES IDX 50 26 58 27 51 28 56 29 52 30 54 31 57 32 53 34 55 36 34 38
REMARK SMILES IDX 35 39 36 40 37 41 45 42 38 43 43 44 39 45 41 46 44 47 40 49
REMARK SMILES IDX 42 51 8 53 9 54 10 55 11 56 19 57 12 58 17 59 13 60 15 61
REMARK SMILES IDX 18 62 14 64 16 66 21 68 22 69 23 70 24 71 32 72 25 73 30 74
REMARK SMILES IDX 26 75 28 76 31 77 27 79 29 81
REMARK H PARENT 62 18 64 20 66 22 57 33 53 35 55 37 44 48 40 50 42 52 18 63
REMARK H PARENT 14 65 16 67 31 78 27 80 29 82
REMARK Flexibility Score: inf
ROOT
ATOM      1  C   UNL     1      83.053  76.015  78.916  1.00  0.00     0.205 C 
ATOM      2  C   UNL     1      82.650  76.226  77.445  1.00  0.00     0.254 C 
ATOM      3  C   UNL     1      81.166  75.865  77.319  1.00  0.00     0.267 C 
ATOM      4  C   UNL     1      80.340  76.728  78.290  1.00  0.00     0.290 C 
ATOM      5  C   UNL     1      80.925  76.609  79.717  1.00  0.00     0.357 C 
ATOM      6  O   UNL     1      82.318  76.896  79.754  1.00  0.00    -0.329 OA
ENDROOT
BRANCH   1   7
ATOM      7  C   UNL     1      84.559  76.237  79.148  1.00  0.00     0.269 C 
BRANCH   7   8
ATOM      8  O   UNL     1      85.303  75.463  78.212  1.00  0.00    -0.459 OA
BRANCH   8   9
ATOM      9  C   UNL     1      86.673  75.212  78.367  1.00  0.00     0.338 C 
ATOM     10  O   UNL     1      87.125  74.856  79.494  1.00  0.00    -0.246 OA
BRANCH   9  11
ATOM     11  C   UNL     1      87.591  75.396  77.224  1.00  0.00     0.067 A 
ATOM     12  C   UNL     1      87.159  75.120  75.920  1.00  0.00     0.066 A 
ATOM     13  C   UNL     1      88.031  75.239  74.835  1.00  0.00     0.162 A 
ATOM     14  C   UNL     1      88.923  75.807  77.437  1.00  0.00     0.066 A 
ATOM     15  C   UNL     1      89.377  75.617  75.054  1.00  0.00     0.200 A 
ATOM     16  C   UNL     1      89.811  75.905  76.361  1.00  0.00     0.162 A 
BRANCH  13  17
ATOM     17  O   UNL     1      87.517  74.986  73.562  1.00  0.00    -0.504 OA
ATOM     18  H   UNL     1      87.795  74.203  72.995  1.00  0.00     0.293 HD
ENDBRANCH  13  17
BRANCH  15  19
ATOM     19  O   UNL     1      90.301  75.709  74.008  1.00  0.00    -0.502 OA
ATOM     20  H   UNL     1      90.054  75.799  73.034  1.00  0.00     0.293 HD
ENDBRANCH  15  19
BRANCH  16  21
ATOM     21  O   UNL     1      91.128  76.289  76.614  1.00  0.00    -0.504 OA
ATOM     22  H   UNL     1      91.915  75.848  76.154  1.00  0.00     0.293 HD
ENDBRANCH  16  21
ENDBRANCH   9  11
ENDBRANCH   8   9
ENDBRANCH   7   8
ENDBRANCH   1   7
BRANCH   2  23
ATOM     23  O   UNL     1      82.829  77.593  77.073  1.00  0.00    -0.452 OA
BRANCH  23  24
ATOM     24  C   UNL     1      83.353  78.013  75.843  1.00  0.00     0.338 C 
ATOM     25  O   UNL     1      82.581  78.209  74.868  1.00  0.00    -0.246 OA
BRANCH  24  26
ATOM     26  C   UNL     1      84.809  78.240  75.709  1.00  0.00     0.067 A 
ATOM     27  C   UNL     1      85.576  78.665  76.810  1.00  0.00     0.066 A 
ATOM     28  C   UNL     1      85.434  78.085  74.461  1.00  0.00     0.066 A 
ATOM     29  C   UNL     1      86.945  78.945  76.661  1.00  0.00     0.162 A 
ATOM     30  C   UNL     1      86.798  78.353  74.311  1.00  0.00     0.162 A 
ATOM     31  C   UNL     1      87.558  78.785  75.407  1.00  0.00     0.200 A 
BRANCH  29  32
ATOM     32  O   UNL     1      87.692  79.386  77.749  1.00  0.00    -0.504 OA
ATOM     33  H   UNL     1      88.482  78.856  78.099  1.00  0.00     0.293 HD
ENDBRANCH  29  32
BRANCH  30  34
ATOM     34  O   UNL     1      87.380  78.189  73.056  1.00  0.00    -0.504 OA
ATOM     35  H   UNL     1      88.226  77.643  72.920  1.00  0.00     0.293 HD
ENDBRANCH  30  34
BRANCH  31  36
ATOM     36  O   UNL     1      88.914  79.058  75.232  1.00  0.00    -0.502 OA
ATOM     37  H   UNL     1      89.612  78.790  75.913  1.00  0.00     0.293 HD
ENDBRANCH  31  36
ENDBRANCH  24  26
ENDBRANCH  23  24
ENDBRANCH   2  23
BRANCH   3  38
ATOM     38  O   UNL     1      80.725  76.035  75.973  1.00  0.00    -0.450 OA
BRANCH  38  39
ATOM     39  C   UNL     1      80.449  74.953  75.126  1.00  0.00     0.338 C 
ATOM     40  O   UNL     1      81.348  74.503  74.363  1.00  0.00    -0.246 OA
BRANCH  39  41
ATOM     41  C   UNL     1      79.111  74.322  75.138  1.00  0.00     0.067 A 
ATOM     42  C   UNL     1      78.748  73.444  76.174  1.00  0.00     0.066 A 
ATOM     43  C   UNL     1      78.187  74.596  74.116  1.00  0.00     0.066 A 
ATOM     44  C   UNL     1      77.486  72.845  76.189  1.00  0.00     0.162 A 
ATOM     45  C   UNL     1      76.922  73.999  74.117  1.00  0.00     0.162 A 
ATOM     46  C   UNL     1      76.567  73.105  75.160  1.00  0.00     0.200 A 
BRANCH  44  47
ATOM     47  O   UNL     1      77.140  71.987  77.235  1.00  0.00    -0.504 OA
ATOM     48  H   UNL     1      76.254  72.075  77.726  1.00  0.00     0.293 HD
ENDBRANCH  44  47
BRANCH  45  49
ATOM     49  O   UNL     1      76.058  74.318  73.070  1.00  0.00    -0.504 OA
ATOM     50  H   UNL     1      75.073  74.511  73.187  1.00  0.00     0.293 HD
ENDBRANCH  45  49
BRANCH  46  51
ATOM     51  O   UNL     1      75.330  72.456  75.212  1.00  0.00    -0.502 OA
ATOM     52  H   UNL     1      75.218  71.482  75.470  1.00  0.00     0.293 HD
ENDBRANCH  46  51
ENDBRANCH  39  41
ENDBRANCH  38  39
ENDBRANCH   3  38
BRANCH   5  53
ATOM     53  O   UNL     1      80.656  75.317  80.259  1.00  0.00    -0.428 OA
BRANCH  53  54
ATOM     54  C   UNL     1      80.121  75.115  81.536  1.00  0.00     0.340 C 
ATOM     55  O   UNL     1      80.798  75.376  82.564  1.00  0.00    -0.246 OA
BRANCH  54  56
ATOM     56  C   UNL     1      78.750  74.599  81.669  1.00  0.00     0.067 A 
ATOM     57  C   UNL     1      78.242  73.666  80.756  1.00  0.00     0.066 A 
ATOM     58  C   UNL     1      77.942  75.030  82.728  1.00  0.00     0.066 A 
ATOM     59  C   UNL     1      76.954  73.137  80.906  1.00  0.00     0.162 A 
ATOM     60  C   UNL     1      76.646  74.538  82.881  1.00  0.00     0.162 A 
ATOM     61  C   UNL     1      76.141  73.574  81.983  1.00  0.00     0.200 A 
BRANCH  59  62
ATOM     62  O   UNL     1      76.534  72.185  79.972  1.00  0.00    -0.504 OA
ATOM     63  H   UNL     1      76.248  71.242  80.213  1.00  0.00     0.293 HD
ENDBRANCH  59  62
BRANCH  60  64
ATOM     64  O   UNL     1      75.868  75.026  83.932  1.00  0.00    -0.504 OA
ATOM     65  H   UNL     1      75.644  74.459  84.743  1.00  0.00     0.293 HD
ENDBRANCH  60  64
BRANCH  61  66
ATOM     66  O   UNL     1      74.846  73.075  82.191  1.00  0.00    -0.502 OA
ATOM     67  H   UNL     1      74.531  72.661  83.058  1.00  0.00     0.293 HD
ENDBRANCH  61  66
ENDBRANCH  54  56
ENDBRANCH  53  54
ENDBRANCH   5  53
BRANCH   4  68
ATOM     68  O   UNL     1      78.989  76.273  78.325  1.00  0.00    -0.448 OA
BRANCH  68  69
ATOM     69  C   UNL     1      77.886  77.100  78.560  1.00  0.00     0.339 C 
ATOM     70  O   UNL     1      78.010  78.356  78.509  1.00  0.00    -0.246 OA
BRANCH  69  71
ATOM     71  C   UNL     1      76.578  76.494  78.884  1.00  0.00     0.067 A 
ATOM     72  C   UNL     1      75.982  75.564  78.023  1.00  0.00     0.066 A 
ATOM     73  C   UNL     1      75.915  76.840  80.073  1.00  0.00     0.066 A 
ATOM     74  C   UNL     1      74.750  74.974  78.345  1.00  0.00     0.162 A 
ATOM     75  C   UNL     1      74.689  76.256  80.405  1.00  0.00     0.162 A 
ATOM     76  C   UNL     1      74.101  75.319  79.542  1.00  0.00     0.200 A 
BRANCH  74  77
ATOM     77  O   UNL     1      74.174  74.039  77.485  1.00  0.00    -0.504 OA
ATOM     78  H   UNL     1      74.717  73.576  76.763  1.00  0.00     0.293 HD
ENDBRANCH  74  77
BRANCH  75  79
ATOM     79  O   UNL     1      74.069  76.618  81.602  1.00  0.00    -0.504 OA
ATOM     80  H   UNL     1      74.030  75.998  82.399  1.00  0.00     0.293 HD
ENDBRANCH  75  79
BRANCH  76  81
ATOM     81  O   UNL     1      72.877  74.739  79.882  1.00  0.00    -0.502 OA
ATOM     82  H   UNL     1      72.738  73.740  79.909  1.00  0.00     0.293 HD
ENDBRANCH  76  81
ENDBRANCH  69  71
ENDBRANCH  68  69
ENDBRANCH   4  68
TORSDOF 31
ENDMDL
MODEL 5
REMARK VINA RESULT:    -3.935     11.421     16.159
REMARK INTER + INTRA:         -16.726
REMARK INTER:                  -9.924
REMARK INTRA:                  -6.802
REMARK UNBOUND:                -7.384
REMARK SMILES O=C(OC[C@H]1O[C@H](OC(=O)c2cc(O)c(O)c(O)c2)[C@H](OC(=O)c2cc(O)c(O)c(O)c2)[C@@H](OC(=O)c2cc(O)c(O)c(O)c2)[C@H]1OC(=O)c1cc(O)c(O)c(O)c1)c1cc(O)c(O)c(O)c1
REMARK SMILES IDX 5 1 46 2 33 3 20 4 7 5 6 6 4 7 3 8 2 9 1 10 59 11 60 12
REMARK SMILES IDX 61 13 67 14 63 15 65 16 62 17 64 19 66 21 47 23 48 24 49 25
REMARK SMILES IDX 50 26 58 27 51 28 56 29 52 30 54 31 57 32 53 34 55 36 34 38
REMARK SMILES IDX 35 39 36 40 37 41 45 42 38 43 43 44 39 45 41 46 44 47 40 49
REMARK SMILES IDX 42 51 8 53 9 54 10 55 11 56 19 57 12 58 17 59 13 60 15 61
REMARK SMILES IDX 18 62 14 64 16 66 21 68 22 69 23 70 24 71 32 72 25 73 30 74
REMARK SMILES IDX 26 75 28 76 31 77 27 79 29 81
REMARK H PARENT 62 18 64 20 66 22 57 33 53 35 55 37 44 48 40 50 42 52 18 63
REMARK H PARENT 14 65 16 67 31 78 27 80 29 82
REMARK Flexibility Score: inf
ROOT
ATOM      1  C   UNL     1      77.668  82.393  91.511  1.00  0.00     0.205 C 
ATOM      2  C   UNL     1      78.289  81.055  91.073  1.00  0.00     0.254 C 
ATOM      3  C   UNL     1      77.141  80.130  90.656  1.00  0.00     0.267 C 
ATOM      4  C   UNL     1      76.319  80.797  89.538  1.00  0.00     0.290 C 
ATOM      5  C   UNL     1      75.890  82.214  89.985  1.00  0.00     0.357 C 
ATOM      6  O   UNL     1      76.994  83.000  90.417  1.00  0.00    -0.329 OA
ENDROOT
BRANCH   1   7
ATOM      7  C   UNL     1      78.719  83.373  92.064  1.00  0.00     0.269 C 
BRANCH   7   8
ATOM      8  O   UNL     1      78.063  84.505  92.627  1.00  0.00    -0.459 OA
BRANCH   8   9
ATOM      9  C   UNL     1      78.345  85.816  92.218  1.00  0.00     0.338 C 
ATOM     10  O   UNL     1      79.358  86.416  92.679  1.00  0.00    -0.246 OA
BRANCH   9  11
ATOM     11  C   UNL     1      77.439  86.506  91.276  1.00  0.00     0.067 A 
ATOM     12  C   UNL     1      77.621  86.371  89.893  1.00  0.00     0.066 A 
ATOM     13  C   UNL     1      76.806  87.058  88.991  1.00  0.00     0.162 A 
ATOM     14  C   UNL     1      76.410  87.341  91.757  1.00  0.00     0.066 A 
ATOM     15  C   UNL     1      75.798  87.925  89.475  1.00  0.00     0.200 A 
ATOM     16  C   UNL     1      75.604  88.054  90.863  1.00  0.00     0.162 A 
BRANCH  13  17
ATOM     17  O   UNL     1      77.024  86.843  87.630  1.00  0.00    -0.504 OA
ATOM     18  H   UNL     1      76.536  86.148  87.090  1.00  0.00     0.293 HD
ENDBRANCH  13  17
BRANCH  15  19
ATOM     19  O   UNL     1      74.984  88.668  88.615  1.00  0.00    -0.502 OA
ATOM     20  H   UNL     1      74.369  88.269  87.923  1.00  0.00     0.293 HD
ENDBRANCH  15  19
BRANCH  16  21
ATOM     21  O   UNL     1      74.614  88.891  91.378  1.00  0.00    -0.504 OA
ATOM     22  H   UNL     1      74.736  89.895  91.435  1.00  0.00     0.293 HD
ENDBRANCH  16  21
ENDBRANCH   9  11
ENDBRANCH   8   9
ENDBRANCH   7   8
ENDBRANCH   1   7
BRANCH   2  23
ATOM     23  O   UNL     1      79.155  81.253  89.954  1.00  0.00    -0.452 OA
BRANCH  23  24
ATOM     24  C   UNL     1      80.525  80.958  89.956  1.00  0.00     0.338 C 
ATOM     25  O   UNL     1      81.363  81.875  89.757  1.00  0.00    -0.246 OA
BRANCH  24  26
ATOM     26  C   UNL     1      80.972  79.571  90.211  1.00  0.00     0.067 A 
ATOM     27  C   UNL     1      81.325  78.720  89.148  1.00  0.00     0.066 A 
ATOM     28  C   UNL     1      80.994  79.069  91.523  1.00  0.00     0.066 A 
ATOM     29  C   UNL     1      81.682  77.383  89.391  1.00  0.00     0.162 A 
ATOM     30  C   UNL     1      81.359  77.742  91.771  1.00  0.00     0.162 A 
ATOM     31  C   UNL     1      81.702  76.893  90.708  1.00  0.00     0.200 A 
BRANCH  29  32
ATOM     32  O   UNL     1      82.009  76.541  88.332  1.00  0.00    -0.504 OA
ATOM     33  H   UNL     1      81.410  76.455  87.519  1.00  0.00     0.293 HD
ENDBRANCH  29  32
BRANCH  30  34
ATOM     34  O   UNL     1      81.367  77.282  93.086  1.00  0.00    -0.504 OA
ATOM     35  H   UNL     1      80.841  76.462  93.374  1.00  0.00     0.293 HD
ENDBRANCH  30  34
BRANCH  31  36
ATOM     36  O   UNL     1      82.050  75.571  90.977  1.00  0.00    -0.502 OA
ATOM     37  H   UNL     1      82.884  75.326  91.496  1.00  0.00     0.293 HD
ENDBRANCH  31  36
ENDBRANCH  24  26
ENDBRANCH  23  24
ENDBRANCH   2  23
BRANCH   3  38
ATOM     38  O   UNL     1      77.648  78.863  90.238  1.00  0.00    -0.450 OA
BRANCH  38  39
ATOM     39  C   UNL     1      77.490  77.697  91.001  1.00  0.00     0.338 C 
ATOM     40  O   UNL     1      77.020  77.766  92.170  1.00  0.00    -0.246 OA
BRANCH  39  41
ATOM     41  C   UNL     1      77.854  76.381  90.432  1.00  0.00     0.067 A 
ATOM     42  C   UNL     1      78.467  76.298  89.169  1.00  0.00     0.066 A 
ATOM     43  C   UNL     1      77.595  75.201  91.148  1.00  0.00     0.066 A 
ATOM     44  C   UNL     1      78.811  75.057  88.627  1.00  0.00     0.162 A 
ATOM     45  C   UNL     1      77.931  73.953  90.614  1.00  0.00     0.162 A 
ATOM     46  C   UNL     1      78.538  73.875  89.334  1.00  0.00     0.200 A 
BRANCH  44  47
ATOM     47  O   UNL     1      79.431  74.996  87.377  1.00  0.00    -0.504 OA
ATOM     48  H   UNL     1      79.116  75.567  86.597  1.00  0.00     0.293 HD
ENDBRANCH  44  47
BRANCH  45  49
ATOM     49  O   UNL     1      77.643  72.824  91.382  1.00  0.00    -0.504 OA
ATOM     50  H   UNL     1      76.868  72.201  91.205  1.00  0.00     0.293 HD
ENDBRANCH  45  49
BRANCH  46  51
ATOM     51  O   UNL     1      78.879  72.662  88.730  1.00  0.00    -0.502 OA
ATOM     52  H   UNL     1      79.834  72.344  88.608  1.00  0.00     0.293 HD
ENDBRANCH  46  51
ENDBRANCH  39  41
ENDBRANCH  38  39
ENDBRANCH   3  38
BRANCH   5  53
ATOM     53  O   UNL     1      74.891  82.136  91.000  1.00  0.00    -0.428 OA
BRANCH  53  54
ATOM     54  C   UNL     1      73.553  82.488  90.792  1.00  0.00     0.340 C 
ATOM     55  O   UNL     1      72.642  81.626  90.881  1.00  0.00    -0.246 OA
BRANCH  54  56
ATOM     56  C   UNL     1      73.216  83.884  90.471  1.00  0.00     0.067 A 
ATOM     57  C   UNL     1      73.172  84.324  89.143  1.00  0.00     0.066 A 
ATOM     58  C   UNL     1      72.922  84.784  91.501  1.00  0.00     0.066 A 
ATOM     59  C   UNL     1      72.806  85.640  88.831  1.00  0.00     0.162 A 
ATOM     60  C   UNL     1      72.583  86.107  91.216  1.00  0.00     0.162 A 
ATOM     61  C   UNL     1      72.505  86.548  89.878  1.00  0.00     0.200 A 
BRANCH  59  62
ATOM     62  O   UNL     1      72.752  85.991  87.478  1.00  0.00    -0.504 OA
ATOM     63  H   UNL     1      72.823  86.943  87.137  1.00  0.00     0.293 HD
ENDBRANCH  59  62
BRANCH  60  64
ATOM     64  O   UNL     1      72.333  86.974  92.279  1.00  0.00    -0.504 OA
ATOM     65  H   UNL     1      71.558  86.831  92.919  1.00  0.00     0.293 HD
ENDBRANCH  60  64
BRANCH  61  66
ATOM     66  O   UNL     1      72.124  87.875  89.629  1.00  0.00    -0.502 OA
ATOM     67  H   UNL     1      72.017  88.270  88.705  1.00  0.00     0.293 HD
ENDBRANCH  61  66
ENDBRANCH  54  56
ENDBRANCH  53  54
ENDBRANCH   5  53
BRANCH   4  68
ATOM     68  O   UNL     1      75.140  80.039  89.275  1.00  0.00    -0.448 OA
BRANCH  68  69
ATOM     69  C   UNL     1      74.556  79.905  88.011  1.00  0.00     0.339 C 
ATOM     70  O   UNL     1      73.965  80.885  87.477  1.00  0.00    -0.246 OA
BRANCH  69  71
ATOM     71  C   UNL     1      74.624  78.605  87.312  1.00  0.00     0.067 A 
ATOM     72  C   UNL     1      75.854  78.063  86.917  1.00  0.00     0.066 A 
ATOM     73  C   UNL     1      73.448  77.888  87.039  1.00  0.00     0.066 A 
ATOM     74  C   UNL     1      75.916  76.818  86.274  1.00  0.00     0.162 A 
ATOM     75  C   UNL     1      73.498  76.645  86.402  1.00  0.00     0.162 A 
ATOM     76  C   UNL     1      74.734  76.103  86.016  1.00  0.00     0.200 A 
BRANCH  74  77
ATOM     77  O   UNL     1      77.148  76.282  85.898  1.00  0.00    -0.504 OA
ATOM     78  H   UNL     1      77.881  76.110  86.578  1.00  0.00     0.293 HD
ENDBRANCH  74  77
BRANCH  75  79
ATOM     79  O   UNL     1      72.307  75.959  86.160  1.00  0.00    -0.504 OA
ATOM     80  H   UNL     1      72.183  74.987  86.412  1.00  0.00     0.293 HD
ENDBRANCH  75  79
BRANCH  76  81
ATOM     81  O   UNL     1      74.776  74.861  85.380  1.00  0.00    -0.502 OA
ATOM     82  H   UNL     1      74.827  73.992  85.890  1.00  0.00     0.293 HD
ENDBRANCH  76  81
ENDBRANCH  69  71
ENDBRANCH  68  69
ENDBRANCH   4  68
TORSDOF 31
ENDMDL
MODEL 6
REMARK VINA RESULT:    -3.893     11.235     15.839
REMARK INTER + INTRA:         -16.627
REMARK INTER:                  -7.900
REMARK INTRA:                  -8.727
REMARK UNBOUND:                -7.384
REMARK SMILES O=C(OC[C@H]1O[C@H](OC(=O)c2cc(O)c(O)c(O)c2)[C@H](OC(=O)c2cc(O)c(O)c(O)c2)[C@@H](OC(=O)c2cc(O)c(O)c(O)c2)[C@H]1OC(=O)c1cc(O)c(O)c(O)c1)c1cc(O)c(O)c(O)c1
REMARK SMILES IDX 5 1 46 2 33 3 20 4 7 5 6 6 4 7 3 8 2 9 1 10 59 11 60 12
REMARK SMILES IDX 61 13 67 14 63 15 65 16 62 17 64 19 66 21 47 23 48 24 49 25
REMARK SMILES IDX 50 26 58 27 51 28 56 29 52 30 54 31 57 32 53 34 55 36 34 38
REMARK SMILES IDX 35 39 36 40 37 41 45 42 38 43 43 44 39 45 41 46 44 47 40 49
REMARK SMILES IDX 42 51 8 53 9 54 10 55 11 56 19 57 12 58 17 59 13 60 15 61
REMARK SMILES IDX 18 62 14 64 16 66 21 68 22 69 23 70 24 71 32 72 25 73 30 74
REMARK SMILES IDX 26 75 28 76 31 77 27 79 29 81
REMARK H PARENT 62 18 64 20 66 22 57 33 53 35 55 37 44 48 40 50 42 52 18 63
REMARK H PARENT 14 65 16 67 31 78 27 80 29 82
REMARK Flexibility Score: inf
ROOT
ATOM      1  C   UNL     1      79.917  83.345  91.111  1.00  0.00     0.205 C 
ATOM      2  C   UNL     1      78.425  83.535  90.782  1.00  0.00     0.254 C 
ATOM      3  C   UNL     1      77.913  82.218  90.190  1.00  0.00     0.267 C 
ATOM      4  C   UNL     1      78.159  81.072  91.189  1.00  0.00     0.290 C 
ATOM      5  C   UNL     1      79.645  81.066  91.615  1.00  0.00     0.357 C 
ATOM      6  O   UNL     1      80.074  82.334  92.097  1.00  0.00    -0.329 OA
ENDROOT
BRANCH   1   7
ATOM      7  C   UNL     1      80.577  84.644  91.609  1.00  0.00     0.269 C 
BRANCH   7   8
ATOM      8  O   UNL     1      81.202  85.308  90.516  1.00  0.00    -0.459 OA
BRANCH   8   9
ATOM      9  C   UNL     1      80.861  86.614  90.137  1.00  0.00     0.338 C 
ATOM     10  O   UNL     1      81.165  87.587  90.887  1.00  0.00    -0.246 OA
BRANCH   9  11
ATOM     11  C   UNL     1      80.119  86.849  88.881  1.00  0.00     0.067 A 
ATOM     12  C   UNL     1      79.371  85.816  88.299  1.00  0.00     0.066 A 
ATOM     13  C   UNL     1      78.707  86.007  87.085  1.00  0.00     0.162 A 
ATOM     14  C   UNL     1      80.190  88.099  88.233  1.00  0.00     0.066 A 
ATOM     15  C   UNL     1      78.809  87.250  86.417  1.00  0.00     0.200 A 
ATOM     16  C   UNL     1      79.549  88.293  87.004  1.00  0.00     0.162 A 
BRANCH  13  17
ATOM     17  O   UNL     1      77.951  84.945  86.588  1.00  0.00    -0.504 OA
ATOM     18  H   UNL     1      78.271  83.992  86.575  1.00  0.00     0.293 HD
ENDBRANCH  13  17
BRANCH  15  19
ATOM     19  O   UNL     1      78.199  87.479  85.179  1.00  0.00    -0.502 OA
ATOM     20  H   UNL     1      77.590  88.257  84.978  1.00  0.00     0.293 HD
ENDBRANCH  15  19
BRANCH  16  21
ATOM     21  O   UNL     1      79.665  89.535  86.380  1.00  0.00    -0.504 OA
ATOM     22  H   UNL     1      79.255  90.374  86.772  1.00  0.00     0.293 HD
ENDBRANCH  16  21
ENDBRANCH   9  11
ENDBRANCH   8   9
ENDBRANCH   7   8
ENDBRANCH   1   7
BRANCH   2  23
ATOM     23  O   UNL     1      77.689  83.828  91.970  1.00  0.00    -0.452 OA
BRANCH  23  24
ATOM     24  C   UNL     1      76.611  84.722  92.029  1.00  0.00     0.338 C 
ATOM     25  O   UNL     1      75.603  84.441  92.728  1.00  0.00    -0.246 OA
BRANCH  24  26
ATOM     26  C   UNL     1      76.680  85.997  91.282  1.00  0.00     0.067 A 
ATOM     27  C   UNL     1      75.954  86.174  90.090  1.00  0.00     0.066 A 
ATOM     28  C   UNL     1      77.519  87.030  91.730  1.00  0.00     0.066 A 
ATOM     29  C   UNL     1      76.077  87.361  89.348  1.00  0.00     0.162 A 
ATOM     30  C   UNL     1      77.636  88.218  91.000  1.00  0.00     0.162 A 
ATOM     31  C   UNL     1      76.919  88.388  89.807  1.00  0.00     0.200 A 
BRANCH  29  32
ATOM     32  O   UNL     1      75.372  87.520  88.158  1.00  0.00    -0.504 OA
ATOM     33  H   UNL     1      75.746  88.065  87.390  1.00  0.00     0.293 HD
ENDBRANCH  29  32
BRANCH  30  34
ATOM     34  O   UNL     1      78.481  89.218  91.476  1.00  0.00    -0.504 OA
ATOM     35  H   UNL     1      79.336  89.007  91.981  1.00  0.00     0.293 HD
ENDBRANCH  30  34
BRANCH  31  36
ATOM     36  O   UNL     1      77.060  89.574  89.090  1.00  0.00    -0.502 OA
ATOM     37  H   UNL     1      77.466  90.407  89.496  1.00  0.00     0.293 HD
ENDBRANCH  31  36
ENDBRANCH  24  26
ENDBRANCH  23  24
ENDBRANCH   2  23
BRANCH   3  38
ATOM     38  O   UNL     1      76.529  82.326  89.858  1.00  0.00    -0.450 OA
BRANCH  38  39
ATOM     39  C   UNL     1      76.050  82.149  88.552  1.00  0.00     0.338 C 
ATOM     40  O   UNL     1      75.996  83.130  87.761  1.00  0.00    -0.246 OA
BRANCH  39  41
ATOM     41  C   UNL     1      75.626  80.809  88.091  1.00  0.00     0.067 A 
ATOM     42  C   UNL     1      74.504  80.183  88.661  1.00  0.00     0.066 A 
ATOM     43  C   UNL     1      76.337  80.149  87.075  1.00  0.00     0.066 A 
ATOM     44  C   UNL     1      74.100  78.917  88.229  1.00  0.00     0.162 A 
ATOM     45  C   UNL     1      75.946  78.880  86.637  1.00  0.00     0.162 A 
ATOM     46  C   UNL     1      74.819  78.249  87.226  1.00  0.00     0.200 A 
BRANCH  44  47
ATOM     47  O   UNL     1      72.975  78.318  88.799  1.00  0.00    -0.504 OA
ATOM     48  H   UNL     1      72.058  78.381  88.363  1.00  0.00     0.293 HD
ENDBRANCH  44  47
BRANCH  45  49
ATOM     49  O   UNL     1      76.700  78.286  85.625  1.00  0.00    -0.504 OA
ATOM     50  H   UNL     1      76.304  77.851  84.804  1.00  0.00     0.293 HD
ENDBRANCH  45  49
BRANCH  46  51
ATOM     51  O   UNL     1      74.386  76.973  86.854  1.00  0.00    -0.502 OA
ATOM     52  H   UNL     1      73.442  76.635  87.003  1.00  0.00     0.293 HD
ENDBRANCH  46  51
ENDBRANCH  39  41
ENDBRANCH  38  39
ENDBRANCH   3  38
BRANCH   5  53
ATOM     53  O   UNL     1      80.471  80.624  90.539  1.00  0.00    -0.428 OA
BRANCH  53  54
ATOM     54  C   UNL     1      81.207  79.435  90.573  1.00  0.00     0.340 C 
ATOM     55  O   UNL     1      82.052  79.229  91.481  1.00  0.00    -0.246 OA
BRANCH  54  56
ATOM     56  C   UNL     1      80.981  78.417  89.534  1.00  0.00     0.067 A 
ATOM     57  C   UNL     1      81.314  77.076  89.759  1.00  0.00     0.066 A 
ATOM     58  C   UNL     1      80.413  78.785  88.309  1.00  0.00     0.066 A 
ATOM     59  C   UNL     1      81.058  76.096  88.792  1.00  0.00     0.162 A 
ATOM     60  C   UNL     1      80.175  77.831  87.319  1.00  0.00     0.162 A 
ATOM     61  C   UNL     1      80.478  76.474  87.553  1.00  0.00     0.200 A 
BRANCH  59  62
ATOM     62  O   UNL     1      81.388  74.775  89.108  1.00  0.00    -0.504 OA
ATOM     63  H   UNL     1      81.184  73.981  88.510  1.00  0.00     0.293 HD
ENDBRANCH  59  62
BRANCH  60  64
ATOM     64  O   UNL     1      79.641  78.255  86.102  1.00  0.00    -0.504 OA
ATOM     65  H   UNL     1      78.731  78.699  86.041  1.00  0.00     0.293 HD
ENDBRANCH  60  64
BRANCH  61  66
ATOM     66  O   UNL     1      80.190  75.538  86.548  1.00  0.00    -0.502 OA
ATOM     67  H   UNL     1      80.706  75.458  85.683  1.00  0.00     0.293 HD
ENDBRANCH  61  66
ENDBRANCH  54  56
ENDBRANCH  53  54
ENDBRANCH   5  53
BRANCH   4  68
ATOM     68  O   UNL     1      77.866  79.817  90.580  1.00  0.00    -0.448 OA
BRANCH  68  69
ATOM     69  C   UNL     1      77.365  78.707  91.266  1.00  0.00     0.339 C 
ATOM     70  O   UNL     1      76.797  78.854  92.385  1.00  0.00    -0.246 OA
BRANCH  69  71
ATOM     71  C   UNL     1      77.518  77.359  90.681  1.00  0.00     0.067 A 
ATOM     72  C   UNL     1      77.918  76.272  91.468  1.00  0.00     0.066 A 
ATOM     73  C   UNL     1      77.253  77.147  89.318  1.00  0.00     0.066 A 
ATOM     74  C   UNL     1      78.041  74.989  90.914  1.00  0.00     0.162 A 
ATOM     75  C   UNL     1      77.369  75.872  88.756  1.00  0.00     0.162 A 
ATOM     76  C   UNL     1      77.762  74.787  89.552  1.00  0.00     0.200 A 
BRANCH  74  77
ATOM     77  O   UNL     1      78.428  73.913  91.713  1.00  0.00    -0.504 OA
ATOM     78  H   UNL     1      78.951  74.051  92.571  1.00  0.00     0.293 HD
ENDBRANCH  74  77
BRANCH  75  79
ATOM     79  O   UNL     1      77.084  75.702  87.399  1.00  0.00    -0.504 OA
ATOM     80  H   UNL     1      76.178  75.397  87.071  1.00  0.00     0.293 HD
ENDBRANCH  75  79
BRANCH  76  81
ATOM     81  O   UNL     1      77.875  73.517  88.983  1.00  0.00    -0.502 OA
ATOM     82  H   UNL     1      77.317  72.733  89.288  1.00  0.00     0.293 HD
ENDBRANCH  76  81
ENDBRANCH  69  71
ENDBRANCH  68  69
ENDBRANCH   4  68
TORSDOF 31
ENDMDL
MODEL 7
REMARK VINA RESULT:    -3.885     11.178     15.791
REMARK INTER + INTRA:         -16.607
REMARK INTER:                  -7.485
REMARK INTRA:                  -9.122
REMARK UNBOUND:                -7.384
REMARK SMILES O=C(OC[C@H]1O[C@H](OC(=O)c2cc(O)c(O)c(O)c2)[C@H](OC(=O)c2cc(O)c(O)c(O)c2)[C@@H](OC(=O)c2cc(O)c(O)c(O)c2)[C@H]1OC(=O)c1cc(O)c(O)c(O)c1)c1cc(O)c(O)c(O)c1
REMARK SMILES IDX 5 1 46 2 33 3 20 4 7 5 6 6 4 7 3 8 2 9 1 10 59 11 60 12
REMARK SMILES IDX 61 13 67 14 63 15 65 16 62 17 64 19 66 21 47 23 48 24 49 25
REMARK SMILES IDX 50 26 58 27 51 28 56 29 52 30 54 31 57 32 53 34 55 36 34 38
REMARK SMILES IDX 35 39 36 40 37 41 45 42 38 43 43 44 39 45 41 46 44 47 40 49
REMARK SMILES IDX 42 51 8 53 9 54 10 55 11 56 19 57 12 58 17 59 13 60 15 61
REMARK SMILES IDX 18 62 14 64 16 66 21 68 22 69 23 70 24 71 32 72 25 73 30 74
REMARK SMILES IDX 26 75 28 76 31 77 27 79 29 81
REMARK H PARENT 62 18 64 20 66 22 57 33 53 35 55 37 44 48 40 50 42 52 18 63
REMARK H PARENT 14 65 16 67 31 78 27 80 29 82
REMARK Flexibility Score: inf
ROOT
ATOM      1  C   UNL     1      80.001  83.432  91.132  1.00  0.00     0.205 C 
ATOM      2  C   UNL     1      78.524  83.599  90.729  1.00  0.00     0.254 C 
ATOM      3  C   UNL     1      78.066  82.276  90.105  1.00  0.00     0.267 C 
ATOM      4  C   UNL     1      78.282  81.128  91.108  1.00  0.00     0.290 C 
ATOM      5  C   UNL     1      79.745  81.145  91.609  1.00  0.00     0.357 C 
ATOM      6  O   UNL     1      80.126  82.418  92.119  1.00  0.00    -0.329 OA
ENDROOT
BRANCH   1   7
ATOM      7  C   UNL     1      80.611  84.739  91.671  1.00  0.00     0.269 C 
BRANCH   7   8
ATOM      8  O   UNL     1      81.304  85.407  90.621  1.00  0.00    -0.459 OA
BRANCH   8   9
ATOM      9  C   UNL     1      80.948  86.691  90.184  1.00  0.00     0.338 C 
ATOM     10  O   UNL     1      81.209  87.697  90.905  1.00  0.00    -0.246 OA
BRANCH   9  11
ATOM     11  C   UNL     1      80.238  86.862  88.900  1.00  0.00     0.067 A 
ATOM     12  C   UNL     1      80.268  88.095  88.235  1.00  0.00     0.066 A 
ATOM     13  C   UNL     1      79.560  88.288  87.047  1.00  0.00     0.162 A 
ATOM     14  C   UNL     1      79.486  85.803  88.353  1.00  0.00     0.066 A 
ATOM     15  C   UNL     1      78.776  87.236  86.518  1.00  0.00     0.200 A 
ATOM     16  C   UNL     1      78.752  85.993  87.177  1.00  0.00     0.162 A 
BRANCH  13  17
ATOM     17  O   UNL     1      79.671  89.531  86.423  1.00  0.00    -0.504 OA
ATOM     18  H   UNL     1      80.329  89.729  85.689  1.00  0.00     0.293 HD
ENDBRANCH  13  17
BRANCH  15  19
ATOM     19  O   UNL     1      78.014  87.390  85.356  1.00  0.00    -0.502 OA
ATOM     20  H   UNL     1      78.234  86.967  84.468  1.00  0.00     0.293 HD
ENDBRANCH  15  19
BRANCH  16  21
ATOM     21  O   UNL     1      77.998  84.929  86.681  1.00  0.00    -0.504 OA
ATOM     22  H   UNL     1      78.397  84.227  86.069  1.00  0.00     0.293 HD
ENDBRANCH  16  21
ENDBRANCH   9  11
ENDBRANCH   8   9
ENDBRANCH   7   8
ENDBRANCH   1   7
BRANCH   2  23
ATOM     23  O   UNL     1      77.724  83.870  91.881  1.00  0.00    -0.452 OA
BRANCH  23  24
ATOM     24  C   UNL     1      76.685  84.810  91.915  1.00  0.00     0.338 C 
ATOM     25  O   UNL     1      75.657  84.583  92.604  1.00  0.00    -0.246 OA
BRANCH  24  26
ATOM     26  C   UNL     1      76.818  86.071  91.152  1.00  0.00     0.067 A 
ATOM     27  C   UNL     1      77.641  87.113  91.619  1.00  0.00     0.066 A 
ATOM     28  C   UNL     1      76.077  86.263  89.975  1.00  0.00     0.066 A 
ATOM     29  C   UNL     1      77.710  88.334  90.927  1.00  0.00     0.162 A 
ATOM     30  C   UNL     1      76.151  87.473  89.277  1.00  0.00     0.162 A 
ATOM     31  C   UNL     1      76.965  88.513  89.750  1.00  0.00     0.200 A 
BRANCH  29  32
ATOM     32  O   UNL     1      78.510  89.367  91.408  1.00  0.00    -0.504 OA
ATOM     33  H   UNL     1      78.625  89.530  92.401  1.00  0.00     0.293 HD
ENDBRANCH  29  32
BRANCH  30  34
ATOM     34  O   UNL     1      75.398  87.626  88.115  1.00  0.00    -0.504 OA
ATOM     35  H   UNL     1      75.424  86.945  87.362  1.00  0.00     0.293 HD
ENDBRANCH  30  34
BRANCH  31  36
ATOM     36  O   UNL     1      77.014  89.714  89.046  1.00  0.00    -0.502 OA
ATOM     37  H   UNL     1      77.805  89.973  88.471  1.00  0.00     0.293 HD
ENDBRANCH  31  36
ENDBRANCH  24  26
ENDBRANCH  23  24
ENDBRANCH   2  23
BRANCH   3  38
ATOM     38  O   UNL     1      76.699  82.362  89.703  1.00  0.00    -0.450 OA
BRANCH  38  39
ATOM     39  C   UNL     1      76.305  82.347  88.358  1.00  0.00     0.338 C 
ATOM     40  O   UNL     1      75.712  83.344  87.863  1.00  0.00    -0.246 OA
BRANCH  39  41
ATOM     41  C   UNL     1      76.600  81.171  87.510  1.00  0.00     0.067 A 
ATOM     42  C   UNL     1      77.858  81.033  86.900  1.00  0.00     0.066 A 
ATOM     43  C   UNL     1      75.627  80.178  87.309  1.00  0.00     0.066 A 
ATOM     44  C   UNL     1      78.141  79.924  86.097  1.00  0.00     0.162 A 
ATOM     45  C   UNL     1      75.896  79.066  86.505  1.00  0.00     0.162 A 
ATOM     46  C   UNL     1      77.165  78.939  85.881  1.00  0.00     0.200 A 
BRANCH  44  47
ATOM     47  O   UNL     1      79.402  79.799  85.510  1.00  0.00    -0.504 OA
ATOM     48  H   UNL     1      79.670  78.964  84.995  1.00  0.00     0.293 HD
ENDBRANCH  44  47
BRANCH  45  49
ATOM     49  O   UNL     1      74.882  78.121  86.350  1.00  0.00    -0.504 OA
ATOM     50  H   UNL     1      75.044  77.137  86.194  1.00  0.00     0.293 HD
ENDBRANCH  45  49
BRANCH  46  51
ATOM     51  O   UNL     1      77.494  77.867  85.047  1.00  0.00    -0.502 OA
ATOM     52  H   UNL     1      78.191  77.168  85.279  1.00  0.00     0.293 HD
ENDBRANCH  46  51
ENDBRANCH  39  41
ENDBRANCH  38  39
ENDBRANCH   3  38
BRANCH   5  53
ATOM     53  O   UNL     1      80.632  80.726  90.572  1.00  0.00    -0.428 OA
BRANCH  53  54
ATOM     54  C   UNL     1      81.524  79.658  90.710  1.00  0.00     0.340 C 
ATOM     55  O   UNL     1      82.552  79.769  91.427  1.00  0.00    -0.246 OA
BRANCH  54  56
ATOM     56  C   UNL     1      81.248  78.392  90.012  1.00  0.00     0.067 A 
ATOM     57  C   UNL     1      80.799  78.388  88.685  1.00  0.00     0.066 A 
ATOM     58  C   UNL     1      81.449  77.174  90.671  1.00  0.00     0.066 A 
ATOM     59  C   UNL     1      80.579  77.185  88.002  1.00  0.00     0.162 A 
ATOM     60  C   UNL     1      81.209  75.964  90.019  1.00  0.00     0.162 A 
ATOM     61  C   UNL     1      80.788  75.953  88.673  1.00  0.00     0.200 A 
BRANCH  59  62
ATOM     62  O   UNL     1      80.164  77.267  86.669  1.00  0.00    -0.504 OA
ATOM     63  H   UNL     1      80.797  77.255  85.877  1.00  0.00     0.293 HD
ENDBRANCH  59  62
BRANCH  60  64
ATOM     64  O   UNL     1      81.389  74.778  90.731  1.00  0.00    -0.504 OA
ATOM     65  H   UNL     1      80.987  73.899  90.420  1.00  0.00     0.293 HD
ENDBRANCH  60  64
BRANCH  61  66
ATOM     66  O   UNL     1      80.593  74.717  88.039  1.00  0.00    -0.502 OA
ATOM     67  H   UNL     1      81.034  73.855  88.330  1.00  0.00     0.293 HD
ENDBRANCH  61  66
ENDBRANCH  54  56
ENDBRANCH  53  54
ENDBRANCH   5  53
BRANCH   4  68
ATOM     68  O   UNL     1      78.043  79.872  90.477  1.00  0.00    -0.448 OA
BRANCH  68  69
ATOM     69  C   UNL     1      77.285  78.841  91.039  1.00  0.00     0.339 C 
ATOM     70  O   UNL     1      76.552  79.065  92.043  1.00  0.00    -0.246 OA
BRANCH  69  71
ATOM     71  C   UNL     1      77.358  77.484  90.459  1.00  0.00     0.067 A 
ATOM     72  C   UNL     1      77.025  77.253  89.119  1.00  0.00     0.066 A 
ATOM     73  C   UNL     1      77.775  76.400  91.250  1.00  0.00     0.066 A 
ATOM     74  C   UNL     1      77.118  75.967  88.566  1.00  0.00     0.162 A 
ATOM     75  C   UNL     1      77.874  75.115  90.708  1.00  0.00     0.162 A 
ATOM     76  C   UNL     1      77.547  74.893  89.363  1.00  0.00     0.200 A 
BRANCH  74  77
ATOM     77  O   UNL     1      76.795  75.755  87.225  1.00  0.00    -0.504 OA
ATOM     78  H   UNL     1      77.479  75.888  86.488  1.00  0.00     0.293 HD
ENDBRANCH  74  77
BRANCH  75  79
ATOM     79  O   UNL     1      78.305  74.068  91.525  1.00  0.00    -0.504 OA
ATOM     80  H   UNL     1      79.279  73.812  91.607  1.00  0.00     0.293 HD
ENDBRANCH  75  79
BRANCH  76  81
ATOM     81  O   UNL     1      77.649  73.607  88.830  1.00  0.00    -0.502 OA
ATOM     82  H   UNL     1      76.978  73.236  88.173  1.00  0.00     0.293 HD
ENDBRANCH  76  81
ENDBRANCH  69  71
ENDBRANCH  68  69
ENDBRANCH   4  68
TORSDOF 31
ENDMDL
MODEL 8
REMARK VINA RESULT:    -3.840      9.378     12.819
REMARK INTER + INTRA:         -16.500
REMARK INTER:                  -7.871
REMARK INTRA:                  -8.629
REMARK UNBOUND:                -7.384
REMARK SMILES O=C(OC[C@H]1O[C@H](OC(=O)c2cc(O)c(O)c(O)c2)[C@H](OC(=O)c2cc(O)c(O)c(O)c2)[C@@H](OC(=O)c2cc(O)c(O)c(O)c2)[C@H]1OC(=O)c1cc(O)c(O)c(O)c1)c1cc(O)c(O)c(O)c1
REMARK SMILES IDX 5 1 46 2 33 3 20 4 7 5 6 6 4 7 3 8 2 9 1 10 59 11 60 12
REMARK SMILES IDX 61 13 67 14 63 15 65 16 62 17 64 19 66 21 47 23 48 24 49 25
REMARK SMILES IDX 50 26 58 27 51 28 56 29 52 30 54 31 57 32 53 34 55 36 34 38
REMARK SMILES IDX 35 39 36 40 37 41 45 42 38 43 43 44 39 45 41 46 44 47 40 49
REMARK SMILES IDX 42 51 8 53 9 54 10 55 11 56 19 57 12 58 17 59 13 60 15 61
REMARK SMILES IDX 18 62 14 64 16 66 21 68 22 69 23 70 24 71 32 72 25 73 30 74
REMARK SMILES IDX 26 75 28 76 31 77 27 79 29 81
REMARK H PARENT 62 18 64 20 66 22 57 33 53 35 55 37 44 48 40 50 42 52 18 63
REMARK H PARENT 14 65 16 67 31 78 27 80 29 82
REMARK Flexibility Score: inf
ROOT
ATOM      1  C   UNL     1      86.569  76.445  91.586  1.00  0.00     0.205 C 
ATOM      2  C   UNL     1      86.256  77.771  90.871  1.00  0.00     0.254 C 
ATOM      3  C   UNL     1      84.910  77.603  90.158  1.00  0.00     0.267 C 
ATOM      4  C   UNL     1      83.828  77.211  91.181  1.00  0.00     0.290 C 
ATOM      5  C   UNL     1      84.300  75.981  91.989  1.00  0.00     0.357 C 
ATOM      6  O   UNL     1      85.582  76.179  92.574  1.00  0.00    -0.329 OA
ENDROOT
BRANCH   1   7
ATOM      7  C   UNL     1      87.958  76.450  92.249  1.00  0.00     0.269 C 
BRANCH   7   8
ATOM      8  O   UNL     1      88.952  76.156  91.272  1.00  0.00    -0.459 OA
BRANCH   8   9
ATOM      9  C   UNL     1      89.007  74.924  90.606  1.00  0.00     0.338 C 
ATOM     10  O   UNL     1      89.543  73.927  91.169  1.00  0.00    -0.246 OA
BRANCH   9  11
ATOM     11  C   UNL     1      88.468  74.802  89.235  1.00  0.00     0.067 A 
ATOM     12  C   UNL     1      89.022  75.551  88.189  1.00  0.00     0.066 A 
ATOM     13  C   UNL     1      88.491  75.485  86.899  1.00  0.00     0.162 A 
ATOM     14  C   UNL     1      87.364  73.965  88.974  1.00  0.00     0.066 A 
ATOM     15  C   UNL     1      87.361  74.673  86.646  1.00  0.00     0.200 A 
ATOM     16  C   UNL     1      86.808  73.911  87.691  1.00  0.00     0.162 A 
BRANCH  13  17
ATOM     17  O   UNL     1      89.121  76.231  85.901  1.00  0.00    -0.504 OA
ATOM     18  H   UNL     1      88.934  77.204  85.730  1.00  0.00     0.293 HD
ENDBRANCH  13  17
BRANCH  15  19
ATOM     19  O   UNL     1      86.764  74.606  85.383  1.00  0.00    -0.502 OA
ATOM     20  H   UNL     1      86.835  75.324  84.678  1.00  0.00     0.293 HD
ENDBRANCH  15  19
BRANCH  16  21
ATOM     21  O   UNL     1      85.699  73.092  87.478  1.00  0.00    -0.504 OA
ATOM     22  H   UNL     1      85.370  72.440  88.179  1.00  0.00     0.293 HD
ENDBRANCH  16  21
ENDBRANCH   9  11
ENDBRANCH   8   9
ENDBRANCH   7   8
ENDBRANCH   1   7
BRANCH   2  23
ATOM     23  O   UNL     1      86.148  78.833  91.820  1.00  0.00    -0.452 OA
BRANCH  23  24
ATOM     24  C   UNL     1      86.257  80.193  91.498  1.00  0.00     0.338 C 
ATOM     25  O   UNL     1      85.309  80.977  91.763  1.00  0.00    -0.246 OA
BRANCH  24  26
ATOM     26  C   UNL     1      87.496  80.695  90.864  1.00  0.00     0.067 A 
ATOM     27  C   UNL     1      87.458  81.329  89.608  1.00  0.00     0.066 A 
ATOM     28  C   UNL     1      88.737  80.493  91.488  1.00  0.00     0.066 A 
ATOM     29  C   UNL     1      88.645  81.742  88.980  1.00  0.00     0.162 A 
ATOM     30  C   UNL     1      89.921  80.911  90.871  1.00  0.00     0.162 A 
ATOM     31  C   UNL     1      89.880  81.535  89.615  1.00  0.00     0.200 A 
BRANCH  29  32
ATOM     32  O   UNL     1      88.601  82.349  87.728  1.00  0.00    -0.504 OA
ATOM     33  H   UNL     1      88.123  81.915  86.946  1.00  0.00     0.293 HD
ENDBRANCH  29  32
BRANCH  30  34
ATOM     34  O   UNL     1      91.133  80.690  91.522  1.00  0.00    -0.504 OA
ATOM     35  H   UNL     1      92.017  80.671  91.024  1.00  0.00     0.293 HD
ENDBRANCH  30  34
BRANCH  31  36
ATOM     36  O   UNL     1      91.073  81.933  89.014  1.00  0.00    -0.502 OA
ATOM     37  H   UNL     1      91.472  81.440  88.225  1.00  0.00     0.293 HD
ENDBRANCH  31  36
ENDBRANCH  24  26
ENDBRANCH  23  24
ENDBRANCH   2  23
BRANCH   3  38
ATOM     38  O   UNL     1      84.559  78.802  89.467  1.00  0.00    -0.450 OA
BRANCH  38  39
ATOM     39  C   UNL     1      84.572  78.900  88.069  1.00  0.00     0.338 C 
ATOM     40  O   UNL     1      85.308  79.753  87.502  1.00  0.00    -0.246 OA
BRANCH  39  41
ATOM     41  C   UNL     1      83.740  77.989  87.252  1.00  0.00     0.067 A 
ATOM     42  C   UNL     1      84.200  76.700  86.934  1.00  0.00     0.066 A 
ATOM     43  C   UNL     1      82.479  78.401  86.790  1.00  0.00     0.066 A 
ATOM     44  C   UNL     1      83.418  75.836  86.162  1.00  0.00     0.162 A 
ATOM     45  C   UNL     1      81.689  77.548  86.013  1.00  0.00     0.162 A 
ATOM     46  C   UNL     1      82.165  76.253  85.684  1.00  0.00     0.200 A 
BRANCH  44  47
ATOM     47  O   UNL     1      83.887  74.555  85.867  1.00  0.00    -0.504 OA
ATOM     48  H   UNL     1      84.111  73.887  86.600  1.00  0.00     0.293 HD
ENDBRANCH  44  47
BRANCH  45  49
ATOM     49  O   UNL     1      80.449  78.026  85.589  1.00  0.00    -0.504 OA
ATOM     50  H   UNL     1      79.971  77.703  84.760  1.00  0.00     0.293 HD
ENDBRANCH  45  49
BRANCH  46  51
ATOM     51  O   UNL     1      81.439  75.357  84.894  1.00  0.00    -0.502 OA
ATOM     52  H   UNL     1      81.820  74.490  84.533  1.00  0.00     0.293 HD
ENDBRANCH  46  51
ENDBRANCH  39  41
ENDBRANCH  38  39
ENDBRANCH   3  38
BRANCH   5  53
ATOM     53  O   UNL     1      84.289  74.812  91.170  1.00  0.00    -0.428 OA
BRANCH  53  54
ATOM     54  C   UNL     1      83.513  73.682  91.454  1.00  0.00     0.340 C 
ATOM     55  O   UNL     1      83.762  72.969  92.459  1.00  0.00    -0.246 OA
BRANCH  54  56
ATOM     56  C   UNL     1      82.392  73.337  90.566  1.00  0.00     0.067 A 
ATOM     57  C   UNL     1      82.553  73.333  89.175  1.00  0.00     0.066 A 
ATOM     58  C   UNL     1      81.150  72.993  91.112  1.00  0.00     0.066 A 
ATOM     59  C   UNL     1      81.502  72.959  88.328  1.00  0.00     0.162 A 
ATOM     60  C   UNL     1      80.081  72.645  90.286  1.00  0.00     0.162 A 
ATOM     61  C   UNL     1      80.247  72.607  88.886  1.00  0.00     0.200 A 
BRANCH  59  62
ATOM     62  O   UNL     1      81.755  72.947  86.952  1.00  0.00    -0.504 OA
ATOM     63  H   UNL     1      82.554  73.396  86.519  1.00  0.00     0.293 HD
ENDBRANCH  59  62
BRANCH  60  64
ATOM     64  O   UNL     1      78.853  72.345  90.878  1.00  0.00    -0.504 OA
ATOM     65  H   UNL     1      77.972  72.622  90.457  1.00  0.00     0.293 HD
ENDBRANCH  60  64
BRANCH  61  66
ATOM     66  O   UNL     1      79.159  72.216  88.091  1.00  0.00    -0.502 OA
ATOM     67  H   UNL     1      78.772  72.777  87.344  1.00  0.00     0.293 HD
ENDBRANCH  61  66
ENDBRANCH  54  56
ENDBRANCH  53  54
ENDBRANCH   5  53
BRANCH   4  68
ATOM     68  O   UNL     1      82.619  76.864  90.509  1.00  0.00    -0.448 OA
BRANCH  68  69
ATOM     69  C   UNL     1      81.340  77.164  90.986  1.00  0.00     0.339 C 
ATOM     70  O   UNL     1      81.195  77.922  91.986  1.00  0.00    -0.246 OA
BRANCH  69  71
ATOM     71  C   UNL     1      80.158  76.575  90.322  1.00  0.00     0.067 A 
ATOM     72  C   UNL     1      79.008  76.252  91.052  1.00  0.00     0.066 A 
ATOM     73  C   UNL     1      80.171  76.338  88.938  1.00  0.00     0.066 A 
ATOM     74  C   UNL     1      77.880  75.714  90.415  1.00  0.00     0.162 A 
ATOM     75  C   UNL     1      79.052  75.806  88.292  1.00  0.00     0.162 A 
ATOM     76  C   UNL     1      77.900  75.492  89.028  1.00  0.00     0.200 A 
BRANCH  74  77
ATOM     77  O   UNL     1      76.736  75.408  91.152  1.00  0.00    -0.504 OA
ATOM     78  H   UNL     1      75.821  75.360  90.716  1.00  0.00     0.293 HD
ENDBRANCH  74  77
BRANCH  75  79
ATOM     79  O   UNL     1      79.102  75.597  86.912  1.00  0.00    -0.504 OA
ATOM     80  H   UNL     1      79.324  74.697  86.509  1.00  0.00     0.293 HD
ENDBRANCH  75  79
BRANCH  76  81
ATOM     81  O   UNL     1      76.786  74.960  88.375  1.00  0.00    -0.502 OA
ATOM     82  H   UNL     1      76.160  74.304  88.817  1.00  0.00     0.293 HD
ENDBRANCH  76  81
ENDBRANCH  69  71
ENDBRANCH  68  69
ENDBRANCH   4  68
TORSDOF 31
ENDMDL
MODEL 9
REMARK VINA RESULT:    -3.816     12.745     16.938
REMARK INTER + INTRA:         -16.443
REMARK INTER:                 -10.274
REMARK INTRA:                  -6.169
REMARK UNBOUND:                -7.384
REMARK SMILES O=C(OC[C@H]1O[C@H](OC(=O)c2cc(O)c(O)c(O)c2)[C@H](OC(=O)c2cc(O)c(O)c(O)c2)[C@@H](OC(=O)c2cc(O)c(O)c(O)c2)[C@H]1OC(=O)c1cc(O)c(O)c(O)c1)c1cc(O)c(O)c(O)c1
REMARK SMILES IDX 5 1 46 2 33 3 20 4 7 5 6 6 4 7 3 8 2 9 1 10 59 11 60 12
REMARK SMILES IDX 61 13 67 14 63 15 65 16 62 17 64 19 66 21 47 23 48 24 49 25
REMARK SMILES IDX 50 26 58 27 51 28 56 29 52 30 54 31 57 32 53 34 55 36 34 38
REMARK SMILES IDX 35 39 36 40 37 41 45 42 38 43 43 44 39 45 41 46 44 47 40 49
REMARK SMILES IDX 42 51 8 53 9 54 10 55 11 56 19 57 12 58 17 59 13 60 15 61
REMARK SMILES IDX 18 62 14 64 16 66 21 68 22 69 23 70 24 71 32 72 25 73 30 74
REMARK SMILES IDX 26 75 28 76 31 77 27 79 29 81
REMARK H PARENT 62 18 64 20 66 22 57 33 53 35 55 37 44 48 40 50 42 52 18 63
REMARK H PARENT 14 65 16 67 31 78 27 80 29 82
REMARK Flexibility Score: inf
ROOT
ATOM      1  C   UNL     1      82.278  91.296  81.452  1.00  0.00     0.205 C 
ATOM      2  C   UNL     1      83.164  91.225  80.195  1.00  0.00     0.254 C 
ATOM      3  C   UNL     1      84.449  90.483  80.579  1.00  0.00     0.267 C 
ATOM      4  C   UNL     1      84.095  89.092  81.136  1.00  0.00     0.290 C 
ATOM      5  C   UNL     1      83.056  89.236  82.272  1.00  0.00     0.357 C 
ATOM      6  O   UNL     1      81.917  89.986  81.869  1.00  0.00    -0.329 OA
ENDROOT
BRANCH   1   7
ATOM      7  C   UNL     1      81.000  92.123  81.220  1.00  0.00     0.269 C 
BRANCH   7   8
ATOM      8  O   UNL     1      79.874  91.252  81.167  1.00  0.00    -0.459 OA
BRANCH   8   9
ATOM      9  C   UNL     1      78.697  91.504  81.885  1.00  0.00     0.338 C 
ATOM     10  O   UNL     1      78.751  92.115  82.991  1.00  0.00    -0.246 OA
BRANCH   9  11
ATOM     11  C   UNL     1      77.399  91.026  81.365  1.00  0.00     0.067 A 
ATOM     12  C   UNL     1      76.772  91.696  80.305  1.00  0.00     0.066 A 
ATOM     13  C   UNL     1      75.521  91.287  79.837  1.00  0.00     0.162 A 
ATOM     14  C   UNL     1      76.757  89.919  81.956  1.00  0.00     0.066 A 
ATOM     15  C   UNL     1      74.861  90.199  80.456  1.00  0.00     0.200 A 
ATOM     16  C   UNL     1      75.492  89.517  81.512  1.00  0.00     0.162 A 
BRANCH  13  17
ATOM     17  O   UNL     1      74.979  91.980  78.754  1.00  0.00    -0.504 OA
ATOM     18  H   UNL     1      75.451  92.729  78.279  1.00  0.00     0.293 HD
ENDBRANCH  13  17
BRANCH  15  19
ATOM     19  O   UNL     1      73.590  89.778  80.054  1.00  0.00    -0.502 OA
ATOM     20  H   UNL     1      73.204  89.924  79.134  1.00  0.00     0.293 HD
ENDBRANCH  15  19
BRANCH  16  21
ATOM     21  O   UNL     1      74.877  88.434  82.140  1.00  0.00    -0.504 OA
ATOM     22  H   UNL     1      74.264  88.553  82.938  1.00  0.00     0.293 HD
ENDBRANCH  16  21
ENDBRANCH   9  11
ENDBRANCH   8   9
ENDBRANCH   7   8
ENDBRANCH   1   7
BRANCH   2  23
ATOM     23  O   UNL     1      82.500  90.497  79.161  1.00  0.00    -0.452 OA
BRANCH  23  24
ATOM     24  C   UNL     1      82.296  90.983  77.862  1.00  0.00     0.338 C 
ATOM     25  O   UNL     1      81.489  91.928  77.666  1.00  0.00    -0.246 OA
BRANCH  24  26
ATOM     26  C   UNL     1      83.048  90.389  76.735  1.00  0.00     0.067 A 
ATOM     27  C   UNL     1      83.227  88.996  76.641  1.00  0.00     0.066 A 
ATOM     28  C   UNL     1      83.643  91.219  75.771  1.00  0.00     0.066 A 
ATOM     29  C   UNL     1      84.000  88.443  75.607  1.00  0.00     0.162 A 
ATOM     30  C   UNL     1      84.405  90.672  74.733  1.00  0.00     0.162 A 
ATOM     31  C   UNL     1      84.589  89.284  74.648  1.00  0.00     0.200 A 
BRANCH  29  32
ATOM     32  O   UNL     1      84.190  87.065  75.534  1.00  0.00    -0.504 OA
ATOM     33  H   UNL     1      83.554  86.418  75.985  1.00  0.00     0.293 HD
ENDBRANCH  29  32
BRANCH  30  34
ATOM     34  O   UNL     1      84.981  91.529  73.798  1.00  0.00    -0.504 OA
ATOM     35  H   UNL     1      85.013  91.304  72.808  1.00  0.00     0.293 HD
ENDBRANCH  30  34
BRANCH  31  36
ATOM     36  O   UNL     1      85.363  88.761  73.613  1.00  0.00    -0.502 OA
ATOM     37  H   UNL     1      86.214  88.242  73.783  1.00  0.00     0.293 HD
ENDBRANCH  31  36
ENDBRANCH  24  26
ENDBRANCH  23  24
ENDBRANCH   2  23
BRANCH   3  38
ATOM     38  O   UNL     1      85.322  90.383  79.455  1.00  0.00    -0.450 OA
BRANCH  38  39
ATOM     39  C   UNL     1      86.715  90.291  79.586  1.00  0.00     0.338 C 
ATOM     40  O   UNL     1      87.333  91.095  80.336  1.00  0.00    -0.246 OA
BRANCH  39  41
ATOM     41  C   UNL     1      87.462  89.239  78.863  1.00  0.00     0.067 A 
ATOM     42  C   UNL     1      86.782  88.323  78.040  1.00  0.00     0.066 A 
ATOM     43  C   UNL     1      88.857  89.145  78.987  1.00  0.00     0.066 A 
ATOM     44  C   UNL     1      87.483  87.327  77.356  1.00  0.00     0.162 A 
ATOM     45  C   UNL     1      89.570  88.150  78.310  1.00  0.00     0.162 A 
ATOM     46  C   UNL     1      88.877  87.221  77.491  1.00  0.00     0.200 A 
BRANCH  44  47
ATOM     47  O   UNL     1      86.792  86.435  76.533  1.00  0.00    -0.504 OA
ATOM     48  H   UNL     1      85.776  86.383  76.537  1.00  0.00     0.293 HD
ENDBRANCH  44  47
BRANCH  45  49
ATOM     49  O   UNL     1      90.954  88.118  78.482  1.00  0.00    -0.504 OA
ATOM     50  H   UNL     1      91.444  88.593  79.226  1.00  0.00     0.293 HD
ENDBRANCH  45  49
BRANCH  46  51
ATOM     51  O   UNL     1      89.521  86.188  76.806  1.00  0.00    -0.502 OA
ATOM     52  H   UNL     1      90.185  85.555  77.238  1.00  0.00     0.293 HD
ENDBRANCH  46  51
ENDBRANCH  39  41
ENDBRANCH  38  39
ENDBRANCH   3  38
BRANCH   5  53
ATOM     53  O   UNL     1      83.660  89.810  83.430  1.00  0.00    -0.428 OA
BRANCH  53  54
ATOM     54  C   UNL     1      83.666  89.187  84.683  1.00  0.00     0.340 C 
ATOM     55  O   UNL     1      84.697  88.604  85.106  1.00  0.00    -0.246 OA
BRANCH  54  56
ATOM     56  C   UNL     1      82.450  89.225  85.512  1.00  0.00     0.067 A 
ATOM     57  C   UNL     1      81.422  90.134  85.237  1.00  0.00     0.066 A 
ATOM     58  C   UNL     1      82.308  88.334  86.582  1.00  0.00     0.066 A 
ATOM     59  C   UNL     1      80.244  90.142  85.994  1.00  0.00     0.162 A 
ATOM     60  C   UNL     1      81.156  88.343  87.368  1.00  0.00     0.162 A 
ATOM     61  C   UNL     1      80.103  89.234  87.075  1.00  0.00     0.200 A 
BRANCH  59  62
ATOM     62  O   UNL     1      79.250  91.058  85.633  1.00  0.00    -0.504 OA
ATOM     63  H   UNL     1      78.917  91.188  84.685  1.00  0.00     0.293 HD
ENDBRANCH  59  62
BRANCH  60  64
ATOM     64  O   UNL     1      81.078  87.459  88.445  1.00  0.00    -0.504 OA
ATOM     65  H   UNL     1      80.411  87.588  89.199  1.00  0.00     0.293 HD
ENDBRANCH  60  64
BRANCH  61  66
ATOM     66  O   UNL     1      78.944  89.188  87.865  1.00  0.00    -0.502 OA
ATOM     67  H   UNL     1      78.071  88.775  87.567  1.00  0.00     0.293 HD
ENDBRANCH  61  66
ENDBRANCH  54  56
ENDBRANCH  53  54
ENDBRANCH   5  53
BRANCH   4  68
ATOM     68  O   UNL     1      85.259  88.468  81.675  1.00  0.00    -0.448 OA
BRANCH  68  69
ATOM     69  C   UNL     1      85.678  87.173  81.354  1.00  0.00     0.339 C 
ATOM     70  O   UNL     1      84.834  86.298  81.013  1.00  0.00    -0.246 OA
BRANCH  69  71
ATOM     71  C   UNL     1      87.114  86.833  81.430  1.00  0.00     0.067 A 
ATOM     72  C   UNL     1      87.629  85.724  80.746  1.00  0.00     0.066 A 
ATOM     73  C   UNL     1      87.989  87.628  82.188  1.00  0.00     0.066 A 
ATOM     74  C   UNL     1      88.997  85.417  80.803  1.00  0.00     0.162 A 
ATOM     75  C   UNL     1      89.354  87.334  82.249  1.00  0.00     0.162 A 
ATOM     76  C   UNL     1      89.865  86.227  81.555  1.00  0.00     0.200 A 
BRANCH  74  77
ATOM     77  O   UNL     1      89.499  84.318  80.107  1.00  0.00    -0.504 OA
ATOM     78  H   UNL     1      89.329  83.368  80.422  1.00  0.00     0.293 HD
ENDBRANCH  74  77
BRANCH  75  79
ATOM     79  O   UNL     1      90.191  88.157  83.003  1.00  0.00    -0.504 OA
ATOM     80  H   UNL     1      89.843  88.950  83.525  1.00  0.00     0.293 HD
ENDBRANCH  75  79
BRANCH  76  81
ATOM     81  O   UNL     1      91.229  85.939  81.620  1.00  0.00    -0.502 OA
ATOM     82  H   UNL     1      91.864  86.453  82.213  1.00  0.00     0.293 HD
ENDBRANCH  76  81
ENDBRANCH  69  71
ENDBRANCH  68  69
ENDBRANCH   4  68
TORSDOF 31
ENDMDL
