MODEL 1
REMARK VINA RESULT:    -6.640      0.000      0.000
REMARK INTER + INTRA:         -11.976
REMARK INTER:                  -9.940
REMARK INTRA:                  -2.037
REMARK UNBOUND:                -2.037
REMARK SMILES COC(=O)C1=CO[C@H](O[C@H]2O[C@@H](CO)[C@@H](O)[C@@H](O)[C@H]2O)[C@H]2C(CO)=CC[C@@H]12
REMARK SMILES IDX 9 1 8 2 5 3 6 4 27 5 7 6 21 7 26 8 22 9 25 10 3 11 4 12 2 13
REMARK SMILES IDX 1 14 23 15 24 16 10 18 19 19 11 20 17 21 12 22 15 23 20 24
REMARK SMILES IDX 18 26 13 28 14 29 16 31
REMARK H PARENT 24 17 20 25 18 27 14 30 16 32
REMARK Flexibility Score: inf
ROOT
ATOM      1  O   UNL     1     -13.184  -2.101 -23.118  1.00  0.00    -0.310 OA
ENDROOT
BRANCH   1   2
ATOM      2  C   UNL     1     -11.989  -1.363 -22.878  1.00  0.00     0.316 C 
ATOM      3  C   UNL     1      -9.285  -0.590 -22.462  1.00  0.00     0.076 C 
ATOM      4  C   UNL     1      -9.717  -1.797 -22.072  1.00  0.00     0.202 C 
ATOM      5  C   UNL     1     -10.107   0.266 -23.410  1.00  0.00     0.047 C 
ATOM      6  O   UNL     1     -10.966  -2.269 -22.481  1.00  0.00    -0.471 OA
ATOM      7  C   UNL     1     -11.424  -0.367 -23.954  1.00  0.00     0.094 C 
ATOM      8  C   UNL     1     -10.563   1.564 -22.730  1.00  0.00     0.037 C 
ATOM      9  C   UNL     1     -12.286   0.858 -24.142  1.00  0.00    -0.039 C 
ATOM     10  C   UNL     1     -11.834   1.885 -23.428  1.00  0.00    -0.024 C 
BRANCH   3  11
ATOM     11  C   UNL     1      -8.014  -0.067 -21.926  1.00  0.00     0.337 C 
ATOM     12  O   UNL     1      -7.940   0.249 -20.704  1.00  0.00    -0.246 OA
BRANCH  11  13
ATOM     13  O   UNL     1      -6.949   0.194 -22.793  1.00  0.00    -0.466 OA
ATOM     14  C   UNL     1      -5.682   0.660 -22.336  1.00  0.00     0.282 C 
ENDBRANCH  11  13
ENDBRANCH   3  11
BRANCH   9  15
ATOM     15  C   UNL     1     -13.290   1.069 -25.248  1.00  0.00     0.187 C 
BRANCH  15  16
ATOM     16  O   UNL     1     -14.585   1.147 -24.715  1.00  0.00    -0.392 OA
ATOM     17  H   UNL     1     -14.485   1.410 -23.762  1.00  0.00     0.211 HD
ENDBRANCH  15  16
ENDBRANCH   9  15
ENDBRANCH   1   2
BRANCH   1  18
ATOM     18  C   UNL     1     -14.309  -1.754 -22.339  1.00  0.00     0.286 C 
ATOM     19  C   UNL     1     -15.595  -2.134 -23.088  1.00  0.00     0.202 C 
ATOM     20  O   UNL     1     -14.380  -0.363 -22.085  1.00  0.00    -0.341 OA
ATOM     21  C   UNL     1     -16.809  -1.996 -22.105  1.00  0.00     0.179 C 
ATOM     22  C   UNL     1     -15.402  -0.027 -21.135  1.00  0.00     0.178 C 
ATOM     23  C   UNL     1     -16.457  -1.161 -20.844  1.00  0.00     0.177 C 
BRANCH  19  24
ATOM     24  O   UNL     1     -15.746  -1.231 -24.160  1.00  0.00    -0.385 OA
ATOM     25  H   UNL     1     -16.686  -0.906 -24.132  1.00  0.00     0.211 HD
ENDBRANCH  19  24
BRANCH  21  26
ATOM     26  O   UNL     1     -17.929  -1.449 -22.755  1.00  0.00    -0.387 OA
ATOM     27  H   UNL     1     -18.735  -1.683 -22.215  1.00  0.00     0.211 HD
ENDBRANCH  21  26
BRANCH  22  28
ATOM     28  C   UNL     1     -16.084   1.280 -21.587  1.00  0.00     0.191 C 
BRANCH  28  29
ATOM     29  O   UNL     1     -16.843   1.128 -22.771  1.00  0.00    -0.394 OA
ATOM     30  H   UNL     1     -17.794   1.300 -22.534  1.00  0.00     0.210 HD
ENDBRANCH  28  29
ENDBRANCH  22  28
BRANCH  23  31
ATOM     31  O   UNL     1     -17.625  -0.656 -20.238  1.00  0.00    -0.387 OA
ATOM     32  H   UNL     1     -17.482   0.322 -20.113  1.00  0.00     0.211 HD
ENDBRANCH  23  31
ENDBRANCH   1  18
TORSDOF 11
ENDMDL
MODEL 2
REMARK VINA RESULT:    -6.586      2.462      4.967
REMARK INTER + INTRA:         -11.895
REMARK INTER:                 -10.646
REMARK INTRA:                  -1.249
REMARK UNBOUND:                -2.037
REMARK SMILES COC(=O)C1=CO[C@H](O[C@H]2O[C@@H](CO)[C@@H](O)[C@@H](O)[C@H]2O)[C@H]2C(CO)=CC[C@@H]12
REMARK SMILES IDX 9 1 8 2 5 3 6 4 27 5 7 6 21 7 26 8 22 9 25 10 3 11 4 12 2 13
REMARK SMILES IDX 1 14 23 15 24 16 10 18 19 19 11 20 17 21 12 22 15 23 20 24
REMARK SMILES IDX 18 26 13 28 14 29 16 31
REMARK H PARENT 24 17 20 25 18 27 14 30 16 32
REMARK Flexibility Score: inf
ROOT
ATOM      1  O   UNL     1     -11.538   0.908 -22.835  1.00  0.00    -0.310 OA
ENDROOT
BRANCH   1   2
ATOM      2  C   UNL     1     -11.256  -0.479 -23.006  1.00  0.00     0.316 C 
ATOM      3  C   UNL     1     -11.111  -3.142 -23.991  1.00  0.00     0.076 C 
ATOM      4  C   UNL     1     -12.189  -2.383 -24.232  1.00  0.00     0.202 C 
ATOM      5  C   UNL     1      -9.820  -2.526 -23.480  1.00  0.00     0.047 C 
ATOM      6  O   UNL     1     -12.167  -1.014 -23.959  1.00  0.00    -0.471 OA
ATOM      7  C   UNL     1      -9.800  -0.975 -23.331  1.00  0.00     0.094 C 
ATOM      8  C   UNL     1      -9.475  -3.045 -22.077  1.00  0.00     0.037 C 
ATOM      9  C   UNL     1      -8.841  -0.799 -22.180  1.00  0.00    -0.039 C 
ATOM     10  C   UNL     1      -8.715  -1.920 -21.476  1.00  0.00    -0.024 C 
BRANCH   3  11
ATOM     11  C   UNL     1     -11.196  -4.603 -24.180  1.00  0.00     0.337 C 
ATOM     12  O   UNL     1     -11.862  -5.296 -23.360  1.00  0.00    -0.246 OA
BRANCH  11  13
ATOM     13  O   UNL     1     -10.439  -5.219 -25.181  1.00  0.00    -0.466 OA
ATOM     14  C   UNL     1      -9.687  -6.409 -24.954  1.00  0.00     0.282 C 
ENDBRANCH  11  13
ENDBRANCH   3  11
BRANCH   9  15
ATOM     15  C   UNL     1      -7.850   0.328 -22.021  1.00  0.00     0.187 C 
BRANCH  15  16
ATOM     16  O   UNL     1      -6.632  -0.014 -22.625  1.00  0.00    -0.392 OA
ATOM     17  H   UNL     1      -6.184  -0.662 -22.019  1.00  0.00     0.211 HD
ENDBRANCH  15  16
ENDBRANCH   9  15
ENDBRANCH   1   2
BRANCH   1  18
ATOM     18  C   UNL     1     -12.860   1.321 -23.101  1.00  0.00     0.286 C 
ATOM     19  C   UNL     1     -12.881   2.826 -23.408  1.00  0.00     0.202 C 
ATOM     20  O   UNL     1     -13.722   1.119 -21.995  1.00  0.00    -0.341 OA
ATOM     21  C   UNL     1     -14.297   3.207 -23.964  1.00  0.00     0.179 C 
ATOM     22  C   UNL     1     -15.100   1.349 -22.321  1.00  0.00     0.178 C 
ATOM     23  C   UNL     1     -15.360   2.112 -23.676  1.00  0.00     0.177 C 
BRANCH  19  24
ATOM     24  O   UNL     1     -12.645   3.511 -22.200  1.00  0.00    -0.385 OA
ATOM     25  H   UNL     1     -11.978   2.976 -21.692  1.00  0.00     0.211 HD
ENDBRANCH  19  24
BRANCH  21  26
ATOM     26  O   UNL     1     -14.724   4.447 -23.459  1.00  0.00    -0.387 OA
ATOM     27  H   UNL     1     -13.918   5.026 -23.361  1.00  0.00     0.211 HD
ENDBRANCH  21  26
BRANCH  22  28
ATOM     28  C   UNL     1     -15.774   2.061 -21.131  1.00  0.00     0.191 C 
BRANCH  28  29
ATOM     29  O   UNL     1     -15.038   3.174 -20.662  1.00  0.00    -0.394 OA
ATOM     30  H   UNL     1     -15.491   3.500 -19.838  1.00  0.00     0.210 HD
ENDBRANCH  28  29
ENDBRANCH  22  28
BRANCH  23  31
ATOM     31  O   UNL     1     -16.661   2.650 -23.740  1.00  0.00    -0.387 OA
ATOM     32  H   UNL     1     -17.288   1.912 -23.505  1.00  0.00     0.211 HD
ENDBRANCH  23  31
ENDBRANCH   1  18
TORSDOF 11
ENDMDL
MODEL 3
REMARK VINA RESULT:    -6.414      2.440      6.335
REMARK INTER + INTRA:         -11.637
REMARK INTER:                 -10.333
REMARK INTRA:                  -1.304
REMARK UNBOUND:                -2.037
REMARK SMILES COC(=O)C1=CO[C@H](O[C@H]2O[C@@H](CO)[C@@H](O)[C@@H](O)[C@H]2O)[C@H]2C(CO)=CC[C@@H]12
REMARK SMILES IDX 9 1 8 2 5 3 6 4 27 5 7 6 21 7 26 8 22 9 25 10 3 11 4 12 2 13
REMARK SMILES IDX 1 14 23 15 24 16 10 18 19 19 11 20 17 21 12 22 15 23 20 24
REMARK SMILES IDX 18 26 13 28 14 29 16 31
REMARK H PARENT 24 17 20 25 18 27 14 30 16 32
REMARK Flexibility Score: inf
ROOT
ATOM      1  O   UNL     1     -13.292  -0.610 -23.048  1.00  0.00    -0.310 OA
ENDROOT
BRANCH   1   2
ATOM      2  C   UNL     1     -13.519   0.798 -23.052  1.00  0.00     0.316 C 
ATOM      3  C   UNL     1     -13.656   3.546 -23.764  1.00  0.00     0.076 C 
ATOM      4  C   UNL     1     -12.666   2.771 -24.225  1.00  0.00     0.202 C 
ATOM      5  C   UNL     1     -14.895   2.938 -23.130  1.00  0.00     0.047 C 
ATOM      6  O   UNL     1     -12.723   1.384 -24.075  1.00  0.00    -0.471 OA
ATOM      7  C   UNL     1     -14.977   1.381 -23.119  1.00  0.00     0.094 C 
ATOM      8  C   UNL     1     -15.011   3.334 -21.651  1.00  0.00     0.037 C 
ATOM      9  C   UNL     1     -15.774   1.135 -21.861  1.00  0.00    -0.039 C 
ATOM     10  C   UNL     1     -15.740   2.188 -21.050  1.00  0.00    -0.024 C 
BRANCH   3  11
ATOM     11  C   UNL     1     -13.520   5.014 -23.833  1.00  0.00     0.337 C 
ATOM     12  O   UNL     1     -12.677   5.593 -23.090  1.00  0.00    -0.246 OA
BRANCH  11  13
ATOM     13  O   UNL     1     -14.406   5.758 -24.617  1.00  0.00    -0.466 OA
ATOM     14  C   UNL     1     -14.654   5.464 -25.989  1.00  0.00     0.282 C 
ENDBRANCH  11  13
ENDBRANCH   3  11
BRANCH   9  15
ATOM     15  C   UNL     1     -16.793   0.040 -21.662  1.00  0.00     0.187 C 
BRANCH  15  16
ATOM     16  O   UNL     1     -18.081   0.589 -21.585  1.00  0.00    -0.392 OA
ATOM     17  H   UNL     1     -18.366   0.515 -20.636  1.00  0.00     0.211 HD
ENDBRANCH  15  16
ENDBRANCH   9  15
ENDBRANCH   1   2
BRANCH   1  18
ATOM     18  C   UNL     1     -11.994  -1.041 -23.396  1.00  0.00     0.286 C 
ATOM     19  C   UNL     1     -11.991  -2.564 -23.599  1.00  0.00     0.202 C 
ATOM     20  O   UNL     1     -11.044  -0.763 -22.384  1.00  0.00    -0.341 OA
ATOM     21  C   UNL     1     -10.626  -2.983 -24.246  1.00  0.00     0.179 C 
ATOM     22  C   UNL     1      -9.696  -1.015 -22.810  1.00  0.00     0.178 C 
ATOM     23  C   UNL     1      -9.548  -1.871 -24.125  1.00  0.00     0.177 C 
BRANCH  19  24
ATOM     24  O   UNL     1     -12.120  -3.163 -22.329  1.00  0.00    -0.385 OA
ATOM     25  H   UNL     1     -12.421  -4.098 -22.482  1.00  0.00     0.211 HD
ENDBRANCH  19  24
BRANCH  21  26
ATOM     26  O   UNL     1     -10.150  -4.185 -23.694  1.00  0.00    -0.387 OA
ATOM     27  H   UNL     1      -9.352  -3.965 -23.137  1.00  0.00     0.211 HD
ENDBRANCH  21  26
BRANCH  22  28
ATOM     28  C   UNL     1      -8.919  -1.643 -21.634  1.00  0.00     0.191 C 
BRANCH  28  29
ATOM     29  O   UNL     1      -9.330  -2.965 -21.342  1.00  0.00    -0.394 OA
ATOM     30  H   UNL     1      -8.870  -3.565 -21.989  1.00  0.00     0.210 HD
ENDBRANCH  28  29
ENDBRANCH  22  28
BRANCH  23  31
ATOM     31  O   UNL     1      -8.255  -2.412 -24.263  1.00  0.00    -0.387 OA
ATOM     32  H   UNL     1      -8.102  -2.544 -25.238  1.00  0.00     0.211 HD
ENDBRANCH  23  31
ENDBRANCH   1  18
TORSDOF 11
ENDMDL
MODEL 4
REMARK VINA RESULT:    -6.311      2.168      6.953
REMARK INTER + INTRA:         -11.483
REMARK INTER:                 -10.025
REMARK INTRA:                  -1.459
REMARK UNBOUND:                -2.037
REMARK SMILES COC(=O)C1=CO[C@H](O[C@H]2O[C@@H](CO)[C@@H](O)[C@@H](O)[C@H]2O)[C@H]2C(CO)=CC[C@@H]12
REMARK SMILES IDX 9 1 8 2 5 3 6 4 27 5 7 6 21 7 26 8 22 9 25 10 3 11 4 12 2 13
REMARK SMILES IDX 1 14 23 15 24 16 10 18 19 19 11 20 17 21 12 22 15 23 20 24
REMARK SMILES IDX 18 26 13 28 14 29 16 31
REMARK H PARENT 24 17 20 25 18 27 14 30 16 32
REMARK Flexibility Score: inf
ROOT
ATOM      1  O   UNL     1     -12.230  -0.639 -24.797  1.00  0.00    -0.310 OA
ENDROOT
BRANCH   1   2
ATOM      2  C   UNL     1     -13.415  -0.514 -24.015  1.00  0.00     0.316 C 
ATOM      3  C   UNL     1     -15.609  -0.995 -22.273  1.00  0.00     0.076 C 
ATOM      4  C   UNL     1     -15.086  -1.990 -23.002  1.00  0.00     0.202 C 
ATOM      5  C   UNL     1     -14.869   0.320 -22.101  1.00  0.00     0.047 C 
ATOM      6  O   UNL     1     -13.873  -1.816 -23.671  1.00  0.00    -0.471 OA
ATOM      7  C   UNL     1     -13.453   0.412 -22.746  1.00  0.00     0.094 C 
ATOM      8  C   UNL     1     -15.649   1.482 -22.732  1.00  0.00     0.037 C 
ATOM      9  C   UNL     1     -13.373   1.881 -23.079  1.00  0.00    -0.039 C 
ATOM     10  C   UNL     1     -14.580   2.437 -23.118  1.00  0.00    -0.024 C 
BRANCH   3  11
ATOM     11  C   UNL     1     -16.945  -1.163 -21.669  1.00  0.00     0.337 C 
ATOM     12  O   UNL     1     -17.901  -1.578 -22.384  1.00  0.00    -0.246 OA
BRANCH  11  13
ATOM     13  O   UNL     1     -17.171  -0.743 -20.355  1.00  0.00    -0.466 OA
ATOM     14  C   UNL     1     -17.223  -1.649 -19.255  1.00  0.00     0.282 C 
ENDBRANCH  11  13
ENDBRANCH   3  11
BRANCH   9  15
ATOM     15  C   UNL     1     -12.132   2.736 -23.008  1.00  0.00     0.187 C 
BRANCH  15  16
ATOM     16  O   UNL     1     -11.148   2.093 -22.244  1.00  0.00    -0.392 OA
ATOM     17  H   UNL     1     -10.336   2.032 -22.815  1.00  0.00     0.211 HD
ENDBRANCH  15  16
ENDBRANCH   9  15
ENDBRANCH   1   2
BRANCH   1  18
ATOM     18  C   UNL     1     -11.305  -1.623 -24.387  1.00  0.00     0.286 C 
ATOM     19  C   UNL     1     -10.508  -1.113 -23.177  1.00  0.00     0.202 C 
ATOM     20  O   UNL     1     -10.361  -1.930 -25.397  1.00  0.00    -0.341 OA
ATOM     21  C   UNL     1      -9.691  -2.308 -22.573  1.00  0.00     0.179 C 
ATOM     22  C   UNL     1      -9.546  -3.063 -25.064  1.00  0.00     0.178 C 
ATOM     23  C   UNL     1      -9.587  -3.509 -23.552  1.00  0.00     0.177 C 
BRANCH  19  24
ATOM     24  O   UNL     1      -9.623  -0.117 -23.638  1.00  0.00    -0.385 OA
ATOM     25  H   UNL     1      -9.107  -0.517 -24.388  1.00  0.00     0.211 HD
ENDBRANCH  19  24
BRANCH  21  26
ATOM     26  O   UNL     1      -8.409  -1.894 -22.170  1.00  0.00    -0.387 OA
ATOM     27  H   UNL     1      -8.169  -1.090 -22.710  1.00  0.00     0.211 HD
ENDBRANCH  21  26
BRANCH  22  28
ATOM     28  C   UNL     1      -8.103  -2.787 -25.535  1.00  0.00     0.191 C 
BRANCH  28  29
ATOM     29  O   UNL     1      -7.382  -1.952 -24.650  1.00  0.00    -0.394 OA
ATOM     30  H   UNL     1      -8.012  -1.252 -24.328  1.00  0.00     0.210 HD
ENDBRANCH  28  29
ENDBRANCH  22  28
BRANCH  23  31
ATOM     31  O   UNL     1      -8.497  -4.335 -23.214  1.00  0.00    -0.387 OA
ATOM     32  H   UNL     1      -8.582  -5.161 -23.765  1.00  0.00     0.211 HD
ENDBRANCH  23  31
ENDBRANCH   1  18
TORSDOF 11
ENDMDL
MODEL 5
REMARK VINA RESULT:    -6.307      2.594      5.348
REMARK INTER + INTRA:         -11.478
REMARK INTER:                  -9.433
REMARK INTRA:                  -2.045
REMARK UNBOUND:                -2.037
REMARK SMILES COC(=O)C1=CO[C@H](O[C@H]2O[C@@H](CO)[C@@H](O)[C@@H](O)[C@H]2O)[C@H]2C(CO)=CC[C@@H]12
REMARK SMILES IDX 9 1 8 2 5 3 6 4 27 5 7 6 21 7 26 8 22 9 25 10 3 11 4 12 2 13
REMARK SMILES IDX 1 14 23 15 24 16 10 18 19 19 11 20 17 21 12 22 15 23 20 24
REMARK SMILES IDX 18 26 13 28 14 29 16 31
REMARK H PARENT 24 17 20 25 18 27 14 30 16 32
REMARK Flexibility Score: inf
ROOT
ATOM      1  O   UNL     1     -12.203   1.221 -22.415  1.00  0.00    -0.310 OA
ENDROOT
BRANCH   1   2
ATOM      2  C   UNL     1     -12.328  -0.157 -22.759  1.00  0.00     0.316 C 
ATOM      3  C   UNL     1     -11.867  -2.935 -23.146  1.00  0.00     0.076 C 
ATOM      4  C   UNL     1     -10.852  -2.063 -23.190  1.00  0.00     0.202 C 
ATOM      5  C   UNL     1     -13.218  -2.534 -22.578  1.00  0.00     0.047 C 
ATOM      6  O   UNL     1     -11.032  -0.743 -22.771  1.00  0.00    -0.471 OA
ATOM      7  C   UNL     1     -13.326  -1.096 -21.988  1.00  0.00     0.094 C 
ATOM      8  C   UNL     1     -14.309  -2.584 -23.657  1.00  0.00     0.037 C 
ATOM      9  C   UNL     1     -14.775  -0.772 -22.257  1.00  0.00    -0.039 C 
ATOM     10  C   UNL     1     -15.281  -1.557 -23.204  1.00  0.00    -0.024 C 
BRANCH   3  11
ATOM     11  C   UNL     1     -11.683  -4.290 -23.700  1.00  0.00     0.337 C 
ATOM     12  O   UNL     1     -12.176  -5.282 -23.089  1.00  0.00    -0.246 OA
BRANCH  11  13
ATOM     13  O   UNL     1     -10.862  -4.479 -24.815  1.00  0.00    -0.466 OA
ATOM     14  C   UNL     1      -9.855  -5.487 -24.868  1.00  0.00     0.282 C 
ENDBRANCH  11  13
ENDBRANCH   3  11
BRANCH   9  15
ATOM     15  C   UNL     1     -15.679   0.037 -21.360  1.00  0.00     0.187 C 
BRANCH  15  16
ATOM     16  O   UNL     1     -15.201   1.350 -21.253  1.00  0.00    -0.392 OA
ATOM     17  H   UNL     1     -15.412   1.803 -22.112  1.00  0.00     0.211 HD
ENDBRANCH  15  16
ENDBRANCH   9  15
ENDBRANCH   1   2
BRANCH   1  18
ATOM     18  C   UNL     1     -12.587   2.155 -23.399  1.00  0.00     0.286 C 
ATOM     19  C   UNL     1     -12.527   3.576 -22.817  1.00  0.00     0.202 C 
ATOM     20  O   UNL     1     -13.915   1.954 -23.846  1.00  0.00    -0.341 OA
ATOM     21  C   UNL     1     -12.688   4.607 -23.988  1.00  0.00     0.179 C 
ATOM     22  C   UNL     1     -14.245   2.767 -24.981  1.00  0.00     0.178 C 
ATOM     23  C   UNL     1     -13.250   3.953 -25.279  1.00  0.00     0.177 C 
BRANCH  19  24
ATOM     24  O   UNL     1     -13.600   3.712 -21.914  1.00  0.00    -0.385 OA
ATOM     25  H   UNL     1     -13.233   4.134 -21.092  1.00  0.00     0.211 HD
ENDBRANCH  19  24
BRANCH  21  26
ATOM     26  O   UNL     1     -13.491   5.693 -23.601  1.00  0.00    -0.387 OA
ATOM     27  H   UNL     1     -14.399   5.336 -23.391  1.00  0.00     0.211 HD
ENDBRANCH  21  26
BRANCH  22  28
ATOM     28  C   UNL     1     -15.694   3.270 -24.822  1.00  0.00     0.191 C 
BRANCH  28  29
ATOM     29  O   UNL     1     -16.138   3.264 -23.478  1.00  0.00    -0.394 OA
ATOM     30  H   UNL     1     -15.399   3.635 -22.924  1.00  0.00     0.210 HD
ENDBRANCH  28  29
ENDBRANCH  22  28
BRANCH  23  31
ATOM     31  O   UNL     1     -13.822   4.926 -26.123  1.00  0.00    -0.387 OA
ATOM     32  H   UNL     1     -13.152   5.116 -26.836  1.00  0.00     0.211 HD
ENDBRANCH  23  31
ENDBRANCH   1  18
TORSDOF 11
ENDMDL
MODEL 6
REMARK VINA RESULT:    -6.164      3.039      7.596
REMARK INTER + INTRA:         -11.264
REMARK INTER:                 -10.196
REMARK INTRA:                  -1.068
REMARK UNBOUND:                -2.037
REMARK SMILES COC(=O)C1=CO[C@H](O[C@H]2O[C@@H](CO)[C@@H](O)[C@@H](O)[C@H]2O)[C@H]2C(CO)=CC[C@@H]12
REMARK SMILES IDX 9 1 8 2 5 3 6 4 27 5 7 6 21 7 26 8 22 9 25 10 3 11 4 12 2 13
REMARK SMILES IDX 1 14 23 15 24 16 10 18 19 19 11 20 17 21 12 22 15 23 20 24
REMARK SMILES IDX 18 26 13 28 14 29 16 31
REMARK H PARENT 24 17 20 25 18 27 14 30 16 32
REMARK Flexibility Score: inf
ROOT
ATOM      1  O   UNL     1     -16.133   1.435 -23.672  1.00  0.00    -0.310 OA
ENDROOT
BRANCH   1   2
ATOM      2  C   UNL     1     -16.685   0.753 -22.549  1.00  0.00     0.316 C 
ATOM      3  C   UNL     1     -18.365  -0.733 -20.802  1.00  0.00     0.076 C 
ATOM      4  C   UNL     1     -18.892   0.044 -21.759  1.00  0.00     0.202 C 
ATOM      5  C   UNL     1     -16.892  -1.101 -20.818  1.00  0.00     0.047 C 
ATOM      6  O   UNL     1     -18.081   0.584 -22.760  1.00  0.00    -0.471 OA
ATOM      7  C   UNL     1     -16.061  -0.596 -22.036  1.00  0.00     0.094 C 
ATOM      8  C   UNL     1     -16.163  -0.524 -19.596  1.00  0.00     0.037 C 
ATOM      9  C   UNL     1     -14.697  -0.421 -21.413  1.00  0.00    -0.039 C 
ATOM     10  C   UNL     1     -14.776  -0.332 -20.089  1.00  0.00    -0.024 C 
BRANCH   3  11
ATOM     11  C   UNL     1     -19.220  -1.197 -19.693  1.00  0.00     0.337 C 
ATOM     12  O   UNL     1     -20.250  -0.533 -19.385  1.00  0.00    -0.246 OA
BRANCH  11  13
ATOM     13  O   UNL     1     -18.818  -2.286 -18.915  1.00  0.00    -0.466 OA
ATOM     14  C   UNL     1     -19.702  -2.966 -18.027  1.00  0.00     0.282 C 
ENDBRANCH  11  13
ENDBRANCH   3  11
BRANCH   9  15
ATOM     15  C   UNL     1     -13.377  -0.686 -22.093  1.00  0.00     0.187 C 
BRANCH  15  16
ATOM     16  O   UNL     1     -12.371   0.102 -21.515  1.00  0.00    -0.392 OA
ATOM     17  H   UNL     1     -12.331  -0.145 -20.553  1.00  0.00     0.211 HD
ENDBRANCH  15  16
ENDBRANCH   9  15
ENDBRANCH   1   2
BRANCH   1  18
ATOM     18  C   UNL     1     -15.160   2.419 -23.398  1.00  0.00     0.286 C 
ATOM     19  C   UNL     1     -15.405   3.651 -24.283  1.00  0.00     0.202 C 
ATOM     20  O   UNL     1     -13.846   1.971 -23.677  1.00  0.00    -0.341 OA
ATOM     21  C   UNL     1     -14.495   4.824 -23.776  1.00  0.00     0.179 C 
ATOM     22  C   UNL     1     -12.842   2.887 -23.216  1.00  0.00     0.178 C 
ATOM     23  C   UNL     1     -13.358   4.329 -22.841  1.00  0.00     0.177 C 
BRANCH  19  24
ATOM     24  O   UNL     1     -15.045   3.307 -25.602  1.00  0.00    -0.385 OA
ATOM     25  H   UNL     1     -14.766   4.148 -26.052  1.00  0.00     0.211 HD
ENDBRANCH  19  24
BRANCH  21  26
ATOM     26  O   UNL     1     -13.960   5.554 -24.851  1.00  0.00    -0.387 OA
ATOM     27  H   UNL     1     -14.497   6.390 -24.944  1.00  0.00     0.211 HD
ENDBRANCH  21  26
BRANCH  22  28
ATOM     28  C   UNL     1     -11.711   2.944 -24.263  1.00  0.00     0.191 C 
BRANCH  28  29
ATOM     29  O   UNL     1     -12.080   3.636 -25.440  1.00  0.00    -0.394 OA
ATOM     30  H   UNL     1     -12.893   3.188 -25.801  1.00  0.00     0.210 HD
ENDBRANCH  28  29
ENDBRANCH  22  28
BRANCH  23  31
ATOM     31  O   UNL     1     -12.310   5.270 -22.789  1.00  0.00    -0.387 OA
ATOM     32  H   UNL     1     -11.721   5.085 -23.571  1.00  0.00     0.211 HD
ENDBRANCH  23  31
ENDBRANCH   1  18
TORSDOF 11
ENDMDL
MODEL 7
REMARK VINA RESULT:    -6.042      2.738      5.140
REMARK INTER + INTRA:         -11.081
REMARK INTER:                  -9.719
REMARK INTRA:                  -1.362
REMARK UNBOUND:                -2.037
REMARK SMILES COC(=O)C1=CO[C@H](O[C@H]2O[C@@H](CO)[C@@H](O)[C@@H](O)[C@H]2O)[C@H]2C(CO)=CC[C@@H]12
REMARK SMILES IDX 9 1 8 2 5 3 6 4 27 5 7 6 21 7 26 8 22 9 25 10 3 11 4 12 2 13
REMARK SMILES IDX 1 14 23 15 24 16 10 18 19 19 11 20 17 21 12 22 15 23 20 24
REMARK SMILES IDX 18 26 13 28 14 29 16 31
REMARK H PARENT 24 17 20 25 18 27 14 30 16 32
REMARK Flexibility Score: inf
ROOT
ATOM      1  O   UNL     1     -13.224   0.956 -22.215  1.00  0.00    -0.310 OA
ENDROOT
BRANCH   1   2
ATOM      2  C   UNL     1     -12.551  -0.254 -22.554  1.00  0.00     0.316 C 
ATOM      3  C   UNL     1     -11.884  -2.821 -23.575  1.00  0.00     0.076 C 
ATOM      4  C   UNL     1     -13.143  -2.536 -23.218  1.00  0.00     0.202 C 
ATOM      5  C   UNL     1     -10.854  -1.720 -23.756  1.00  0.00     0.047 C 
ATOM      6  O   UNL     1     -13.521  -1.220 -22.943  1.00  0.00    -0.471 OA
ATOM      7  C   UNL     1     -11.361  -0.257 -23.581  1.00  0.00     0.094 C 
ATOM      8  C   UNL     1      -9.717  -1.851 -22.732  1.00  0.00     0.037 C 
ATOM      9  C   UNL     1     -10.122   0.427 -23.057  1.00  0.00    -0.039 C 
ATOM     10  C   UNL     1      -9.260  -0.450 -22.551  1.00  0.00    -0.024 C 
BRANCH   3  11
ATOM     11  C   UNL     1     -11.482  -4.230 -23.749  1.00  0.00     0.337 C 
ATOM     12  O   UNL     1     -12.059  -5.128 -23.071  1.00  0.00    -0.246 OA
BRANCH  11  13
ATOM     13  O   UNL     1     -10.387  -4.545 -24.559  1.00  0.00    -0.466 OA
ATOM     14  C   UNL     1     -10.215  -5.829 -25.155  1.00  0.00     0.282 C 
ENDBRANCH  11  13
ENDBRANCH   3  11
BRANCH   9  15
ATOM     15  C   UNL     1      -9.692   1.838 -23.374  1.00  0.00     0.187 C 
BRANCH  15  16
ATOM     16  O   UNL     1      -9.992   2.144 -24.709  1.00  0.00    -0.392 OA
ATOM     17  H   UNL     1      -9.548   3.010 -24.910  1.00  0.00     0.211 HD
ENDBRANCH  15  16
ENDBRANCH   9  15
ENDBRANCH   1   2
BRANCH   1  18
ATOM     18  C   UNL     1     -13.386   1.901 -23.251  1.00  0.00     0.286 C 
ATOM     19  C   UNL     1     -12.931   3.286 -22.766  1.00  0.00     0.202 C 
ATOM     20  O   UNL     1     -14.737   2.033 -23.654  1.00  0.00    -0.341 OA
ATOM     21  C   UNL     1     -12.859   4.252 -23.999  1.00  0.00     0.179 C 
ATOM     22  C   UNL     1     -14.884   2.838 -24.834  1.00  0.00     0.178 C 
ATOM     23  C   UNL     1     -13.624   3.697 -25.231  1.00  0.00     0.177 C 
BRANCH  19  24
ATOM     24  O   UNL     1     -13.895   3.754 -21.850  1.00  0.00    -0.385 OA
ATOM     25  H   UNL     1     -14.304   2.952 -21.428  1.00  0.00     0.211 HD
ENDBRANCH  19  24
BRANCH  21  26
ATOM     26  O   UNL     1     -13.333   5.534 -23.667  1.00  0.00    -0.387 OA
ATOM     27  H   UNL     1     -14.204   5.419 -23.194  1.00  0.00     0.211 HD
ENDBRANCH  21  26
BRANCH  22  28
ATOM     28  C   UNL     1     -16.142   3.715 -24.677  1.00  0.00     0.191 C 
BRANCH  28  29
ATOM     29  O   UNL     1     -16.202   4.379 -23.429  1.00  0.00    -0.394 OA
ATOM     30  H   UNL     1     -15.697   5.231 -23.525  1.00  0.00     0.210 HD
ENDBRANCH  28  29
ENDBRANCH  22  28
BRANCH  23  31
ATOM     31  O   UNL     1     -13.951   4.736 -26.125  1.00  0.00    -0.387 OA
ATOM     32  H   UNL     1     -14.606   5.322 -25.655  1.00  0.00     0.211 HD
ENDBRANCH  23  31
ENDBRANCH   1  18
TORSDOF 11
ENDMDL
MODEL 8
REMARK VINA RESULT:    -6.018      1.968      7.129
REMARK INTER + INTRA:         -11.044
REMARK INTER:                  -9.306
REMARK INTRA:                  -1.738
REMARK UNBOUND:                -2.037
REMARK SMILES COC(=O)C1=CO[C@H](O[C@H]2O[C@@H](CO)[C@@H](O)[C@@H](O)[C@H]2O)[C@H]2C(CO)=CC[C@@H]12
REMARK SMILES IDX 9 1 8 2 5 3 6 4 27 5 7 6 21 7 26 8 22 9 25 10 3 11 4 12 2 13
REMARK SMILES IDX 1 14 23 15 24 16 10 18 19 19 11 20 17 21 12 22 15 23 20 24
REMARK SMILES IDX 18 26 13 28 14 29 16 31
REMARK H PARENT 24 17 20 25 18 27 14 30 16 32
REMARK Flexibility Score: inf
ROOT
ATOM      1  O   UNL     1     -12.489   0.351 -21.675  1.00  0.00    -0.310 OA
ENDROOT
BRANCH   1   2
ATOM      2  C   UNL     1     -13.817  -0.138 -21.508  1.00  0.00     0.316 C 
ATOM      3  C   UNL     1     -16.498  -0.544 -20.655  1.00  0.00     0.076 C 
ATOM      4  C   UNL     1     -15.576  -0.073 -19.805  1.00  0.00     0.202 C 
ATOM      5  C   UNL     1     -16.241  -0.570 -22.152  1.00  0.00     0.047 C 
ATOM      6  O   UNL     1     -14.330   0.349 -20.274  1.00  0.00    -0.471 OA
ATOM      7  C   UNL     1     -14.895   0.047 -22.638  1.00  0.00     0.094 C 
ATOM      8  C   UNL     1     -16.212  -2.010 -22.684  1.00  0.00     0.037 C 
ATOM      9  C   UNL     1     -14.615  -0.782 -23.868  1.00  0.00    -0.039 C 
ATOM     10  C   UNL     1     -15.301  -1.921 -23.852  1.00  0.00    -0.024 C 
BRANCH   3  11
ATOM     11  C   UNL     1     -17.762  -1.089 -20.124  1.00  0.00     0.337 C 
ATOM     12  O   UNL     1     -18.857  -0.746 -20.655  1.00  0.00    -0.246 OA
BRANCH  11  13
ATOM     13  O   UNL     1     -17.750  -1.870 -18.964  1.00  0.00    -0.466 OA
ATOM     14  C   UNL     1     -18.941  -2.345 -18.343  1.00  0.00     0.282 C 
ENDBRANCH  11  13
ENDBRANCH   3  11
BRANCH   9  15
ATOM     15  C   UNL     1     -13.972  -0.284 -25.139  1.00  0.00     0.187 C 
BRANCH  15  16
ATOM     16  O   UNL     1     -12.823   0.461 -24.837  1.00  0.00    -0.392 OA
ATOM     17  H   UNL     1     -12.201  -0.152 -24.364  1.00  0.00     0.211 HD
ENDBRANCH  15  16
ENDBRANCH   9  15
ENDBRANCH   1   2
BRANCH   1  18
ATOM     18  C   UNL     1     -11.491  -0.609 -21.945  1.00  0.00     0.286 C 
ATOM     19  C   UNL     1     -10.139   0.091 -22.149  1.00  0.00     0.202 C 
ATOM     20  O   UNL     1     -11.753  -1.342 -23.128  1.00  0.00    -0.341 OA
ATOM     21  C   UNL     1      -9.008  -0.995 -22.173  1.00  0.00     0.179 C 
ATOM     22  C   UNL     1     -10.855  -2.448 -23.301  1.00  0.00     0.178 C 
ATOM     23  C   UNL     1      -9.568  -2.427 -22.392  1.00  0.00     0.177 C 
BRANCH  19  24
ATOM     24  O   UNL     1     -10.186   0.755 -23.391  1.00  0.00    -0.385 OA
ATOM     25  H   UNL     1     -10.983   0.407 -23.873  1.00  0.00     0.211 HD
ENDBRANCH  19  24
BRANCH  21  26
ATOM     26  O   UNL     1      -8.038  -0.696 -23.145  1.00  0.00    -0.387 OA
ATOM     27  H   UNL     1      -8.437  -0.890 -24.038  1.00  0.00     0.211 HD
ENDBRANCH  21  26
BRANCH  22  28
ATOM     28  C   UNL     1     -10.493  -2.557 -24.796  1.00  0.00     0.191 C 
BRANCH  28  29
ATOM     29  O   UNL     1     -10.250  -1.300 -25.400  1.00  0.00    -0.394 OA
ATOM     30  H   UNL     1     -10.390  -0.606 -24.700  1.00  0.00     0.210 HD
ENDBRANCH  28  29
ENDBRANCH  22  28
BRANCH  23  31
ATOM     31  O   UNL     1      -8.562  -3.287 -22.877  1.00  0.00    -0.387 OA
ATOM     32  H   UNL     1      -8.537  -4.072 -22.264  1.00  0.00     0.211 HD
ENDBRANCH  23  31
ENDBRANCH   1  18
TORSDOF 11
ENDMDL
MODEL 9
REMARK VINA RESULT:    -5.981      2.288      2.800
REMARK INTER + INTRA:         -10.990
REMARK INTER:                  -8.940
REMARK INTRA:                  -2.050
REMARK UNBOUND:                -2.037
REMARK SMILES COC(=O)C1=CO[C@H](O[C@H]2O[C@@H](CO)[C@@H](O)[C@@H](O)[C@H]2O)[C@H]2C(CO)=CC[C@@H]12
REMARK SMILES IDX 9 1 8 2 5 3 6 4 27 5 7 6 21 7 26 8 22 9 25 10 3 11 4 12 2 13
REMARK SMILES IDX 1 14 23 15 24 16 10 18 19 19 11 20 17 21 12 22 15 23 20 24
REMARK SMILES IDX 18 26 13 28 14 29 16 31
REMARK H PARENT 24 17 20 25 18 27 14 30 16 32
REMARK Flexibility Score: inf
ROOT
ATOM      1  O   UNL     1     -15.443  -1.535 -23.646  1.00  0.00    -0.310 OA
ENDROOT
BRANCH   1   2
ATOM      2  C   UNL     1     -14.035  -1.449 -23.854  1.00  0.00     0.316 C 
ATOM      3  C   UNL     1     -11.366  -1.879 -24.731  1.00  0.00     0.076 C 
ATOM      4  C   UNL     1     -12.219  -2.905 -24.615  1.00  0.00     0.202 C 
ATOM      5  C   UNL     1     -11.862  -0.444 -24.717  1.00  0.00     0.047 C 
ATOM      6  O   UNL     1     -13.582  -2.675 -24.416  1.00  0.00    -0.471 OA
ATOM      7  C   UNL     1     -13.406  -0.243 -24.641  1.00  0.00     0.094 C 
ATOM      8  C   UNL     1     -11.320   0.318 -23.500  1.00  0.00     0.037 C 
ATOM      9  C   UNL     1     -13.498   1.066 -23.895  1.00  0.00    -0.039 C 
ATOM     10  C   UNL     1     -12.373   1.332 -23.238  1.00  0.00    -0.024 C 
BRANCH   3  11
ATOM     11  C   UNL     1      -9.918  -2.148 -24.827  1.00  0.00     0.337 C 
ATOM     12  O   UNL     1      -9.254  -1.639 -25.775  1.00  0.00    -0.246 OA
BRANCH  11  13
ATOM     13  O   UNL     1      -9.321  -3.060 -23.952  1.00  0.00    -0.466 OA
ATOM     14  C   UNL     1      -8.690  -4.257 -24.400  1.00  0.00     0.282 C 
ENDBRANCH  11  13
ENDBRANCH   3  11
BRANCH   9  15
ATOM     15  C   UNL     1     -14.529   2.143 -24.127  1.00  0.00     0.187 C 
BRANCH  15  16
ATOM     16  O   UNL     1     -15.782   1.718 -23.662  1.00  0.00    -0.392 OA
ATOM     17  H   UNL     1     -15.650   1.408 -22.728  1.00  0.00     0.211 HD
ENDBRANCH  15  16
ENDBRANCH   9  15
ENDBRANCH   1   2
BRANCH   1  18
ATOM     18  C   UNL     1     -15.887  -1.496 -22.308  1.00  0.00     0.286 C 
ATOM     19  C   UNL     1     -17.410  -1.293 -22.273  1.00  0.00     0.202 C 
ATOM     20  O   UNL     1     -15.316  -0.424 -21.581  1.00  0.00    -0.341 OA
ATOM     21  C   UNL     1     -17.915  -1.525 -20.807  1.00  0.00     0.179 C 
ATOM     22  C   UNL     1     -15.606  -0.493 -20.177  1.00  0.00     0.178 C 
ATOM     23  C   UNL     1     -16.760  -1.486 -19.769  1.00  0.00     0.177 C 
BRANCH  19  24
ATOM     24  O   UNL     1     -17.671   0.037 -22.661  1.00  0.00    -0.385 OA
ATOM     25  H   UNL     1     -16.834   0.551 -22.506  1.00  0.00     0.211 HD
ENDBRANCH  19  24
BRANCH  21  26
ATOM     26  O   UNL     1     -18.913  -0.598 -20.461  1.00  0.00    -0.387 OA
ATOM     27  H   UNL     1     -18.477   0.134 -19.942  1.00  0.00     0.211 HD
ENDBRANCH  21  26
BRANCH  22  28
ATOM     28  C   UNL     1     -15.876   0.934 -19.659  1.00  0.00     0.191 C 
BRANCH  28  29
ATOM     29  O   UNL     1     -16.265   1.830 -20.682  1.00  0.00    -0.394 OA
ATOM     30  H   UNL     1     -17.257   1.903 -20.647  1.00  0.00     0.210 HD
ENDBRANCH  28  29
ENDBRANCH  22  28
BRANCH  23  31
ATOM     31  O   UNL     1     -17.258  -1.220 -18.479  1.00  0.00    -0.387 OA
ATOM     32  H   UNL     1     -16.775  -0.414 -18.147  1.00  0.00     0.211 HD
ENDBRANCH  23  31
ENDBRANCH   1  18
TORSDOF 11
ENDMDL
