MODEL 1
REMARK VINA RESULT:    -4.374      0.000      0.000
REMARK INTER + INTRA:          -5.085
REMARK INTER:                  -5.014
REMARK INTRA:                  -0.071
REMARK UNBOUND:                -0.071
REMARK SMILES COc1cc(C=O)ccc1O
REMARK SMILES IDX 3 1 10 2 9 3 8 4 5 5 4 6 2 7 1 8 11 9 6 11 7 12
REMARK H PARENT 11 10
REMARK Flexibility Score: inf
ROOT
ATOM      1  C   UNL     1      25.148   1.166  13.773  1.00  0.00     0.161 A 
ATOM      2  C   UNL     1      26.412   1.022  13.183  1.00  0.00     0.157 A 
ATOM      3  C   UNL     1      27.225  -0.068  13.520  1.00  0.00     0.051 A 
ATOM      4  C   UNL     1      26.784  -1.017  14.445  1.00  0.00     0.015 A 
ATOM      5  C   UNL     1      25.524  -0.888  15.046  1.00  0.00     0.018 A 
ATOM      6  C   UNL     1      24.708   0.206  14.707  1.00  0.00     0.062 A 
ENDROOT
BRANCH   1   7
ATOM      7  O   UNL     1      24.363   2.271  13.410  1.00  0.00    -0.493 OA
ATOM      8  C   UNL     1      23.324   2.238  12.438  1.00  0.00     0.278 C 
ENDBRANCH   1   7
BRANCH   2   9
ATOM      9  O   UNL     1      26.853   1.968  12.260  1.00  0.00    -0.504 OA
ATOM     10  H   UNL     1      27.747   2.434  12.364  1.00  0.00     0.293 HD
ENDBRANCH   2   9
BRANCH   5  11
ATOM     11  C   UNL     1      25.077  -1.901  16.020  1.00  0.00     0.260 C 
ATOM     12  O   UNL     1      25.586  -1.967  17.170  1.00  0.00    -0.298 OA
ENDBRANCH   5  11
TORSDOF 3
ENDMDL
MODEL 2
REMARK VINA RESULT:    -4.318      1.632      4.100
REMARK INTER + INTRA:          -5.021
REMARK INTER:                  -4.959
REMARK INTRA:                  -0.061
REMARK UNBOUND:                -0.071
REMARK SMILES COc1cc(C=O)ccc1O
REMARK SMILES IDX 3 1 10 2 9 3 8 4 5 5 4 6 2 7 1 8 11 9 6 11 7 12
REMARK H PARENT 11 10
REMARK Flexibility Score: inf
ROOT
ATOM      1  C   UNL     1      25.374  -0.275  14.471  1.00  0.00     0.161 A 
ATOM      2  C   UNL     1      26.490  -0.479  13.647  1.00  0.00     0.157 A 
ATOM      3  C   UNL     1      26.881   0.511  12.736  1.00  0.00     0.051 A 
ATOM      4  C   UNL     1      26.163   1.705  12.641  1.00  0.00     0.015 A 
ATOM      5  C   UNL     1      25.044   1.925  13.457  1.00  0.00     0.018 A 
ATOM      6  C   UNL     1      24.652   0.932  14.371  1.00  0.00     0.062 A 
ENDROOT
BRANCH   1   7
ATOM      7  O   UNL     1      25.014  -1.290  15.371  1.00  0.00    -0.493 OA
ATOM      8  C   UNL     1      25.434  -1.350  16.730  1.00  0.00     0.278 C 
ENDBRANCH   1   7
BRANCH   2   9
ATOM      9  O   UNL     1      27.208  -1.670  13.740  1.00  0.00    -0.504 OA
ATOM     10  H   UNL     1      27.575  -2.134  12.917  1.00  0.00     0.293 HD
ENDBRANCH   2   9
BRANCH   5  11
ATOM     11  C   UNL     1      24.299   3.192  13.341  1.00  0.00     0.260 C 
ATOM     12  O   UNL     1      23.340   3.313  12.534  1.00  0.00    -0.298 OA
ENDBRANCH   5  11
TORSDOF 3
ENDMDL
MODEL 3
REMARK VINA RESULT:    -4.300      1.654      3.634
REMARK INTER + INTRA:          -5.000
REMARK INTER:                  -4.926
REMARK INTRA:                  -0.075
REMARK UNBOUND:                -0.071
REMARK SMILES COc1cc(C=O)ccc1O
REMARK SMILES IDX 3 1 10 2 9 3 8 4 5 5 4 6 2 7 1 8 11 9 6 11 7 12
REMARK H PARENT 11 10
REMARK Flexibility Score: inf
ROOT
ATOM      1  C   UNL     1      25.272   1.496  13.446  1.00  0.00     0.161 A 
ATOM      2  C   UNL     1      25.204   0.236  14.058  1.00  0.00     0.157 A 
ATOM      3  C   UNL     1      26.347  -0.570  14.136  1.00  0.00     0.051 A 
ATOM      4  C   UNL     1      27.561  -0.126  13.605  1.00  0.00     0.015 A 
ATOM      5  C   UNL     1      27.646   1.131  12.989  1.00  0.00     0.018 A 
ATOM      6  C   UNL     1      26.498   1.939  12.911  1.00  0.00     0.062 A 
ENDROOT
BRANCH   1   7
ATOM      7  O   UNL     1      24.105   2.274  13.389  1.00  0.00    -0.493 OA
ATOM      8  C   UNL     1      23.321   2.468  12.217  1.00  0.00     0.278 C 
ENDBRANCH   1   7
BRANCH   2   9
ATOM      9  O   UNL     1      23.995  -0.208  14.589  1.00  0.00    -0.504 OA
ATOM     10  H   UNL     1      23.626  -1.127  14.372  1.00  0.00     0.293 HD
ENDBRANCH   2   9
BRANCH   5  11
ATOM     11  C   UNL     1      28.935   1.581  12.434  1.00  0.00     0.260 C 
ATOM     12  O   UNL     1      29.293   2.787  12.511  1.00  0.00    -0.298 OA
ENDBRANCH   5  11
TORSDOF 3
ENDMDL
MODEL 4
REMARK VINA RESULT:    -4.211      1.823      4.270
REMARK INTER + INTRA:          -4.898
REMARK INTER:                  -4.835
REMARK INTRA:                  -0.063
REMARK UNBOUND:                -0.071
REMARK SMILES COc1cc(C=O)ccc1O
REMARK SMILES IDX 3 1 10 2 9 3 8 4 5 5 4 6 2 7 1 8 11 9 6 11 7 12
REMARK H PARENT 11 10
REMARK Flexibility Score: inf
ROOT
ATOM      1  C   UNL     1      27.060   0.806  12.955  1.00  0.00     0.161 A 
ATOM      2  C   UNL     1      26.574  -0.308  13.656  1.00  0.00     0.157 A 
ATOM      3  C   UNL     1      25.301  -0.271  14.237  1.00  0.00     0.051 A 
ATOM      4  C   UNL     1      24.507   0.873  14.126  1.00  0.00     0.015 A 
ATOM      5  C   UNL     1      24.977   1.995  13.430  1.00  0.00     0.018 A 
ATOM      6  C   UNL     1      26.256   1.958  12.846  1.00  0.00     0.062 A 
ENDROOT
BRANCH   1   7
ATOM      7  O   UNL     1      28.341   0.730  12.386  1.00  0.00    -0.493 OA
ATOM      8  C   UNL     1      29.362   1.705  12.564  1.00  0.00     0.278 C 
ENDBRANCH   1   7
BRANCH   2   9
ATOM      9  O   UNL     1      27.364  -1.450  13.768  1.00  0.00    -0.504 OA
ATOM     10  H   UNL     1      27.213  -2.130  14.504  1.00  0.00     0.293 HD
ENDBRANCH   2   9
BRANCH   5  11
ATOM     11  C   UNL     1      24.124   3.193  13.324  1.00  0.00     0.260 C 
ATOM     12  O   UNL     1      23.328   3.343  12.359  1.00  0.00    -0.298 OA
ENDBRANCH   5  11
TORSDOF 3
ENDMDL
MODEL 5
REMARK VINA RESULT:    -4.179      1.210      2.771
REMARK INTER + INTRA:          -4.862
REMARK INTER:                  -4.787
REMARK INTRA:                  -0.075
REMARK UNBOUND:                -0.071
REMARK SMILES COc1cc(C=O)ccc1O
REMARK SMILES IDX 3 1 10 2 9 3 8 4 5 5 4 6 2 7 1 8 11 9 6 11 7 12
REMARK H PARENT 11 10
REMARK Flexibility Score: inf
ROOT
ATOM      1  C   UNL     1      27.076   0.726  13.230  1.00  0.00     0.161 A 
ATOM      2  C   UNL     1      25.932   1.493  12.967  1.00  0.00     0.157 A 
ATOM      3  C   UNL     1      24.721   1.192  13.605  1.00  0.00     0.051 A 
ATOM      4  C   UNL     1      24.645   0.127  14.505  1.00  0.00     0.015 A 
ATOM      5  C   UNL     1      25.779  -0.651  14.780  1.00  0.00     0.018 A 
ATOM      6  C   UNL     1      26.994  -0.348  14.140  1.00  0.00     0.062 A 
ENDROOT
BRANCH   1   7
ATOM      7  O   UNL     1      28.270   1.060  12.572  1.00  0.00    -0.493 OA
ATOM      8  C   UNL     1      29.461   1.483  13.225  1.00  0.00     0.278 C 
ENDBRANCH   1   7
BRANCH   2   9
ATOM      9  O   UNL     1      26.006   2.556  12.069  1.00  0.00    -0.504 OA
ATOM     10  H   UNL     1      25.948   3.519  12.380  1.00  0.00     0.293 HD
ENDBRANCH   2   9
BRANCH   5  11
ATOM     11  C   UNL     1      25.679  -1.771  15.734  1.00  0.00     0.260 C 
ATOM     12  O   UNL     1      24.560  -2.172  16.152  1.00  0.00    -0.298 OA
ENDBRANCH   5  11
TORSDOF 3
ENDMDL
MODEL 6
REMARK VINA RESULT:    -4.142      2.446      4.043
REMARK INTER + INTRA:          -4.819
REMARK INTER:                  -4.760
REMARK INTRA:                  -0.059
REMARK UNBOUND:                -0.071
REMARK SMILES COc1cc(C=O)ccc1O
REMARK SMILES IDX 3 1 10 2 9 3 8 4 5 5 4 6 2 7 1 8 11 9 6 11 7 12
REMARK H PARENT 11 10
REMARK Flexibility Score: inf
ROOT
ATOM      1  C   UNL     1      26.685   0.936  12.918  1.00  0.00     0.161 A 
ATOM      2  C   UNL     1      26.971   2.274  12.611  1.00  0.00     0.157 A 
ATOM      3  C   UNL     1      25.929   3.191  12.424  1.00  0.00     0.051 A 
ATOM      4  C   UNL     1      24.599   2.780  12.539  1.00  0.00     0.015 A 
ATOM      5  C   UNL     1      24.294   1.446  12.845  1.00  0.00     0.018 A 
ATOM      6  C   UNL     1      25.341   0.526  13.034  1.00  0.00     0.062 A 
ENDROOT
BRANCH   1   7
ATOM      7  O   UNL     1      27.756   0.048  13.100  1.00  0.00    -0.493 OA
ATOM      8  C   UNL     1      27.623  -1.363  13.223  1.00  0.00     0.278 C 
ENDBRANCH   1   7
BRANCH   2   9
ATOM      9  O   UNL     1      28.297   2.686  12.496  1.00  0.00    -0.504 OA
ATOM     10  H   UNL     1      29.064   2.103  12.811  1.00  0.00     0.293 HD
ENDBRANCH   2   9
BRANCH   5  11
ATOM     11  C   UNL     1      22.884   1.032  12.963  1.00  0.00     0.260 C 
ATOM     12  O   UNL     1      21.958   1.721  12.457  1.00  0.00    -0.298 OA
ENDBRANCH   5  11
TORSDOF 3
ENDMDL
MODEL 7
REMARK VINA RESULT:    -4.051      1.816      4.276
REMARK INTER + INTRA:          -4.715
REMARK INTER:                  -4.658
REMARK INTRA:                  -0.057
REMARK UNBOUND:                -0.071
REMARK SMILES COc1cc(C=O)ccc1O
REMARK SMILES IDX 3 1 10 2 9 3 8 4 5 5 4 6 2 7 1 8 11 9 6 11 7 12
REMARK H PARENT 11 10
REMARK Flexibility Score: inf
ROOT
ATOM      1  C   UNL     1      26.139  -0.205  14.141  1.00  0.00     0.161 A 
ATOM      2  C   UNL     1      25.097   0.648  13.751  1.00  0.00     0.157 A 
ATOM      3  C   UNL     1      25.371   1.792  12.991  1.00  0.00     0.051 A 
ATOM      4  C   UNL     1      26.683   2.093  12.617  1.00  0.00     0.015 A 
ATOM      5  C   UNL     1      27.738   1.252  12.999  1.00  0.00     0.018 A 
ATOM      6  C   UNL     1      27.462   0.103  13.762  1.00  0.00     0.062 A 
ENDROOT
BRANCH   1   7
ATOM      7  O   UNL     1      25.824  -1.342  14.901  1.00  0.00    -0.493 OA
ATOM      8  C   UNL     1      25.826  -1.387  16.324  1.00  0.00     0.278 C 
ENDBRANCH   1   7
BRANCH   2   9
ATOM      9  O   UNL     1      23.787   0.349  14.122  1.00  0.00    -0.504 OA
ATOM     10  H   UNL     1      22.995   0.820  13.700  1.00  0.00     0.293 HD
ENDBRANCH   2   9
BRANCH   5  11
ATOM     11  C   UNL     1      29.116   1.587  12.595  1.00  0.00     0.260 C 
ATOM     12  O   UNL     1      30.089   1.386  13.369  1.00  0.00    -0.298 OA
ENDBRANCH   5  11
TORSDOF 3
ENDMDL
MODEL 8
REMARK VINA RESULT:    -3.954      7.756      9.787
REMARK INTER + INTRA:          -4.604
REMARK INTER:                  -4.550
REMARK INTRA:                  -0.053
REMARK UNBOUND:                -0.071
REMARK SMILES COc1cc(C=O)ccc1O
REMARK SMILES IDX 3 1 10 2 9 3 8 4 5 5 4 6 2 7 1 8 11 9 6 11 7 12
REMARK H PARENT 11 10
REMARK Flexibility Score: inf
ROOT
ATOM      1  C   UNL     1      28.865  -0.280   6.971  1.00  0.00     0.161 A 
ATOM      2  C   UNL     1      27.601  -0.842   7.198  1.00  0.00     0.157 A 
ATOM      3  C   UNL     1      26.752  -1.122   6.120  1.00  0.00     0.051 A 
ATOM      4  C   UNL     1      27.157  -0.844   4.813  1.00  0.00     0.015 A 
ATOM      5  C   UNL     1      28.417  -0.281   4.567  1.00  0.00     0.018 A 
ATOM      6  C   UNL     1      29.269  -0.000   5.649  1.00  0.00     0.062 A 
ENDROOT
BRANCH   1   7
ATOM      7  O   UNL     1      29.687  -0.014   8.077  1.00  0.00    -0.493 OA
ATOM      8  C   UNL     1      31.079   0.271   7.998  1.00  0.00     0.278 C 
ENDBRANCH   1   7
BRANCH   2   9
ATOM      9  O   UNL     1      27.195  -1.120   8.502  1.00  0.00    -0.504 OA
ATOM     10  H   UNL     1      27.698  -0.758   9.304  1.00  0.00     0.293 HD
ENDBRANCH   2   9
BRANCH   5  11
ATOM     11  C   UNL     1      28.827   0.005   3.180  1.00  0.00     0.260 C 
ATOM     12  O   UNL     1      29.377   1.097   2.875  1.00  0.00    -0.298 OA
ENDBRANCH   5  11
TORSDOF 3
ENDMDL
MODEL 9
REMARK VINA RESULT:    -3.862      8.021      9.409
REMARK INTER + INTRA:          -4.498
REMARK INTER:                  -4.445
REMARK INTRA:                  -0.053
REMARK UNBOUND:                -0.071
REMARK SMILES COc1cc(C=O)ccc1O
REMARK SMILES IDX 3 1 10 2 9 3 8 4 5 5 4 6 2 7 1 8 11 9 6 11 7 12
REMARK H PARENT 11 10
REMARK Flexibility Score: inf
ROOT
ATOM      1  C   UNL     1      28.230  -0.287   4.875  1.00  0.00     0.161 A 
ATOM      2  C   UNL     1      27.169  -1.094   5.310  1.00  0.00     0.157 A 
ATOM      3  C   UNL     1      27.119  -1.534   6.638  1.00  0.00     0.051 A 
ATOM      4  C   UNL     1      28.125  -1.175   7.538  1.00  0.00     0.015 A 
ATOM      5  C   UNL     1      29.194  -0.369   7.120  1.00  0.00     0.018 A 
ATOM      6  C   UNL     1      29.243   0.073   5.787  1.00  0.00     0.062 A 
ENDROOT
BRANCH   1   7
ATOM      7  O   UNL     1      28.243   0.135   3.536  1.00  0.00    -0.493 OA
ATOM      8  C   UNL     1      29.376   0.687   2.875  1.00  0.00     0.278 C 
ENDBRANCH   1   7
BRANCH   2   9
ATOM      9  O   UNL     1      26.164  -1.453   4.414  1.00  0.00    -0.504 OA
ATOM     10  H   UNL     1      25.519  -2.209   4.614  1.00  0.00     0.293 HD
ENDBRANCH   2   9
BRANCH   5  11
ATOM     11  C   UNL     1      30.246  -0.001   8.085  1.00  0.00     0.260 C 
ATOM     12  O   UNL     1      31.466  -0.140   7.804  1.00  0.00    -0.298 OA
ENDBRANCH   5  11
TORSDOF 3
ENDMDL
