MODEL 1
REMARK VINA RESULT:     5.175      0.000      0.000
REMARK INTER + INTRA:           6.679
REMARK INTER:                   7.293
REMARK INTRA:                  -0.614
REMARK UNBOUND:                -0.614
REMARK SMILES COc1c(O[C@H]2O[C@@H](C(=O)[O-])[C@@H](O)[C@@H](O)[C@@H]2O)cc(O)c2c(=O)cc(-c3ccccc3)oc12
REMARK SMILES IDX 5 1 6 2 8 3 12 4 7 5 14 6 16 7 9 8 10 9 11 10 13 11 15 13
REMARK SMILES IDX 17 15 4 17 3 18 18 19 33 20 19 21 21 22 32 23 22 24 25 25
REMARK SMILES IDX 24 26 23 27 2 28 1 29 20 30 26 32 27 33 31 34 28 35 30 36
REMARK SMILES IDX 29 37
REMARK H PARENT 13 12 15 14 17 16 20 31
REMARK Flexibility Score: inf
ROOT
ATOM      1  O   UNL     1      41.702 -31.503  11.352  1.00  0.00    -0.458 OA
ENDROOT
BRANCH   1   2
ATOM      2  C   UNL     1      42.598 -31.039  12.364  1.00  0.00     0.339 C 
ATOM      3  C   UNL     1      44.591 -32.389  12.474  1.00  0.00     0.199 C 
ATOM      4  C   UNL     1      44.787 -32.023  10.984  1.00  0.00     0.180 C 
ATOM      5  O   UNL     1      43.266 -32.155  12.945  1.00  0.00    -0.328 OA
ATOM      6  C   UNL     1      44.531 -30.515  10.771  1.00  0.00     0.181 C 
ATOM      7  C   UNL     1      43.525 -29.943  11.798  1.00  0.00     0.214 C 
BRANCH   3   8
ATOM      8  C   UNL     1      44.953 -33.829  12.720  1.00  0.00     0.073 C 
ATOM      9  O   UNL     1      46.122 -34.140  13.077  1.00  0.00    -0.547 OA
ATOM     10  O   UNL     1      44.023 -34.839  12.490  1.00  0.00    -0.547 OA
ENDBRANCH   3   8
BRANCH   4  11
ATOM     11  O   UNL     1      43.907 -32.782  10.188  1.00  0.00    -0.387 OA
ATOM     12  H   UNL     1      42.995 -32.690  10.574  1.00  0.00     0.211 HD
ENDBRANCH   4  11
BRANCH   6  13
ATOM     13  O   UNL     1      44.065 -30.271   9.466  1.00  0.00    -0.387 OA
ATOM     14  H   UNL     1      43.407 -30.986   9.259  1.00  0.00     0.211 HD
ENDBRANCH   6  13
BRANCH   7  15
ATOM     15  O   UNL     1      44.215 -29.346  12.867  1.00  0.00    -0.384 OA
ATOM     16  H   UNL     1      44.284 -30.027  13.586  1.00  0.00     0.211 HD
ENDBRANCH   7  15
ENDBRANCH   1   2
BRANCH   1  17
ATOM     17  C   UNL     1      40.374 -31.065  11.263  1.00  0.00     0.172 A 
ATOM     18  C   UNL     1      39.577 -31.504  10.196  1.00  0.00     0.205 A 
ATOM     19  C   UNL     1      39.848 -30.191  12.223  1.00  0.00     0.097 A 
ATOM     20  C   UNL     1      38.215 -31.115  10.137  1.00  0.00     0.188 A 
ATOM     21  C   UNL     1      38.517 -29.769  12.157  1.00  0.00     0.134 A 
ATOM     22  C   UNL     1      37.680 -30.245  11.124  1.00  0.00     0.111 A 
ATOM     23  O   UNL     1      37.425 -31.581   9.174  1.00  0.00    -0.452 OA
ATOM     24  C   UNL     1      36.317 -29.897  11.028  1.00  0.00     0.197 A 
ATOM     25  C   UNL     1      36.131 -31.293   9.071  1.00  0.00     0.138 A 
ATOM     26  C   UNL     1      35.542 -30.424   9.998  1.00  0.00     0.100 A 
ATOM     27  O   UNL     1      35.776 -29.121  11.860  1.00  0.00    -0.289 OA
BRANCH  18  28
ATOM     28  O   UNL     1      40.191 -32.343   9.247  1.00  0.00    -0.490 OA
ATOM     29  C   UNL     1      39.544 -33.032   8.184  1.00  0.00     0.278 C 
ENDBRANCH  18  28
BRANCH  21  30
ATOM     30  O   UNL     1      38.038 -28.879  13.119  1.00  0.00    -0.507 OA
ATOM     31  H   UNL     1      37.063 -28.608  13.159  1.00  0.00     0.293 HD
ENDBRANCH  21  30
BRANCH  25  32
ATOM     32  C   UNL     1      35.344 -31.909   7.975  1.00  0.00     0.017 A 
ATOM     33  C   UNL     1      35.373 -31.339   6.690  1.00  0.00     0.012 A 
ATOM     34  C   UNL     1      34.609 -33.094   8.178  1.00  0.00     0.012 A 
ATOM     35  C   UNL     1      34.673 -31.931   5.635  1.00  0.00     0.001 A 
ATOM     36  C   UNL     1      33.917 -33.685   7.118  1.00  0.00     0.001 A 
ATOM     37  C   UNL     1      33.949 -33.105   5.848  1.00  0.00     0.000 A 
ENDBRANCH  25  32
ENDBRANCH   1  17
TORSDOF 9
ENDMDL
MODEL 2
REMARK VINA RESULT:     6.493      3.988      9.282
REMARK INTER + INTRA:           8.536
REMARK INTER:                   8.248
REMARK INTRA:                   0.288
REMARK UNBOUND:                -0.614
REMARK SMILES COc1c(O[C@H]2O[C@@H](C(=O)[O-])[C@@H](O)[C@@H](O)[C@@H]2O)cc(O)c2c(=O)cc(-c3ccccc3)oc12
REMARK SMILES IDX 5 1 6 2 8 3 12 4 7 5 14 6 16 7 9 8 10 9 11 10 13 11 15 13
REMARK SMILES IDX 17 15 4 17 3 18 18 19 33 20 19 21 21 22 32 23 22 24 25 25
REMARK SMILES IDX 24 26 23 27 2 28 1 29 20 30 26 32 27 33 31 34 28 35 30 36
REMARK SMILES IDX 29 37
REMARK H PARENT 13 12 15 14 17 16 20 31
REMARK Flexibility Score: inf
ROOT
ATOM      1  O   UNL     1      33.279 -32.412  11.264  1.00  0.00    -0.458 OA
ENDROOT
BRANCH   1   2
ATOM      2  C   UNL     1      33.547 -33.472  12.185  1.00  0.00     0.339 C 
ATOM      3  C   UNL     1      31.629 -34.903  12.476  1.00  0.00     0.199 C 
ATOM      4  C   UNL     1      31.699 -35.119  10.945  1.00  0.00     0.180 C 
ATOM      5  O   UNL     1      32.361 -33.763  12.920  1.00  0.00    -0.328 OA
ATOM      6  C   UNL     1      33.159 -35.369  10.511  1.00  0.00     0.181 C 
ATOM      7  C   UNL     1      34.174 -34.675  11.451  1.00  0.00     0.214 C 
BRANCH   3   8
ATOM      8  C   UNL     1      30.201 -34.777  12.932  1.00  0.00     0.073 C 
ATOM      9  O   UNL     1      29.500 -35.809  13.124  1.00  0.00    -0.547 OA
ATOM     10  O   UNL     1      29.616 -33.523  13.080  1.00  0.00    -0.547 OA
ENDBRANCH   3   8
BRANCH   4  11
ATOM     11  O   UNL     1      31.181 -33.989  10.282  1.00  0.00    -0.387 OA
ATOM     12  H   UNL     1      30.274 -34.222   9.950  1.00  0.00     0.211 HD
ENDBRANCH   4  11
BRANCH   6  13
ATOM     13  O   UNL     1      33.365 -34.933   9.190  1.00  0.00    -0.387 OA
ATOM     14  H   UNL     1      32.598 -34.344   8.959  1.00  0.00     0.211 HD
ENDBRANCH   6  13
BRANCH   7  15
ATOM     15  O   UNL     1      34.643 -35.588  12.412  1.00  0.00    -0.384 OA
ATOM     16  H   UNL     1      34.298 -35.289  13.292  1.00  0.00     0.211 HD
ENDBRANCH   7  15
ENDBRANCH   1   2
BRANCH   1  17
ATOM     17  C   UNL     1      34.297 -31.641  10.687  1.00  0.00     0.172 A 
ATOM     18  C   UNL     1      35.510 -31.483  11.374  1.00  0.00     0.205 A 
ATOM     19  C   UNL     1      34.105 -31.026   9.444  1.00  0.00     0.097 A 
ATOM     20  C   UNL     1      36.564 -30.757  10.766  1.00  0.00     0.188 A 
ATOM     21  C   UNL     1      35.123 -30.275   8.849  1.00  0.00     0.134 A 
ATOM     22  C   UNL     1      36.372 -30.152   9.495  1.00  0.00     0.111 A 
ATOM     23  O   UNL     1      37.746 -30.659  11.368  1.00  0.00    -0.452 OA
ATOM     24  C   UNL     1      37.456 -29.450   8.927  1.00  0.00     0.197 A 
ATOM     25  C   UNL     1      38.795 -30.027  10.849  1.00  0.00     0.138 A 
ATOM     26  C   UNL     1      38.670 -29.390   9.608  1.00  0.00     0.100 A 
ATOM     27  O   UNL     1      37.356 -28.878   7.809  1.00  0.00    -0.289 OA
BRANCH  18  28
ATOM     28  O   UNL     1      35.609 -32.092  12.638  1.00  0.00    -0.490 OA
ATOM     29  C   UNL     1      36.704 -32.859  13.124  1.00  0.00     0.278 C 
ENDBRANCH  18  28
BRANCH  21  30
ATOM     30  O   UNL     1      34.883 -29.659   7.620  1.00  0.00    -0.507 OA
ATOM     31  H   UNL     1      34.181 -30.003   6.976  1.00  0.00     0.293 HD
ENDBRANCH  21  30
BRANCH  25  32
ATOM     32  C   UNL     1      40.074 -30.023  11.599  1.00  0.00     0.017 A 
ATOM     33  C   UNL     1      40.456 -31.161  12.331  1.00  0.00     0.012 A 
ATOM     34  C   UNL     1      40.949 -28.921  11.548  1.00  0.00     0.012 A 
ATOM     35  C   UNL     1      41.679 -31.193  13.007  1.00  0.00     0.001 A 
ATOM     36  C   UNL     1      42.173 -28.960  12.221  1.00  0.00     0.001 A 
ATOM     37  C   UNL     1      42.538 -30.094  12.949  1.00  0.00     0.000 A 
ENDBRANCH  25  32
ENDBRANCH   1  17
TORSDOF 9
ENDMDL
MODEL 3
REMARK VINA RESULT:     7.221      2.092      8.566
REMARK INTER + INTRA:           9.563
REMARK INTER:                   8.331
REMARK INTRA:                   1.232
REMARK UNBOUND:                -0.614
REMARK SMILES COc1c(O[C@H]2O[C@@H](C(=O)[O-])[C@@H](O)[C@@H](O)[C@@H]2O)cc(O)c2c(=O)cc(-c3ccccc3)oc12
REMARK SMILES IDX 5 1 6 2 8 3 12 4 7 5 14 6 16 7 9 8 10 9 11 10 13 11 15 13
REMARK SMILES IDX 17 15 4 17 3 18 18 19 33 20 19 21 21 22 32 23 22 24 25 25
REMARK SMILES IDX 24 26 23 27 2 28 1 29 20 30 26 32 27 33 31 34 28 35 30 36
REMARK SMILES IDX 29 37
REMARK H PARENT 13 12 15 14 17 16 20 31
REMARK Flexibility Score: inf
ROOT
ATOM      1  O   UNL     1      37.180 -31.997   8.385  1.00  0.00    -0.458 OA
ENDROOT
BRANCH   1   2
ATOM      2  C   UNL     1      36.679 -31.167   7.334  1.00  0.00     0.339 C 
ATOM      3  C   UNL     1      34.512 -31.903   6.578  1.00  0.00     0.199 C 
ATOM      4  C   UNL     1      34.061 -31.718   8.047  1.00  0.00     0.180 C 
ATOM      5  O   UNL     1      35.928 -31.968   6.425  1.00  0.00    -0.328 OA
ATOM      6  C   UNL     1      34.599 -30.382   8.602  1.00  0.00     0.181 C 
ATOM      7  C   UNL     1      35.922 -29.958   7.921  1.00  0.00     0.214 C 
BRANCH   3   8
ATOM      8  C   UNL     1      33.897 -33.142   5.984  1.00  0.00     0.073 C 
ATOM      9  O   UNL     1      34.146 -34.276   6.478  1.00  0.00    -0.547 OA
ATOM     10  O   UNL     1      33.105 -33.058   4.844  1.00  0.00    -0.547 OA
ENDBRANCH   3   8
BRANCH   4  11
ATOM     11  O   UNL     1      34.531 -32.793   8.826  1.00  0.00    -0.387 OA
ATOM     12  H   UNL     1      34.490 -32.515   9.780  1.00  0.00     0.211 HD
ENDBRANCH   4  11
BRANCH   6  13
ATOM     13  O   UNL     1      34.789 -30.464   9.993  1.00  0.00    -0.387 OA
ATOM     14  H   UNL     1      34.000 -30.031  10.416  1.00  0.00     0.211 HD
ENDBRANCH   6  13
BRANCH   7  15
ATOM     15  O   UNL     1      35.659 -29.049   6.881  1.00  0.00    -0.384 OA
ATOM     16  H   UNL     1      34.712 -29.176   6.615  1.00  0.00     0.211 HD
ENDBRANCH   7  15
ENDBRANCH   1   2
BRANCH   1  17
ATOM     17  C   UNL     1      38.003 -31.504   9.406  1.00  0.00     0.172 A 
ATOM     18  C   UNL     1      39.256 -32.097   9.624  1.00  0.00     0.205 A 
ATOM     19  C   UNL     1      37.579 -30.438  10.208  1.00  0.00     0.097 A 
ATOM     20  C   UNL     1      40.118 -31.560  10.613  1.00  0.00     0.188 A 
ATOM     21  C   UNL     1      38.403 -29.922  11.213  1.00  0.00     0.134 A 
ATOM     22  C   UNL     1      39.691 -30.465  11.411  1.00  0.00     0.111 A 
ATOM     23  O   UNL     1      41.338 -32.061  10.783  1.00  0.00    -0.452 OA
ATOM     24  C   UNL     1      40.590 -29.960  12.373  1.00  0.00     0.197 A 
ATOM     25  C   UNL     1      42.218 -31.591  11.663  1.00  0.00     0.138 A 
ATOM     26  C   UNL     1      41.857 -30.526  12.497  1.00  0.00     0.100 A 
ATOM     27  O   UNL     1      40.276 -28.999  13.125  1.00  0.00    -0.289 OA
BRANCH  18  28
ATOM     28  O   UNL     1      39.591 -33.193   8.808  1.00  0.00    -0.490 OA
ATOM     29  C   UNL     1      38.999 -33.531   7.560  1.00  0.00     0.278 C 
ENDBRANCH  18  28
BRANCH  21  30
ATOM     30  O   UNL     1      37.933 -28.875  12.006  1.00  0.00    -0.507 OA
ATOM     31  H   UNL     1      36.949 -28.767  12.223  1.00  0.00     0.293 HD
ENDBRANCH  21  30
BRANCH  25  32
ATOM     32  C   UNL     1      43.565 -32.208  11.730  1.00  0.00     0.017 A 
ATOM     33  C   UNL     1      44.530 -31.680  12.605  1.00  0.00     0.012 A 
ATOM     34  C   UNL     1      43.884 -33.353  10.975  1.00  0.00     0.012 A 
ATOM     35  C   UNL     1      45.790 -32.275  12.715  1.00  0.00     0.001 A 
ATOM     36  C   UNL     1      45.143 -33.948  11.093  1.00  0.00     0.001 A 
ATOM     37  C   UNL     1      46.095 -33.410  11.963  1.00  0.00     0.000 A 
ENDBRANCH  25  32
ENDBRANCH   1  17
TORSDOF 9
ENDMDL
