MODEL 1
REMARK VINA RESULT:    -7.228      0.000      0.000
REMARK INTER + INTRA:          -9.168
REMARK INTER:                  -8.918
REMARK INTRA:                  -0.250
REMARK UNBOUND:                -0.250
REMARK SMILES Oc1cc(O)c2cc(O)c(-c3cc(O)c(O)c(O)c3)[o+]c2c1
REMARK SMILES IDX 10 1 20 2 21 3 22 4 2 5 3 6 4 7 6 8 7 9 8 10 11 11 12 12
REMARK SMILES IDX 13 13 19 14 15 15 17 16 14 17 16 19 18 21 9 23 1 25 5 27
REMARK H PARENT 14 18 16 20 18 22 9 24 1 26 5 28
REMARK Flexibility Score: inf
ROOT
ATOM      1  C   UNL     1     -24.261 -20.199 -13.843  1.00  0.00     0.402 A 
ATOM      2  O   UNL     1     -24.432 -21.085 -14.820  1.00  0.00    -0.202 OA
ATOM      3  C   UNL     1     -24.463 -22.398 -14.618  1.00  0.00     0.368 A 
ATOM      4  C   UNL     1     -24.652 -23.250 -15.709  1.00  0.00     0.162 A 
ATOM      5  C   UNL     1     -24.690 -24.636 -15.523  1.00  0.00     0.128 A 
ATOM      6  C   UNL     1     -24.541 -25.170 -14.242  1.00  0.00     0.093 A 
ATOM      7  C   UNL     1     -24.350 -24.337 -13.131  1.00  0.00     0.136 A 
ATOM      8  C   UNL     1     -24.308 -22.930 -13.315  1.00  0.00     0.125 A 
ATOM      9  C   UNL     1     -24.108 -22.021 -12.264  1.00  0.00     0.078 A 
ATOM     10  C   UNL     1     -24.073 -20.647 -12.522  1.00  0.00     0.223 A 
ENDROOT
BRANCH   1  11
ATOM     11  C   UNL     1     -24.255 -18.760 -14.195  1.00  0.00     0.091 A 
ATOM     12  C   UNL     1     -25.413 -18.116 -14.664  1.00  0.00     0.068 A 
ATOM     13  C   UNL     1     -25.381 -16.758 -15.014  1.00  0.00     0.162 A 
ATOM     14  C   UNL     1     -23.056 -18.036 -14.114  1.00  0.00     0.068 A 
ATOM     15  C   UNL     1     -24.180 -16.036 -14.908  1.00  0.00     0.200 A 
ATOM     16  C   UNL     1     -23.018 -16.678 -14.461  1.00  0.00     0.162 A 
BRANCH  13  17
ATOM     17  O   UNL     1     -26.537 -16.128 -15.472  1.00  0.00    -0.504 OA
ATOM     18  H   UNL     1     -26.912 -15.307 -15.012  1.00  0.00     0.293 HD
ENDBRANCH  13  17
BRANCH  15  19
ATOM     19  O   UNL     1     -24.125 -14.684 -15.246  1.00  0.00    -0.502 OA
ATOM     20  H   UNL     1     -24.534 -13.965 -14.661  1.00  0.00     0.293 HD
ENDBRANCH  15  19
BRANCH  16  21
ATOM     21  O   UNL     1     -21.828 -15.959 -14.364  1.00  0.00    -0.504 OA
ATOM     22  H   UNL     1     -20.948 -16.344 -14.690  1.00  0.00     0.293 HD
ENDBRANCH  16  21
ENDBRANCH   1  11
BRANCH  10  23
ATOM     23  O   UNL     1     -23.825 -19.746 -11.486  1.00  0.00    -0.500 OA
ATOM     24  H   UNL     1     -23.154 -18.995 -11.584  1.00  0.00     0.294 HD
ENDBRANCH  10  23
BRANCH   5  25
ATOM     25  O   UNL     1     -24.877 -25.491 -16.606  1.00  0.00    -0.507 OA
ATOM     26  H   UNL     1     -24.418 -26.393 -16.654  1.00  0.00     0.293 HD
ENDBRANCH   5  25
BRANCH   7  27
ATOM     27  O   UNL     1     -24.213 -24.950 -11.883  1.00  0.00    -0.507 OA
ATOM     28  H   UNL     1     -24.909 -24.916 -11.151  1.00  0.00     0.293 HD
ENDBRANCH   7  27
TORSDOF 7
ENDMDL
MODEL 2
REMARK VINA RESULT:    -7.170      0.087      1.790
REMARK INTER + INTRA:          -9.096
REMARK INTER:                  -8.866
REMARK INTRA:                  -0.230
REMARK UNBOUND:                -0.250
REMARK SMILES Oc1cc(O)c2cc(O)c(-c3cc(O)c(O)c(O)c3)[o+]c2c1
REMARK SMILES IDX 10 1 20 2 21 3 22 4 2 5 3 6 4 7 6 8 7 9 8 10 11 11 12 12
REMARK SMILES IDX 13 13 19 14 15 15 17 16 14 17 16 19 18 21 9 23 1 25 5 27
REMARK H PARENT 14 18 16 20 18 22 9 24 1 26 5 28
REMARK Flexibility Score: inf
ROOT
ATOM      1  C   UNL     1     -24.186 -20.239 -13.875  1.00  0.00     0.402 A 
ATOM      2  O   UNL     1     -24.375 -21.127 -14.846  1.00  0.00    -0.202 OA
ATOM      3  C   UNL     1     -24.409 -22.439 -14.639  1.00  0.00     0.368 A 
ATOM      4  C   UNL     1     -24.617 -23.294 -15.725  1.00  0.00     0.162 A 
ATOM      5  C   UNL     1     -24.660 -24.679 -15.534  1.00  0.00     0.128 A 
ATOM      6  C   UNL     1     -24.495 -25.209 -14.253  1.00  0.00     0.093 A 
ATOM      7  C   UNL     1     -24.285 -24.374 -13.148  1.00  0.00     0.136 A 
ATOM      8  C   UNL     1     -24.239 -22.968 -13.337  1.00  0.00     0.125 A 
ATOM      9  C   UNL     1     -24.020 -22.056 -12.292  1.00  0.00     0.078 A 
ATOM     10  C   UNL     1     -23.982 -20.683 -12.555  1.00  0.00     0.223 A 
ENDROOT
BRANCH   1  11
ATOM     11  C   UNL     1     -24.178 -18.801 -14.231  1.00  0.00     0.091 A 
ATOM     12  C   UNL     1     -23.016 -18.021 -14.102  1.00  0.00     0.068 A 
ATOM     13  C   UNL     1     -23.034 -16.656 -14.421  1.00  0.00     0.162 A 
ATOM     14  C   UNL     1     -25.368 -18.189 -14.652  1.00  0.00     0.068 A 
ATOM     15  C   UNL     1     -24.226 -16.057 -14.864  1.00  0.00     0.200 A 
ATOM     16  C   UNL     1     -25.392 -16.824 -14.975  1.00  0.00     0.162 A 
BRANCH  13  17
ATOM     17  O   UNL     1     -21.875 -15.893 -14.295  1.00  0.00    -0.504 OA
ATOM     18  H   UNL     1     -21.759 -15.017 -14.790  1.00  0.00     0.293 HD
ENDBRANCH  13  17
BRANCH  15  19
ATOM     19  O   UNL     1     -24.268 -14.702 -15.192  1.00  0.00    -0.502 OA
ATOM     20  H   UNL     1     -24.205 -13.975 -14.490  1.00  0.00     0.293 HD
ENDBRANCH  15  19
BRANCH  16  21
ATOM     21  O   UNL     1     -26.574 -16.225 -15.407  1.00  0.00    -0.504 OA
ATOM     22  H   UNL     1     -26.583 -15.286 -15.789  1.00  0.00     0.293 HD
ENDBRANCH  16  21
ENDBRANCH   1  11
BRANCH  10  23
ATOM     23  O   UNL     1     -23.715 -19.781 -11.526  1.00  0.00    -0.500 OA
ATOM     24  H   UNL     1     -23.934 -19.995 -10.561  1.00  0.00     0.294 HD
ENDBRANCH  10  23
BRANCH   5  25
ATOM     25  O   UNL     1     -24.866 -25.537 -16.612  1.00  0.00    -0.507 OA
ATOM     26  H   UNL     1     -25.757 -25.580 -17.092  1.00  0.00     0.293 HD
ENDBRANCH   5  25
BRANCH   7  27
ATOM     27  O   UNL     1     -24.134 -24.984 -11.900  1.00  0.00    -0.507 OA
ATOM     28  H   UNL     1     -24.042 -24.483 -11.028  1.00  0.00     0.293 HD
ENDBRANCH   7  27
TORSDOF 7
ENDMDL
MODEL 3
REMARK VINA RESULT:    -6.916      1.801      7.068
REMARK INTER + INTRA:          -8.783
REMARK INTER:                  -8.492
REMARK INTRA:                  -0.290
REMARK UNBOUND:                -0.250
REMARK SMILES Oc1cc(O)c2cc(O)c(-c3cc(O)c(O)c(O)c3)[o+]c2c1
REMARK SMILES IDX 10 1 20 2 21 3 22 4 2 5 3 6 4 7 6 8 7 9 8 10 11 11 12 12
REMARK SMILES IDX 13 13 19 14 15 15 17 16 14 17 16 19 18 21 9 23 1 25 5 27
REMARK H PARENT 14 18 16 20 18 22 9 24 1 26 5 28
REMARK Flexibility Score: inf
ROOT
ATOM      1  C   UNL     1     -24.517 -19.305 -13.983  1.00  0.00     0.402 A 
ATOM      2  O   UNL     1     -25.082 -18.359 -14.727  1.00  0.00    -0.202 OA
ATOM      3  C   UNL     1     -24.746 -17.075 -14.655  1.00  0.00     0.368 A 
ATOM      4  C   UNL     1     -25.396 -16.154 -15.481  1.00  0.00     0.162 A 
ATOM      5  C   UNL     1     -25.059 -14.799 -15.427  1.00  0.00     0.128 A 
ATOM      6  C   UNL     1     -24.067 -14.363 -14.546  1.00  0.00     0.093 A 
ATOM      7  C   UNL     1     -23.400 -15.266 -13.708  1.00  0.00     0.136 A 
ATOM      8  C   UNL     1     -23.741 -16.643 -13.757  1.00  0.00     0.125 A 
ATOM      9  C   UNL     1     -23.136 -17.617 -12.945  1.00  0.00     0.078 A 
ATOM     10  C   UNL     1     -23.527 -18.955 -13.045  1.00  0.00     0.223 A 
ENDROOT
BRANCH   1  11
ATOM     11  C   UNL     1     -24.972 -20.703 -14.162  1.00  0.00     0.091 A 
ATOM     12  C   UNL     1     -25.749 -21.351 -13.185  1.00  0.00     0.068 A 
ATOM     13  C   UNL     1     -26.150 -22.683 -13.362  1.00  0.00     0.162 A 
ATOM     14  C   UNL     1     -24.574 -21.418 -15.301  1.00  0.00     0.068 A 
ATOM     15  C   UNL     1     -25.765 -23.382 -14.518  1.00  0.00     0.200 A 
ATOM     16  C   UNL     1     -24.974 -22.749 -15.484  1.00  0.00     0.162 A 
BRANCH  13  17
ATOM     17  O   UNL     1     -26.926 -23.314 -12.390  1.00  0.00    -0.504 OA
ATOM     18  H   UNL     1     -26.818 -23.102 -11.405  1.00  0.00     0.293 HD
ENDBRANCH  13  17
BRANCH  15  19
ATOM     19  O   UNL     1     -26.156 -24.707 -14.718  1.00  0.00    -0.502 OA
ATOM     20  H   UNL     1     -27.128 -24.971 -14.826  1.00  0.00     0.293 HD
ENDBRANCH  15  19
BRANCH  16  21
ATOM     21  O   UNL     1     -24.588 -23.450 -16.626  1.00  0.00    -0.504 OA
ATOM     22  H   UNL     1     -25.007 -24.339 -16.870  1.00  0.00     0.293 HD
ENDBRANCH  16  21
ENDBRANCH   1  11
BRANCH  10  23
ATOM     23  O   UNL     1     -22.962 -19.914 -12.205  1.00  0.00    -0.500 OA
ATOM     24  H   UNL     1     -23.239 -20.002 -11.235  1.00  0.00     0.294 HD
ENDBRANCH  10  23
BRANCH   5  25
ATOM     25  O   UNL     1     -25.703 -13.875 -16.246  1.00  0.00    -0.507 OA
ATOM     26  H   UNL     1     -25.211 -13.393 -16.990  1.00  0.00     0.293 HD
ENDBRANCH   5  25
BRANCH   7  27
ATOM     27  O   UNL     1     -22.418 -14.750 -12.858  1.00  0.00    -0.507 OA
ATOM     28  H   UNL     1     -21.742 -14.049 -13.125  1.00  0.00     0.293 HD
ENDBRANCH   7  27
TORSDOF 7
ENDMDL
MODEL 4
REMARK VINA RESULT:    -6.703      1.823      7.125
REMARK INTER + INTRA:          -8.520
REMARK INTER:                  -8.201
REMARK INTRA:                  -0.319
REMARK UNBOUND:                -0.250
REMARK SMILES Oc1cc(O)c2cc(O)c(-c3cc(O)c(O)c(O)c3)[o+]c2c1
REMARK SMILES IDX 10 1 20 2 21 3 22 4 2 5 3 6 4 7 6 8 7 9 8 10 11 11 12 12
REMARK SMILES IDX 13 13 19 14 15 15 17 16 14 17 16 19 18 21 9 23 1 25 5 27
REMARK H PARENT 14 18 16 20 18 22 9 24 1 26 5 28
REMARK Flexibility Score: inf
ROOT
ATOM      1  C   UNL     1     -24.476 -19.326 -14.006  1.00  0.00     0.402 A 
ATOM      2  O   UNL     1     -25.043 -18.383 -14.753  1.00  0.00    -0.202 OA
ATOM      3  C   UNL     1     -24.723 -17.096 -14.673  1.00  0.00     0.368 A 
ATOM      4  C   UNL     1     -25.374 -16.180 -15.503  1.00  0.00     0.162 A 
ATOM      5  C   UNL     1     -25.054 -14.820 -15.441  1.00  0.00     0.128 A 
ATOM      6  C   UNL     1     -24.079 -14.376 -14.545  1.00  0.00     0.093 A 
ATOM      7  C   UNL     1     -23.412 -15.274 -13.702  1.00  0.00     0.136 A 
ATOM      8  C   UNL     1     -23.735 -16.656 -13.760  1.00  0.00     0.125 A 
ATOM      9  C   UNL     1     -23.128 -17.624 -12.945  1.00  0.00     0.078 A 
ATOM     10  C   UNL     1     -23.502 -18.967 -13.055  1.00  0.00     0.223 A 
ENDROOT
BRANCH   1  11
ATOM     11  C   UNL     1     -24.912 -20.728 -14.195  1.00  0.00     0.091 A 
ATOM     12  C   UNL     1     -24.520 -21.472 -15.322  1.00  0.00     0.068 A 
ATOM     13  C   UNL     1     -24.963 -22.791 -15.495  1.00  0.00     0.162 A 
ATOM     14  C   UNL     1     -25.783 -21.312 -13.262  1.00  0.00     0.068 A 
ATOM     15  C   UNL     1     -25.816 -23.373 -14.542  1.00  0.00     0.200 A 
ATOM     16  C   UNL     1     -26.227 -22.631 -13.429  1.00  0.00     0.162 A 
BRANCH  13  17
ATOM     17  O   UNL     1     -24.563 -23.521 -16.613  1.00  0.00    -0.504 OA
ATOM     18  H   UNL     1     -24.614 -23.134 -17.547  1.00  0.00     0.293 HD
ENDBRANCH  13  17
BRANCH  15  19
ATOM     19  O   UNL     1     -26.266 -24.686 -14.691  1.00  0.00    -0.502 OA
ATOM     20  H   UNL     1     -27.054 -24.922 -15.281  1.00  0.00     0.293 HD
ENDBRANCH  15  19
BRANCH  16  21
ATOM     21  O   UNL     1     -27.079 -23.210 -12.490  1.00  0.00    -0.504 OA
ATOM     22  H   UNL     1     -26.991 -24.184 -12.224  1.00  0.00     0.293 HD
ENDBRANCH  16  21
ENDBRANCH   1  11
BRANCH  10  23
ATOM     23  O   UNL     1     -22.936 -19.923 -12.211  1.00  0.00    -0.500 OA
ATOM     24  H   UNL     1     -22.798 -19.746 -11.224  1.00  0.00     0.294 HD
ENDBRANCH  10  23
BRANCH   5  25
ATOM     25  O   UNL     1     -25.699 -13.902 -16.264  1.00  0.00    -0.507 OA
ATOM     26  H   UNL     1     -26.255 -13.145 -15.882  1.00  0.00     0.293 HD
ENDBRANCH   5  25
BRANCH   7  27
ATOM     27  O   UNL     1     -22.447 -14.750 -12.838  1.00  0.00    -0.507 OA
ATOM     28  H   UNL     1     -22.590 -13.950 -12.239  1.00  0.00     0.293 HD
ENDBRANCH   7  27
TORSDOF 7
ENDMDL
MODEL 5
REMARK VINA RESULT:    -6.563      1.447      7.077
REMARK INTER + INTRA:          -8.348
REMARK INTER:                  -8.705
REMARK INTRA:                   0.358
REMARK UNBOUND:                -0.250
REMARK SMILES Oc1cc(O)c2cc(O)c(-c3cc(O)c(O)c(O)c3)[o+]c2c1
REMARK SMILES IDX 10 1 20 2 21 3 22 4 2 5 3 6 4 7 6 8 7 9 8 10 11 11 12 12
REMARK SMILES IDX 13 13 19 14 15 15 17 16 14 17 16 19 18 21 9 23 1 25 5 27
REMARK H PARENT 14 18 16 20 18 22 9 24 1 26 5 28
REMARK Flexibility Score: inf
ROOT
ATOM      1  C   UNL     1     -24.409 -19.970 -13.639  1.00  0.00     0.402 A 
ATOM      2  O   UNL     1     -24.887 -19.133 -14.555  1.00  0.00    -0.202 OA
ATOM      3  C   UNL     1     -24.717 -17.816 -14.501  1.00  0.00     0.368 A 
ATOM      4  C   UNL     1     -25.255 -17.019 -15.514  1.00  0.00     0.162 A 
ATOM      5  C   UNL     1     -25.089 -15.631 -15.483  1.00  0.00     0.128 A 
ATOM      6  C   UNL     1     -24.379 -15.039 -14.436  1.00  0.00     0.093 A 
ATOM      7  C   UNL     1     -23.829 -15.816 -13.408  1.00  0.00     0.136 A 
ATOM      8  C   UNL     1     -23.998 -17.226 -13.434  1.00  0.00     0.125 A 
ATOM      9  C   UNL     1     -23.494 -18.082 -12.441  1.00  0.00     0.078 A 
ATOM     10  C   UNL     1     -23.705 -19.461 -12.531  1.00  0.00     0.223 A 
ENDROOT
BRANCH   1  11
ATOM     11  C   UNL     1     -24.657 -21.419 -13.815  1.00  0.00     0.091 A 
ATOM     12  C   UNL     1     -24.028 -22.375 -12.998  1.00  0.00     0.068 A 
ATOM     13  C   UNL     1     -24.258 -23.744 -13.196  1.00  0.00     0.162 A 
ATOM     14  C   UNL     1     -25.492 -21.855 -14.855  1.00  0.00     0.068 A 
ATOM     15  C   UNL     1     -25.114 -24.168 -14.226  1.00  0.00     0.200 A 
ATOM     16  C   UNL     1     -25.727 -23.222 -15.056  1.00  0.00     0.162 A 
BRANCH  13  17
ATOM     17  O   UNL     1     -23.633 -24.683 -12.376  1.00  0.00    -0.504 OA
ATOM     18  H   UNL     1     -23.874 -24.776 -11.397  1.00  0.00     0.293 HD
ENDBRANCH  13  17
BRANCH  15  19
ATOM     19  O   UNL     1     -25.362 -25.525 -14.439  1.00  0.00    -0.502 OA
ATOM     20  H   UNL     1     -25.429 -26.186 -13.675  1.00  0.00     0.293 HD
ENDBRANCH  15  19
BRANCH  16  21
ATOM     21  O   UNL     1     -26.571 -23.648 -16.081  1.00  0.00    -0.504 OA
ATOM     22  H   UNL     1     -27.346 -23.078 -16.402  1.00  0.00     0.293 HD
ENDBRANCH  16  21
ENDBRANCH   1  11
BRANCH  10  23
ATOM     23  O   UNL     1     -23.248 -20.306 -11.520  1.00  0.00    -0.500 OA
ATOM     24  H   UNL     1     -22.317 -20.704 -11.539  1.00  0.00     0.294 HD
ENDBRANCH  10  23
BRANCH   5  25
ATOM     25  O   UNL     1     -25.623 -14.830 -16.489  1.00  0.00    -0.507 OA
ATOM     26  H   UNL     1     -25.033 -14.250 -17.074  1.00  0.00     0.293 HD
ENDBRANCH   5  25
BRANCH   7  27
ATOM     27  O   UNL     1     -23.130 -15.149 -12.399  1.00  0.00    -0.507 OA
ATOM     28  H   UNL     1     -22.531 -14.350 -12.552  1.00  0.00     0.293 HD
ENDBRANCH   7  27
TORSDOF 7
ENDMDL
MODEL 6
REMARK VINA RESULT:    -6.430      1.410      6.897
REMARK INTER + INTRA:          -8.184
REMARK INTER:                  -8.617
REMARK INTRA:                   0.433
REMARK UNBOUND:                -0.250
REMARK SMILES Oc1cc(O)c2cc(O)c(-c3cc(O)c(O)c(O)c3)[o+]c2c1
REMARK SMILES IDX 10 1 20 2 21 3 22 4 2 5 3 6 4 7 6 8 7 9 8 10 11 11 12 12
REMARK SMILES IDX 13 13 19 14 15 15 17 16 14 17 16 19 18 21 9 23 1 25 5 27
REMARK H PARENT 14 18 16 20 18 22 9 24 1 26 5 28
REMARK Flexibility Score: inf
ROOT
ATOM      1  C   UNL     1     -24.450 -20.160 -13.706  1.00  0.00     0.402 A 
ATOM      2  O   UNL     1     -24.913 -19.301 -14.610  1.00  0.00    -0.202 OA
ATOM      3  C   UNL     1     -24.746 -17.986 -14.521  1.00  0.00     0.368 A 
ATOM      4  C   UNL     1     -25.267 -17.164 -15.524  1.00  0.00     0.162 A 
ATOM      5  C   UNL     1     -25.104 -15.777 -15.454  1.00  0.00     0.128 A 
ATOM      6  C   UNL     1     -24.417 -15.211 -14.379  1.00  0.00     0.093 A 
ATOM      7  C   UNL     1     -23.885 -16.012 -13.361  1.00  0.00     0.136 A 
ATOM      8  C   UNL     1     -24.050 -17.421 -13.425  1.00  0.00     0.125 A 
ATOM      9  C   UNL     1     -23.564 -18.300 -12.444  1.00  0.00     0.078 A 
ATOM     10  C   UNL     1     -23.769 -19.677 -12.573  1.00  0.00     0.223 A 
ENDROOT
BRANCH   1  11
ATOM     11  C   UNL     1     -24.691 -21.605 -13.924  1.00  0.00     0.091 A 
ATOM     12  C   UNL     1     -25.600 -22.058 -14.896  1.00  0.00     0.068 A 
ATOM     13  C   UNL     1     -25.833 -23.430 -15.070  1.00  0.00     0.162 A 
ATOM     14  C   UNL     1     -24.045 -22.543 -13.104  1.00  0.00     0.068 A 
ATOM     15  C   UNL     1     -25.162 -24.361 -14.259  1.00  0.00     0.200 A 
ATOM     16  C   UNL     1     -24.272 -23.915 -13.275  1.00  0.00     0.162 A 
BRANCH  13  17
ATOM     17  O   UNL     1     -26.731 -23.868 -16.042  1.00  0.00    -0.504 OA
ATOM     18  H   UNL     1     -26.727 -24.824 -16.376  1.00  0.00     0.293 HD
ENDBRANCH  13  17
BRANCH  15  19
ATOM     19  O   UNL     1     -25.374 -25.731 -14.418  1.00  0.00    -0.502 OA
ATOM     20  H   UNL     1     -25.882 -26.111 -15.207  1.00  0.00     0.293 HD
ENDBRANCH  15  19
BRANCH  16  21
ATOM     21  O   UNL     1     -23.615 -24.843 -12.468  1.00  0.00    -0.504 OA
ATOM     22  H   UNL     1     -24.126 -25.468 -11.854  1.00  0.00     0.293 HD
ENDBRANCH  16  21
ENDBRANCH   1  11
BRANCH  10  23
ATOM     23  O   UNL     1     -23.330 -20.547 -11.575  1.00  0.00    -0.500 OA
ATOM     24  H   UNL     1     -22.541 -21.166 -11.717  1.00  0.00     0.294 HD
ENDBRANCH  10  23
BRANCH   5  25
ATOM     25  O   UNL     1     -25.621 -14.952 -16.450  1.00  0.00    -0.507 OA
ATOM     26  H   UNL     1     -25.054 -14.240 -16.896  1.00  0.00     0.293 HD
ENDBRANCH   5  25
BRANCH   7  27
ATOM     27  O   UNL     1     -23.208 -15.369 -12.322  1.00  0.00    -0.507 OA
ATOM     28  H   UNL     1     -22.225 -15.488 -12.120  1.00  0.00     0.293 HD
ENDBRANCH   7  27
TORSDOF 7
ENDMDL
MODEL 7
REMARK VINA RESULT:    -6.274      1.646      7.459
REMARK INTER + INTRA:          -7.991
REMARK INTER:                  -8.082
REMARK INTRA:                   0.091
REMARK UNBOUND:                -0.250
REMARK SMILES Oc1cc(O)c2cc(O)c(-c3cc(O)c(O)c(O)c3)[o+]c2c1
REMARK SMILES IDX 10 1 20 2 21 3 22 4 2 5 3 6 4 7 6 8 7 9 8 10 11 11 12 12
REMARK SMILES IDX 13 13 19 14 15 15 17 16 14 17 16 19 18 21 9 23 1 25 5 27
REMARK H PARENT 14 18 16 20 18 22 9 24 1 26 5 28
REMARK Flexibility Score: inf
ROOT
ATOM      1  C   UNL     1     -24.485 -18.941 -14.364  1.00  0.00     0.402 A 
ATOM      2  O   UNL     1     -23.309 -18.335 -14.224  1.00  0.00    -0.202 OA
ATOM      3  C   UNL     1     -23.147 -17.021 -14.337  1.00  0.00     0.368 A 
ATOM      4  C   UNL     1     -21.871 -16.477 -14.170  1.00  0.00     0.162 A 
ATOM      5  C   UNL     1     -21.673 -15.097 -14.281  1.00  0.00     0.128 A 
ATOM      6  C   UNL     1     -22.755 -14.260 -14.559  1.00  0.00     0.093 A 
ATOM      7  C   UNL     1     -24.044 -14.780 -14.730  1.00  0.00     0.136 A 
ATOM      8  C   UNL     1     -24.250 -16.181 -14.621  1.00  0.00     0.125 A 
ATOM      9  C   UNL     1     -25.502 -16.792 -14.791  1.00  0.00     0.078 A 
ATOM     10  C   UNL     1     -25.627 -18.180 -14.673  1.00  0.00     0.223 A 
ENDROOT
BRANCH   1  11
ATOM     11  C   UNL     1     -24.539 -20.412 -14.205  1.00  0.00     0.091 A 
ATOM     12  C   UNL     1     -23.803 -21.069 -13.203  1.00  0.00     0.068 A 
ATOM     13  C   UNL     1     -23.849 -22.465 -13.084  1.00  0.00     0.162 A 
ATOM     14  C   UNL     1     -25.293 -21.176 -15.109  1.00  0.00     0.068 A 
ATOM     15  C   UNL     1     -24.626 -23.219 -13.980  1.00  0.00     0.200 A 
ATOM     16  C   UNL     1     -25.344 -22.572 -14.993  1.00  0.00     0.162 A 
BRANCH  13  17
ATOM     17  O   UNL     1     -23.121 -23.105 -12.082  1.00  0.00    -0.504 OA
ATOM     18  H   UNL     1     -22.355 -22.645 -11.606  1.00  0.00     0.293 HD
ENDBRANCH  13  17
BRANCH  15  19
ATOM     19  O   UNL     1     -24.691 -24.609 -13.878  1.00  0.00    -0.502 OA
ATOM     20  H   UNL     1     -25.542 -25.091 -13.616  1.00  0.00     0.293 HD
ENDBRANCH  15  19
BRANCH  16  21
ATOM     21  O   UNL     1     -26.108 -23.325 -15.884  1.00  0.00    -0.504 OA
ATOM     22  H   UNL     1     -25.690 -24.036 -16.472  1.00  0.00     0.293 HD
ENDBRANCH  16  21
ENDBRANCH   1  11
BRANCH  10  23
ATOM     23  O   UNL     1     -26.862 -18.792 -14.891  1.00  0.00    -0.500 OA
ATOM     24  H   UNL     1     -27.011 -19.428 -15.665  1.00  0.00     0.294 HD
ENDBRANCH  10  23
BRANCH   5  25
ATOM     25  O   UNL     1     -20.404 -14.548 -14.116  1.00  0.00    -0.507 OA
ATOM     26  H   UNL     1     -19.577 -15.130 -14.061  1.00  0.00     0.293 HD
ENDBRANCH   5  25
BRANCH   7  27
ATOM     27  O   UNL     1     -25.073 -13.875 -15.001  1.00  0.00    -0.507 OA
ATOM     28  H   UNL     1     -25.035 -12.887 -14.794  1.00  0.00     0.293 HD
ENDBRANCH   7  27
TORSDOF 7
ENDMDL
MODEL 8
REMARK VINA RESULT:    -5.832      2.270      7.065
REMARK INTER + INTRA:          -7.446
REMARK INTER:                  -7.149
REMARK INTRA:                  -0.297
REMARK UNBOUND:                -0.250
REMARK SMILES Oc1cc(O)c2cc(O)c(-c3cc(O)c(O)c(O)c3)[o+]c2c1
REMARK SMILES IDX 10 1 20 2 21 3 22 4 2 5 3 6 4 7 6 8 7 9 8 10 11 11 12 12
REMARK SMILES IDX 13 13 19 14 15 15 17 16 14 17 16 19 18 21 9 23 1 25 5 27
REMARK H PARENT 14 18 16 20 18 22 9 24 1 26 5 28
REMARK Flexibility Score: inf
ROOT
ATOM      1  C   UNL     1     -24.754 -18.922 -13.323  1.00  0.00     0.402 A 
ATOM      2  O   UNL     1     -25.326 -17.948 -14.024  1.00  0.00    -0.202 OA
ATOM      3  C   UNL     1     -24.655 -16.917 -14.525  1.00  0.00     0.368 A 
ATOM      4  C   UNL     1     -25.345 -15.943 -15.252  1.00  0.00     0.162 A 
ATOM      5  C   UNL     1     -24.662 -14.849 -15.791  1.00  0.00     0.128 A 
ATOM      6  C   UNL     1     -23.283 -14.730 -15.605  1.00  0.00     0.093 A 
ATOM      7  C   UNL     1     -22.568 -15.692 -14.880  1.00  0.00     0.136 A 
ATOM      8  C   UNL     1     -23.257 -16.803 -14.328  1.00  0.00     0.125 A 
ATOM      9  C   UNL     1     -22.626 -17.808 -13.577  1.00  0.00     0.078 A 
ATOM     10  C   UNL     1     -23.372 -18.871 -13.060  1.00  0.00     0.223 A 
ENDROOT
BRANCH   1  11
ATOM     11  C   UNL     1     -25.609 -20.024 -12.825  1.00  0.00     0.091 A 
ATOM     12  C   UNL     1     -26.499 -19.835 -11.754  1.00  0.00     0.068 A 
ATOM     13  C   UNL     1     -27.283 -20.897 -11.281  1.00  0.00     0.162 A 
ATOM     14  C   UNL     1     -25.489 -21.301 -13.395  1.00  0.00     0.068 A 
ATOM     15  C   UNL     1     -27.171 -22.166 -11.874  1.00  0.00     0.200 A 
ATOM     16  C   UNL     1     -26.272 -22.366 -12.928  1.00  0.00     0.162 A 
BRANCH  13  17
ATOM     17  O   UNL     1     -28.166 -20.696 -10.222  1.00  0.00    -0.504 OA
ATOM     18  H   UNL     1     -28.935 -20.040 -10.288  1.00  0.00     0.293 HD
ENDBRANCH  13  17
BRANCH  15  19
ATOM     19  O   UNL     1     -27.945 -23.237 -11.425  1.00  0.00    -0.502 OA
ATOM     20  H   UNL     1     -27.775 -24.189 -11.726  1.00  0.00     0.293 HD
ENDBRANCH  15  19
BRANCH  16  21
ATOM     21  O   UNL     1     -26.160 -23.629 -13.509  1.00  0.00    -0.504 OA
ATOM     22  H   UNL     1     -25.430 -24.276 -13.234  1.00  0.00     0.293 HD
ENDBRANCH  16  21
ENDBRANCH   1  11
BRANCH  10  23
ATOM     23  O   UNL     1     -22.754 -19.842 -12.273  1.00  0.00    -0.500 OA
ATOM     24  H   UNL     1     -21.799 -19.738 -11.951  1.00  0.00     0.294 HD
ENDBRANCH  10  23
BRANCH   5  25
ATOM     25  O   UNL     1     -25.344 -13.875 -16.516  1.00  0.00    -0.507 OA
ATOM     26  H   UNL     1     -25.775 -14.083 -17.409  1.00  0.00     0.293 HD
ENDBRANCH   5  25
BRANCH   7  27
ATOM     27  O   UNL     1     -21.191 -15.501 -14.742  1.00  0.00    -0.507 OA
ATOM     28  H   UNL     1     -20.498 -16.224 -14.874  1.00  0.00     0.293 HD
ENDBRANCH   7  27
TORSDOF 7
ENDMDL
MODEL 9
REMARK VINA RESULT:    -5.372      1.396      1.749
REMARK INTER + INTRA:          -6.878
REMARK INTER:                  -6.901
REMARK INTRA:                   0.024
REMARK UNBOUND:                -0.250
REMARK SMILES Oc1cc(O)c2cc(O)c(-c3cc(O)c(O)c(O)c3)[o+]c2c1
REMARK SMILES IDX 10 1 20 2 21 3 22 4 2 5 3 6 4 7 6 8 7 9 8 10 11 11 12 12
REMARK SMILES IDX 13 13 19 14 15 15 17 16 14 17 16 19 18 21 9 23 1 25 5 27
REMARK H PARENT 14 18 16 20 18 22 9 24 1 26 5 28
REMARK Flexibility Score: inf
ROOT
ATOM      1  C   UNL     1     -24.011 -19.805 -13.659  1.00  0.00     0.402 A 
ATOM      2  O   UNL     1     -24.817 -20.497 -14.459  1.00  0.00    -0.202 OA
ATOM      3  C   UNL     1     -25.010 -21.807 -14.346  1.00  0.00     0.368 A 
ATOM      4  C   UNL     1     -25.879 -22.446 -15.233  1.00  0.00     0.162 A 
ATOM      5  C   UNL     1     -26.102 -23.823 -15.134  1.00  0.00     0.128 A 
ATOM      6  C   UNL     1     -25.453 -24.562 -14.142  1.00  0.00     0.093 A 
ATOM      7  C   UNL     1     -24.577 -23.945 -13.240  1.00  0.00     0.136 A 
ATOM      8  C   UNL     1     -24.346 -22.548 -13.338  1.00  0.00     0.125 A 
ATOM      9  C   UNL     1     -23.475 -21.848 -12.487  1.00  0.00     0.078 A 
ATOM     10  C   UNL     1     -23.294 -20.471 -12.648  1.00  0.00     0.223 A 
ENDROOT
BRANCH   1  11
ATOM     11  C   UNL     1     -23.887 -18.346 -13.881  1.00  0.00     0.091 A 
ATOM     12  C   UNL     1     -23.837 -17.443 -12.805  1.00  0.00     0.068 A 
ATOM     13  C   UNL     1     -23.743 -16.063 -13.036  1.00  0.00     0.162 A 
ATOM     14  C   UNL     1     -23.877 -17.846 -15.192  1.00  0.00     0.068 A 
ATOM     15  C   UNL     1     -23.711 -15.575 -14.353  1.00  0.00     0.200 A 
ATOM     16  C   UNL     1     -23.781 -16.468 -15.429  1.00  0.00     0.162 A 
BRANCH  13  17
ATOM     17  O   UNL     1     -23.688 -15.177 -11.961  1.00  0.00    -0.504 OA
ATOM     18  H   UNL     1     -24.344 -14.410 -11.870  1.00  0.00     0.293 HD
ENDBRANCH  13  17
BRANCH  15  19
ATOM     19  O   UNL     1     -23.613 -14.206 -14.607  1.00  0.00    -0.502 OA
ATOM     20  H   UNL     1     -24.205 -13.740 -15.283  1.00  0.00     0.293 HD
ENDBRANCH  15  19
BRANCH  16  21
ATOM     21  O   UNL     1     -23.755 -15.978 -16.734  1.00  0.00    -0.504 OA
ATOM     22  H   UNL     1     -22.901 -15.630 -17.153  1.00  0.00     0.293 HD
ENDBRANCH  16  21
ENDBRANCH   1  11
BRANCH  10  23
ATOM     23  O   UNL     1     -22.392 -19.785 -11.835  1.00  0.00    -0.500 OA
ATOM     24  H   UNL     1     -21.429 -20.084 -11.737  1.00  0.00     0.294 HD
ENDBRANCH  10  23
BRANCH   5  25
ATOM     25  O   UNL     1     -26.966 -24.467 -16.015  1.00  0.00    -0.507 OA
ATOM     26  H   UNL     1     -27.848 -24.857 -15.703  1.00  0.00     0.293 HD
ENDBRANCH   5  25
BRANCH   7  27
ATOM     27  O   UNL     1     -23.972 -24.754 -12.275  1.00  0.00    -0.507 OA
ATOM     28  H   UNL     1     -24.473 -25.270 -11.566  1.00  0.00     0.293 HD
ENDBRANCH   7  27
TORSDOF 7
ENDMDL
