MODEL 1
REMARK VINA RESULT:    -7.574      0.000      0.000
REMARK INTER + INTRA:          -8.745
REMARK INTER:                  -8.902
REMARK INTRA:                   0.157
REMARK UNBOUND:                 0.157
REMARK SMILES O=c1c(O)c(-c2ccc(O)cc2)oc2cc(O)cc(O)c12
REMARK SMILES IDX 5 1 3 2 2 3 1 4 21 5 19 6 18 7 16 8 15 9 14 10 13 11 6 12
REMARK SMILES IDX 7 13 8 14 9 15 12 16 11 17 10 18 4 20 20 22 17 24
REMARK H PARENT 10 19 4 21 20 23 17 25
REMARK Flexibility Score: inf
ROOT
ATOM      1  C   UNL     1      17.305  22.616  40.619  1.00  0.00     0.180 A 
ATOM      2  C   UNL     1      16.933  23.618  39.705  1.00  0.00     0.208 A 
ATOM      3  C   UNL     1      15.808  24.410  39.984  1.00  0.00     0.238 A 
ATOM      4  O   UNL     1      15.449  25.267  39.136  1.00  0.00    -0.285 OA
ATOM      5  C   UNL     1      15.079  24.203  41.179  1.00  0.00     0.111 A 
ATOM      6  C   UNL     1      13.947  24.973  41.581  1.00  0.00     0.134 A 
ATOM      7  C   UNL     1      13.224  24.596  42.720  1.00  0.00     0.093 A 
ATOM      8  C   UNL     1      13.630  23.515  43.507  1.00  0.00     0.123 A 
ATOM      9  C   UNL     1      14.769  22.793  43.154  1.00  0.00     0.094 A 
ATOM     10  C   UNL     1      15.490  23.124  42.004  1.00  0.00     0.146 A 
ATOM     11  O   UNL     1      16.563  22.403  41.699  1.00  0.00    -0.452 OA
ENDROOT
BRANCH   1  12
ATOM     12  C   UNL     1      18.493  21.758  40.408  1.00  0.00     0.021 A 
ATOM     13  C   UNL     1      19.686  22.332  39.938  1.00  0.00     0.016 A 
ATOM     14  C   UNL     1      20.814  21.538  39.711  1.00  0.00     0.047 A 
ATOM     15  C   UNL     1      20.760  20.159  39.934  1.00  0.00     0.115 A 
ATOM     16  C   UNL     1      18.438  20.367  40.611  1.00  0.00     0.016 A 
ATOM     17  C   UNL     1      19.567  19.575  40.381  1.00  0.00     0.047 A 
BRANCH  15  18
ATOM     18  O   UNL     1      21.890  19.379  39.703  1.00  0.00    -0.508 OA
ATOM     19  H   UNL     1      22.525  19.579  38.938  1.00  0.00     0.293 HD
ENDBRANCH  15  18
ENDBRANCH   1  12
BRANCH   2  20
ATOM     20  O   UNL     1      17.655  23.790  38.521  1.00  0.00    -0.502 OA
ATOM     21  H   UNL     1      17.634  24.654  37.992  1.00  0.00     0.293 HD
ENDBRANCH   2  20
BRANCH   6  22
ATOM     22  O   UNL     1      13.512  26.125  40.919  1.00  0.00    -0.507 OA
ATOM     23  H   UNL     1      12.984  26.870  41.349  1.00  0.00     0.293 HD
ENDBRANCH   6  22
BRANCH   8  24
ATOM     24  O   UNL     1      12.915  23.156  44.646  1.00  0.00    -0.508 OA
ATOM     25  H   UNL     1      13.129  22.311  45.162  1.00  0.00     0.293 HD
ENDBRANCH   8  24
TORSDOF 5
ENDMDL
MODEL 2
REMARK VINA RESULT:    -7.566      1.253      2.069
REMARK INTER + INTRA:          -8.736
REMARK INTER:                  -8.625
REMARK INTRA:                  -0.110
REMARK UNBOUND:                 0.157
REMARK SMILES O=c1c(O)c(-c2ccc(O)cc2)oc2cc(O)cc(O)c12
REMARK SMILES IDX 5 1 3 2 2 3 1 4 21 5 19 6 18 7 16 8 15 9 14 10 13 11 6 12
REMARK SMILES IDX 7 13 8 14 9 15 12 16 11 17 10 18 4 20 20 22 17 24
REMARK H PARENT 10 19 4 21 20 23 17 25
REMARK Flexibility Score: inf
ROOT
ATOM      1  C   UNL     1      15.997  22.746  41.559  1.00  0.00     0.180 A 
ATOM      2  C   UNL     1      15.414  23.772  40.794  1.00  0.00     0.208 A 
ATOM      3  C   UNL     1      14.358  24.516  41.345  1.00  0.00     0.238 A 
ATOM      4  O   UNL     1      13.804  25.395  40.635  1.00  0.00    -0.285 OA
ATOM      5  C   UNL     1      13.910  24.237  42.658  1.00  0.00     0.111 A 
ATOM      6  C   UNL     1      12.875  24.955  43.330  1.00  0.00     0.134 A 
ATOM      7  C   UNL     1      12.424  24.509  44.579  1.00  0.00     0.093 A 
ATOM      8  C   UNL     1      13.016  23.410  45.209  1.00  0.00     0.123 A 
ATOM      9  C   UNL     1      14.067  22.740  44.586  1.00  0.00     0.094 A 
ATOM     10  C   UNL     1      14.514  23.140  43.324  1.00  0.00     0.146 A 
ATOM     11  O   UNL     1      15.511  22.467  42.762  1.00  0.00    -0.452 OA
ENDROOT
BRANCH   1  12
ATOM     12  C   UNL     1      17.130  21.936  41.057  1.00  0.00     0.021 A 
ATOM     13  C   UNL     1      17.006  20.537  40.995  1.00  0.00     0.016 A 
ATOM     14  C   UNL     1      18.071  19.751  40.545  1.00  0.00     0.047 A 
ATOM     15  C   UNL     1      19.276  20.349  40.166  1.00  0.00     0.115 A 
ATOM     16  C   UNL     1      18.353  22.530  40.694  1.00  0.00     0.016 A 
ATOM     17  C   UNL     1      19.416  21.741  40.246  1.00  0.00     0.047 A 
BRANCH  15  18
ATOM     18  O   UNL     1      20.330  19.553  39.721  1.00  0.00    -0.508 OA
ATOM     19  H   UNL     1      21.003  19.896  39.045  1.00  0.00     0.293 HD
ENDBRANCH  15  18
ENDBRANCH   1  12
BRANCH   2  20
ATOM     20  O   UNL     1      15.857  24.015  39.491  1.00  0.00    -0.502 OA
ATOM     21  H   UNL     1      15.611  23.415  38.712  1.00  0.00     0.293 HD
ENDBRANCH   2  20
BRANCH   6  22
ATOM     22  O   UNL     1      12.281  26.117  42.832  1.00  0.00    -0.507 OA
ATOM     23  H   UNL     1      12.778  26.967  42.611  1.00  0.00     0.293 HD
ENDBRANCH   6  22
BRANCH   8  24
ATOM     24  O   UNL     1      12.573  22.983  46.458  1.00  0.00    -0.508 OA
ATOM     25  H   UNL     1      12.134  22.078  46.583  1.00  0.00     0.293 HD
ENDBRANCH   8  24
TORSDOF 5
ENDMDL
MODEL 3
REMARK VINA RESULT:    -7.463      1.196      6.469
REMARK INTER + INTRA:          -8.616
REMARK INTER:                  -9.067
REMARK INTRA:                   0.451
REMARK UNBOUND:                 0.157
REMARK SMILES O=c1c(O)c(-c2ccc(O)cc2)oc2cc(O)cc(O)c12
REMARK SMILES IDX 5 1 3 2 2 3 1 4 21 5 19 6 18 7 16 8 15 9 14 10 13 11 6 12
REMARK SMILES IDX 7 13 8 14 9 15 12 16 11 17 10 18 4 20 20 22 17 24
REMARK H PARENT 10 19 4 21 20 23 17 25
REMARK Flexibility Score: inf
ROOT
ATOM      1  C   UNL     1      16.343  23.363  40.852  1.00  0.00     0.180 A 
ATOM      2  C   UNL     1      16.843  24.243  39.876  1.00  0.00     0.208 A 
ATOM      3  C   UNL     1      17.987  23.876  39.150  1.00  0.00     0.238 A 
ATOM      4  O   UNL     1      18.461  24.692  38.317  1.00  0.00    -0.285 OA
ATOM      5  C   UNL     1      18.607  22.628  39.395  1.00  0.00     0.111 A 
ATOM      6  C   UNL     1      19.747  22.136  38.690  1.00  0.00     0.134 A 
ATOM      7  C   UNL     1      20.355  20.945  39.105  1.00  0.00     0.093 A 
ATOM      8  C   UNL     1      19.825  20.194  40.159  1.00  0.00     0.123 A 
ATOM      9  C   UNL     1      18.678  20.636  40.815  1.00  0.00     0.094 A 
ATOM     10  C   UNL     1      18.070  21.839  40.446  1.00  0.00     0.146 A 
ATOM     11  O   UNL     1      16.985  22.228  41.104  1.00  0.00    -0.452 OA
ENDROOT
BRANCH   1  12
ATOM     12  C   UNL     1      15.128  23.668  41.640  1.00  0.00     0.021 A 
ATOM     13  C   UNL     1      14.208  24.614  41.155  1.00  0.00     0.016 A 
ATOM     14  C   UNL     1      13.064  24.934  41.893  1.00  0.00     0.047 A 
ATOM     15  C   UNL     1      12.833  24.326  43.130  1.00  0.00     0.115 A 
ATOM     16  C   UNL     1      14.899  23.076  42.895  1.00  0.00     0.016 A 
ATOM     17  C   UNL     1      13.755  23.399  43.632  1.00  0.00     0.047 A 
BRANCH  15  18
ATOM     18  O   UNL     1      11.689  24.655  43.855  1.00  0.00    -0.508 OA
ATOM     19  H   UNL     1      11.663  24.576  44.866  1.00  0.00     0.293 HD
ENDBRANCH  15  18
ENDBRANCH   1  12
BRANCH   2  20
ATOM     20  O   UNL     1      16.228  25.480  39.666  1.00  0.00    -0.502 OA
ATOM     21  H   UNL     1      16.499  26.102  38.912  1.00  0.00     0.293 HD
ENDBRANCH   2  20
BRANCH   6  22
ATOM     22  O   UNL     1      20.299  22.760  37.568  1.00  0.00    -0.507 OA
ATOM     23  H   UNL     1      19.991  22.612  36.619  1.00  0.00     0.293 HD
ENDBRANCH   6  22
BRANCH   8  24
ATOM     24  O   UNL     1      20.427  19.003  40.555  1.00  0.00    -0.508 OA
ATOM     25  H   UNL     1      20.817  18.889  41.484  1.00  0.00     0.293 HD
ENDBRANCH   8  24
TORSDOF 5
ENDMDL
MODEL 4
REMARK VINA RESULT:    -7.200      1.723      6.967
REMARK INTER + INTRA:          -8.306
REMARK INTER:                  -8.126
REMARK INTRA:                  -0.180
REMARK UNBOUND:                 0.157
REMARK SMILES O=c1c(O)c(-c2ccc(O)cc2)oc2cc(O)cc(O)c12
REMARK SMILES IDX 5 1 3 2 2 3 1 4 21 5 19 6 18 7 16 8 15 9 14 10 13 11 6 12
REMARK SMILES IDX 7 13 8 14 9 15 12 16 11 17 10 18 4 20 20 22 17 24
REMARK H PARENT 10 19 4 21 20 23 17 25
REMARK Flexibility Score: inf
ROOT
ATOM      1  C   UNL     1      16.878  22.291  41.207  1.00  0.00     0.180 A 
ATOM      2  C   UNL     1      16.969  20.904  40.992  1.00  0.00     0.208 A 
ATOM      3  C   UNL     1      18.169  20.371  40.494  1.00  0.00     0.238 A 
ATOM      4  O   UNL     1      18.226  19.137  40.251  1.00  0.00    -0.285 OA
ATOM      5  C   UNL     1      19.267  21.225  40.235  1.00  0.00     0.111 A 
ATOM      6  C   UNL     1      20.542  20.787  39.768  1.00  0.00     0.134 A 
ATOM      7  C   UNL     1      21.514  21.735  39.421  1.00  0.00     0.093 A 
ATOM      8  C   UNL     1      21.278  23.102  39.586  1.00  0.00     0.123 A 
ATOM      9  C   UNL     1      20.056  23.536  40.097  1.00  0.00     0.094 A 
ATOM     10  C   UNL     1      19.056  22.616  40.418  1.00  0.00     0.146 A 
ATOM     11  O   UNL     1      17.903  23.074  40.893  1.00  0.00    -0.452 OA
ENDROOT
BRANCH   1  12
ATOM     12  C   UNL     1      15.656  22.924  41.753  1.00  0.00     0.021 A 
ATOM     13  C   UNL     1      14.938  23.837  40.963  1.00  0.00     0.016 A 
ATOM     14  C   UNL     1      13.794  24.463  41.466  1.00  0.00     0.047 A 
ATOM     15  C   UNL     1      13.362  24.199  42.768  1.00  0.00     0.115 A 
ATOM     16  C   UNL     1      15.228  22.677  43.071  1.00  0.00     0.016 A 
ATOM     17  C   UNL     1      14.084  23.306  43.571  1.00  0.00     0.047 A 
BRANCH  15  18
ATOM     18  O   UNL     1      12.220  24.830  43.257  1.00  0.00    -0.508 OA
ATOM     19  H   UNL     1      11.375  24.900  42.702  1.00  0.00     0.293 HD
ENDBRANCH  15  18
ENDBRANCH   1  12
BRANCH   2  20
ATOM     20  O   UNL     1      15.866  20.082  41.233  1.00  0.00    -0.502 OA
ATOM     21  H   UNL     1      14.993  20.438  41.604  1.00  0.00     0.293 HD
ENDBRANCH   2  20
BRANCH   6  22
ATOM     22  O   UNL     1      20.913  19.444  39.654  1.00  0.00    -0.507 OA
ATOM     23  H   UNL     1      20.265  18.673  39.592  1.00  0.00     0.293 HD
ENDBRANCH   6  22
BRANCH   8  24
ATOM     24  O   UNL     1      22.255  24.037  39.254  1.00  0.00    -0.508 OA
ATOM     25  H   UNL     1      23.050  23.790  38.676  1.00  0.00     0.293 HD
ENDBRANCH   8  24
TORSDOF 5
ENDMDL
MODEL 5
REMARK VINA RESULT:    -6.599      1.460      6.618
REMARK INTER + INTRA:          -7.599
REMARK INTER:                  -8.182
REMARK INTRA:                   0.583
REMARK UNBOUND:                 0.157
REMARK SMILES O=c1c(O)c(-c2ccc(O)cc2)oc2cc(O)cc(O)c12
REMARK SMILES IDX 5 1 3 2 2 3 1 4 21 5 19 6 18 7 16 8 15 9 14 10 13 11 6 12
REMARK SMILES IDX 7 13 8 14 9 15 12 16 11 17 10 18 4 20 20 22 17 24
REMARK H PARENT 10 19 4 21 20 23 17 25
REMARK Flexibility Score: inf
ROOT
ATOM      1  C   UNL     1      14.691  23.825  41.974  1.00  0.00     0.180 A 
ATOM      2  C   UNL     1      14.831  24.787  40.958  1.00  0.00     0.208 A 
ATOM      3  C   UNL     1      15.873  24.647  40.027  1.00  0.00     0.238 A 
ATOM      4  O   UNL     1      16.026  25.541  39.155  1.00  0.00    -0.285 OA
ATOM      5  C   UNL     1      16.750  23.540  40.112  1.00  0.00     0.111 A 
ATOM      6  C   UNL     1      17.815  23.278  39.198  1.00  0.00     0.134 A 
ATOM      7  C   UNL     1      18.701  22.224  39.453  1.00  0.00     0.093 A 
ATOM      8  C   UNL     1      18.522  21.383  40.555  1.00  0.00     0.123 A 
ATOM      9  C   UNL     1      17.450  21.596  41.420  1.00  0.00     0.094 A 
ATOM     10  C   UNL     1      16.571  22.661  41.211  1.00  0.00     0.146 A 
ATOM     11  O   UNL     1      15.570  22.833  42.065  1.00  0.00    -0.452 OA
ENDROOT
BRANCH   1  12
ATOM     12  C   UNL     1      13.604  23.890  42.976  1.00  0.00     0.021 A 
ATOM     13  C   UNL     1      12.693  24.959  42.940  1.00  0.00     0.016 A 
ATOM     14  C   UNL     1      11.671  25.053  43.890  1.00  0.00     0.047 A 
ATOM     15  C   UNL     1      11.556  24.089  44.896  1.00  0.00     0.115 A 
ATOM     16  C   UNL     1      13.495  22.935  44.003  1.00  0.00     0.016 A 
ATOM     17  C   UNL     1      12.473  23.032  44.953  1.00  0.00     0.047 A 
BRANCH  15  18
ATOM     18  O   UNL     1      10.534  24.195  45.837  1.00  0.00    -0.508 OA
ATOM     19  H   UNL     1       9.563  24.050  45.582  1.00  0.00     0.293 HD
ENDBRANCH  15  18
ENDBRANCH   1  12
BRANCH   2  20
ATOM     20  O   UNL     1      13.968  25.884  40.907  1.00  0.00    -0.502 OA
ATOM     21  H   UNL     1      14.299  26.841  40.961  1.00  0.00     0.293 HD
ENDBRANCH   2  20
BRANCH   6  22
ATOM     22  O   UNL     1      18.027  23.999  38.019  1.00  0.00    -0.507 OA
ATOM     23  H   UNL     1      17.400  24.700  37.654  1.00  0.00     0.293 HD
ENDBRANCH   6  22
BRANCH   8  24
ATOM     24  O   UNL     1      19.398  20.328  40.794  1.00  0.00    -0.508 OA
ATOM     25  H   UNL     1      19.951  19.919  40.049  1.00  0.00     0.293 HD
ENDBRANCH   8  24
TORSDOF 5
ENDMDL
MODEL 6
REMARK VINA RESULT:    -6.073      1.794      6.837
REMARK INTER + INTRA:          -6.981
REMARK INTER:                  -7.208
REMARK INTRA:                   0.227
REMARK UNBOUND:                 0.157
REMARK SMILES O=c1c(O)c(-c2ccc(O)cc2)oc2cc(O)cc(O)c12
REMARK SMILES IDX 5 1 3 2 2 3 1 4 21 5 19 6 18 7 16 8 15 9 14 10 13 11 6 12
REMARK SMILES IDX 7 13 8 14 9 15 12 16 11 17 10 18 4 20 20 22 17 24
REMARK H PARENT 10 19 4 21 20 23 17 25
REMARK Flexibility Score: inf
ROOT
ATOM      1  C   UNL     1      16.533  23.005  40.935  1.00  0.00     0.180 A 
ATOM      2  C   UNL     1      17.141  21.738  40.995  1.00  0.00     0.208 A 
ATOM      3  C   UNL     1      18.294  21.500  40.231  1.00  0.00     0.238 A 
ATOM      4  O   UNL     1      18.801  20.348  40.246  1.00  0.00    -0.285 OA
ATOM      5  C   UNL     1      18.835  22.533  39.429  1.00  0.00     0.111 A 
ATOM      6  C   UNL     1      20.022  22.415  38.645  1.00  0.00     0.134 A 
ATOM      7  C   UNL     1      20.392  23.460  37.790  1.00  0.00     0.093 A 
ATOM      8  C   UNL     1      19.654  24.645  37.738  1.00  0.00     0.123 A 
ATOM      9  C   UNL     1      18.526  24.793  38.544  1.00  0.00     0.094 A 
ATOM     10  C   UNL     1      18.113  23.754  39.381  1.00  0.00     0.146 A 
ATOM     11  O   UNL     1      17.027  23.933  40.124  1.00  0.00    -0.452 OA
ENDROOT
BRANCH   1  12
ATOM     12  C   UNL     1      15.331  23.340  41.731  1.00  0.00     0.021 A 
ATOM     13  C   UNL     1      14.402  24.265  41.225  1.00  0.00     0.016 A 
ATOM     14  C   UNL     1      13.271  24.613  41.969  1.00  0.00     0.047 A 
ATOM     15  C   UNL     1      13.060  24.054  43.233  1.00  0.00     0.115 A 
ATOM     16  C   UNL     1      15.124  22.797  43.012  1.00  0.00     0.016 A 
ATOM     17  C   UNL     1      13.993  23.148  43.754  1.00  0.00     0.047 A 
BRANCH  15  18
ATOM     18  O   UNL     1      11.929  24.410  43.964  1.00  0.00    -0.508 OA
ATOM     19  H   UNL     1      11.629  25.375  44.038  1.00  0.00     0.293 HD
ENDBRANCH  15  18
ENDBRANCH   1  12
BRANCH   2  20
ATOM     20  O   UNL     1      16.578  20.726  41.775  1.00  0.00    -0.502 OA
ATOM     21  H   UNL     1      17.131  19.978  42.179  1.00  0.00     0.293 HD
ENDBRANCH   2  20
BRANCH   6  22
ATOM     22  O   UNL     1      20.880  21.313  38.692  1.00  0.00    -0.507 OA
ATOM     23  H   UNL     1      20.771  20.476  38.139  1.00  0.00     0.293 HD
ENDBRANCH   6  22
BRANCH   8  24
ATOM     24  O   UNL     1      20.037  25.686  36.896  1.00  0.00    -0.508 OA
ATOM     25  H   UNL     1      19.625  25.804  35.978  1.00  0.00     0.293 HD
ENDBRANCH   8  24
TORSDOF 5
ENDMDL
MODEL 7
REMARK VINA RESULT:    -5.383      1.801      7.369
REMARK INTER + INTRA:          -6.171
REMARK INTER:                  -6.674
REMARK INTRA:                   0.503
REMARK UNBOUND:                 0.157
REMARK SMILES O=c1c(O)c(-c2ccc(O)cc2)oc2cc(O)cc(O)c12
REMARK SMILES IDX 5 1 3 2 2 3 1 4 21 5 19 6 18 7 16 8 15 9 14 10 13 11 6 12
REMARK SMILES IDX 7 13 8 14 9 15 12 16 11 17 10 18 4 20 20 22 17 24
REMARK H PARENT 10 19 4 21 20 23 17 25
REMARK Flexibility Score: inf
ROOT
ATOM      1  C   UNL     1      17.936  22.275  40.117  1.00  0.00     0.180 A 
ATOM      2  C   UNL     1      17.961  21.111  40.906  1.00  0.00     0.208 A 
ATOM      3  C   UNL     1      19.057  20.241  40.800  1.00  0.00     0.238 A 
ATOM      4  O   UNL     1      19.047  19.174  41.467  1.00  0.00    -0.285 OA
ATOM      5  C   UNL     1      20.122  20.552  39.921  1.00  0.00     0.111 A 
ATOM      6  C   UNL     1      21.301  19.762  39.764  1.00  0.00     0.134 A 
ATOM      7  C   UNL     1      22.230  20.097  38.771  1.00  0.00     0.093 A 
ATOM      8  C   UNL     1      22.054  21.231  37.972  1.00  0.00     0.123 A 
ATOM      9  C   UNL     1      20.936  22.041  38.159  1.00  0.00     0.094 A 
ATOM     10  C   UNL     1      19.974  21.712  39.118  1.00  0.00     0.146 A 
ATOM     11  O   UNL     1      18.919  22.506  39.255  1.00  0.00    -0.452 OA
ENDROOT
BRANCH   1  12
ATOM     12  C   UNL     1      16.828  23.254  40.192  1.00  0.00     0.021 A 
ATOM     13  C   UNL     1      16.884  24.424  39.415  1.00  0.00     0.016 A 
ATOM     14  C   UNL     1      15.859  25.372  39.486  1.00  0.00     0.047 A 
ATOM     15  C   UNL     1      14.774  25.172  40.344  1.00  0.00     0.115 A 
ATOM     16  C   UNL     1      15.743  23.068  41.068  1.00  0.00     0.016 A 
ATOM     17  C   UNL     1      14.720  24.019  41.138  1.00  0.00     0.047 A 
BRANCH  15  18
ATOM     18  O   UNL     1      13.759  26.125  40.405  1.00  0.00    -0.508 OA
ATOM     19  H   UNL     1      13.944  27.076  40.703  1.00  0.00     0.293 HD
ENDBRANCH  15  18
ENDBRANCH   1  12
BRANCH   2  20
ATOM     20  O   UNL     1      16.889  20.813  41.750  1.00  0.00    -0.502 OA
ATOM     21  H   UNL     1      16.162  21.485  41.966  1.00  0.00     0.293 HD
ENDBRANCH   2  20
BRANCH   6  22
ATOM     22  O   UNL     1      21.618  18.665  40.570  1.00  0.00    -0.507 OA
ATOM     23  H   UNL     1      21.938  17.772  40.225  1.00  0.00     0.293 HD
ENDBRANCH   6  22
BRANCH   8  24
ATOM     24  O   UNL     1      22.990  21.565  36.998  1.00  0.00    -0.508 OA
ATOM     25  H   UNL     1      23.520  22.428  37.046  1.00  0.00     0.293 HD
ENDBRANCH   8  24
TORSDOF 5
ENDMDL
MODEL 8
REMARK VINA RESULT:    -4.827      1.423      2.334
REMARK INTER + INTRA:          -5.517
REMARK INTER:                  -6.020
REMARK INTRA:                   0.503
REMARK UNBOUND:                 0.157
REMARK SMILES O=c1c(O)c(-c2ccc(O)cc2)oc2cc(O)cc(O)c12
REMARK SMILES IDX 5 1 3 2 2 3 1 4 21 5 19 6 18 7 16 8 15 9 14 10 13 11 6 12
REMARK SMILES IDX 7 13 8 14 9 15 12 16 11 17 10 18 4 20 20 22 17 24
REMARK H PARENT 10 19 4 21 20 23 17 25
REMARK Flexibility Score: inf
ROOT
ATOM      1  C   UNL     1      19.069  22.396  39.483  1.00  0.00     0.180 A 
ATOM      2  C   UNL     1      18.756  23.468  38.628  1.00  0.00     0.208 A 
ATOM      3  C   UNL     1      17.592  24.213  38.870  1.00  0.00     0.238 A 
ATOM      4  O   UNL     1      17.288  25.136  38.069  1.00  0.00    -0.285 OA
ATOM      5  C   UNL     1      16.764  23.891  39.972  1.00  0.00     0.111 A 
ATOM      6  C   UNL     1      15.582  24.605  40.335  1.00  0.00     0.134 A 
ATOM      7  C   UNL     1      14.770  24.118  41.367  1.00  0.00     0.093 A 
ATOM      8  C   UNL     1      15.132  22.979  42.092  1.00  0.00     0.123 A 
ATOM      9  C   UNL     1      16.315  22.310  41.784  1.00  0.00     0.094 A 
ATOM     10  C   UNL     1      17.126  22.752  40.736  1.00  0.00     0.146 A 
ATOM     11  O   UNL     1      18.239  22.078  40.469  1.00  0.00    -0.452 OA
ENDROOT
BRANCH   1  12
ATOM     12  C   UNL     1      20.292  21.580  39.308  1.00  0.00     0.021 A 
ATOM     13  C   UNL     1      20.561  20.534  40.208  1.00  0.00     0.016 A 
ATOM     14  C   UNL     1      21.720  19.765  40.074  1.00  0.00     0.047 A 
ATOM     15  C   UNL     1      22.633  20.039  39.052  1.00  0.00     0.115 A 
ATOM     16  C   UNL     1      21.225  21.864  38.294  1.00  0.00     0.016 A 
ATOM     17  C   UNL     1      22.384  21.094  38.164  1.00  0.00     0.047 A 
BRANCH  15  18
ATOM     18  O   UNL     1      23.785  19.265  38.931  1.00  0.00    -0.508 OA
ATOM     19  H   UNL     1      24.036  18.824  38.054  1.00  0.00     0.293 HD
ENDBRANCH  15  18
ENDBRANCH   1  12
BRANCH   2  20
ATOM     20  O   UNL     1      19.575  23.755  37.533  1.00  0.00    -0.502 OA
ATOM     21  H   UNL     1      19.622  23.156  36.717  1.00  0.00     0.293 HD
ENDBRANCH   2  20
BRANCH   6  22
ATOM     22  O   UNL     1      15.179  25.802  39.737  1.00  0.00    -0.507 OA
ATOM     23  H   UNL     1      14.527  26.456  40.142  1.00  0.00     0.293 HD
ENDBRANCH   6  22
BRANCH   8  24
ATOM     24  O   UNL     1      14.327  22.511  43.127  1.00  0.00    -0.508 OA
ATOM     25  H   UNL     1      13.322  22.640  43.117  1.00  0.00     0.293 HD
ENDBRANCH   8  24
TORSDOF 5
ENDMDL
