MODEL 1
REMARK VINA RESULT:    51.113      0.000      0.000
REMARK INTER + INTRA:          68.482
REMARK INTER:                  69.041
REMARK INTRA:                  -0.559
REMARK UNBOUND:                -0.559
REMARK SMILES CC[C@@H](CC[C@@H](C)[C@H]1CC[C@@H]2[C@@H]3CC(=O)C4=CC(=O)CC[C@]4(C)[C@@H]3CC[C@@]21C)C(C)C
REMARK SMILES IDX 4 1 3 2 2 3 1 4 29 5 30 6 31 7 5 8 6 9 7 10 8 11 9 12 27 13
REMARK SMILES IDX 10 14 11 15 26 16 28 17 12 18 25 19 24 20 13 21 22 22 14 23
REMARK SMILES IDX 16 24 21 25 23 26 15 27 17 28 20 29 18 30 19 31
REMARK H PARENT
REMARK Flexibility Score: inf
ROOT
ATOM      1  C   UNL     1      33.857  16.934  43.012  1.00  0.00     0.004 C 
ENDROOT
BRANCH   1   2
ATOM      2  C   UNL     1      34.685  17.788  41.999  1.00  0.00    -0.009 C 
BRANCH   2   3
ATOM      3  C   UNL     1      35.540  18.868  42.721  1.00  0.00     0.000 C 
ATOM      4  C   UNL     1      34.947  19.308  44.060  1.00  0.00     0.004 C 
ENDBRANCH   2   3
BRANCH   2   5
ATOM      5  C   UNL     1      33.751  18.402  40.906  1.00  0.00    -0.014 C 
ATOM      6  C   UNL     1      32.295  18.527  41.386  1.00  0.00     0.007 C 
ATOM      7  C   UNL     1      33.810  17.653  39.564  1.00  0.00     0.007 C 
ENDBRANCH   2   5
ENDBRANCH   1   2
BRANCH   1   8
ATOM      8  C   UNL     1      34.690  15.879  43.784  1.00  0.00     0.004 C 
BRANCH   8   9
ATOM      9  C   UNL     1      35.838  15.224  42.951  1.00  0.00    -0.011 C 
ATOM     10  C   UNL     1      37.125  15.217  43.799  1.00  0.00     0.008 C 
BRANCH   9  11
ATOM     11  C   UNL     1      35.465  13.765  42.487  1.00  0.00    -0.002 C 
ATOM     12  C   UNL     1      34.502  13.055  43.444  1.00  0.00     0.005 C 
ATOM     13  C   UNL     1      34.821  13.573  41.058  1.00  0.00    -0.026 C 
ATOM     14  C   UNL     1      33.904  11.919  42.651  1.00  0.00     0.005 C 
ATOM     15  C   UNL     1      33.698  12.493  41.257  1.00  0.00    -0.001 C 
ATOM     16  C   UNL     1      35.902  13.089  40.040  1.00  0.00     0.007 C 
ATOM     17  C   UNL     1      34.137  14.852  40.502  1.00  0.00     0.012 C 
ATOM     18  C   UNL     1      33.584  11.445  40.107  1.00  0.00     0.004 C 
ATOM     19  C   UNL     1      36.168  11.579  40.150  1.00  0.00     0.005 C 
ATOM     20  C   UNL     1      34.943  10.777  39.657  1.00  0.00     0.003 C 
ATOM     21  C   UNL     1      32.407  10.474  40.316  1.00  0.00     0.085 C 
ATOM     22  C   UNL     1      35.090   9.191  39.779  1.00  0.00    -0.000 C 
ATOM     23  C   UNL     1      32.545   9.297  39.423  1.00  0.00     0.159 C 
ATOM     24  C   UNL     1      33.744   8.489  39.606  1.00  0.00     0.005 C 
ATOM     25  C   UNL     1      35.681   8.718  41.146  1.00  0.00     0.020 C 
ATOM     26  C   UNL     1      36.014   8.713  38.620  1.00  0.00     0.017 C 
ATOM     27  O   UNL     1      31.657   8.983  38.589  1.00  0.00    -0.295 OA
ATOM     28  C   UNL     1      33.594   7.189  39.910  1.00  0.00     0.055 C 
ATOM     29  C   UNL     1      35.831   7.185  41.226  1.00  0.00     0.081 C 
ATOM     30  C   UNL     1      34.639   6.463  40.649  1.00  0.00     0.156 C 
ATOM     31  O   UNL     1      34.511   5.228  40.849  1.00  0.00    -0.295 OA
ENDBRANCH   9  11
ENDBRANCH   8   9
ENDBRANCH   1   8
TORSDOF 6
ENDMDL
MODEL 2
REMARK VINA RESULT:    51.251      0.500      1.472
REMARK INTER + INTRA:          68.668
REMARK INTER:                  68.405
REMARK INTRA:                   0.262
REMARK UNBOUND:                -0.559
REMARK SMILES CC[C@@H](CC[C@@H](C)[C@H]1CC[C@@H]2[C@@H]3CC(=O)C4=CC(=O)CC[C@]4(C)[C@@H]3CC[C@@]21C)C(C)C
REMARK SMILES IDX 4 1 3 2 2 3 1 4 29 5 30 6 31 7 5 8 6 9 7 10 8 11 9 12 27 13
REMARK SMILES IDX 10 14 11 15 26 16 28 17 12 18 25 19 24 20 13 21 22 22 14 23
REMARK SMILES IDX 16 24 21 25 23 26 15 27 17 28 20 29 18 30 19 31
REMARK H PARENT
REMARK Flexibility Score: inf
ROOT
ATOM      1  C   UNL     1      33.800  16.516  42.533  1.00  0.00     0.004 C 
ENDROOT
BRANCH   1   2
ATOM      2  C   UNL     1      34.051  18.015  42.173  1.00  0.00    -0.009 C 
BRANCH   2   3
ATOM      3  C   UNL     1      34.496  18.185  40.692  1.00  0.00     0.000 C 
ATOM      4  C   UNL     1      33.323  18.214  39.711  1.00  0.00     0.004 C 
ENDBRANCH   2   3
BRANCH   2   5
ATOM      5  C   UNL     1      35.063  18.660  43.175  1.00  0.00    -0.014 C 
ATOM      6  C   UNL     1      34.586  20.030  43.684  1.00  0.00     0.007 C 
ATOM      7  C   UNL     1      36.492  18.762  42.616  1.00  0.00     0.007 C 
ENDBRANCH   2   5
ENDBRANCH   1   2
BRANCH   1   8
ATOM      8  C   UNL     1      34.788  15.939  43.578  1.00  0.00     0.004 C 
BRANCH   8   9
ATOM      9  C   UNL     1      35.994  15.157  42.966  1.00  0.00    -0.011 C 
ATOM     10  C   UNL     1      37.125  15.092  44.011  1.00  0.00     0.008 C 
BRANCH   9  11
ATOM     11  C   UNL     1      35.578  13.712  42.499  1.00  0.00    -0.002 C 
ATOM     12  C   UNL     1      34.648  13.002  43.488  1.00  0.00     0.005 C 
ATOM     13  C   UNL     1      34.867  13.550  41.098  1.00  0.00    -0.026 C 
ATOM     14  C   UNL     1      33.997  11.887  42.708  1.00  0.00     0.005 C 
ATOM     15  C   UNL     1      33.737  12.485  41.332  1.00  0.00    -0.001 C 
ATOM     16  C   UNL     1      35.893  13.065  40.026  1.00  0.00     0.007 C 
ATOM     17  C   UNL     1      34.179  14.848  40.592  1.00  0.00     0.012 C 
ATOM     18  C   UNL     1      33.555  11.456  40.174  1.00  0.00     0.004 C 
ATOM     19  C   UNL     1      36.141  11.550  40.102  1.00  0.00     0.005 C 
ATOM     20  C   UNL     1      34.881  10.774  39.653  1.00  0.00     0.003 C 
ATOM     21  C   UNL     1      32.373  10.500  40.423  1.00  0.00     0.085 C 
ATOM     22  C   UNL     1      35.009   9.184  39.747  1.00  0.00    -0.000 C 
ATOM     23  C   UNL     1      32.453   9.334  39.507  1.00  0.00     0.159 C 
ATOM     24  C   UNL     1      33.645   8.505  39.624  1.00  0.00     0.005 C 
ATOM     25  C   UNL     1      35.653   8.682  41.078  1.00  0.00     0.020 C 
ATOM     26  C   UNL     1      35.872   8.710  38.540  1.00  0.00     0.017 C 
ATOM     27  O   UNL     1      31.523   9.046  38.711  1.00  0.00    -0.295 OA
ATOM     28  C   UNL     1      33.489   7.203  39.917  1.00  0.00     0.055 C 
ATOM     29  C   UNL     1      35.782   7.146  41.130  1.00  0.00     0.081 C 
ATOM     30  C   UNL     1      34.555   6.451  40.598  1.00  0.00     0.156 C 
ATOM     31  O   UNL     1      34.416   5.215  40.786  1.00  0.00    -0.295 OA
ENDBRANCH   9  11
ENDBRANCH   8   9
ENDBRANCH   1   8
TORSDOF 6
ENDMDL
