MODEL 1
REMARK VINA RESULT:    -3.855      0.000      0.000
REMARK INTER + INTRA:          -8.910
REMARK INTER:                  -7.011
REMARK INTRA:                  -1.899
REMARK UNBOUND:                -1.899
REMARK SMILES CCCCCCCCCCCCCCCC(=O)[O-]
REMARK SMILES IDX 9 1 10 2 11 3 12 4 13 5 14 6 15 7 16 8 17 9 18 10 8 11 7 12
REMARK SMILES IDX 6 13 5 14 4 15 3 16 2 17 1 18
REMARK H PARENT
REMARK Flexibility Score: inf
ROOT
ATOM      1  C   UNL     1      77.402 -73.954  -2.327  1.00  0.00     0.000 C 
ENDROOT
BRANCH   1   2
ATOM      2  C   UNL     1      76.587 -73.653  -3.595  1.00  0.00     0.000 C 
BRANCH   2   3
ATOM      3  C   UNL     1      76.368 -72.146  -3.820  1.00  0.00     0.000 C 
BRANCH   3   4
ATOM      4  C   UNL     1      74.942 -71.671  -3.469  1.00  0.00     0.000 C 
BRANCH   4   5
ATOM      5  C   UNL     1      73.984 -72.847  -3.212  1.00  0.00     0.000 C 
BRANCH   5   6
ATOM      6  C   UNL     1      73.251 -72.732  -1.867  1.00  0.00     0.006 C 
BRANCH   6   7
ATOM      7  C   UNL     1      74.115 -72.087  -0.776  1.00  0.00     0.053 C 
BRANCH   7   8
ATOM      8  C   UNL     1      73.393 -70.935  -0.152  1.00  0.00     0.041 C 
ATOM      9  O   UNL     1      72.150 -70.995   0.042  1.00  0.00    -0.550 OA
ATOM     10  O   UNL     1      74.083 -69.773   0.171  1.00  0.00    -0.550 OA
ENDBRANCH   7   8
ENDBRANCH   6   7
ENDBRANCH   5   6
ENDBRANCH   4   5
ENDBRANCH   3   4
ENDBRANCH   2   3
ENDBRANCH   1   2
BRANCH   1  11
ATOM     11  C   UNL     1      76.597 -74.738  -1.279  1.00  0.00     0.000 C 
BRANCH  11  12
ATOM     12  C   UNL     1      77.375 -75.937  -0.714  1.00  0.00    -0.000 C 
BRANCH  12  13
ATOM     13  C   UNL     1      78.613 -76.238  -1.567  1.00  0.00    -0.000 C 
BRANCH  13  14
ATOM     14  C   UNL     1      78.673 -77.723  -1.945  1.00  0.00    -0.000 C 
BRANCH  14  15
ATOM     15  C   UNL     1      77.368 -78.439  -1.571  1.00  0.00    -0.000 C 
BRANCH  15  16
ATOM     16  C   UNL     1      76.721 -79.082  -2.805  1.00  0.00    -0.000 C 
BRANCH  16  17
ATOM     17  C   UNL     1      75.307 -78.547  -3.078  1.00  0.00    -0.003 C 
ATOM     18  C   UNL     1      75.314 -77.153  -3.706  1.00  0.00     0.004 C 
ENDBRANCH  16  17
ENDBRANCH  15  16
ENDBRANCH  14  15
ENDBRANCH  13  14
ENDBRANCH  12  13
ENDBRANCH  11  12
ENDBRANCH   1  11
TORSDOF 14
ENDMDL
MODEL 2
REMARK VINA RESULT:    -3.829      1.326      1.974
REMARK INTER + INTRA:          -8.862
REMARK INTER:                  -6.860
REMARK INTRA:                  -2.002
REMARK UNBOUND:                -1.899
REMARK SMILES CCCCCCCCCCCCCCCC(=O)[O-]
REMARK SMILES IDX 9 1 10 2 11 3 12 4 13 5 14 6 15 7 16 8 17 9 18 10 8 11 7 12
REMARK SMILES IDX 6 13 5 14 4 15 3 16 2 17 1 18
REMARK H PARENT
REMARK Flexibility Score: inf
ROOT
ATOM      1  C   UNL     1      77.485 -73.127  -3.918  1.00  0.00     0.000 C 
ENDROOT
BRANCH   1   2
ATOM      2  C   UNL     1      76.210 -72.375  -3.503  1.00  0.00     0.000 C 
BRANCH   2   3
ATOM      3  C   UNL     1      74.927 -73.179  -3.780  1.00  0.00     0.000 C 
BRANCH   3   4
ATOM      4  C   UNL     1      74.079 -73.440  -2.516  1.00  0.00     0.000 C 
BRANCH   4   5
ATOM      5  C   UNL     1      74.503 -72.547  -1.337  1.00  0.00     0.000 C 
BRANCH   5   6
ATOM      6  C   UNL     1      73.328 -71.763  -0.734  1.00  0.00     0.006 C 
BRANCH   6   7
ATOM      7  C   UNL     1      73.770 -70.455  -0.067  1.00  0.00     0.053 C 
BRANCH   7   8
ATOM      8  C   UNL     1      72.716 -69.967   0.876  1.00  0.00     0.041 C 
ATOM      9  O   UNL     1      71.648 -70.618   1.024  1.00  0.00    -0.550 OA
ATOM     10  O   UNL     1      72.890 -68.767   1.555  1.00  0.00    -0.550 OA
ENDBRANCH   7   8
ENDBRANCH   6   7
ENDBRANCH   5   6
ENDBRANCH   4   5
ENDBRANCH   3   4
ENDBRANCH   2   3
ENDBRANCH   1   2
BRANCH   1  11
ATOM     11  C   UNL     1      77.533 -74.560  -3.366  1.00  0.00     0.000 C 
BRANCH  11  12
ATOM     12  C   UNL     1      77.745 -74.598  -1.844  1.00  0.00    -0.000 C 
BRANCH  12  13
ATOM     13  C   UNL     1      78.249 -75.976  -1.396  1.00  0.00    -0.000 C 
BRANCH  13  14
ATOM     14  C   UNL     1      77.235 -76.658  -0.470  1.00  0.00    -0.000 C 
BRANCH  14  15
ATOM     15  C   UNL     1      75.913 -75.880  -0.432  1.00  0.00    -0.000 C 
BRANCH  15  16
ATOM     16  C   UNL     1      74.731 -76.788  -0.802  1.00  0.00    -0.000 C 
BRANCH  16  17
ATOM     17  C   UNL     1      75.035 -77.694  -2.004  1.00  0.00    -0.003 C 
ATOM     18  C   UNL     1      74.810 -76.994  -3.344  1.00  0.00     0.004 C 
ENDBRANCH  16  17
ENDBRANCH  15  16
ENDBRANCH  14  15
ENDBRANCH  13  14
ENDBRANCH  12  13
ENDBRANCH  11  12
ENDBRANCH   1  11
TORSDOF 14
ENDMDL
MODEL 3
REMARK VINA RESULT:    -3.804      4.194      6.551
REMARK INTER + INTRA:          -8.817
REMARK INTER:                  -6.749
REMARK INTRA:                  -2.068
REMARK UNBOUND:                -1.899
REMARK SMILES CCCCCCCCCCCCCCCC(=O)[O-]
REMARK SMILES IDX 9 1 10 2 11 3 12 4 13 5 14 6 15 7 16 8 17 9 18 10 8 11 7 12
REMARK SMILES IDX 6 13 5 14 4 15 3 16 2 17 1 18
REMARK H PARENT
REMARK Flexibility Score: inf
ROOT
ATOM      1  C   UNL     1      76.095 -73.904  -4.123  1.00  0.00     0.000 C 
ENDROOT
BRANCH   1   2
ATOM      2  C   UNL     1      77.224 -74.836  -3.655  1.00  0.00     0.000 C 
BRANCH   2   3
ATOM      3  C   UNL     1      77.900 -74.352  -2.360  1.00  0.00     0.000 C 
BRANCH   3   4
ATOM      4  C   UNL     1      78.563 -75.486  -1.550  1.00  0.00     0.000 C 
BRANCH   4   5
ATOM      5  C   UNL     1      77.571 -76.178  -0.599  1.00  0.00     0.000 C 
BRANCH   5   6
ATOM      6  C   UNL     1      77.523 -77.701  -0.798  1.00  0.00     0.006 C 
BRANCH   6   7
ATOM      7  C   UNL     1      78.730 -78.233  -1.581  1.00  0.00     0.053 C 
BRANCH   7   8
ATOM      8  C   UNL     1      79.062 -79.625  -1.145  1.00  0.00     0.041 C 
ATOM      9  O   UNL     1      79.376 -80.498  -1.997  1.00  0.00    -0.550 OA
ATOM     10  O   UNL     1      78.976 -79.974   0.197  1.00  0.00    -0.550 OA
ENDBRANCH   7   8
ENDBRANCH   6   7
ENDBRANCH   5   6
ENDBRANCH   4   5
ENDBRANCH   3   4
ENDBRANCH   2   3
ENDBRANCH   1   2
BRANCH   1  11
ATOM     11  C   UNL     1      76.361 -72.432  -3.771  1.00  0.00     0.000 C 
BRANCH  11  12
ATOM     12  C   UNL     1      75.067 -71.649  -3.496  1.00  0.00    -0.000 C 
BRANCH  12  13
ATOM     13  C   UNL     1      74.086 -72.485  -2.664  1.00  0.00    -0.000 C 
BRANCH  13  14
ATOM     14  C   UNL     1      74.505 -72.518  -1.189  1.00  0.00    -0.000 C 
BRANCH  14  15
ATOM     15  C   UNL     1      74.614 -73.961  -0.680  1.00  0.00    -0.000 C 
BRANCH  15  16
ATOM     16  C   UNL     1      73.703 -74.898  -1.486  1.00  0.00    -0.000 C 
BRANCH  16  17
ATOM     17  C   UNL     1      74.037 -76.381  -1.265  1.00  0.00    -0.003 C 
ATOM     18  C   UNL     1      73.177 -77.026  -0.179  1.00  0.00     0.004 C 
ENDBRANCH  16  17
ENDBRANCH  15  16
ENDBRANCH  14  15
ENDBRANCH  13  14
ENDBRANCH  12  13
ENDBRANCH  11  12
ENDBRANCH   1  11
TORSDOF 14
ENDMDL
MODEL 4
REMARK VINA RESULT:    -3.730      2.524      5.940
REMARK INTER + INTRA:          -8.681
REMARK INTER:                  -6.350
REMARK INTRA:                  -2.331
REMARK UNBOUND:                -1.899
REMARK SMILES CCCCCCCCCCCCCCCC(=O)[O-]
REMARK SMILES IDX 9 1 10 2 11 3 12 4 13 5 14 6 15 7 16 8 17 9 18 10 8 11 7 12
REMARK SMILES IDX 6 13 5 14 4 15 3 16 2 17 1 18
REMARK H PARENT
REMARK Flexibility Score: inf
ROOT
ATOM      1  C   UNL     1      76.993 -75.894  -0.447  1.00  0.00     0.000 C 
ENDROOT
BRANCH   1   2
ATOM      2  C   UNL     1      78.233 -76.462  -1.156  1.00  0.00     0.000 C 
BRANCH   2   3
ATOM      3  C   UNL     1      78.193 -77.994  -1.294  1.00  0.00     0.000 C 
BRANCH   3   4
ATOM      4  C   UNL     1      78.350 -78.486  -2.748  1.00  0.00     0.000 C 
BRANCH   4   5
ATOM      5  C   UNL     1      77.444 -77.714  -3.724  1.00  0.00     0.000 C 
BRANCH   5   6
ATOM      6  C   UNL     1      76.000 -78.238  -3.733  1.00  0.00     0.006 C 
BRANCH   6   7
ATOM      7  C   UNL     1      74.971 -77.137  -3.447  1.00  0.00     0.053 C 
BRANCH   7   8
ATOM      8  C   UNL     1      74.124 -77.507  -2.270  1.00  0.00     0.041 C 
ATOM      9  O   UNL     1      72.968 -77.025  -2.144  1.00  0.00    -0.550 OA
ATOM     10  O   UNL     1      74.629 -78.348  -1.286  1.00  0.00    -0.550 OA
ENDBRANCH   7   8
ENDBRANCH   6   7
ENDBRANCH   5   6
ENDBRANCH   4   5
ENDBRANCH   3   4
ENDBRANCH   2   3
ENDBRANCH   1   2
BRANCH   1  11
ATOM     11  C   UNL     1      76.431 -74.647  -1.148  1.00  0.00     0.000 C 
BRANCH  11  12
ATOM     12  C   UNL     1      77.353 -74.133  -2.265  1.00  0.00    -0.000 C 
BRANCH  12  13
ATOM     13  C   UNL     1      76.552 -73.817  -3.535  1.00  0.00    -0.000 C 
BRANCH  13  14
ATOM     14  C   UNL     1      76.536 -72.310  -3.815  1.00  0.00    -0.000 C 
BRANCH  14  15
ATOM     15  C   UNL     1      75.165 -71.704  -3.488  1.00  0.00    -0.000 C 
BRANCH  15  16
ATOM     16  C   UNL     1      74.071 -72.781  -3.502  1.00  0.00    -0.000 C 
BRANCH  16  17
ATOM     17  C   UNL     1      73.286 -72.842  -2.183  1.00  0.00    -0.003 C 
ATOM     18  C   UNL     1      73.843 -71.897  -1.119  1.00  0.00     0.004 C 
ENDBRANCH  16  17
ENDBRANCH  15  16
ENDBRANCH  14  15
ENDBRANCH  13  14
ENDBRANCH  12  13
ENDBRANCH  11  12
ENDBRANCH   1  11
TORSDOF 14
ENDMDL
MODEL 5
REMARK VINA RESULT:    -3.713      1.269      2.259
REMARK INTER + INTRA:          -8.652
REMARK INTER:                  -6.096
REMARK INTRA:                  -2.556
REMARK UNBOUND:                -1.899
REMARK SMILES CCCCCCCCCCCCCCCC(=O)[O-]
REMARK SMILES IDX 9 1 10 2 11 3 12 4 13 5 14 6 15 7 16 8 17 9 18 10 8 11 7 12
REMARK SMILES IDX 6 13 5 14 4 15 3 16 2 17 1 18
REMARK H PARENT
REMARK Flexibility Score: inf
ROOT
ATOM      1  C   UNL     1      77.093 -74.635  -1.350  1.00  0.00     0.000 C 
ENDROOT
BRANCH   1   2
ATOM      2  C   UNL     1      77.855 -73.978  -2.513  1.00  0.00     0.000 C 
BRANCH   2   3
ATOM      3  C   UNL     1      76.954 -73.683  -3.725  1.00  0.00     0.000 C 
BRANCH   3   4
ATOM      4  C   UNL     1      75.892 -72.596  -3.453  1.00  0.00     0.000 C 
BRANCH   4   5
ATOM      5  C   UNL     1      74.459 -73.146  -3.555  1.00  0.00     0.000 C 
BRANCH   5   6
ATOM      6  C   UNL     1      73.532 -72.592  -2.462  1.00  0.00     0.006 C 
BRANCH   6   7
ATOM      7  C   UNL     1      74.291 -72.193  -1.190  1.00  0.00     0.053 C 
BRANCH   7   8
ATOM      8  C   UNL     1      73.475 -71.242  -0.373  1.00  0.00     0.041 C 
ATOM      9  O   UNL     1      74.020 -70.249   0.178  1.00  0.00    -0.550 OA
ATOM     10  O   UNL     1      72.120 -71.478  -0.176  1.00  0.00    -0.550 OA
ENDBRANCH   7   8
ENDBRANCH   6   7
ENDBRANCH   5   6
ENDBRANCH   4   5
ENDBRANCH   3   4
ENDBRANCH   2   3
ENDBRANCH   1   2
BRANCH   1  11
ATOM     11  C   UNL     1      77.736 -75.953  -0.893  1.00  0.00     0.000 C 
BRANCH  11  12
ATOM     12  C   UNL     1      78.145 -76.850  -2.072  1.00  0.00    -0.000 C 
BRANCH  12  13
ATOM     13  C   UNL     1      76.997 -77.784  -2.474  1.00  0.00    -0.000 C 
BRANCH  13  14
ATOM     14  C   UNL     1      76.300 -77.284  -3.745  1.00  0.00    -0.000 C 
BRANCH  14  15
ATOM     15  C   UNL     1      74.794 -77.108  -3.514  1.00  0.00    -0.000 C 
BRANCH  15  16
ATOM     16  C   UNL     1      74.438 -77.309  -2.033  1.00  0.00    -0.000 C 
BRANCH  16  17
ATOM     17  C   UNL     1      73.588 -76.161  -1.468  1.00  0.00    -0.003 C 
ATOM     18  C   UNL     1      73.921 -75.840  -0.012  1.00  0.00     0.004 C 
ENDBRANCH  16  17
ENDBRANCH  15  16
ENDBRANCH  14  15
ENDBRANCH  13  14
ENDBRANCH  12  13
ENDBRANCH  11  12
ENDBRANCH   1  11
TORSDOF 14
ENDMDL
MODEL 6
REMARK VINA RESULT:    -3.703      3.569      6.264
REMARK INTER + INTRA:          -8.632
REMARK INTER:                  -6.123
REMARK INTRA:                  -2.510
REMARK UNBOUND:                -1.899
REMARK SMILES CCCCCCCCCCCCCCCC(=O)[O-]
REMARK SMILES IDX 9 1 10 2 11 3 12 4 13 5 14 6 15 7 16 8 17 9 18 10 8 11 7 12
REMARK SMILES IDX 6 13 5 14 4 15 3 16 2 17 1 18
REMARK H PARENT
REMARK Flexibility Score: inf
ROOT
ATOM      1  C   UNL     1      78.039 -75.753  -1.210  1.00  0.00     0.000 C 
ENDROOT
BRANCH   1   2
ATOM      2  C   UNL     1      76.862 -76.296  -0.383  1.00  0.00     0.000 C 
BRANCH   2   3
ATOM      3  C   UNL     1      75.662 -75.333  -0.350  1.00  0.00     0.000 C 
BRANCH   3   4
ATOM      4  C   UNL     1      74.353 -75.962  -0.876  1.00  0.00     0.000 C 
BRANCH   4   5
ATOM      5  C   UNL     1      74.571 -77.382  -1.426  1.00  0.00     0.000 C 
BRANCH   5   6
ATOM      6  C   UNL     1      74.301 -77.481  -2.935  1.00  0.00     0.006 C 
BRANCH   6   7
ATOM      7  C   UNL     1      75.571 -77.774  -3.744  1.00  0.00     0.053 C 
BRANCH   7   8
ATOM      8  C   UNL     1      76.220 -79.032  -3.259  1.00  0.00     0.041 C 
ATOM      9  O   UNL     1      75.616 -80.133  -3.352  1.00  0.00    -0.550 OA
ATOM     10  O   UNL     1      77.473 -78.983  -2.660  1.00  0.00    -0.550 OA
ENDBRANCH   7   8
ENDBRANCH   6   7
ENDBRANCH   5   6
ENDBRANCH   4   5
ENDBRANCH   3   4
ENDBRANCH   2   3
ENDBRANCH   1   2
BRANCH   1  11
ATOM     11  C   UNL     1      77.589 -75.134  -2.543  1.00  0.00     0.000 C 
BRANCH  11  12
ATOM     12  C   UNL     1      77.873 -73.626  -2.619  1.00  0.00    -0.000 C 
BRANCH  12  13
ATOM     13  C   UNL     1      76.803 -72.908  -3.451  1.00  0.00    -0.000 C 
BRANCH  13  14
ATOM     14  C   UNL     1      75.662 -73.862  -3.822  1.00  0.00    -0.000 C 
BRANCH  14  15
ATOM     15  C   UNL     1      74.302 -73.276  -3.421  1.00  0.00    -0.000 C 
BRANCH  15  16
ATOM     16  C   UNL     1      74.478 -72.056  -2.505  1.00  0.00    -0.000 C 
BRANCH  16  17
ATOM     17  C   UNL     1      73.819 -72.249  -1.131  1.00  0.00    -0.003 C 
ATOM     18  C   UNL     1      73.810 -70.970  -0.294  1.00  0.00     0.004 C 
ENDBRANCH  16  17
ENDBRANCH  15  16
ENDBRANCH  14  15
ENDBRANCH  13  14
ENDBRANCH  12  13
ENDBRANCH  11  12
ENDBRANCH   1  11
TORSDOF 14
ENDMDL
MODEL 7
REMARK VINA RESULT:    -3.670      2.688      6.411
REMARK INTER + INTRA:          -8.573
REMARK INTER:                  -6.834
REMARK INTRA:                  -1.739
REMARK UNBOUND:                -1.899
REMARK SMILES CCCCCCCCCCCCCCCC(=O)[O-]
REMARK SMILES IDX 9 1 10 2 11 3 12 4 13 5 14 6 15 7 16 8 17 9 18 10 8 11 7 12
REMARK SMILES IDX 6 13 5 14 4 15 3 16 2 17 1 18
REMARK H PARENT
REMARK Flexibility Score: inf
ROOT
ATOM      1  C   UNL     1      77.296 -73.413  -3.085  1.00  0.00     0.000 C 
ENDROOT
BRANCH   1   2
ATOM      2  C   UNL     1      77.416 -74.748  -3.837  1.00  0.00     0.000 C 
BRANCH   2   3
ATOM      3  C   UNL     1      78.121 -75.837  -3.009  1.00  0.00     0.000 C 
BRANCH   3   4
ATOM      4  C   UNL     1      78.205 -75.509  -1.503  1.00  0.00     0.000 C 
BRANCH   4   5
ATOM      5  C   UNL     1      77.255 -76.382  -0.665  1.00  0.00     0.000 C 
BRANCH   5   6
ATOM      6  C   UNL     1      75.827 -75.820  -0.609  1.00  0.00     0.006 C 
BRANCH   6   7
ATOM      7  C   UNL     1      74.770 -76.849  -1.033  1.00  0.00     0.053 C 
BRANCH   7   8
ATOM      8  C   UNL     1      74.478 -76.724  -2.495  1.00  0.00     0.041 C 
ATOM      9  O   UNL     1      73.612 -75.906  -2.902  1.00  0.00    -0.550 OA
ATOM     10  O   UNL     1      75.128 -77.548  -3.407  1.00  0.00    -0.550 OA
ENDBRANCH   7   8
ENDBRANCH   6   7
ENDBRANCH   5   6
ENDBRANCH   4   5
ENDBRANCH   3   4
ENDBRANCH   2   3
ENDBRANCH   1   2
BRANCH   1  11
ATOM     11  C   UNL     1      76.267 -72.466  -3.722  1.00  0.00     0.000 C 
BRANCH  11  12
ATOM     12  C   UNL     1      74.843 -72.700  -3.192  1.00  0.00    -0.000 C 
BRANCH  12  13
ATOM     13  C   UNL     1      74.770 -72.438  -1.683  1.00  0.00    -0.000 C 
BRANCH  13  14
ATOM     14  C   UNL     1      73.382 -72.783  -1.131  1.00  0.00    -0.000 C 
BRANCH  14  15
ATOM     15  C   UNL     1      72.781 -71.594  -0.371  1.00  0.00    -0.000 C 
BRANCH  15  16
ATOM     16  C   UNL     1      73.841 -70.512  -0.115  1.00  0.00    -0.000 C 
BRANCH  16  17
ATOM     17  C   UNL     1      73.338 -69.400   0.817  1.00  0.00    -0.003 C 
ATOM     18  C   UNL     1      72.005 -69.743   1.482  1.00  0.00     0.004 C 
ENDBRANCH  16  17
ENDBRANCH  15  16
ENDBRANCH  14  15
ENDBRANCH  13  14
ENDBRANCH  12  13
ENDBRANCH  11  12
ENDBRANCH   1  11
TORSDOF 14
ENDMDL
MODEL 8
REMARK VINA RESULT:    -3.656      2.764      3.709
REMARK INTER + INTRA:          -8.547
REMARK INTER:                  -6.129
REMARK INTRA:                  -2.418
REMARK UNBOUND:                -1.899
REMARK SMILES CCCCCCCCCCCCCCCC(=O)[O-]
REMARK SMILES IDX 9 1 10 2 11 3 12 4 13 5 14 6 15 7 16 8 17 9 18 10 8 11 7 12
REMARK SMILES IDX 6 13 5 14 4 15 3 16 2 17 1 18
REMARK H PARENT
REMARK Flexibility Score: inf
ROOT
ATOM      1  C   UNL     1      75.190 -72.561  -3.830  1.00  0.00     0.000 C 
ENDROOT
BRANCH   1   2
ATOM      2  C   UNL     1      74.600 -72.071  -2.498  1.00  0.00     0.000 C 
BRANCH   2   3
ATOM      3  C   UNL     1      73.487 -72.991  -1.964  1.00  0.00     0.000 C 
BRANCH   3   4
ATOM      4  C   UNL     1      73.393 -74.339  -2.710  1.00  0.00     0.000 C 
BRANCH   4   5
ATOM      5  C   UNL     1      73.265 -75.530  -1.743  1.00  0.00     0.000 C 
BRANCH   5   6
ATOM      6  C   UNL     1      73.272 -75.100  -0.269  1.00  0.00     0.006 C 
BRANCH   6   7
ATOM      7  C   UNL     1      73.779 -76.205   0.666  1.00  0.00     0.053 C 
BRANCH   7   8
ATOM      8  C   UNL     1      72.981 -76.225   1.932  1.00  0.00     0.041 C 
ATOM      9  O   UNL     1      71.947 -75.515   2.041  1.00  0.00    -0.550 OA
ATOM     10  O   UNL     1      73.406 -76.991   3.010  1.00  0.00    -0.550 OA
ENDBRANCH   7   8
ENDBRANCH   6   7
ENDBRANCH   5   6
ENDBRANCH   4   5
ENDBRANCH   3   4
ENDBRANCH   2   3
ENDBRANCH   1   2
BRANCH   1  11
ATOM     11  C   UNL     1      76.712 -72.762  -3.763  1.00  0.00     0.000 C 
BRANCH  11  12
ATOM     12  C   UNL     1      77.107 -74.242  -3.642  1.00  0.00    -0.000 C 
BRANCH  12  13
ATOM     13  C   UNL     1      77.834 -74.509  -2.318  1.00  0.00    -0.000 C 
BRANCH  13  14
ATOM     14  C   UNL     1      76.841 -74.877  -1.209  1.00  0.00    -0.000 C 
BRANCH  14  15
ATOM     15  C   UNL     1      77.312 -76.116  -0.436  1.00  0.00    -0.000 C 
BRANCH  15  16
ATOM     16  C   UNL     1      77.424 -77.334  -1.365  1.00  0.00    -0.000 C 
BRANCH  16  17
ATOM     17  C   UNL     1      76.053 -77.855  -1.823  1.00  0.00    -0.003 C 
ATOM     18  C   UNL     1      75.883 -77.818  -3.341  1.00  0.00     0.004 C 
ENDBRANCH  16  17
ENDBRANCH  15  16
ENDBRANCH  14  15
ENDBRANCH  13  14
ENDBRANCH  12  13
ENDBRANCH  11  12
ENDBRANCH   1  11
TORSDOF 14
ENDMDL
MODEL 9
REMARK VINA RESULT:    -3.635      3.672      5.032
REMARK INTER + INTRA:          -8.508
REMARK INTER:                  -6.605
REMARK INTRA:                  -1.904
REMARK UNBOUND:                -1.899
REMARK SMILES CCCCCCCCCCCCCCCC(=O)[O-]
REMARK SMILES IDX 9 1 10 2 11 3 12 4 13 5 14 6 15 7 16 8 17 9 18 10 8 11 7 12
REMARK SMILES IDX 6 13 5 14 4 15 3 16 2 17 1 18
REMARK H PARENT
REMARK Flexibility Score: inf
ROOT
ATOM      1  C   UNL     1      74.791 -72.627  -1.910  1.00  0.00     0.000 C 
ENDROOT
BRANCH   1   2
ATOM      2  C   UNL     1      73.588 -73.582  -1.955  1.00  0.00     0.000 C 
BRANCH   2   3
ATOM      3  C   UNL     1      73.963 -74.991  -2.448  1.00  0.00     0.000 C 
BRANCH   3   4
ATOM      4  C   UNL     1      73.704 -76.098  -1.404  1.00  0.00     0.000 C 
BRANCH   4   5
ATOM      5  C   UNL     1      73.734 -75.557   0.036  1.00  0.00     0.000 C 
BRANCH   5   6
ATOM      6  C   UNL     1      73.667 -76.673   1.090  1.00  0.00     0.006 C 
BRANCH   6   7
ATOM      7  C   UNL     1      72.704 -76.344   2.238  1.00  0.00     0.053 C 
BRANCH   7   8
ATOM      8  C   UNL     1      72.959 -77.244   3.406  1.00  0.00     0.041 C 
ATOM      9  O   UNL     1      72.090 -78.082   3.763  1.00  0.00    -0.550 OA
ATOM     10  O   UNL     1      74.137 -77.123   4.134  1.00  0.00    -0.550 OA
ENDBRANCH   7   8
ENDBRANCH   6   7
ENDBRANCH   5   6
ENDBRANCH   4   5
ENDBRANCH   3   4
ENDBRANCH   2   3
ENDBRANCH   1   2
BRANCH   1  11
ATOM     11  C   UNL     1      74.893 -71.745  -3.164  1.00  0.00     0.000 C 
BRANCH  11  12
ATOM     12  C   UNL     1      76.008 -72.202  -4.118  1.00  0.00    -0.000 C 
BRANCH  12  13
ATOM     13  C   UNL     1      77.051 -73.047  -3.376  1.00  0.00    -0.000 C 
BRANCH  13  14
ATOM     14  C   UNL     1      77.219 -74.420  -4.037  1.00  0.00    -0.000 C 
BRANCH  14  15
ATOM     15  C   UNL     1      77.845 -75.427  -3.065  1.00  0.00    -0.000 C 
BRANCH  15  16
ATOM     16  C   UNL     1      77.684 -74.960  -1.610  1.00  0.00    -0.000 C 
BRANCH  16  17
ATOM     17  C   UNL     1      77.341 -76.112  -0.654  1.00  0.00    -0.003 C 
ATOM     18  C   UNL     1      77.858 -77.463  -1.146  1.00  0.00     0.004 C 
ENDBRANCH  16  17
ENDBRANCH  15  16
ENDBRANCH  14  15
ENDBRANCH  13  14
ENDBRANCH  12  13
ENDBRANCH  11  12
ENDBRANCH   1  11
TORSDOF 14
ENDMDL
