MODEL 1
REMARK VINA RESULT:    -6.101      0.000      0.000
REMARK INTER + INTRA:          -9.341
REMARK INTER:                  -8.955
REMARK INTRA:                  -0.387
REMARK UNBOUND:                -0.387
REMARK SMILES CC(C)(O)CC[C@H](O)[C@@](C)(O)[C@@H]1CC[C@]2(O)C3=CC(=O)[C@H]4C[C@H](O)[C@H](O)C[C@@]4(C)[C@@H]3CC[C@@]12C
REMARK SMILES IDX 6 1 7 2 9 3 10 4 12 5 34 6 33 7 32 8 15 9 31 10 17 11 14 12
REMARK SMILES IDX 13 13 30 14 18 15 28 16 19 17 21 18 27 19 29 20 20 21 22 22
REMARK SMILES IDX 25 23 23 24 16 25 26 27 24 29 11 31 8 33 5 35 2 36 1 37 3 38
REMARK SMILES IDX 4 39
REMARK H PARENT 16 26 26 28 24 30 11 32 8 34 4 40
REMARK Flexibility Score: inf
ROOT
ATOM      1  C   UNL     1      -5.630  31.979  46.866  1.00  0.00     0.038 C 
ENDROOT
BRANCH   1   2
ATOM      2  C   UNL     1      -6.009  30.494  46.636  1.00  0.00     0.146 C 
BRANCH   2   3
ATOM      3  C   UNL     1      -4.908  29.599  45.958  1.00  0.00     0.091 C 
ATOM      4  C   UNL     1      -3.896  30.509  45.212  1.00  0.00     0.045 C 
BRANCH   3   5
ATOM      5  C   UNL     1      -5.559  28.475  45.037  1.00  0.00     0.032 C 
ATOM      6  C   UNL     1      -7.134  29.995  43.657  1.00  0.00     0.015 C 
ATOM      7  C   UNL     1      -6.965  28.604  44.347  1.00  0.00     0.006 C 
ATOM      8  C   UNL     1      -8.219  28.345  45.240  1.00  0.00     0.011 C 
ATOM      9  C   UNL     1      -6.878  27.435  43.320  1.00  0.00     0.092 C 
ATOM     10  C   UNL     1      -9.526  28.212  44.403  1.00  0.00     0.009 C 
ATOM     11  C   UNL     1      -8.135  27.449  42.462  1.00  0.00    -0.031 C 
ATOM     12  C   UNL     1      -5.493  27.627  42.694  1.00  0.00     0.041 C 
ATOM     13  C   UNL     1      -4.610  27.993  43.898  1.00  0.00     0.010 C 
ATOM     14  C   UNL     1      -9.414  27.171  43.247  1.00  0.00     0.025 C 
ATOM     15  C   UNL     1      -8.158  27.957  41.222  1.00  0.00     0.050 C 
ATOM     16  C   UNL     1     -10.690  26.999  42.329  1.00  0.00    -0.013 C 
ATOM     17  C   UNL     1      -9.416  28.328  40.566  1.00  0.00     0.159 C 
ATOM     18  C   UNL     1     -10.753  28.132  41.254  1.00  0.00     0.070 C 
ATOM     19  C   UNL     1     -10.592  25.603  41.623  1.00  0.00     0.042 C 
ATOM     20  C   UNL     1     -11.964  27.032  43.222  1.00  0.00     0.013 C 
ATOM     21  O   UNL     1      -9.358  28.910  39.449  1.00  0.00    -0.295 OA
ATOM     22  C   UNL     1     -11.869  27.867  40.213  1.00  0.00     0.047 C 
ATOM     23  C   UNL     1     -11.621  25.352  40.493  1.00  0.00     0.143 C 
ATOM     24  C   UNL     1     -11.673  26.524  39.494  1.00  0.00     0.143 C 
BRANCH   9  25
ATOM     25  O   UNL     1      -6.845  26.198  44.009  1.00  0.00    -0.385 OA
ATOM     26  H   UNL     1      -6.189  26.280  44.751  1.00  0.00     0.211 HD
ENDBRANCH   9  25
BRANCH  23  27
ATOM     27  O   UNL     1     -12.901  25.098  41.012  1.00  0.00    -0.390 OA
ATOM     28  H   UNL     1     -13.352  24.480  40.379  1.00  0.00     0.211 HD
ENDBRANCH  23  27
BRANCH  24  29
ATOM     29  O   UNL     1     -12.720  26.339  38.577  1.00  0.00    -0.390 OA
ATOM     30  H   UNL     1     -12.304  26.257  37.678  1.00  0.00     0.211 HD
ENDBRANCH  24  29
ENDBRANCH   3   5
BRANCH   3  31
ATOM     31  O   UNL     1      -4.167  28.937  46.959  1.00  0.00    -0.387 OA
ATOM     32  H   UNL     1      -4.798  28.472  47.568  1.00  0.00     0.211 HD
ENDBRANCH   3  31
ENDBRANCH   2   3
BRANCH   2  33
ATOM     33  O   UNL     1      -6.405  29.939  47.868  1.00  0.00    -0.390 OA
ATOM     34  H   UNL     1      -6.096  28.996  47.894  1.00  0.00     0.211 HD
ENDBRANCH   2  33
ENDBRANCH   1   2
BRANCH   1  35
ATOM     35  C   UNL     1      -6.324  32.639  48.079  1.00  0.00     0.037 C 
BRANCH  35  36
ATOM     36  C   UNL     1      -5.516  33.767  48.776  1.00  0.00     0.059 C 
ATOM     37  C   UNL     1      -5.918  33.895  50.263  1.00  0.00     0.042 C 
ATOM     38  C   UNL     1      -5.714  35.118  48.055  1.00  0.00     0.042 C 
BRANCH  36  39
ATOM     39  O   UNL     1      -4.156  33.404  48.703  1.00  0.00    -0.390 OA
ATOM     40  H   UNL     1      -3.649  34.160  48.305  1.00  0.00     0.211 HD
ENDBRANCH  36  39
ENDBRANCH  35  36
ENDBRANCH   1  35
TORSDOF 11
ENDMDL
MODEL 2
REMARK VINA RESULT:    -5.831      1.610      2.884
REMARK INTER + INTRA:          -8.944
REMARK INTER:                  -8.075
REMARK INTRA:                  -0.870
REMARK UNBOUND:                -0.387
REMARK SMILES CC(C)(O)CC[C@H](O)[C@@](C)(O)[C@@H]1CC[C@]2(O)C3=CC(=O)[C@H]4C[C@H](O)[C@H](O)C[C@@]4(C)[C@@H]3CC[C@@]12C
REMARK SMILES IDX 6 1 7 2 9 3 10 4 12 5 34 6 33 7 32 8 15 9 31 10 17 11 14 12
REMARK SMILES IDX 13 13 30 14 18 15 28 16 19 17 21 18 27 19 29 20 20 21 22 22
REMARK SMILES IDX 25 23 23 24 16 25 26 27 24 29 11 31 8 33 5 35 2 36 1 37 3 38
REMARK SMILES IDX 4 39
REMARK H PARENT 16 26 26 28 24 30 11 32 8 34 4 40
REMARK Flexibility Score: inf
ROOT
ATOM      1  C   UNL     1      -4.286  31.649  47.292  1.00  0.00     0.038 C 
ENDROOT
BRANCH   1   2
ATOM      2  C   UNL     1      -4.312  30.406  46.365  1.00  0.00     0.146 C 
BRANCH   2   3
ATOM      3  C   UNL     1      -5.579  29.483  46.489  1.00  0.00     0.091 C 
ATOM      4  C   UNL     1      -5.124  28.006  46.635  1.00  0.00     0.045 C 
BRANCH   3   5
ATOM      5  C   UNL     1      -6.594  29.726  45.287  1.00  0.00     0.032 C 
ATOM      6  C   UNL     1      -7.913  27.507  45.464  1.00  0.00     0.015 C 
ATOM      7  C   UNL     1      -7.317  28.577  44.495  1.00  0.00     0.006 C 
ATOM      8  C   UNL     1      -6.482  27.837  43.403  1.00  0.00     0.011 C 
ATOM      9  C   UNL     1      -8.420  29.397  43.760  1.00  0.00     0.092 C 
ATOM     10  C   UNL     1      -7.367  26.932  42.493  1.00  0.00     0.009 C 
ATOM     11  C   UNL     1      -9.312  28.432  42.995  1.00  0.00    -0.031 C 
ATOM     12  C   UNL     1      -8.988  30.286  44.871  1.00  0.00     0.041 C 
ATOM     13  C   UNL     1      -7.735  30.728  45.645  1.00  0.00     0.010 C 
ATOM     14  C   UNL     1      -8.588  27.683  41.879  1.00  0.00     0.025 C 
ATOM     15  C   UNL     1     -10.514  28.046  43.445  1.00  0.00     0.050 C 
ATOM     16  C   UNL     1      -9.554  26.826  40.967  1.00  0.00    -0.013 C 
ATOM     17  C   UNL     1     -11.181  26.846  42.929  1.00  0.00     0.159 C 
ATOM     18  C   UNL     1     -10.550  25.998  41.843  1.00  0.00     0.070 C 
ATOM     19  C   UNL     1     -10.352  27.813  40.047  1.00  0.00     0.042 C 
ATOM     20  C   UNL     1      -8.701  25.876  40.078  1.00  0.00     0.013 C 
ATOM     21  O   UNL     1     -12.253  26.475  43.480  1.00  0.00    -0.295 OA
ATOM     22  C   UNL     1     -11.640  25.318  40.978  1.00  0.00     0.047 C 
ATOM     23  C   UNL     1     -11.529  27.187  39.257  1.00  0.00     0.143 C 
ATOM     24  C   UNL     1     -12.445  26.343  40.164  1.00  0.00     0.143 C 
BRANCH   9  25
ATOM     25  O   UNL     1      -7.817  30.263  42.815  1.00  0.00    -0.385 OA
ATOM     26  H   UNL     1      -7.127  29.743  42.323  1.00  0.00     0.211 HD
ENDBRANCH   9  25
BRANCH  23  27
ATOM     27  O   UNL     1     -11.068  26.416  38.178  1.00  0.00    -0.390 OA
ATOM     28  H   UNL     1     -11.275  26.924  37.350  1.00  0.00     0.211 HD
ENDBRANCH  23  27
BRANCH  24  29
ATOM     29  O   UNL     1     -13.404  25.665  39.395  1.00  0.00    -0.390 OA
ATOM     30  H   UNL     1     -13.984  25.168  40.031  1.00  0.00     0.211 HD
ENDBRANCH  24  29
ENDBRANCH   3   5
BRANCH   3  31
ATOM     31  O   UNL     1      -6.266  29.795  47.681  1.00  0.00    -0.387 OA
ATOM     32  H   UNL     1      -7.200  29.468  47.606  1.00  0.00     0.211 HD
ENDBRANCH   3  31
ENDBRANCH   2   3
BRANCH   2  33
ATOM     33  O   UNL     1      -4.145  30.839  45.035  1.00  0.00    -0.390 OA
ATOM     34  H   UNL     1      -3.280  30.483  44.703  1.00  0.00     0.211 HD
ENDBRANCH   2  33
ENDBRANCH   1   2
BRANCH   1  35
ATOM     35  C   UNL     1      -5.004  32.892  46.720  1.00  0.00     0.037 C 
BRANCH  35  36
ATOM     36  C   UNL     1      -6.073  33.531  47.650  1.00  0.00     0.059 C 
ATOM     37  C   UNL     1      -7.270  34.062  46.829  1.00  0.00     0.042 C 
ATOM     38  C   UNL     1      -5.462  34.668  48.496  1.00  0.00     0.042 C 
BRANCH  36  39
ATOM     39  O   UNL     1      -6.528  32.512  48.512  1.00  0.00    -0.390 OA
ATOM     40  H   UNL     1      -7.214  32.898  49.119  1.00  0.00     0.211 HD
ENDBRANCH  36  39
ENDBRANCH  35  36
ENDBRANCH   1  35
TORSDOF 11
ENDMDL
MODEL 3
REMARK VINA RESULT:    -5.736      1.535      1.878
REMARK INTER + INTRA:          -8.805
REMARK INTER:                  -8.120
REMARK INTRA:                  -0.685
REMARK UNBOUND:                -0.387
REMARK SMILES CC(C)(O)CC[C@H](O)[C@@](C)(O)[C@@H]1CC[C@]2(O)C3=CC(=O)[C@H]4C[C@H](O)[C@H](O)C[C@@]4(C)[C@@H]3CC[C@@]12C
REMARK SMILES IDX 6 1 7 2 9 3 10 4 12 5 34 6 33 7 32 8 15 9 31 10 17 11 14 12
REMARK SMILES IDX 13 13 30 14 18 15 28 16 19 17 21 18 27 19 29 20 20 21 22 22
REMARK SMILES IDX 25 23 23 24 16 25 26 27 24 29 11 31 8 33 5 35 2 36 1 37 3 38
REMARK SMILES IDX 4 39
REMARK H PARENT 16 26 26 28 24 30 11 32 8 34 4 40
REMARK Flexibility Score: inf
ROOT
ATOM      1  C   UNL     1      -5.386  30.043  46.921  1.00  0.00     0.038 C 
ENDROOT
BRANCH   1   2
ATOM      2  C   UNL     1      -5.738  28.771  46.106  1.00  0.00     0.146 C 
BRANCH   2   3
ATOM      3  C   UNL     1      -5.095  28.671  44.675  1.00  0.00     0.091 C 
ATOM      4  C   UNL     1      -4.729  30.095  44.176  1.00  0.00     0.045 C 
BRANCH   3   5
ATOM      5  C   UNL     1      -6.031  27.860  43.673  1.00  0.00     0.032 C 
ATOM      6  C   UNL     1      -7.862  29.659  43.343  1.00  0.00     0.015 C 
ATOM      7  C   UNL     1      -7.567  28.132  43.486  1.00  0.00     0.006 C 
ATOM      8  C   UNL     1      -8.527  27.548  44.570  1.00  0.00     0.011 C 
ATOM      9  C   UNL     1      -7.828  27.347  42.165  1.00  0.00     0.092 C 
ATOM     10  C   UNL     1     -10.023  27.622  44.139  1.00  0.00     0.009 C 
ATOM     11  C   UNL     1      -9.275  27.569  41.747  1.00  0.00    -0.031 C 
ATOM     12  C   UNL     1      -6.670  27.791  41.265  1.00  0.00     0.041 C 
ATOM     13  C   UNL     1      -5.466  27.804  42.221  1.00  0.00     0.010 C 
ATOM     14  C   UNL     1     -10.290  27.001  42.734  1.00  0.00     0.025 C 
ATOM     15  C   UNL     1      -9.625  28.437  40.788  1.00  0.00     0.050 C 
ATOM     16  C   UNL     1     -11.780  27.063  42.210  1.00  0.00    -0.013 C 
ATOM     17  C   UNL     1     -11.000  28.935  40.665  1.00  0.00     0.159 C 
ATOM     18  C   UNL     1     -12.094  28.471  41.606  1.00  0.00     0.070 C 
ATOM     19  C   UNL     1     -11.951  25.963  41.106  1.00  0.00     0.042 C 
ATOM     20  C   UNL     1     -12.746  26.756  43.390  1.00  0.00     0.013 C 
ATOM     21  O   UNL     1     -11.234  29.838  39.818  1.00  0.00    -0.295 OA
ATOM     22  C   UNL     1     -13.471  28.492  40.896  1.00  0.00     0.047 C 
ATOM     23  C   UNL     1     -13.268  26.029  40.294  1.00  0.00     0.143 C 
ATOM     24  C   UNL     1     -13.547  27.451  39.769  1.00  0.00     0.143 C 
BRANCH   9  25
ATOM     25  O   UNL     1      -7.658  25.960  42.394  1.00  0.00    -0.385 OA
ATOM     26  H   UNL     1      -8.521  25.510  42.192  1.00  0.00     0.211 HD
ENDBRANCH   9  25
BRANCH  23  27
ATOM     27  O   UNL     1     -14.359  25.566  41.047  1.00  0.00    -0.390 OA
ATOM     28  H   UNL     1     -14.391  24.580  40.933  1.00  0.00     0.211 HD
ENDBRANCH  23  27
BRANCH  24  29
ATOM     29  O   UNL     1     -14.819  27.512  39.176  1.00  0.00    -0.390 OA
ATOM     30  H   UNL     1     -15.477  27.268  39.881  1.00  0.00     0.211 HD
ENDBRANCH  24  29
ENDBRANCH   3   5
BRANCH   3  31
ATOM     31  O   UNL     1      -3.875  27.968  44.762  1.00  0.00    -0.387 OA
ATOM     32  H   UNL     1      -3.994  27.199  45.378  1.00  0.00     0.211 HD
ENDBRANCH   3  31
ENDBRANCH   2   3
BRANCH   2  33
ATOM     33  O   UNL     1      -5.403  27.641  46.877  1.00  0.00    -0.390 OA
ATOM     34  H   UNL     1      -5.863  27.718  47.753  1.00  0.00     0.211 HD
ENDBRANCH   2  33
ENDBRANCH   1   2
BRANCH   1  35
ATOM     35  C   UNL     1      -6.601  30.920  47.299  1.00  0.00     0.037 C 
BRANCH  35  36
ATOM     36  C   UNL     1      -6.319  32.444  47.395  1.00  0.00     0.059 C 
ATOM     37  C   UNL     1      -7.310  33.245  46.521  1.00  0.00     0.042 C 
ATOM     38  C   UNL     1      -4.866  32.767  46.983  1.00  0.00     0.042 C 
BRANCH  36  39
ATOM     39  O   UNL     1      -6.504  32.810  48.744  1.00  0.00    -0.390 OA
ATOM     40  H   UNL     1      -6.372  32.005  49.310  1.00  0.00     0.211 HD
ENDBRANCH  36  39
ENDBRANCH  35  36
ENDBRANCH   1  35
TORSDOF 11
ENDMDL
MODEL 4
REMARK VINA RESULT:    -5.701      1.793      2.347
REMARK INTER + INTRA:          -8.755
REMARK INTER:                  -8.035
REMARK INTRA:                  -0.719
REMARK UNBOUND:                -0.387
REMARK SMILES CC(C)(O)CC[C@H](O)[C@@](C)(O)[C@@H]1CC[C@]2(O)C3=CC(=O)[C@H]4C[C@H](O)[C@H](O)C[C@@]4(C)[C@@H]3CC[C@@]12C
REMARK SMILES IDX 6 1 7 2 9 3 10 4 12 5 34 6 33 7 32 8 15 9 31 10 17 11 14 12
REMARK SMILES IDX 13 13 30 14 18 15 28 16 19 17 21 18 27 19 29 20 20 21 22 22
REMARK SMILES IDX 25 23 23 24 16 25 26 27 24 29 11 31 8 33 5 35 2 36 1 37 3 38
REMARK SMILES IDX 4 39
REMARK H PARENT 16 26 26 28 24 30 11 32 8 34 4 40
REMARK Flexibility Score: inf
ROOT
ATOM      1  C   UNL     1      -6.180  32.710  46.653  1.00  0.00     0.038 C 
ENDROOT
BRANCH   1   2
ATOM      2  C   UNL     1      -4.972  32.097  45.897  1.00  0.00     0.146 C 
BRANCH   2   3
ATOM      3  C   UNL     1      -5.312  31.315  44.576  1.00  0.00     0.091 C 
ATOM      4  C   UNL     1      -5.521  32.329  43.419  1.00  0.00     0.045 C 
BRANCH   3   5
ATOM      5  C   UNL     1      -6.538  30.321  44.788  1.00  0.00     0.032 C 
ATOM      6  C   UNL     1      -6.520  29.212  42.450  1.00  0.00     0.015 C 
ATOM      7  C   UNL     1      -7.411  29.736  43.620  1.00  0.00     0.006 C 
ATOM      8  C   UNL     1      -8.507  30.672  43.018  1.00  0.00     0.011 C 
ATOM      9  C   UNL     1      -8.146  28.586  44.373  1.00  0.00     0.092 C 
ATOM     10  C   UNL     1      -9.493  29.906  42.085  1.00  0.00     0.009 C 
ATOM     11  C   UNL     1      -8.991  27.814  43.371  1.00  0.00    -0.031 C 
ATOM     12  C   UNL     1      -7.015  27.901  45.145  1.00  0.00     0.041 C 
ATOM     13  C   UNL     1      -6.174  29.081  45.660  1.00  0.00     0.010 C 
ATOM     14  C   UNL     1     -10.114  28.641  42.751  1.00  0.00     0.025 C 
ATOM     15  C   UNL     1      -8.605  26.639  42.853  1.00  0.00     0.050 C 
ATOM     16  C   UNL     1     -11.103  27.790  41.858  1.00  0.00    -0.013 C 
ATOM     17  C   UNL     1      -9.205  26.105  41.625  1.00  0.00     0.159 C 
ATOM     18  C   UNL     1     -10.307  26.848  40.897  1.00  0.00     0.070 C 
ATOM     19  C   UNL     1     -12.003  26.933  42.815  1.00  0.00     0.042 C 
ATOM     20  C   UNL     1     -12.005  28.757  41.039  1.00  0.00     0.013 C 
ATOM     21  O   UNL     1      -8.713  25.055  41.129  1.00  0.00    -0.295 OA
ATOM     22  C   UNL     1     -11.245  25.856  40.167  1.00  0.00     0.047 C 
ATOM     23  C   UNL     1     -12.866  25.847  42.126  1.00  0.00     0.143 C 
ATOM     24  C   UNL     1     -12.037  24.985  41.155  1.00  0.00     0.143 C 
BRANCH   9  25
ATOM     25  O   UNL     1      -9.024  29.135  45.338  1.00  0.00    -0.385 OA
ATOM     26  H   UNL     1      -9.840  28.567  45.366  1.00  0.00     0.211 HD
ENDBRANCH   9  25
BRANCH  23  27
ATOM     27  O   UNL     1     -13.964  26.413  41.458  1.00  0.00    -0.390 OA
ATOM     28  H   UNL     1     -14.371  27.073  42.078  1.00  0.00     0.211 HD
ENDBRANCH  23  27
BRANCH  24  29
ATOM     29  O   UNL     1     -12.874  24.120  40.433  1.00  0.00    -0.390 OA
ATOM     30  H   UNL     1     -12.782  24.365  39.473  1.00  0.00     0.211 HD
ENDBRANCH  24  29
ENDBRANCH   3   5
BRANCH   3  31
ATOM     31  O   UNL     1      -4.201  30.529  44.204  1.00  0.00    -0.387 OA
ATOM     32  H   UNL     1      -4.306  30.255  43.256  1.00  0.00     0.211 HD
ENDBRANCH   3  31
ENDBRANCH   2   3
BRANCH   2  33
ATOM     33  O   UNL     1      -4.042  33.122  45.638  1.00  0.00    -0.390 OA
ATOM     34  H   UNL     1      -3.300  33.036  46.292  1.00  0.00     0.211 HD
ENDBRANCH   2  33
ENDBRANCH   1   2
BRANCH   1  35
ATOM     35  C   UNL     1      -6.124  32.550  48.188  1.00  0.00     0.037 C 
BRANCH  35  36
ATOM     36  C   UNL     1      -5.463  33.727  48.957  1.00  0.00     0.059 C 
ATOM     37  C   UNL     1      -5.750  33.625  50.473  1.00  0.00     0.042 C 
ATOM     38  C   UNL     1      -5.950  35.088  48.415  1.00  0.00     0.042 C 
BRANCH  36  39
ATOM     39  O   UNL     1      -4.072  33.622  48.750  1.00  0.00    -0.390 OA
ATOM     40  H   UNL     1      -3.906  32.897  48.092  1.00  0.00     0.211 HD
ENDBRANCH  36  39
ENDBRANCH  35  36
ENDBRANCH   1  35
TORSDOF 11
ENDMDL
MODEL 5
REMARK VINA RESULT:    -5.565      2.501      3.126
REMARK INTER + INTRA:          -8.555
REMARK INTER:                  -7.617
REMARK INTRA:                  -0.937
REMARK UNBOUND:                -0.387
REMARK SMILES CC(C)(O)CC[C@H](O)[C@@](C)(O)[C@@H]1CC[C@]2(O)C3=CC(=O)[C@H]4C[C@H](O)[C@H](O)C[C@@]4(C)[C@@H]3CC[C@@]12C
REMARK SMILES IDX 6 1 7 2 9 3 10 4 12 5 34 6 33 7 32 8 15 9 31 10 17 11 14 12
REMARK SMILES IDX 13 13 30 14 18 15 28 16 19 17 21 18 27 19 29 20 20 21 22 22
REMARK SMILES IDX 25 23 23 24 16 25 26 27 24 29 11 31 8 33 5 35 2 36 1 37 3 38
REMARK SMILES IDX 4 39
REMARK H PARENT 16 26 26 28 24 30 11 32 8 34 4 40
REMARK Flexibility Score: inf
ROOT
ATOM      1  C   UNL     1      -6.830  32.655  45.776  1.00  0.00     0.038 C 
ENDROOT
BRANCH   1   2
ATOM      2  C   UNL     1      -7.167  31.155  45.972  1.00  0.00     0.146 C 
BRANCH   2   3
ATOM      3  C   UNL     1      -6.022  30.266  46.581  1.00  0.00     0.091 C 
ATOM      4  C   UNL     1      -4.654  30.960  46.348  1.00  0.00     0.045 C 
BRANCH   3   5
ATOM      5  C   UNL     1      -6.088  28.774  46.028  1.00  0.00     0.032 C 
ATOM      6  C   UNL     1      -5.836  29.305  43.508  1.00  0.00     0.015 C 
ATOM      7  C   UNL     1      -6.530  28.393  44.568  1.00  0.00     0.006 C 
ATOM      8  C   UNL     1      -8.063  28.379  44.274  1.00  0.00     0.011 C 
ATOM      9  C   UNL     1      -6.031  26.918  44.505  1.00  0.00     0.092 C 
ATOM     10  C   UNL     1      -8.397  27.714  42.904  1.00  0.00     0.009 C 
ATOM     11  C   UNL     1      -6.283  26.382  43.103  1.00  0.00    -0.031 C 
ATOM     12  C   UNL     1      -4.612  27.008  45.072  1.00  0.00     0.041 C 
ATOM     13  C   UNL     1      -4.765  27.981  46.253  1.00  0.00     0.010 C 
ATOM     14  C   UNL     1      -7.762  26.301  42.735  1.00  0.00     0.025 C 
ATOM     15  C   UNL     1      -5.315  26.289  42.180  1.00  0.00     0.050 C 
ATOM     16  C   UNL     1      -8.028  25.570  41.358  1.00  0.00    -0.013 C 
ATOM     17  C   UNL     1      -5.624  26.159  40.751  1.00  0.00     0.159 C 
ATOM     18  C   UNL     1      -7.055  26.100  40.255  1.00  0.00     0.070 C 
ATOM     19  C   UNL     1      -7.800  24.034  41.574  1.00  0.00     0.042 C 
ATOM     20  C   UNL     1      -9.505  25.812  40.934  1.00  0.00     0.013 C 
ATOM     21  O   UNL     1      -4.669  26.197  39.929  1.00  0.00    -0.295 OA
ATOM     22  C   UNL     1      -7.149  25.256  38.960  1.00  0.00     0.047 C 
ATOM     23  C   UNL     1      -7.769  23.176  40.285  1.00  0.00     0.143 C 
ATOM     24  C   UNL     1      -6.832  23.775  39.219  1.00  0.00     0.143 C 
BRANCH   9  25
ATOM     25  O   UNL     1      -6.781  26.123  45.406  1.00  0.00    -0.385 OA
ATOM     26  H   UNL     1      -7.738  26.184  45.143  1.00  0.00     0.211 HD
ENDBRANCH   9  25
BRANCH  23  27
ATOM     27  O   UNL     1      -9.058  22.998  39.756  1.00  0.00    -0.390 OA
ATOM     28  H   UNL     1      -9.133  22.045  39.489  1.00  0.00     0.211 HD
ENDBRANCH  23  27
BRANCH  24  29
ATOM     29  O   UNL     1      -6.947  23.065  38.013  1.00  0.00    -0.390 OA
ATOM     30  H   UNL     1      -7.496  22.258  38.205  1.00  0.00     0.211 HD
ENDBRANCH  24  29
ENDBRANCH   3   5
BRANCH   3  31
ATOM     31  O   UNL     1      -6.185  30.195  47.981  1.00  0.00    -0.387 OA
ATOM     32  H   UNL     1      -6.447  29.270  48.226  1.00  0.00     0.211 HD
ENDBRANCH   3  31
ENDBRANCH   2   3
BRANCH   2  33
ATOM     33  O   UNL     1      -8.335  31.059  46.754  1.00  0.00    -0.390 OA
ATOM     34  H   UNL     1      -8.121  31.385  47.667  1.00  0.00     0.211 HD
ENDBRANCH   2  33
ENDBRANCH   1   2
BRANCH   1  35
ATOM     35  C   UNL     1      -7.420  33.592  46.854  1.00  0.00     0.037 C 
BRANCH  35  36
ATOM     36  C   UNL     1      -6.481  33.906  48.051  1.00  0.00     0.059 C 
ATOM     37  C   UNL     1      -7.007  35.112  48.862  1.00  0.00     0.042 C 
ATOM     38  C   UNL     1      -5.040  34.177  47.569  1.00  0.00     0.042 C 
BRANCH  36  39
ATOM     39  O   UNL     1      -6.480  32.766  48.881  1.00  0.00    -0.390 OA
ATOM     40  H   UNL     1      -7.417  32.565  49.141  1.00  0.00     0.211 HD
ENDBRANCH  36  39
ENDBRANCH  35  36
ENDBRANCH   1  35
TORSDOF 11
ENDMDL
MODEL 6
REMARK VINA RESULT:    -5.504      2.154      9.001
REMARK INTER + INTRA:          -8.464
REMARK INTER:                  -8.218
REMARK INTRA:                  -0.246
REMARK UNBOUND:                -0.387
REMARK SMILES CC(C)(O)CC[C@H](O)[C@@](C)(O)[C@@H]1CC[C@]2(O)C3=CC(=O)[C@H]4C[C@H](O)[C@H](O)C[C@@]4(C)[C@@H]3CC[C@@]12C
REMARK SMILES IDX 6 1 7 2 9 3 10 4 12 5 34 6 33 7 32 8 15 9 31 10 17 11 14 12
REMARK SMILES IDX 13 13 30 14 18 15 28 16 19 17 21 18 27 19 29 20 20 21 22 22
REMARK SMILES IDX 25 23 23 24 16 25 26 27 24 29 11 31 8 33 5 35 2 36 1 37 3 38
REMARK SMILES IDX 4 39
REMARK H PARENT 16 26 26 28 24 30 11 32 8 34 4 40
REMARK Flexibility Score: inf
ROOT
ATOM      1  C   UNL     1     -11.467  24.429  41.980  1.00  0.00     0.038 C 
ENDROOT
BRANCH   1   2
ATOM      2  C   UNL     1     -10.241  24.137  41.076  1.00  0.00     0.146 C 
BRANCH   2   3
ATOM      3  C   UNL     1      -9.187  25.297  40.951  1.00  0.00     0.091 C 
ATOM      4  C   UNL     1      -7.757  24.703  41.054  1.00  0.00     0.045 C 
BRANCH   3   5
ATOM      5  C   UNL     1      -9.476  26.460  41.999  1.00  0.00     0.032 C 
ATOM      6  C   UNL     1      -7.311  27.829  41.636  1.00  0.00     0.015 C 
ATOM      7  C   UNL     1      -8.360  27.332  42.680  1.00  0.00     0.006 C 
ATOM      8  C   UNL     1      -7.592  26.690  43.878  1.00  0.00     0.011 C 
ATOM      9  C   UNL     1      -9.227  28.493  43.254  1.00  0.00     0.092 C 
ATOM     10  C   UNL     1      -6.727  27.729  44.653  1.00  0.00     0.009 C 
ATOM     11  C   UNL     1      -8.302  29.522  43.886  1.00  0.00    -0.031 C 
ATOM     12  C   UNL     1     -10.132  28.864  42.075  1.00  0.00     0.041 C 
ATOM     13  C   UNL     1     -10.521  27.498  41.486  1.00  0.00     0.010 C 
ATOM     14  C   UNL     1      -7.529  28.993  45.091  1.00  0.00     0.025 C 
ATOM     15  C   UNL     1      -7.962  30.664  43.270  1.00  0.00     0.050 C 
ATOM     16  C   UNL     1      -6.716  30.111  45.858  1.00  0.00    -0.013 C 
ATOM     17  C   UNL     1      -6.792  31.444  43.686  1.00  0.00     0.159 C 
ATOM     18  C   UNL     1      -5.924  31.006  44.850  1.00  0.00     0.070 C 
ATOM     19  C   UNL     1      -7.738  30.990  46.658  1.00  0.00     0.042 C 
ATOM     20  C   UNL     1      -5.736  29.430  46.856  1.00  0.00     0.013 C 
ATOM     21  O   UNL     1      -6.462  32.442  42.990  1.00  0.00    -0.295 OA
ATOM     22  C   UNL     1      -5.293  32.233  45.553  1.00  0.00     0.047 C 
ATOM     23  C   UNL     1      -7.163  32.289  47.274  1.00  0.00     0.143 C 
ATOM     24  C   UNL     1      -6.353  33.102  46.246  1.00  0.00     0.143 C 
BRANCH   9  25
ATOM     25  O   UNL     1     -10.072  27.995  44.276  1.00  0.00    -0.385 OA
ATOM     26  H   UNL     1     -10.003  28.609  45.054  1.00  0.00     0.211 HD
ENDBRANCH   9  25
BRANCH  23  27
ATOM     27  O   UNL     1      -6.379  32.016  48.407  1.00  0.00    -0.390 OA
ATOM     28  H   UNL     1      -5.621  31.451  48.104  1.00  0.00     0.211 HD
ENDBRANCH  23  27
BRANCH  24  29
ATOM     29  O   UNL     1      -5.717  34.186  46.873  1.00  0.00    -0.390 OA
ATOM     30  H   UNL     1      -5.884  34.093  47.849  1.00  0.00     0.211 HD
ENDBRANCH  24  29
ENDBRANCH   3   5
BRANCH   3  31
ATOM     31  O   UNL     1      -9.276  25.868  39.664  1.00  0.00    -0.387 OA
ATOM     32  H   UNL     1      -9.873  25.305  39.105  1.00  0.00     0.211 HD
ENDBRANCH   3  31
ENDBRANCH   2   3
BRANCH   2  33
ATOM     33  O   UNL     1      -9.623  22.956  41.530  1.00  0.00    -0.390 OA
ATOM     34  H   UNL     1      -9.369  22.417  40.737  1.00  0.00     0.211 HD
ENDBRANCH   2  33
ENDBRANCH   1   2
BRANCH   1  35
ATOM     35  C   UNL     1     -12.682  23.508  41.731  1.00  0.00     0.037 C 
BRANCH  35  36
ATOM     36  C   UNL     1     -13.736  24.052  40.727  1.00  0.00     0.059 C 
ATOM     37  C   UNL     1     -13.290  23.798  39.269  1.00  0.00     0.042 C 
ATOM     38  C   UNL     1     -13.988  25.559  40.950  1.00  0.00     0.042 C 
BRANCH  36  39
ATOM     39  O   UNL     1     -14.933  23.347  40.966  1.00  0.00    -0.390 OA
ATOM     40  H   UNL     1     -15.652  24.004  41.158  1.00  0.00     0.211 HD
ENDBRANCH  36  39
ENDBRANCH  35  36
ENDBRANCH   1  35
TORSDOF 11
ENDMDL
MODEL 7
REMARK VINA RESULT:    -5.481      6.704     13.783
REMARK INTER + INTRA:          -8.431
REMARK INTER:                  -7.444
REMARK INTRA:                  -0.987
REMARK UNBOUND:                -0.387
REMARK SMILES CC(C)(O)CC[C@H](O)[C@@](C)(O)[C@@H]1CC[C@]2(O)C3=CC(=O)[C@H]4C[C@H](O)[C@H](O)C[C@@]4(C)[C@@H]3CC[C@@]12C
REMARK SMILES IDX 6 1 7 2 9 3 10 4 12 5 34 6 33 7 32 8 15 9 31 10 17 11 14 12
REMARK SMILES IDX 13 13 30 14 18 15 28 16 19 17 21 18 27 19 29 20 20 21 22 22
REMARK SMILES IDX 25 23 23 24 16 25 26 27 24 29 11 31 8 33 5 35 2 36 1 37 3 38
REMARK SMILES IDX 4 39
REMARK H PARENT 16 26 26 28 24 30 11 32 8 34 4 40
REMARK Flexibility Score: inf
ROOT
ATOM      1  C   UNL     1     -19.294  23.415  34.747  1.00  0.00     0.038 C 
ENDROOT
BRANCH   1   2
ATOM      2  C   UNL     1     -19.950  24.807  34.938  1.00  0.00     0.146 C 
BRANCH   2   3
ATOM      3  C   UNL     1     -19.071  25.887  35.668  1.00  0.00     0.091 C 
ATOM      4  C   UNL     1     -18.171  26.605  34.627  1.00  0.00     0.045 C 
BRANCH   3   5
ATOM      5  C   UNL     1     -18.264  25.254  36.886  1.00  0.00     0.032 C 
ATOM      6  C   UNL     1     -16.882  27.341  37.537  1.00  0.00     0.015 C 
ATOM      7  C   UNL     1     -16.878  25.786  37.398  1.00  0.00     0.006 C 
ATOM      8  C   UNL     1     -15.614  25.371  36.580  1.00  0.00     0.011 C 
ATOM      9  C   UNL     1     -16.796  25.063  38.777  1.00  0.00     0.092 C 
ATOM     10  C   UNL     1     -14.288  25.703  37.329  1.00  0.00     0.009 C 
ATOM     11  C   UNL     1     -15.539  25.532  39.495  1.00  0.00    -0.031 C 
ATOM     12  C   UNL     1     -18.184  25.305  39.377  1.00  0.00     0.041 C 
ATOM     13  C   UNL     1     -19.126  25.107  38.178  1.00  0.00     0.010 C 
ATOM     14  C   UNL     1     -14.246  25.142  38.784  1.00  0.00     0.025 C 
ATOM     15  C   UNL     1     -15.564  26.452  40.471  1.00  0.00     0.050 C 
ATOM     16  C   UNL     1     -12.945  25.462  39.623  1.00  0.00    -0.013 C 
ATOM     17  C   UNL     1     -14.355  27.178  40.874  1.00  0.00     0.159 C 
ATOM     18  C   UNL     1     -13.014  26.905  40.220  1.00  0.00     0.070 C 
ATOM     19  C   UNL     1     -12.848  24.412  40.784  1.00  0.00     0.042 C 
ATOM     20  C   UNL     1     -11.700  25.320  38.702  1.00  0.00     0.013 C 
ATOM     21  O   UNL     1     -14.472  28.112  41.713  1.00  0.00    -0.295 OA
ATOM     22  C   UNL     1     -11.858  27.165  41.217  1.00  0.00     0.047 C 
ATOM     23  C   UNL     1     -11.779  24.707  41.865  1.00  0.00     0.143 C 
ATOM     24  C   UNL     1     -11.866  26.158  42.377  1.00  0.00     0.143 C 
BRANCH   9  25
ATOM     25  O   UNL     1     -16.676  23.667  38.575  1.00  0.00    -0.385 OA
ATOM     26  H   UNL     1     -15.901  23.347  39.109  1.00  0.00     0.211 HD
ENDBRANCH   9  25
BRANCH  23  27
ATOM     27  O   UNL     1     -10.485  24.435  41.393  1.00  0.00    -0.390 OA
ATOM     28  H   UNL     1     -10.036  23.879  42.083  1.00  0.00     0.211 HD
ENDBRANCH  23  27
BRANCH  24  29
ATOM     29  O   UNL     1     -10.790  26.439  43.234  1.00  0.00    -0.390 OA
ATOM     30  H   UNL     1      -9.983  26.020  42.830  1.00  0.00     0.211 HD
ENDBRANCH  24  29
ENDBRANCH   3   5
BRANCH   3  31
ATOM     31  O   UNL     1     -19.913  26.885  36.203  1.00  0.00    -0.387 OA
ATOM     32  H   UNL     1     -20.685  26.447  36.647  1.00  0.00     0.211 HD
ENDBRANCH   3  31
ENDBRANCH   2   3
BRANCH   2  33
ATOM     33  O   UNL     1     -20.366  25.280  33.678  1.00  0.00    -0.390 OA
ATOM     34  H   UNL     1     -20.653  26.225  33.784  1.00  0.00     0.211 HD
ENDBRANCH   2  33
ENDBRANCH   1   2
BRANCH   1  35
ATOM     35  C   UNL     1     -18.775  23.141  33.318  1.00  0.00     0.037 C 
BRANCH  35  36
ATOM     36  C   UNL     1     -17.235  22.985  33.186  1.00  0.00     0.059 C 
ATOM     37  C   UNL     1     -16.600  22.620  34.548  1.00  0.00     0.042 C 
ATOM     38  C   UNL     1     -16.592  24.273  32.629  1.00  0.00     0.042 C 
BRANCH  36  39
ATOM     39  O   UNL     1     -17.005  21.929  32.280  1.00  0.00    -0.390 OA
ATOM     40  H   UNL     1     -16.396  21.273  32.709  1.00  0.00     0.211 HD
ENDBRANCH  36  39
ENDBRANCH  35  36
ENDBRANCH   1  35
TORSDOF 11
ENDMDL
MODEL 8
REMARK VINA RESULT:    -5.428      1.693      3.269
REMARK INTER + INTRA:          -8.353
REMARK INTER:                  -7.680
REMARK INTRA:                  -0.674
REMARK UNBOUND:                -0.387
REMARK SMILES CC(C)(O)CC[C@H](O)[C@@](C)(O)[C@@H]1CC[C@]2(O)C3=CC(=O)[C@H]4C[C@H](O)[C@H](O)C[C@@]4(C)[C@@H]3CC[C@@]12C
REMARK SMILES IDX 6 1 7 2 9 3 10 4 12 5 34 6 33 7 32 8 15 9 31 10 17 11 14 12
REMARK SMILES IDX 13 13 30 14 18 15 28 16 19 17 21 18 27 19 29 20 20 21 22 22
REMARK SMILES IDX 25 23 23 24 16 25 26 27 24 29 11 31 8 33 5 35 2 36 1 37 3 38
REMARK SMILES IDX 4 39
REMARK H PARENT 16 26 26 28 24 30 11 32 8 34 4 40
REMARK Flexibility Score: inf
ROOT
ATOM      1  C   UNL     1      -4.427  29.913  46.392  1.00  0.00     0.038 C 
ENDROOT
BRANCH   1   2
ATOM      2  C   UNL     1      -4.250  29.621  44.880  1.00  0.00     0.146 C 
BRANCH   2   3
ATOM      3  C   UNL     1      -5.078  28.410  44.312  1.00  0.00     0.091 C 
ATOM      4  C   UNL     1      -4.469  27.964  42.956  1.00  0.00     0.045 C 
BRANCH   3   5
ATOM      5  C   UNL     1      -6.631  28.753  44.237  1.00  0.00     0.032 C 
ATOM      6  C   UNL     1      -7.385  26.732  42.810  1.00  0.00     0.015 C 
ATOM      7  C   UNL     1      -7.591  28.252  43.099  1.00  0.00     0.006 C 
ATOM      8  C   UNL     1      -7.540  29.020  41.740  1.00  0.00     0.011 C 
ATOM      9  C   UNL     1      -8.974  28.554  43.750  1.00  0.00     0.092 C 
ATOM     10  C   UNL     1      -8.720  28.635  40.797  1.00  0.00     0.009 C 
ATOM     11  C   UNL     1     -10.068  28.041  42.825  1.00  0.00    -0.031 C 
ATOM     12  C   UNL     1      -8.816  28.000  45.169  1.00  0.00     0.041 C 
ATOM     13  C   UNL     1      -7.392  28.428  45.559  1.00  0.00     0.010 C 
ATOM     14  C   UNL     1     -10.117  28.757  41.479  1.00  0.00     0.025 C 
ATOM     15  C   UNL     1     -10.711  26.884  43.038  1.00  0.00     0.050 C 
ATOM     16  C   UNL     1     -11.366  28.356  40.597  1.00  0.00    -0.013 C 
ATOM     17  C   UNL     1     -11.455  26.209  41.969  1.00  0.00     0.159 C 
ATOM     18  C   UNL     1     -11.552  26.803  40.578  1.00  0.00     0.070 C 
ATOM     19  C   UNL     1     -12.636  29.033  41.220  1.00  0.00     0.042 C 
ATOM     20  C   UNL     1     -11.160  28.891  39.151  1.00  0.00     0.013 C 
ATOM     21  O   UNL     1     -11.935  25.067  42.205  1.00  0.00    -0.295 OA
ATOM     22  C   UNL     1     -12.885  26.397  39.902  1.00  0.00     0.047 C 
ATOM     23  C   UNL     1     -13.995  28.560  40.648  1.00  0.00     0.143 C 
ATOM     24  C   UNL     1     -14.097  27.023  40.608  1.00  0.00     0.143 C 
BRANCH   9  25
ATOM     25  O   UNL     1      -9.145  29.955  43.876  1.00  0.00    -0.385 OA
ATOM     26  H   UNL     1      -9.869  30.231  43.253  1.00  0.00     0.211 HD
ENDBRANCH   9  25
BRANCH  23  27
ATOM     27  O   UNL     1     -14.228  29.097  39.371  1.00  0.00    -0.390 OA
ATOM     28  H   UNL     1     -14.448  30.056  39.497  1.00  0.00     0.211 HD
ENDBRANCH  23  27
BRANCH  24  29
ATOM     29  O   UNL     1     -15.268  26.628  39.942  1.00  0.00    -0.390 OA
ATOM     30  H   UNL     1     -15.749  26.005  40.550  1.00  0.00     0.211 HD
ENDBRANCH  24  29
ENDBRANCH   3   5
BRANCH   3  31
ATOM     31  O   UNL     1      -4.939  27.306  45.179  1.00  0.00    -0.387 OA
ATOM     32  H   UNL     1      -5.569  26.595  44.894  1.00  0.00     0.211 HD
ENDBRANCH   3  31
ENDBRANCH   2   3
BRANCH   2  33
ATOM     33  O   UNL     1      -4.540  30.796  44.161  1.00  0.00    -0.390 OA
ATOM     34  H   UNL     1      -3.778  31.423  44.276  1.00  0.00     0.211 HD
ENDBRANCH   2  33
ENDBRANCH   1   2
BRANCH   1  35
ATOM     35  C   UNL     1      -4.708  31.395  46.730  1.00  0.00     0.037 C 
BRANCH  35  36
ATOM     36  C   UNL     1      -6.089  31.679  47.383  1.00  0.00     0.059 C 
ATOM     37  C   UNL     1      -7.149  32.011  46.308  1.00  0.00     0.042 C 
ATOM     38  C   UNL     1      -5.991  32.830  48.407  1.00  0.00     0.042 C 
BRANCH  36  39
ATOM     39  O   UNL     1      -6.475  30.501  48.054  1.00  0.00    -0.390 OA
ATOM     40  H   UNL     1      -5.661  29.964  48.243  1.00  0.00     0.211 HD
ENDBRANCH  36  39
ENDBRANCH  35  36
ENDBRANCH   1  35
TORSDOF 11
ENDMDL
MODEL 9
REMARK VINA RESULT:    -5.419      6.318     13.124
REMARK INTER + INTRA:          -8.339
REMARK INTER:                  -7.168
REMARK INTRA:                  -1.172
REMARK UNBOUND:                -0.387
REMARK SMILES CC(C)(O)CC[C@H](O)[C@@](C)(O)[C@@H]1CC[C@]2(O)C3=CC(=O)[C@H]4C[C@H](O)[C@H](O)C[C@@]4(C)[C@@H]3CC[C@@]12C
REMARK SMILES IDX 6 1 7 2 9 3 10 4 12 5 34 6 33 7 32 8 15 9 31 10 17 11 14 12
REMARK SMILES IDX 13 13 30 14 18 15 28 16 19 17 21 18 27 19 29 20 20 21 22 22
REMARK SMILES IDX 25 23 23 24 16 25 26 27 24 29 11 31 8 33 5 35 2 36 1 37 3 38
REMARK SMILES IDX 4 39
REMARK H PARENT 16 26 26 28 24 30 11 32 8 34 4 40
REMARK Flexibility Score: inf
ROOT
ATOM      1  C   UNL     1     -16.215  23.358  33.474  1.00  0.00     0.038 C 
ENDROOT
BRANCH   1   2
ATOM      2  C   UNL     1     -17.105  23.094  34.715  1.00  0.00     0.146 C 
BRANCH   2   3
ATOM      3  C   UNL     1     -18.066  24.267  35.135  1.00  0.00     0.091 C 
ATOM      4  C   UNL     1     -18.055  25.358  34.031  1.00  0.00     0.045 C 
BRANCH   3   5
ATOM      5  C   UNL     1     -17.712  24.817  36.586  1.00  0.00     0.032 C 
ATOM      6  C   UNL     1     -15.406  25.853  36.034  1.00  0.00     0.015 C 
ATOM      7  C   UNL     1     -16.249  25.081  37.097  1.00  0.00     0.006 C 
ATOM      8  C   UNL     1     -15.428  23.838  37.565  1.00  0.00     0.011 C 
ATOM      9  C   UNL     1     -16.549  25.941  38.362  1.00  0.00     0.092 C 
ATOM     10  C   UNL     1     -14.122  24.238  38.315  1.00  0.00     0.009 C 
ATOM     11  C   UNL     1     -15.227  26.392  38.965  1.00  0.00    -0.031 C 
ATOM     12  C   UNL     1     -17.573  26.959  37.853  1.00  0.00     0.041 C 
ATOM     13  C   UNL     1     -18.492  26.116  36.953  1.00  0.00     0.010 C 
ATOM     14  C   UNL     1     -14.365  25.243  39.481  1.00  0.00     0.025 C 
ATOM     15  C   UNL     1     -14.731  27.624  38.780  1.00  0.00     0.050 C 
ATOM     16  C   UNL     1     -13.085  25.724  40.274  1.00  0.00    -0.013 C 
ATOM     17  C   UNL     1     -13.315  27.927  39.012  1.00  0.00     0.159 C 
ATOM     18  C   UNL     1     -12.349  26.863  39.496  1.00  0.00     0.070 C 
ATOM     19  C   UNL     1     -13.553  26.256  41.673  1.00  0.00     0.042 C 
ATOM     20  C   UNL     1     -12.133  24.512  40.482  1.00  0.00     0.013 C 
ATOM     21  O   UNL     1     -12.892  29.074  38.705  1.00  0.00    -0.295 OA
ATOM     22  C   UNL     1     -11.219  27.496  40.345  1.00  0.00     0.047 C 
ATOM     23  C   UNL     1     -12.476  27.001  42.500  1.00  0.00     0.143 C 
ATOM     24  C   UNL     1     -11.753  28.075  41.664  1.00  0.00     0.143 C 
BRANCH   9  25
ATOM     25  O   UNL     1     -17.210  25.148  39.331  1.00  0.00    -0.385 OA
ATOM     26  H   UNL     1     -18.107  25.546  39.491  1.00  0.00     0.211 HD
ENDBRANCH   9  25
BRANCH  23  27
ATOM     27  O   UNL     1     -11.546  26.107  43.054  1.00  0.00    -0.390 OA
ATOM     28  H   UNL     1     -11.062  26.598  43.768  1.00  0.00     0.211 HD
ENDBRANCH  23  27
BRANCH  24  29
ATOM     29  O   UNL     1     -10.682  28.619  42.391  1.00  0.00    -0.390 OA
ATOM     30  H   UNL     1     -11.068  29.024  43.213  1.00  0.00     0.211 HD
ENDBRANCH  24  29
ENDBRANCH   3   5
BRANCH   3  31
ATOM     31  O   UNL     1     -19.391  23.784  35.187  1.00  0.00    -0.387 OA
ATOM     32  H   UNL     1     -19.705  23.612  34.261  1.00  0.00     0.211 HD
ENDBRANCH   3  31
ENDBRANCH   2   3
BRANCH   2  33
ATOM     33  O   UNL     1     -17.838  21.912  34.496  1.00  0.00    -0.390 OA
ATOM     34  H   UNL     1     -17.749  21.340  35.303  1.00  0.00     0.211 HD
ENDBRANCH   2  33
ENDBRANCH   1   2
BRANCH   1  35
ATOM     35  C   UNL     1     -14.701  23.166  33.717  1.00  0.00     0.037 C 
BRANCH  35  36
ATOM     36  C   UNL     1     -13.774  24.160  32.965  1.00  0.00     0.059 C 
ATOM     37  C   UNL     1     -12.627  24.644  33.882  1.00  0.00     0.042 C 
ATOM     38  C   UNL     1     -14.573  25.368  32.431  1.00  0.00     0.042 C 
BRANCH  36  39
ATOM     39  O   UNL     1     -13.219  23.459  31.875  1.00  0.00    -0.390 OA
ATOM     40  H   UNL     1     -12.344  23.870  31.649  1.00  0.00     0.211 HD
ENDBRANCH  36  39
ENDBRANCH  35  36
ENDBRANCH   1  35
TORSDOF 11
ENDMDL
