MODEL 1
REMARK VINA RESULT:    -4.466      0.000      0.000
REMARK INTER + INTRA:          -8.493
REMARK INTER:                  -6.816
REMARK INTRA:                  -1.676
REMARK UNBOUND:                -1.676
REMARK SMILES OC[C@@H]1O[C@](CO)(O[C@H]2O[C@H](CO)[C@@H](O)[C@H](O)[C@@H]2O)[C@@H](O)[C@@H]1O
REMARK SMILES IDX 8 1 9 2 11 3 14 4 10 5 16 6 18 7 12 8 13 9 15 11 17 13 19 15
REMARK SMILES IDX 5 17 20 18 4 19 22 20 3 21 6 22 7 23 21 25 23 27 2 29 1 30
REMARK H PARENT 13 10 15 12 17 14 19 16 7 24 21 26 23 28 1 31
REMARK Flexibility Score: inf
ROOT
ATOM      1  O   UNL     1       2.394  12.532  -2.818  1.00  0.00    -0.313 OA
ENDROOT
BRANCH   1   2
ATOM      2  C   UNL     1       1.363  12.536  -3.803  1.00  0.00     0.285 C 
ATOM      3  C   UNL     1       0.264  14.316  -2.722  1.00  0.00     0.178 C 
ATOM      4  C   UNL     1       0.526  15.304  -3.886  1.00  0.00     0.177 C 
ATOM      5  O   UNL     1       0.153  12.986  -3.212  1.00  0.00    -0.341 OA
ATOM      6  C   UNL     1       1.783  14.879  -4.666  1.00  0.00     0.179 C 
ATOM      7  C   UNL     1       1.682  13.394  -5.056  1.00  0.00     0.202 C 
BRANCH   3   8
ATOM      8  C   UNL     1      -1.040  14.674  -1.995  1.00  0.00     0.191 C 
BRANCH   8   9
ATOM      9  O   UNL     1      -1.269  13.785  -0.935  1.00  0.00    -0.394 OA
ATOM     10  H   UNL     1      -0.839  12.927  -1.184  1.00  0.00     0.210 HD
ENDBRANCH   8   9
ENDBRANCH   3   8
BRANCH   4  11
ATOM     11  O   UNL     1       0.663  16.624  -3.416  1.00  0.00    -0.387 OA
ATOM     12  H   UNL     1      -0.138  17.133  -3.710  1.00  0.00     0.211 HD
ENDBRANCH   4  11
BRANCH   6  13
ATOM     13  O   UNL     1       1.914  15.677  -5.814  1.00  0.00    -0.387 OA
ATOM     14  H   UNL     1       1.285  16.437  -5.707  1.00  0.00     0.211 HD
ENDBRANCH   6  13
BRANCH   7  15
ATOM     15  O   UNL     1       0.661  13.231  -6.007  1.00  0.00    -0.385 OA
ATOM     16  H   UNL     1       1.029  13.529  -6.880  1.00  0.00     0.211 HD
ENDBRANCH   7  15
ENDBRANCH   1   2
BRANCH   1  17
ATOM     17  C   UNL     1       3.230  11.375  -2.662  1.00  0.00     0.224 C 
ATOM     18  C   UNL     1       2.774  10.061  -3.372  1.00  0.00     0.208 C 
ATOM     19  O   UNL     1       3.230  11.092  -1.277  1.00  0.00    -0.337 OA
ATOM     20  C   UNL     1       1.824   9.461  -2.363  1.00  0.00     0.180 C 
ATOM     21  C   UNL     1       2.370   9.998  -1.035  1.00  0.00     0.179 C 
BRANCH  17  22
ATOM     22  C   UNL     1       4.678  11.782  -3.032  1.00  0.00     0.225 C 
BRANCH  22  23
ATOM     23  O   UNL     1       4.856  11.781  -4.425  1.00  0.00    -0.391 OA
ATOM     24  H   UNL     1       5.629  12.376  -4.606  1.00  0.00     0.210 HD
ENDBRANCH  22  23
ENDBRANCH  17  22
BRANCH  18  25
ATOM     25  O   UNL     1       3.853   9.172  -3.533  1.00  0.00    -0.385 OA
ATOM     26  H   UNL     1       4.686   9.709  -3.474  1.00  0.00     0.211 HD
ENDBRANCH  18  25
BRANCH  20  27
ATOM     27  O   UNL     1       0.506   9.888  -2.599  1.00  0.00    -0.387 OA
ATOM     28  H   UNL     1       0.095   9.218  -3.206  1.00  0.00     0.211 HD
ENDBRANCH  20  27
BRANCH  21  29
ATOM     29  C   UNL     1       1.295  10.386  -0.008  1.00  0.00     0.191 C 
BRANCH  29  30
ATOM     30  O   UNL     1       0.613  11.538  -0.423  1.00  0.00    -0.394 OA
ATOM     31  H   UNL     1      -0.203  11.593   0.140  1.00  0.00     0.210 HD
ENDBRANCH  29  30
ENDBRANCH  21  29
ENDBRANCH   1  17
TORSDOF 13
ENDMDL
MODEL 2
REMARK VINA RESULT:    -4.386      1.971      3.098
REMARK INTER + INTRA:          -8.370
REMARK INTER:                  -6.577
REMARK INTRA:                  -1.793
REMARK UNBOUND:                -1.676
REMARK SMILES OC[C@@H]1O[C@](CO)(O[C@H]2O[C@H](CO)[C@@H](O)[C@H](O)[C@@H]2O)[C@@H](O)[C@@H]1O
REMARK SMILES IDX 8 1 9 2 11 3 14 4 10 5 16 6 18 7 12 8 13 9 15 11 17 13 19 15
REMARK SMILES IDX 5 17 20 18 4 19 22 20 3 21 6 22 7 23 21 25 23 27 2 29 1 30
REMARK H PARENT 13 10 15 12 17 14 19 16 7 24 21 26 23 28 1 31
REMARK Flexibility Score: inf
ROOT
ATOM      1  O   UNL     1       3.310  11.557  -1.914  1.00  0.00    -0.313 OA
ENDROOT
BRANCH   1   2
ATOM      2  C   UNL     1       3.668  11.149  -3.232  1.00  0.00     0.285 C 
ATOM      3  C   UNL     1       1.523  11.689  -4.040  1.00  0.00     0.178 C 
ATOM      4  C   UNL     1       2.047  12.849  -4.923  1.00  0.00     0.177 C 
ATOM      5  O   UNL     1       2.511  10.676  -3.907  1.00  0.00    -0.341 OA
ATOM      6  C   UNL     1       3.358  13.406  -4.338  1.00  0.00     0.179 C 
ATOM      7  C   UNL     1       4.348  12.257  -4.079  1.00  0.00     0.202 C 
BRANCH   3   8
ATOM      8  C   UNL     1       0.269  11.062  -4.664  1.00  0.00     0.191 C 
BRANCH   8   9
ATOM      9  O   UNL     1       0.259   9.675  -4.457  1.00  0.00    -0.394 OA
ATOM     10  H   UNL     1      -0.476   9.308  -5.013  1.00  0.00     0.210 HD
ENDBRANCH   8   9
ENDBRANCH   3   8
BRANCH   4  11
ATOM     11  O   UNL     1       1.090  13.873  -5.046  1.00  0.00    -0.387 OA
ATOM     12  H   UNL     1       1.091  14.391  -4.198  1.00  0.00     0.211 HD
ENDBRANCH   4  11
BRANCH   6  13
ATOM     13  O   UNL     1       3.912  14.336  -5.232  1.00  0.00    -0.387 OA
ATOM     14  H   UNL     1       3.196  14.990  -5.444  1.00  0.00     0.211 HD
ENDBRANCH   6  13
BRANCH   7  15
ATOM     15  O   UNL     1       4.765  11.718  -5.308  1.00  0.00    -0.385 OA
ATOM     16  H   UNL     1       4.009  11.826  -5.943  1.00  0.00     0.211 HD
ENDBRANCH   7  15
ENDBRANCH   1   2
BRANCH   1  17
ATOM     17  C   UNL     1       3.543  10.677  -0.804  1.00  0.00     0.224 C 
ATOM     18  C   UNL     1       2.968   9.228  -0.907  1.00  0.00     0.208 C 
ATOM     19  O   UNL     1       2.895  11.278   0.299  1.00  0.00    -0.337 OA
ATOM     20  C   UNL     1       1.552   9.406  -0.416  1.00  0.00     0.180 C 
ATOM     21  C   UNL     1       1.681  10.598   0.541  1.00  0.00     0.179 C 
BRANCH  17  22
ATOM     22  C   UNL     1       5.060  10.696  -0.493  1.00  0.00     0.225 C 
BRANCH  22  23
ATOM     23  O   UNL     1       5.289  10.565   0.886  1.00  0.00    -0.391 OA
ATOM     24  H   UNL     1       5.363  11.488   1.243  1.00  0.00     0.210 HD
ENDBRANCH  22  23
ENDBRANCH  17  22
BRANCH  18  25
ATOM     25  O   UNL     1       3.628   8.358  -0.019  1.00  0.00    -0.385 OA
ATOM     26  H   UNL     1       3.133   8.385   0.841  1.00  0.00     0.211 HD
ENDBRANCH  18  25
BRANCH  20  27
ATOM     27  O   UNL     1       0.682   9.684  -1.483  1.00  0.00    -0.387 OA
ATOM     28  H   UNL     1       1.245   9.750  -2.299  1.00  0.00     0.211 HD
ENDBRANCH  20  27
BRANCH  21  29
ATOM     29  C   UNL     1       0.504  11.584   0.501  1.00  0.00     0.191 C 
BRANCH  29  30
ATOM     30  O   UNL     1       0.539  12.343  -0.677  1.00  0.00    -0.394 OA
ATOM     31  H   UNL     1       0.853  11.729  -1.391  1.00  0.00     0.210 HD
ENDBRANCH  29  30
ENDBRANCH  21  29
ENDBRANCH   1  17
TORSDOF 13
ENDMDL
MODEL 3
REMARK VINA RESULT:    -4.367      2.159      5.141
REMARK INTER + INTRA:          -8.340
REMARK INTER:                  -6.282
REMARK INTRA:                  -2.059
REMARK UNBOUND:                -1.676
REMARK SMILES OC[C@@H]1O[C@](CO)(O[C@H]2O[C@H](CO)[C@@H](O)[C@H](O)[C@@H]2O)[C@@H](O)[C@@H]1O
REMARK SMILES IDX 8 1 9 2 11 3 14 4 10 5 16 6 18 7 12 8 13 9 15 11 17 13 19 15
REMARK SMILES IDX 5 17 20 18 4 19 22 20 3 21 6 22 7 23 21 25 23 27 2 29 1 30
REMARK H PARENT 13 10 15 12 17 14 19 16 7 24 21 26 23 28 1 31
REMARK Flexibility Score: inf
ROOT
ATOM      1  O   UNL     1       3.795  11.794  -2.416  1.00  0.00    -0.313 OA
ENDROOT
BRANCH   1   2
ATOM      2  C   UNL     1       2.490  11.991  -1.877  1.00  0.00     0.285 C 
ATOM      3  C   UNL     1       1.503  11.600  -3.979  1.00  0.00     0.178 C 
ATOM      4  C   UNL     1       0.822  10.288  -3.517  1.00  0.00     0.177 C 
ATOM      5  O   UNL     1       1.637  12.504  -2.890  1.00  0.00    -0.341 OA
ATOM      6  C   UNL     1       1.614   9.664  -2.354  1.00  0.00     0.179 C 
ATOM      7  C   UNL     1       1.857  10.717  -1.258  1.00  0.00     0.202 C 
BRANCH   3   8
ATOM      8  C   UNL     1       0.671  12.282  -5.074  1.00  0.00     0.191 C 
BRANCH   8   9
ATOM      9  O   UNL     1       1.509  12.910  -6.006  1.00  0.00    -0.394 OA
ATOM     10  H   UNL     1       1.784  12.213  -6.657  1.00  0.00     0.210 HD
ENDBRANCH   8   9
ENDBRANCH   3   8
BRANCH   4  11
ATOM     11  O   UNL     1       0.703   9.371  -4.578  1.00  0.00    -0.387 OA
ATOM     12  H   UNL     1       1.352   8.636  -4.416  1.00  0.00     0.211 HD
ENDBRANCH   4  11
BRANCH   6  13
ATOM     13  O   UNL     1       0.900   8.573  -1.832  1.00  0.00    -0.387 OA
ATOM     14  H   UNL     1       1.551   8.022  -1.323  1.00  0.00     0.211 HD
ENDBRANCH   6  13
BRANCH   7  15
ATOM     15  O   UNL     1       0.633  11.048  -0.653  1.00  0.00    -0.385 OA
ATOM     16  H   UNL     1       0.613  10.590   0.229  1.00  0.00     0.211 HD
ENDBRANCH   7  15
ENDBRANCH   1   2
BRANCH   1  17
ATOM     17  C   UNL     1       4.845  12.725  -2.111  1.00  0.00     0.224 C 
ATOM     18  C   UNL     1       4.480  14.243  -2.126  1.00  0.00     0.208 C 
ATOM     19  O   UNL     1       5.816  12.545  -3.122  1.00  0.00    -0.337 OA
ATOM     20  C   UNL     1       4.641  14.601  -3.584  1.00  0.00     0.180 C 
ATOM     21  C   UNL     1       5.706  13.601  -4.054  1.00  0.00     0.179 C 
BRANCH  17  22
ATOM     22  C   UNL     1       5.501  12.282  -0.780  1.00  0.00     0.225 C 
BRANCH  22  23
ATOM     23  O   UNL     1       6.883  12.523  -0.800  1.00  0.00    -0.391 OA
ATOM     24  H   UNL     1       6.992  13.507  -0.883  1.00  0.00     0.210 HD
ENDBRANCH  22  23
ENDBRANCH  17  22
BRANCH  18  25
ATOM     25  O   UNL     1       5.414  14.995  -1.390  1.00  0.00    -0.385 OA
ATOM     26  H   UNL     1       5.904  15.568  -2.036  1.00  0.00     0.211 HD
ENDBRANCH  18  25
BRANCH  20  27
ATOM     27  O   UNL     1       3.430  14.440  -4.278  1.00  0.00    -0.387 OA
ATOM     28  H   UNL     1       3.582  14.782  -5.198  1.00  0.00     0.211 HD
ENDBRANCH  20  27
BRANCH  21  29
ATOM     29  C   UNL     1       5.482  13.041  -5.467  1.00  0.00     0.191 C 
BRANCH  29  30
ATOM     30  O   UNL     1       4.592  11.960  -5.431  1.00  0.00    -0.394 OA
ATOM     31  H   UNL     1       4.582  11.642  -4.491  1.00  0.00     0.210 HD
ENDBRANCH  29  30
ENDBRANCH  21  29
ENDBRANCH   1  17
TORSDOF 13
ENDMDL
MODEL 4
REMARK VINA RESULT:    -4.337      2.383      5.745
REMARK INTER + INTRA:          -8.296
REMARK INTER:                  -6.363
REMARK INTRA:                  -1.933
REMARK UNBOUND:                -1.676
REMARK SMILES OC[C@@H]1O[C@](CO)(O[C@H]2O[C@H](CO)[C@@H](O)[C@H](O)[C@@H]2O)[C@@H](O)[C@@H]1O
REMARK SMILES IDX 8 1 9 2 11 3 14 4 10 5 16 6 18 7 12 8 13 9 15 11 17 13 19 15
REMARK SMILES IDX 5 17 20 18 4 19 22 20 3 21 6 22 7 23 21 25 23 27 2 29 1 30
REMARK H PARENT 13 10 15 12 17 14 19 16 7 24 21 26 23 28 1 31
REMARK Flexibility Score: inf
ROOT
ATOM      1  O   UNL     1       2.626  11.805  -3.352  1.00  0.00    -0.313 OA
ENDROOT
BRANCH   1   2
ATOM      2  C   UNL     1       3.093  10.463  -3.461  1.00  0.00     0.285 C 
ATOM      3  C   UNL     1       4.387  10.698  -1.508  1.00  0.00     0.178 C 
ATOM      4  C   UNL     1       3.534   9.681  -0.711  1.00  0.00     0.177 C 
ATOM      5  O   UNL     1       4.391  10.372  -2.891  1.00  0.00    -0.341 OA
ATOM      6  C   UNL     1       2.107   9.624  -1.286  1.00  0.00     0.179 C 
ATOM      7  C   UNL     1       2.162   9.409  -2.808  1.00  0.00     0.202 C 
BRANCH   3   8
ATOM      8  C   UNL     1       5.838  10.693  -1.006  1.00  0.00     0.191 C 
BRANCH   8   9
ATOM      9  O   UNL     1       6.730  10.777  -2.085  1.00  0.00    -0.394 OA
ATOM     10  H   UNL     1       7.615  11.016  -1.706  1.00  0.00     0.210 HD
ENDBRANCH   8   9
ENDBRANCH   3   8
BRANCH   4  11
ATOM     11  O   UNL     1       3.499  10.002   0.659  1.00  0.00    -0.387 OA
ATOM     12  H   UNL     1       4.399   9.814   1.036  1.00  0.00     0.211 HD
ENDBRANCH   4  11
BRANCH   6  13
ATOM     13  O   UNL     1       1.395   8.582  -0.671  1.00  0.00    -0.387 OA
ATOM     14  H   UNL     1       1.129   8.910   0.229  1.00  0.00     0.211 HD
ENDBRANCH   6  13
BRANCH   7  15
ATOM     15  O   UNL     1       2.652   8.119  -3.077  1.00  0.00    -0.385 OA
ATOM     16  H   UNL     1       3.620   8.126  -2.855  1.00  0.00     0.211 HD
ENDBRANCH   7  15
ENDBRANCH   1   2
BRANCH   1  17
ATOM     17  C   UNL     1       2.568  12.641  -4.518  1.00  0.00     0.224 C 
ATOM     18  C   UNL     1       3.720  12.492  -5.562  1.00  0.00     0.208 C 
ATOM     19  O   UNL     1       2.644  13.968  -4.037  1.00  0.00    -0.337 OA
ATOM     20  C   UNL     1       4.782  13.411  -5.006  1.00  0.00     0.180 C 
ATOM     21  C   UNL     1       3.952  14.457  -4.252  1.00  0.00     0.179 C 
BRANCH  17  22
ATOM     22  C   UNL     1       1.165  12.477  -5.151  1.00  0.00     0.225 C 
BRANCH  22  23
ATOM     23  O   UNL     1       0.763  13.661  -5.789  1.00  0.00    -0.391 OA
ATOM     24  H   UNL     1       0.239  13.383  -6.585  1.00  0.00     0.210 HD
ENDBRANCH  22  23
ENDBRANCH  17  22
BRANCH  18  25
ATOM     25  O   UNL     1       3.331  12.991  -6.819  1.00  0.00    -0.385 OA
ATOM     26  H   UNL     1       3.980  12.644  -7.486  1.00  0.00     0.211 HD
ENDBRANCH  18  25
BRANCH  20  27
ATOM     27  O   UNL     1       5.650  12.714  -4.148  1.00  0.00    -0.387 OA
ATOM     28  H   UNL     1       5.533  11.748  -4.350  1.00  0.00     0.211 HD
ENDBRANCH  20  27
BRANCH  21  29
ATOM     29  C   UNL     1       4.565  14.930  -2.925  1.00  0.00     0.191 C 
BRANCH  29  30
ATOM     30  O   UNL     1       4.204  14.067  -1.882  1.00  0.00    -0.394 OA
ATOM     31  H   UNL     1       5.050  13.670  -1.548  1.00  0.00     0.210 HD
ENDBRANCH  29  30
ENDBRANCH  21  29
ENDBRANCH   1  17
TORSDOF 13
ENDMDL
MODEL 5
REMARK VINA RESULT:    -4.271      1.674      5.522
REMARK INTER + INTRA:          -8.195
REMARK INTER:                  -6.332
REMARK INTRA:                  -1.863
REMARK UNBOUND:                -1.676
REMARK SMILES OC[C@@H]1O[C@](CO)(O[C@H]2O[C@H](CO)[C@@H](O)[C@H](O)[C@@H]2O)[C@@H](O)[C@@H]1O
REMARK SMILES IDX 8 1 9 2 11 3 14 4 10 5 16 6 18 7 12 8 13 9 15 11 17 13 19 15
REMARK SMILES IDX 5 17 20 18 4 19 22 20 3 21 6 22 7 23 21 25 23 27 2 29 1 30
REMARK H PARENT 13 10 15 12 17 14 19 16 7 24 21 26 23 28 1 31
REMARK Flexibility Score: inf
ROOT
ATOM      1  O   UNL     1       2.233  13.437  -2.817  1.00  0.00    -0.313 OA
ENDROOT
BRANCH   1   2
ATOM      2  C   UNL     1       1.113  12.846  -2.161  1.00  0.00     0.285 C 
ATOM      3  C   UNL     1       1.722  10.706  -2.932  1.00  0.00     0.178 C 
ATOM      4  C   UNL     1       2.045  10.185  -1.510  1.00  0.00     0.177 C 
ATOM      5  O   UNL     1       0.702  11.695  -2.883  1.00  0.00    -0.341 OA
ATOM      6  C   UNL     1       2.434  11.360  -0.594  1.00  0.00     0.179 C 
ATOM      7  C   UNL     1       1.370  12.468  -0.678  1.00  0.00     0.202 C 
BRANCH   3   8
ATOM      8  C   UNL     1       1.239   9.558  -3.830  1.00  0.00     0.191 C 
BRANCH   8   9
ATOM      9  O   UNL     1       0.117   9.954  -4.571  1.00  0.00    -0.394 OA
ATOM     10  H   UNL     1      -0.168   9.165  -5.100  1.00  0.00     0.210 HD
ENDBRANCH   8   9
ENDBRANCH   3   8
BRANCH   4  11
ATOM     11  O   UNL     1       3.071   9.222  -1.537  1.00  0.00    -0.387 OA
ATOM     12  H   UNL     1       3.285   8.983  -0.597  1.00  0.00     0.211 HD
ENDBRANCH   4  11
BRANCH   6  13
ATOM     13  O   UNL     1       2.559  10.902   0.728  1.00  0.00    -0.387 OA
ATOM     14  H   UNL     1       1.637  10.772   1.073  1.00  0.00     0.211 HD
ENDBRANCH   6  13
BRANCH   7  15
ATOM     15  O   UNL     1       0.175  12.010  -0.098  1.00  0.00    -0.385 OA
ATOM     16  H   UNL     1      -0.185  12.756   0.450  1.00  0.00     0.211 HD
ENDBRANCH   7  15
ENDBRANCH   1   2
BRANCH   1  17
ATOM     17  C   UNL     1       2.069  14.657  -3.556  1.00  0.00     0.224 C 
ATOM     18  C   UNL     1       0.757  14.818  -4.388  1.00  0.00     0.208 C 
ATOM     19  O   UNL     1       3.130  14.681  -4.489  1.00  0.00    -0.337 OA
ATOM     20  C   UNL     1       1.109  14.128  -5.684  1.00  0.00     0.180 C 
ATOM     21  C   UNL     1       2.629  14.322  -5.759  1.00  0.00     0.179 C 
BRANCH  17  22
ATOM     22  C   UNL     1       2.306  15.838  -2.582  1.00  0.00     0.225 C 
BRANCH  22  23
ATOM     23  O   UNL     1       1.101  16.245  -1.988  1.00  0.00    -0.391 OA
ATOM     24  H   UNL     1       0.374  15.830  -2.523  1.00  0.00     0.210 HD
ENDBRANCH  22  23
ENDBRANCH  17  22
BRANCH  18  25
ATOM     25  O   UNL     1       0.502  16.172  -4.674  1.00  0.00    -0.385 OA
ATOM     26  H   UNL     1       1.267  16.508  -5.211  1.00  0.00     0.211 HD
ENDBRANCH  18  25
BRANCH  20  27
ATOM     27  O   UNL     1       0.757  12.768  -5.641  1.00  0.00    -0.387 OA
ATOM     28  H   UNL     1       1.599  12.253  -5.754  1.00  0.00     0.211 HD
ENDBRANCH  20  27
BRANCH  21  29
ATOM     29  C   UNL     1       3.404  13.118  -6.315  1.00  0.00     0.191 C 
BRANCH  29  30
ATOM     30  O   UNL     1       3.789  12.260  -5.275  1.00  0.00    -0.394 OA
ATOM     31  H   UNL     1       3.657  11.338  -5.616  1.00  0.00     0.210 HD
ENDBRANCH  29  30
ENDBRANCH  21  29
ENDBRANCH   1  17
TORSDOF 13
ENDMDL
MODEL 6
REMARK VINA RESULT:    -4.187      1.598      3.804
REMARK INTER + INTRA:          -8.066
REMARK INTER:                  -6.315
REMARK INTRA:                  -1.751
REMARK UNBOUND:                -1.676
REMARK SMILES OC[C@@H]1O[C@](CO)(O[C@H]2O[C@H](CO)[C@@H](O)[C@H](O)[C@@H]2O)[C@@H](O)[C@@H]1O
REMARK SMILES IDX 8 1 9 2 11 3 14 4 10 5 16 6 18 7 12 8 13 9 15 11 17 13 19 15
REMARK SMILES IDX 5 17 20 18 4 19 22 20 3 21 6 22 7 23 21 25 23 27 2 29 1 30
REMARK H PARENT 13 10 15 12 17 14 19 16 7 24 21 26 23 28 1 31
REMARK Flexibility Score: inf
ROOT
ATOM      1  O   UNL     1       1.378  11.649  -2.305  1.00  0.00    -0.313 OA
ENDROOT
BRANCH   1   2
ATOM      2  C   UNL     1       2.154  12.843  -2.245  1.00  0.00     0.285 C 
ATOM      3  C   UNL     1       2.402  12.861  -4.587  1.00  0.00     0.178 C 
ATOM      4  C   UNL     1       1.562  14.152  -4.757  1.00  0.00     0.177 C 
ATOM      5  O   UNL     1       3.069  12.861  -3.332  1.00  0.00    -0.341 OA
ATOM      6  C   UNL     1       0.572  14.295  -3.587  1.00  0.00     0.179 C 
ATOM      7  C   UNL     1       1.316  14.148  -2.248  1.00  0.00     0.202 C 
BRANCH   3   8
ATOM      8  C   UNL     1       3.459  12.757  -5.695  1.00  0.00     0.191 C 
BRANCH   8   9
ATOM      9  O   UNL     1       4.572  12.033  -5.244  1.00  0.00    -0.394 OA
ATOM     10  H   UNL     1       5.222  12.697  -4.898  1.00  0.00     0.210 HD
ENDBRANCH   8   9
ENDBRANCH   3   8
BRANCH   4  11
ATOM     11  O   UNL     1       0.876  14.159  -5.985  1.00  0.00    -0.387 OA
ATOM     12  H   UNL     1       0.458  13.265  -6.103  1.00  0.00     0.211 HD
ENDBRANCH   4  11
BRANCH   6  13
ATOM     13  O   UNL     1      -0.061  15.546  -3.659  1.00  0.00    -0.387 OA
ATOM     14  H   UNL     1       0.493  16.113  -4.257  1.00  0.00     0.211 HD
ENDBRANCH   6  13
BRANCH   7  15
ATOM     15  O   UNL     1       2.167  15.251  -2.066  1.00  0.00    -0.385 OA
ATOM     16  H   UNL     1       2.379  15.297  -1.096  1.00  0.00     0.211 HD
ENDBRANCH   7  15
ENDBRANCH   1   2
BRANCH   1  17
ATOM     17  C   UNL     1       1.685  10.550  -1.432  1.00  0.00     0.224 C 
ATOM     18  C   UNL     1       3.178  10.096  -1.354  1.00  0.00     0.208 C 
ATOM     19  O   UNL     1       0.967   9.446  -1.946  1.00  0.00    -0.337 OA
ATOM     20  C   UNL     1       3.290   9.147  -2.523  1.00  0.00     0.180 C 
ATOM     21  C   UNL     1       1.859   8.607  -2.648  1.00  0.00     0.179 C 
BRANCH  17  22
ATOM     22  C   UNL     1       1.083  10.865  -0.041  1.00  0.00     0.225 C 
BRANCH  22  23
ATOM     23  O   UNL     1       0.857   9.684   0.684  1.00  0.00    -0.391 OA
ATOM     24  H   UNL     1       0.331   9.947   1.484  1.00  0.00     0.210 HD
ENDBRANCH  22  23
ENDBRANCH  17  22
BRANCH  18  25
ATOM     25  O   UNL     1       3.422   9.364  -0.177  1.00  0.00    -0.385 OA
ATOM     26  H   UNL     1       3.445   8.404  -0.428  1.00  0.00     0.211 HD
ENDBRANCH  18  25
BRANCH  20  27
ATOM     27  O   UNL     1       3.697   9.826  -3.684  1.00  0.00    -0.387 OA
ATOM     28  H   UNL     1       3.277  10.725  -3.649  1.00  0.00     0.211 HD
ENDBRANCH  20  27
BRANCH  21  29
ATOM     29  C   UNL     1       1.373   8.406  -4.092  1.00  0.00     0.191 C 
BRANCH  29  30
ATOM     30  O   UNL     1       0.609   9.504  -4.510  1.00  0.00    -0.394 OA
ATOM     31  H   UNL     1      -0.236   9.465  -3.991  1.00  0.00     0.210 HD
ENDBRANCH  29  30
ENDBRANCH  21  29
ENDBRANCH   1  17
TORSDOF 13
ENDMDL
MODEL 7
REMARK VINA RESULT:    -4.166      2.082      4.506
REMARK INTER + INTRA:          -8.034
REMARK INTER:                  -5.949
REMARK INTRA:                  -2.085
REMARK UNBOUND:                -1.676
REMARK SMILES OC[C@@H]1O[C@](CO)(O[C@H]2O[C@H](CO)[C@@H](O)[C@H](O)[C@@H]2O)[C@@H](O)[C@@H]1O
REMARK SMILES IDX 8 1 9 2 11 3 14 4 10 5 16 6 18 7 12 8 13 9 15 11 17 13 19 15
REMARK SMILES IDX 5 17 20 18 4 19 22 20 3 21 6 22 7 23 21 25 23 27 2 29 1 30
REMARK H PARENT 13 10 15 12 17 14 19 16 7 24 21 26 23 28 1 31
REMARK Flexibility Score: inf
ROOT
ATOM      1  O   UNL     1       3.798  11.803  -2.906  1.00  0.00    -0.313 OA
ENDROOT
BRANCH   1   2
ATOM      2  C   UNL     1       2.587  11.565  -2.193  1.00  0.00     0.285 C 
ATOM      3  C   UNL     1       1.384  12.951  -3.668  1.00  0.00     0.178 C 
ATOM      4  C   UNL     1       0.552  11.776  -4.239  1.00  0.00     0.177 C 
ATOM      5  O   UNL     1       1.741  12.700  -2.316  1.00  0.00    -0.341 OA
ATOM      6  C   UNL     1       1.333  10.457  -4.093  1.00  0.00     0.179 C 
ATOM      7  C   UNL     1       1.821  10.293  -2.643  1.00  0.00     0.202 C 
BRANCH   3   8
ATOM      8  C   UNL     1       0.578  14.257  -3.720  1.00  0.00     0.191 C 
BRANCH   8   9
ATOM      9  O   UNL     1       1.406  15.331  -4.075  1.00  0.00    -0.394 OA
ATOM     10  H   UNL     1       1.477  15.321  -5.064  1.00  0.00     0.210 HD
ENDBRANCH   8   9
ENDBRANCH   3   8
BRANCH   4  11
ATOM     11  O   UNL     1       0.209  11.997  -5.586  1.00  0.00    -0.387 OA
ATOM     12  H   UNL     1       0.177  11.114  -6.039  1.00  0.00     0.211 HD
ENDBRANCH   4  11
BRANCH   6  13
ATOM     13  O   UNL     1       0.507   9.381  -4.455  1.00  0.00    -0.387 OA
ATOM     14  H   UNL     1      -0.358   9.513  -3.984  1.00  0.00     0.211 HD
ENDBRANCH   6  13
BRANCH   7  15
ATOM     15  O   UNL     1       0.715  10.090  -1.801  1.00  0.00    -0.385 OA
ATOM     16  H   UNL     1       0.701  10.844  -1.154  1.00  0.00     0.211 HD
ENDBRANCH   7  15
ENDBRANCH   1   2
BRANCH   1  17
ATOM     17  C   UNL     1       4.996  12.142  -2.191  1.00  0.00     0.224 C 
ATOM     18  C   UNL     1       4.860  13.156  -1.010  1.00  0.00     0.208 C 
ATOM     19  O   UNL     1       5.843  12.759  -3.141  1.00  0.00    -0.337 OA
ATOM     20  C   UNL     1       4.951  14.488  -1.715  1.00  0.00     0.180 C 
ATOM     21  C   UNL     1       5.813  14.156  -2.939  1.00  0.00     0.179 C 
BRANCH  17  22
ATOM     22  C   UNL     1       5.688  10.823  -1.768  1.00  0.00     0.225 C 
BRANCH  22  23
ATOM     23  O   UNL     1       7.073  10.894  -1.982  1.00  0.00    -0.391 OA
ATOM     24  H   UNL     1       7.376  11.738  -1.556  1.00  0.00     0.210 HD
ENDBRANCH  22  23
ENDBRANCH  17  22
BRANCH  18  25
ATOM     25  O   UNL     1       5.954  13.056  -0.130  1.00  0.00    -0.385 OA
ATOM     26  H   UNL     1       6.743  13.434  -0.599  1.00  0.00     0.211 HD
ENDBRANCH  18  25
BRANCH  20  27
ATOM     27  O   UNL     1       3.676  14.950  -2.082  1.00  0.00    -0.387 OA
ATOM     28  H   UNL     1       3.642  15.913  -1.839  1.00  0.00     0.211 HD
ENDBRANCH  20  27
BRANCH  21  29
ATOM     29  C   UNL     1       5.392  14.869  -4.233  1.00  0.00     0.191 C 
BRANCH  29  30
ATOM     30  O   UNL     1       4.253  14.263  -4.780  1.00  0.00    -0.394 OA
ATOM     31  H   UNL     1       4.341  14.349  -5.765  1.00  0.00     0.210 HD
ENDBRANCH  29  30
ENDBRANCH  21  29
ENDBRANCH   1  17
TORSDOF 13
ENDMDL
MODEL 8
REMARK VINA RESULT:    -4.157      1.553      5.766
REMARK INTER + INTRA:          -8.021
REMARK INTER:                  -6.312
REMARK INTRA:                  -1.709
REMARK UNBOUND:                -1.676
REMARK SMILES OC[C@@H]1O[C@](CO)(O[C@H]2O[C@H](CO)[C@@H](O)[C@H](O)[C@@H]2O)[C@@H](O)[C@@H]1O
REMARK SMILES IDX 8 1 9 2 11 3 14 4 10 5 16 6 18 7 12 8 13 9 15 11 17 13 19 15
REMARK SMILES IDX 5 17 20 18 4 19 22 20 3 21 6 22 7 23 21 25 23 27 2 29 1 30
REMARK H PARENT 13 10 15 12 17 14 19 16 7 24 21 26 23 28 1 31
REMARK Flexibility Score: inf
ROOT
ATOM      1  O   UNL     1       1.137  13.562  -3.273  1.00  0.00    -0.313 OA
ENDROOT
BRANCH   1   2
ATOM      2  C   UNL     1       0.903  12.575  -4.274  1.00  0.00     0.285 C 
ATOM      3  C   UNL     1       3.129  11.819  -4.124  1.00  0.00     0.178 C 
ATOM      4  C   UNL     1       2.718  10.441  -3.547  1.00  0.00     0.177 C 
ATOM      5  O   UNL     1       2.112  12.327  -4.978  1.00  0.00    -0.341 OA
ATOM      6  C   UNL     1       1.367  10.557  -2.817  1.00  0.00     0.179 C 
ATOM      7  C   UNL     1       0.333  11.239  -3.729  1.00  0.00     0.202 C 
BRANCH   3   8
ATOM      8  C   UNL     1       4.425  11.698  -4.936  1.00  0.00     0.191 C 
BRANCH   8   9
ATOM      9  O   UNL     1       5.425  12.514  -4.388  1.00  0.00    -0.394 OA
ATOM     10  H   UNL     1       6.288  12.049  -4.542  1.00  0.00     0.210 HD
ENDBRANCH   8   9
ENDBRANCH   3   8
BRANCH   4  11
ATOM     11  O   UNL     1       3.703   9.934  -2.680  1.00  0.00    -0.387 OA
ATOM     12  H   UNL     1       4.113   9.142  -3.118  1.00  0.00     0.211 HD
ENDBRANCH   4  11
BRANCH   6  13
ATOM     13  O   UNL     1       0.923   9.277  -2.448  1.00  0.00    -0.387 OA
ATOM     14  H   UNL     1       0.004   9.178  -2.810  1.00  0.00     0.211 HD
ENDBRANCH   6  13
BRANCH   7  15
ATOM     15  O   UNL     1       0.029  10.387  -4.805  1.00  0.00    -0.385 OA
ATOM     16  H   UNL     1      -0.440  10.938  -5.486  1.00  0.00     0.211 HD
ENDBRANCH   7  15
ENDBRANCH   1   2
BRANCH   1  17
ATOM     17  C   UNL     1       0.645  14.899  -3.456  1.00  0.00     0.224 C 
ATOM     18  C   UNL     1       0.672  15.478  -4.906  1.00  0.00     0.208 C 
ATOM     19  O   UNL     1       1.498  15.725  -2.689  1.00  0.00    -0.337 OA
ATOM     20  C   UNL     1       2.075  16.024  -5.012  1.00  0.00     0.180 C 
ATOM     21  C   UNL     1       2.403  16.376  -3.556  1.00  0.00     0.179 C 
BRANCH  17  22
ATOM     22  C   UNL     1      -0.758  14.982  -2.806  1.00  0.00     0.225 C 
BRANCH  22  23
ATOM     23  O   UNL     1      -0.888  14.037  -1.776  1.00  0.00    -0.391 OA
ATOM     24  H   UNL     1      -0.258  14.318  -1.062  1.00  0.00     0.210 HD
ENDBRANCH  22  23
ENDBRANCH  17  22
BRANCH  18  25
ATOM     25  O   UNL     1      -0.223  16.556  -5.037  1.00  0.00    -0.385 OA
ATOM     26  H   UNL     1      -0.655  16.473  -5.927  1.00  0.00     0.211 HD
ENDBRANCH  18  25
BRANCH  20  27
ATOM     27  O   UNL     1       2.953  15.055  -5.526  1.00  0.00    -0.387 OA
ATOM     28  H   UNL     1       2.469  14.188  -5.496  1.00  0.00     0.211 HD
ENDBRANCH  20  27
BRANCH  21  29
ATOM     29  C   UNL     1       3.850  16.079  -3.133  1.00  0.00     0.191 C 
BRANCH  29  30
ATOM     30  O   UNL     1       4.000  14.721  -2.819  1.00  0.00    -0.394 OA
ATOM     31  H   UNL     1       4.501  14.318  -3.574  1.00  0.00     0.210 HD
ENDBRANCH  29  30
ENDBRANCH  21  29
ENDBRANCH   1  17
TORSDOF 13
ENDMDL
MODEL 9
REMARK VINA RESULT:    -4.084      1.979      5.250
REMARK INTER + INTRA:          -7.909
REMARK INTER:                  -6.301
REMARK INTRA:                  -1.608
REMARK UNBOUND:                -1.676
REMARK SMILES OC[C@@H]1O[C@](CO)(O[C@H]2O[C@H](CO)[C@@H](O)[C@H](O)[C@@H]2O)[C@@H](O)[C@@H]1O
REMARK SMILES IDX 8 1 9 2 11 3 14 4 10 5 16 6 18 7 12 8 13 9 15 11 17 13 19 15
REMARK SMILES IDX 5 17 20 18 4 19 22 20 3 21 6 22 7 23 21 25 23 27 2 29 1 30
REMARK H PARENT 13 10 15 12 17 14 19 16 7 24 21 26 23 28 1 31
REMARK Flexibility Score: inf
ROOT
ATOM      1  O   UNL     1       2.940  11.845  -2.438  1.00  0.00    -0.313 OA
ENDROOT
BRANCH   1   2
ATOM      2  C   UNL     1       4.099  11.110  -2.821  1.00  0.00     0.285 C 
ATOM      3  C   UNL     1       5.004  12.997  -3.900  1.00  0.00     0.178 C 
ATOM      4  C   UNL     1       6.175  13.124  -2.894  1.00  0.00     0.177 C 
ATOM      5  O   UNL     1       4.608  11.639  -4.037  1.00  0.00    -0.341 OA
ATOM      6  C   UNL     1       5.777  12.508  -1.541  1.00  0.00     0.179 C 
ATOM      7  C   UNL     1       5.222  11.088  -1.751  1.00  0.00     0.202 C 
BRANCH   3   8
ATOM      8  C   UNL     1       5.422  13.521  -5.281  1.00  0.00     0.191 C 
BRANCH   8   9
ATOM      9  O   UNL     1       6.742  13.146  -5.568  1.00  0.00    -0.394 OA
ATOM     10  H   UNL     1       6.984  13.587  -6.424  1.00  0.00     0.210 HD
ENDBRANCH   8   9
ENDBRANCH   3   8
BRANCH   4  11
ATOM     11  O   UNL     1       6.566  14.466  -2.727  1.00  0.00    -0.387 OA
ATOM     12  H   UNL     1       6.085  14.824  -1.935  1.00  0.00     0.211 HD
ENDBRANCH   4  11
BRANCH   6  13
ATOM     13  O   UNL     1       6.896  12.474  -0.693  1.00  0.00    -0.387 OA
ATOM     14  H   UNL     1       7.277  11.559  -0.760  1.00  0.00     0.211 HD
ENDBRANCH   6  13
BRANCH   7  15
ATOM     15  O   UNL     1       6.260  10.243  -2.179  1.00  0.00    -0.385 OA
ATOM     16  H   UNL     1       5.835   9.412  -2.519  1.00  0.00     0.211 HD
ENDBRANCH   7  15
ENDBRANCH   1   2
BRANCH   1  17
ATOM     17  C   UNL     1       1.633  11.302  -2.684  1.00  0.00     0.224 C 
ATOM     18  C   UNL     1       1.335  10.783  -4.127  1.00  0.00     0.208 C 
ATOM     19  O   UNL     1       0.731  12.367  -2.457  1.00  0.00    -0.337 OA
ATOM     20  C   UNL     1       0.903  12.042  -4.841  1.00  0.00     0.180 C 
ATOM     21  C   UNL     1       0.307  12.879  -3.702  1.00  0.00     0.179 C 
BRANCH  17  22
ATOM     22  C   UNL     1       1.348  10.237  -1.597  1.00  0.00     0.225 C 
BRANCH  22  23
ATOM     23  O   UNL     1       0.599  10.787  -0.544  1.00  0.00    -0.391 OA
ATOM     24  H   UNL     1       1.040  11.644  -0.308  1.00  0.00     0.210 HD
ENDBRANCH  22  23
ENDBRANCH  17  22
BRANCH  18  25
ATOM     25  O   UNL     1       0.248   9.889  -4.128  1.00  0.00    -0.385 OA
ATOM     26  H   UNL     1       0.236   9.441  -3.242  1.00  0.00     0.211 HD
ENDBRANCH  18  25
BRANCH  20  27
ATOM     27  O   UNL     1       2.001  12.681  -5.441  1.00  0.00    -0.387 OA
ATOM     28  H   UNL     1       2.816  12.248  -5.074  1.00  0.00     0.211 HD
ENDBRANCH  20  27
BRANCH  21  29
ATOM     29  C   UNL     1       0.606  14.384  -3.787  1.00  0.00     0.191 C 
BRANCH  29  30
ATOM     30  O   UNL     1       1.918  14.647  -3.369  1.00  0.00    -0.394 OA
ATOM     31  H   UNL     1       2.480  13.926  -3.755  1.00  0.00     0.210 HD
ENDBRANCH  29  30
ENDBRANCH  21  29
ENDBRANCH   1  17
TORSDOF 13
ENDMDL
