MODEL 1
REMARK VINA RESULT:    -5.474      0.000      0.000
REMARK INTER + INTRA:          -7.353
REMARK INTER:                  -7.394
REMARK INTRA:                   0.042
REMARK UNBOUND:                 0.042
REMARK SMILES COc1ccc(-c2cc(=O)c3c(OC)c(OC)c(OC)c(OC)c3o2)cc1
REMARK SMILES IDX 7 1 8 2 9 3 10 4 11 5 24 6 25 7 21 8 18 9 15 10 12 11 6 12
REMARK SMILES IDX 3 13 4 14 27 15 5 16 26 17 2 18 1 19 22 20 23 21 13 22 14 23
REMARK SMILES IDX 19 24 20 25 16 26 17 27
REMARK H PARENT
REMARK Flexibility Score: inf
ROOT
ATOM      1  C   UNL     1      46.695 -27.408   1.517  1.00  0.00     0.138 A 
ATOM      2  C   UNL     1      47.338 -28.421   0.795  1.00  0.00     0.100 A 
ATOM      3  C   UNL     1      48.272 -29.231   1.437  1.00  0.00     0.197 A 
ATOM      4  O   UNL     1      48.846 -30.134   0.768  1.00  0.00    -0.289 OA
ATOM      5  C   UNL     1      48.557 -29.027   2.808  1.00  0.00     0.115 A 
ATOM      6  C   UNL     1      47.841 -28.010   3.475  1.00  0.00     0.188 A 
ATOM      7  O   UNL     1      46.962 -27.260   2.811  1.00  0.00    -0.452 OA
ATOM      8  C   UNL     1      48.059 -27.759   4.835  1.00  0.00     0.209 A 
ATOM      9  C   UNL     1      49.055 -28.472   5.541  1.00  0.00     0.211 A 
ATOM     10  C   UNL     1      49.773 -29.510   4.886  1.00  0.00     0.208 A 
ATOM     11  C   UNL     1      49.523 -29.787   3.513  1.00  0.00     0.179 A 
ENDROOT
BRANCH   1  12
ATOM     12  C   UNL     1      45.717 -26.495   0.872  1.00  0.00     0.018 A 
ATOM     13  C   UNL     1      43.850 -24.805  -0.408  1.00  0.00     0.118 A 
ATOM     14  C   UNL     1      44.917 -25.355  -1.124  1.00  0.00     0.047 A 
ATOM     15  C   UNL     1      43.715 -25.107   0.959  1.00  0.00     0.047 A 
ATOM     16  C   UNL     1      45.839 -26.195  -0.495  1.00  0.00     0.016 A 
ATOM     17  C   UNL     1      44.638 -25.946   1.591  1.00  0.00     0.016 A 
BRANCH  13  18
ATOM     18  O   UNL     1      42.948 -23.973  -1.088  1.00  0.00    -0.497 OA
ATOM     19  C   UNL     1      41.676 -23.584  -0.582  1.00  0.00     0.278 C 
ENDBRANCH  13  18
ENDBRANCH   1  12
BRANCH   8  20
ATOM     20  O   UNL     1      47.291 -26.786   5.479  1.00  0.00    -0.490 OA
ATOM     21  C   UNL     1      46.240 -27.121   6.379  1.00  0.00     0.278 C 
ENDBRANCH   8  20
BRANCH  11  22
ATOM     22  O   UNL     1      50.209 -30.793   2.799  1.00  0.00    -0.492 OA
ATOM     23  C   UNL     1      49.756 -32.108   2.489  1.00  0.00     0.278 C 
ENDBRANCH  11  22
BRANCH   9  24
ATOM     24  O   UNL     1      49.360 -28.190   6.887  1.00  0.00    -0.490 OA
ATOM     25  C   UNL     1      49.873 -26.973   7.419  1.00  0.00     0.279 C 
ENDBRANCH   9  24
BRANCH  10  26
ATOM     26  O   UNL     1      50.741 -30.291   5.548  1.00  0.00    -0.490 OA
ATOM     27  C   UNL     1      50.536 -31.450   6.350  1.00  0.00     0.278 C 
ENDBRANCH  10  26
TORSDOF 6
ENDMDL
MODEL 2
REMARK VINA RESULT:    -4.811      1.710      4.248
REMARK INTER + INTRA:          -6.457
REMARK INTER:                  -6.379
REMARK INTRA:                  -0.078
REMARK UNBOUND:                 0.042
REMARK SMILES COc1ccc(-c2cc(=O)c3c(OC)c(OC)c(OC)c(OC)c3o2)cc1
REMARK SMILES IDX 7 1 8 2 9 3 10 4 11 5 24 6 25 7 21 8 18 9 15 10 12 11 6 12
REMARK SMILES IDX 3 13 4 14 27 15 5 16 26 17 2 18 1 19 22 20 23 21 13 22 14 23
REMARK SMILES IDX 19 24 20 25 16 26 17 27
REMARK H PARENT
REMARK Flexibility Score: inf
ROOT
ATOM      1  C   UNL     1      47.592 -27.739   3.658  1.00  0.00     0.138 A 
ATOM      2  C   UNL     1      47.512 -26.835   4.724  1.00  0.00     0.100 A 
ATOM      3  C   UNL     1      48.252 -27.072   5.880  1.00  0.00     0.197 A 
ATOM      4  O   UNL     1      48.160 -26.249   6.832  1.00  0.00    -0.289 OA
ATOM      5  C   UNL     1      49.079 -28.218   5.964  1.00  0.00     0.115 A 
ATOM      6  C   UNL     1      49.134 -29.062   4.834  1.00  0.00     0.188 A 
ATOM      7  O   UNL     1      48.400 -28.790   3.755  1.00  0.00    -0.452 OA
ATOM      8  C   UNL     1      49.941 -30.205   4.838  1.00  0.00     0.209 A 
ATOM      9  C   UNL     1      50.655 -30.571   6.003  1.00  0.00     0.211 A 
ATOM     10  C   UNL     1      50.620 -29.721   7.143  1.00  0.00     0.208 A 
ATOM     11  C   UNL     1      49.827 -28.541   7.123  1.00  0.00     0.179 A 
ENDROOT
BRANCH   1  12
ATOM     12  C   UNL     1      46.797 -27.552   2.418  1.00  0.00     0.018 A 
ATOM     13  C   UNL     1      45.307 -27.127   0.055  1.00  0.00     0.118 A 
ATOM     14  C   UNL     1      45.231 -26.219   1.115  1.00  0.00     0.047 A 
ATOM     15  C   UNL     1      46.139 -28.255   0.178  1.00  0.00     0.047 A 
ATOM     16  C   UNL     1      45.971 -26.424   2.282  1.00  0.00     0.016 A 
ATOM     17  C   UNL     1      46.879 -28.462   1.346  1.00  0.00     0.016 A 
BRANCH  13  18
ATOM     18  O   UNL     1      44.551 -26.873  -1.098  1.00  0.00    -0.497 OA
ATOM     19  C   UNL     1      43.364 -26.088  -1.125  1.00  0.00     0.278 C 
ENDBRANCH  13  18
ENDBRANCH   1  12
BRANCH   8  20
ATOM     20  O   UNL     1      50.020 -30.986   3.682  1.00  0.00    -0.490 OA
ATOM     21  C   UNL     1      50.643 -30.519   2.491  1.00  0.00     0.278 C 
ENDBRANCH   8  20
BRANCH  11  22
ATOM     22  O   UNL     1      49.737 -27.662   8.224  1.00  0.00    -0.492 OA
ATOM     23  C   UNL     1      48.772 -27.671   9.272  1.00  0.00     0.278 C 
ENDBRANCH  11  22
BRANCH   9  24
ATOM     24  O   UNL     1      51.410 -31.758   6.072  1.00  0.00    -0.490 OA
ATOM     25  C   UNL     1      51.028 -32.990   6.675  1.00  0.00     0.279 C 
ENDBRANCH   9  24
BRANCH  10  26
ATOM     26  O   UNL     1      51.349 -30.004   8.315  1.00  0.00    -0.490 OA
ATOM     27  C   UNL     1      50.904 -30.687   9.483  1.00  0.00     0.278 C 
ENDBRANCH  10  26
TORSDOF 6
ENDMDL
MODEL 3
REMARK VINA RESULT:    -4.433      1.067      3.609
REMARK INTER + INTRA:          -5.946
REMARK INTER:                  -6.916
REMARK INTRA:                   0.971
REMARK UNBOUND:                 0.042
REMARK SMILES COc1ccc(-c2cc(=O)c3c(OC)c(OC)c(OC)c(OC)c3o2)cc1
REMARK SMILES IDX 7 1 8 2 9 3 10 4 11 5 24 6 25 7 21 8 18 9 15 10 12 11 6 12
REMARK SMILES IDX 3 13 4 14 27 15 5 16 26 17 2 18 1 19 22 20 23 21 13 22 14 23
REMARK SMILES IDX 19 24 20 25 16 26 17 27
REMARK H PARENT
REMARK Flexibility Score: inf
ROOT
ATOM      1  C   UNL     1      46.616 -26.762   2.122  1.00  0.00     0.138 A 
ATOM      2  C   UNL     1      47.017 -26.159   3.321  1.00  0.00     0.100 A 
ATOM      3  C   UNL     1      47.964 -26.792   4.122  1.00  0.00     0.197 A 
ATOM      4  O   UNL     1      48.307 -26.236   5.201  1.00  0.00    -0.289 OA
ATOM      5  C   UNL     1      48.514 -28.032   3.717  1.00  0.00     0.115 A 
ATOM      6  C   UNL     1      48.086 -28.557   2.479  1.00  0.00     0.188 A 
ATOM      7  O   UNL     1      47.172 -27.912   1.754  1.00  0.00    -0.452 OA
ATOM      8  C   UNL     1      48.596 -29.772   2.005  1.00  0.00     0.209 A 
ATOM      9  C   UNL     1      49.493 -30.526   2.797  1.00  0.00     0.211 A 
ATOM     10  C   UNL     1      49.944 -30.001   4.039  1.00  0.00     0.208 A 
ATOM     11  C   UNL     1      49.451 -28.749   4.501  1.00  0.00     0.179 A 
ENDROOT
BRANCH   1  12
ATOM     12  C   UNL     1      45.584 -26.146   1.249  1.00  0.00     0.018 A 
ATOM     13  C   UNL     1      43.616 -24.920  -0.365  1.00  0.00     0.118 A 
ATOM     14  C   UNL     1      43.404 -25.091   1.006  1.00  0.00     0.047 A 
ATOM     15  C   UNL     1      44.825 -25.364  -0.931  1.00  0.00     0.047 A 
ATOM     16  C   UNL     1      44.379 -25.692   1.807  1.00  0.00     0.016 A 
ATOM     17  C   UNL     1      45.800 -25.968  -0.131  1.00  0.00     0.016 A 
BRANCH  13  18
ATOM     18  O   UNL     1      42.611 -24.305  -1.125  1.00  0.00    -0.497 OA
ATOM     19  C   UNL     1      41.671 -23.370  -0.608  1.00  0.00     0.278 C 
ENDBRANCH  13  18
ENDBRANCH   1  12
BRANCH   8  20
ATOM     20  O   UNL     1      48.197 -30.234   0.748  1.00  0.00    -0.490 OA
ATOM     21  C   UNL     1      46.880 -30.032   0.249  1.00  0.00     0.278 C 
ENDBRANCH   8  20
BRANCH  11  22
ATOM     22  O   UNL     1      49.846 -28.178   5.730  1.00  0.00    -0.492 OA
ATOM     23  C   UNL     1      49.402 -28.526   7.038  1.00  0.00     0.278 C 
ENDBRANCH  11  22
BRANCH   9  24
ATOM     24  O   UNL     1      49.962 -31.791   2.391  1.00  0.00    -0.490 OA
ATOM     25  C   UNL     1      49.611 -32.503   1.210  1.00  0.00     0.279 C 
ENDBRANCH   9  24
BRANCH  10  26
ATOM     26  O   UNL     1      50.875 -30.680   4.850  1.00  0.00    -0.490 OA
ATOM     27  C   UNL     1      50.613 -31.569   5.932  1.00  0.00     0.278 C 
ENDBRANCH  10  26
TORSDOF 6
ENDMDL
MODEL 4
REMARK VINA RESULT:    -4.198     14.142     15.773
REMARK INTER + INTRA:          -5.629
REMARK INTER:                  -5.564
REMARK INTRA:                  -0.066
REMARK UNBOUND:                 0.042
REMARK SMILES COc1ccc(-c2cc(=O)c3c(OC)c(OC)c(OC)c(OC)c3o2)cc1
REMARK SMILES IDX 7 1 8 2 9 3 10 4 11 5 24 6 25 7 21 8 18 9 15 10 12 11 6 12
REMARK SMILES IDX 3 13 4 14 27 15 5 16 26 17 2 18 1 19 22 20 23 21 13 22 14 23
REMARK SMILES IDX 19 24 20 25 16 26 17 27
REMARK H PARENT
REMARK Flexibility Score: inf
ROOT
ATOM      1  C   UNL     1      49.210 -27.512  17.856  1.00  0.00     0.138 A 
ATOM      2  C   UNL     1      47.939 -27.667  18.423  1.00  0.00     0.100 A 
ATOM      3  C   UNL     1      47.351 -28.929  18.451  1.00  0.00     0.197 A 
ATOM      4  O   UNL     1      46.202 -29.046  18.960  1.00  0.00    -0.289 OA
ATOM      5  C   UNL     1      48.042 -30.041  17.911  1.00  0.00     0.115 A 
ATOM      6  C   UNL     1      49.333 -29.810  17.390  1.00  0.00     0.188 A 
ATOM      7  O   UNL     1      49.846 -28.580  17.384  1.00  0.00    -0.452 OA
ATOM      8  C   UNL     1      50.083 -30.863  16.853  1.00  0.00     0.209 A 
ATOM      9  C   UNL     1      49.526 -32.159  16.757  1.00  0.00     0.211 A 
ATOM     10  C   UNL     1      48.232 -32.408  17.292  1.00  0.00     0.208 A 
ATOM     11  C   UNL     1      47.487 -31.343  17.870  1.00  0.00     0.179 A 
ENDROOT
BRANCH   1  12
ATOM     12  C   UNL     1      49.867 -26.183  17.770  1.00  0.00     0.018 A 
ATOM     13  C   UNL     1      51.077 -23.640  17.549  1.00  0.00     0.118 A 
ATOM     14  C   UNL     1      50.991 -24.484  16.438  1.00  0.00     0.047 A 
ATOM     15  C   UNL     1      50.549 -24.072  18.780  1.00  0.00     0.047 A 
ATOM     16  C   UNL     1      50.388 -25.740  16.544  1.00  0.00     0.016 A 
ATOM     17  C   UNL     1      49.948 -25.329  18.887  1.00  0.00     0.016 A 
BRANCH  13  18
ATOM     18  O   UNL     1      51.685 -22.386  17.390  1.00  0.00    -0.497 OA
ATOM     19  C   UNL     1      50.976 -21.166  17.208  1.00  0.00     0.278 C 
ENDBRANCH  13  18
ENDBRANCH   1  12
BRANCH   8  20
ATOM     20  O   UNL     1      51.381 -30.612  16.401  1.00  0.00    -0.490 OA
ATOM     21  C   UNL     1      51.684 -30.436  15.021  1.00  0.00     0.278 C 
ENDBRANCH   8  20
BRANCH  11  22
ATOM     22  O   UNL     1      46.193 -31.519  18.406  1.00  0.00    -0.492 OA
ATOM     23  C   UNL     1      44.953 -31.549  17.705  1.00  0.00     0.278 C 
ENDBRANCH  11  22
BRANCH   9  24
ATOM     24  O   UNL     1      50.218 -33.224  16.147  1.00  0.00    -0.490 OA
ATOM     25  C   UNL     1      51.137 -34.120  16.761  1.00  0.00     0.279 C 
ENDBRANCH   9  24
BRANCH  10  26
ATOM     26  O   UNL     1      47.643 -33.688  17.273  1.00  0.00    -0.490 OA
ATOM     27  C   UNL     1      46.509 -34.122  16.528  1.00  0.00     0.278 C 
ENDBRANCH  10  26
TORSDOF 6
ENDMDL
MODEL 5
REMARK VINA RESULT:    -3.009      1.492      2.177
REMARK INTER + INTRA:          -4.023
REMARK INTER:                  -3.859
REMARK INTRA:                  -0.164
REMARK UNBOUND:                 0.042
REMARK SMILES COc1ccc(-c2cc(=O)c3c(OC)c(OC)c(OC)c(OC)c3o2)cc1
REMARK SMILES IDX 7 1 8 2 9 3 10 4 11 5 24 6 25 7 21 8 18 9 15 10 12 11 6 12
REMARK SMILES IDX 3 13 4 14 27 15 5 16 26 17 2 18 1 19 22 20 23 21 13 22 14 23
REMARK SMILES IDX 19 24 20 25 16 26 17 27
REMARK H PARENT
REMARK Flexibility Score: inf
ROOT
ATOM      1  C   UNL     1      47.569 -28.374   2.516  1.00  0.00     0.138 A 
ATOM      2  C   UNL     1      48.677 -29.113   2.082  1.00  0.00     0.100 A 
ATOM      3  C   UNL     1      49.570 -29.622   3.021  1.00  0.00     0.197 A 
ATOM      4  O   UNL     1      50.566 -30.278   2.610  1.00  0.00    -0.289 OA
ATOM      5  C   UNL     1      49.348 -29.394   4.401  1.00  0.00     0.115 A 
ATOM      6  C   UNL     1      48.190 -28.672   4.760  1.00  0.00     0.188 A 
ATOM      7  O   UNL     1      47.371 -28.202   3.819  1.00  0.00    -0.452 OA
ATOM      8  C   UNL     1      47.896 -28.420   6.105  1.00  0.00     0.209 A 
ATOM      9  C   UNL     1      48.797 -28.821   7.120  1.00  0.00     0.211 A 
ATOM     10  C   UNL     1      49.959 -29.563   6.772  1.00  0.00     0.208 A 
ATOM     11  C   UNL     1      50.236 -29.848   5.407  1.00  0.00     0.179 A 
ENDROOT
BRANCH   1  12
ATOM     12  C   UNL     1      46.606 -27.780   1.554  1.00  0.00     0.018 A 
ATOM     13  C   UNL     1      44.721 -26.675  -0.237  1.00  0.00     0.118 A 
ATOM     14  C   UNL     1      44.614 -28.007   0.173  1.00  0.00     0.047 A 
ATOM     15  C   UNL     1      45.778 -25.889   0.257  1.00  0.00     0.047 A 
ATOM     16  C   UNL     1      45.543 -28.555   1.063  1.00  0.00     0.016 A 
ATOM     17  C   UNL     1      46.708 -26.436   1.146  1.00  0.00     0.016 A 
BRANCH  13  18
ATOM     18  O   UNL     1      43.760 -26.171  -1.125  1.00  0.00    -0.497 OA
ATOM     19  C   UNL     1      43.000 -24.988  -0.902  1.00  0.00     0.278 C 
ENDBRANCH  13  18
ENDBRANCH   1  12
BRANCH   8  20
ATOM     20  O   UNL     1      46.711 -27.755   6.430  1.00  0.00    -0.490 OA
ATOM     21  C   UNL     1      46.576 -26.344   6.314  1.00  0.00     0.278 C 
ENDBRANCH   8  20
BRANCH  11  22
ATOM     22  O   UNL     1      51.379 -30.567   4.992  1.00  0.00    -0.492 OA
ATOM     23  C   UNL     1      51.936 -31.737   5.583  1.00  0.00     0.278 C 
ENDBRANCH  11  22
BRANCH   9  24
ATOM     24  O   UNL     1      48.576 -28.512   8.476  1.00  0.00    -0.490 OA
ATOM     25  C   UNL     1      48.600 -27.224   9.082  1.00  0.00     0.279 C 
ENDBRANCH   9  24
BRANCH  10  26
ATOM     26  O   UNL     1      50.868 -30.034   7.740  1.00  0.00    -0.490 OA
ATOM     27  C   UNL     1      51.816 -29.285   8.494  1.00  0.00     0.278 C 
ENDBRANCH  10  26
TORSDOF 6
ENDMDL
