MODEL 1
REMARK VINA RESULT:    -3.617      0.000      0.000
REMARK INTER + INTRA:          -5.223
REMARK INTER:                  -4.886
REMARK INTRA:                  -0.337
REMARK UNBOUND:                -0.337
REMARK SMILES CCCCCCC=CC(=O)[O-]
REMARK SMILES IDX 5 1 6 2 7 3 8 4 9 5 10 6 11 7 4 8 3 9 2 10 1 11
REMARK H PARENT
REMARK Flexibility Score: inf
ROOT
ATOM      1  C   UNL     1      61.796  33.853  60.090  1.00  0.00     0.004 C 
ENDROOT
BRANCH   1   2
ATOM      2  C   UNL     1      61.087  32.725  60.856  1.00  0.00     0.027 C 
BRANCH   2   3
ATOM      3  C   UNL     1      62.043  31.620  61.202  1.00  0.00    -0.025 C 
ATOM      4  C   UNL     1      61.623  30.365  61.391  1.00  0.00     0.020 C 
BRANCH   4   5
ATOM      5  C   UNL     1      62.540  29.270  61.746  1.00  0.00     0.064 C 
ATOM      6  O   UNL     1      63.787  29.447  61.771  1.00  0.00    -0.545 OA
ATOM      7  O   UNL     1      62.022  28.019  62.056  1.00  0.00    -0.545 OA
ENDBRANCH   4   5
ENDBRANCH   2   3
ENDBRANCH   1   2
BRANCH   1   8
ATOM      8  C   UNL     1      61.513  35.246  60.681  1.00  0.00     0.000 C 
BRANCH   8   9
ATOM      9  C   UNL     1      62.715  35.917  61.372  1.00  0.00    -0.000 C 
BRANCH   9  10
ATOM     10  C   UNL     1      63.953  35.009  61.433  1.00  0.00    -0.003 C 
ATOM     11  C   UNL     1      65.139  35.739  62.057  1.00  0.00     0.004 C 
ENDBRANCH   9  10
ENDBRANCH   8   9
ENDBRANCH   1   8
TORSDOF 6
ENDMDL
MODEL 2
REMARK VINA RESULT:    -3.586     13.083     13.852
REMARK INTER + INTRA:          -5.182
REMARK INTER:                  -4.713
REMARK INTRA:                  -0.468
REMARK UNBOUND:                -0.337
REMARK SMILES CCCCCCC=CC(=O)[O-]
REMARK SMILES IDX 5 1 6 2 7 3 8 4 9 5 10 6 11 7 4 8 3 9 2 10 1 11
REMARK H PARENT
REMARK Flexibility Score: inf
ROOT
ATOM      1  C   UNL     1      58.229  29.192  49.645  1.00  0.00     0.004 C 
ENDROOT
BRANCH   1   2
ATOM      2  C   UNL     1      59.435  28.421  49.086  1.00  0.00     0.027 C 
BRANCH   2   3
ATOM      3  C   UNL     1      59.366  26.966  49.451  1.00  0.00    -0.025 C 
ATOM      4  C   UNL     1      60.473  26.248  49.672  1.00  0.00     0.020 C 
BRANCH   4   5
ATOM      5  C   UNL     1      60.429  24.817  50.016  1.00  0.00     0.064 C 
ATOM      6  O   UNL     1      59.366  24.276  50.421  1.00  0.00    -0.545 OA
ATOM      7  O   UNL     1      61.581  24.051  49.894  1.00  0.00    -0.545 OA
ENDBRANCH   4   5
ENDBRANCH   2   3
ENDBRANCH   1   2
BRANCH   1   8
ATOM      8  C   UNL     1      57.298  28.309  50.495  1.00  0.00     0.000 C 
BRANCH   8   9
ATOM      9  C   UNL     1      55.806  28.686  50.432  1.00  0.00    -0.000 C 
BRANCH   9  10
ATOM     10  C   UNL     1      54.900  27.493  50.093  1.00  0.00    -0.003 C 
ATOM     11  C   UNL     1      55.719  26.223  49.886  1.00  0.00     0.004 C 
ENDBRANCH   9  10
ENDBRANCH   8   9
ENDBRANCH   1   8
TORSDOF 6
ENDMDL
MODEL 3
REMARK VINA RESULT:    -3.570      3.484      5.551
REMARK INTER + INTRA:          -5.160
REMARK INTER:                  -4.844
REMARK INTRA:                  -0.316
REMARK UNBOUND:                -0.337
REMARK SMILES CCCCCCC=CC(=O)[O-]
REMARK SMILES IDX 5 1 6 2 7 3 8 4 9 5 10 6 11 7 4 8 3 9 2 10 1 11
REMARK H PARENT
REMARK Flexibility Score: inf
ROOT
ATOM      1  C   UNL     1      62.004  32.828  60.857  1.00  0.00     0.004 C 
ENDROOT
BRANCH   1   2
ATOM      2  C   UNL     1      61.484  34.272  60.787  1.00  0.00     0.027 C 
BRANCH   2   3
ATOM      3  C   UNL     1      62.579  35.258  61.076  1.00  0.00    -0.025 C 
ATOM      4  C   UNL     1      63.837  34.861  61.299  1.00  0.00     0.020 C 
BRANCH   4   5
ATOM      5  C   UNL     1      64.922  35.809  61.600  1.00  0.00     0.064 C 
ATOM      6  O   UNL     1      65.884  35.972  60.802  1.00  0.00    -0.545 OA
ATOM      7  O   UNL     1      64.888  36.532  62.784  1.00  0.00    -0.545 OA
ENDBRANCH   4   5
ENDBRANCH   2   3
ENDBRANCH   1   2
BRANCH   1   8
ATOM      8  C   UNL     1      60.914  31.818  61.256  1.00  0.00     0.000 C 
BRANCH   8   9
ATOM      9  C   UNL     1      61.427  30.555  61.972  1.00  0.00    -0.000 C 
BRANCH   9  10
ATOM     10  C   UNL     1      62.924  30.302  61.741  1.00  0.00    -0.003 C 
ATOM     11  C   UNL     1      63.198  28.823  61.484  1.00  0.00     0.004 C 
ENDBRANCH   9  10
ENDBRANCH   8   9
ENDBRANCH   1   8
TORSDOF 6
ENDMDL
MODEL 4
REMARK VINA RESULT:    -3.541     13.148     14.345
REMARK INTER + INTRA:          -5.120
REMARK INTER:                  -4.800
REMARK INTRA:                  -0.320
REMARK UNBOUND:                -0.337
REMARK SMILES CCCCCCC=CC(=O)[O-]
REMARK SMILES IDX 5 1 6 2 7 3 8 4 9 5 10 6 11 7 4 8 3 9 2 10 1 11
REMARK H PARENT
REMARK Flexibility Score: inf
ROOT
ATOM      1  C   UNL     1      56.705  27.928  50.406  1.00  0.00     0.004 C 
ENDROOT
BRANCH   1   2
ATOM      2  C   UNL     1      57.731  28.964  49.921  1.00  0.00     0.027 C 
BRANCH   2   3
ATOM      3  C   UNL     1      59.059  28.320  49.638  1.00  0.00    -0.025 C 
ATOM      4  C   UNL     1      59.280  27.028  49.904  1.00  0.00     0.020 C 
BRANCH   4   5
ATOM      5  C   UNL     1      60.578  26.381  49.650  1.00  0.00     0.064 C 
ATOM      6  O   UNL     1      61.592  27.058  49.333  1.00  0.00    -0.545 OA
ATOM      7  O   UNL     1      60.684  25.001  49.758  1.00  0.00    -0.545 OA
ENDBRANCH   4   5
ENDBRANCH   2   3
ENDBRANCH   1   2
BRANCH   1   8
ATOM      8  C   UNL     1      55.263  28.467  50.398  1.00  0.00     0.000 C 
BRANCH   8   9
ATOM      9  C   UNL     1      54.194  27.456  49.942  1.00  0.00    -0.000 C 
BRANCH   9  10
ATOM     10  C   UNL     1      54.764  26.052  49.694  1.00  0.00    -0.003 C 
ATOM     11  C   UNL     1      53.659  25.067  49.327  1.00  0.00     0.004 C 
ENDBRANCH   9  10
ENDBRANCH   8   9
ENDBRANCH   1   8
TORSDOF 6
ENDMDL
MODEL 5
REMARK VINA RESULT:    -3.493      3.552      5.652
REMARK INTER + INTRA:          -5.055
REMARK INTER:                  -4.467
REMARK INTRA:                  -0.589
REMARK UNBOUND:                -0.337
REMARK SMILES CCCCCCC=CC(=O)[O-]
REMARK SMILES IDX 5 1 6 2 7 3 8 4 9 5 10 6 11 7 4 8 3 9 2 10 1 11
REMARK H PARENT
REMARK Flexibility Score: inf
ROOT
ATOM      1  C   UNL     1      63.698  32.315  59.887  1.00  0.00     0.004 C 
ENDROOT
BRANCH   1   2
ATOM      2  C   UNL     1      64.375  33.050  61.054  1.00  0.00     0.027 C 
BRANCH   2   3
ATOM      3  C   UNL     1      63.708  34.368  61.325  1.00  0.00    -0.025 C 
ATOM      4  C   UNL     1      62.485  34.642  60.857  1.00  0.00     0.020 C 
BRANCH   4   5
ATOM      5  C   UNL     1      61.820  35.933  61.097  1.00  0.00     0.064 C 
ATOM      6  O   UNL     1      60.582  36.073  60.908  1.00  0.00    -0.545 OA
ATOM      7  O   UNL     1      62.570  37.016  61.538  1.00  0.00    -0.545 OA
ENDBRANCH   4   5
ENDBRANCH   2   3
ENDBRANCH   1   2
BRANCH   1   8
ATOM      8  C   UNL     1      63.466  30.821  60.174  1.00  0.00     0.000 C 
BRANCH   8   9
ATOM      9  C   UNL     1      63.322  30.460  61.664  1.00  0.00    -0.000 C 
BRANCH   9  10
ATOM     10  C   UNL     1      61.907  29.987  62.031  1.00  0.00    -0.003 C 
ATOM     11  C   UNL     1      60.898  31.124  61.906  1.00  0.00     0.004 C 
ENDBRANCH   9  10
ENDBRANCH   8   9
ENDBRANCH   1   8
TORSDOF 6
ENDMDL
MODEL 6
REMARK VINA RESULT:    -3.466      3.056      5.149
REMARK INTER + INTRA:          -5.019
REMARK INTER:                  -4.354
REMARK INTRA:                  -0.665
REMARK UNBOUND:                -0.337
REMARK SMILES CCCCCCC=CC(=O)[O-]
REMARK SMILES IDX 5 1 6 2 7 3 8 4 9 5 10 6 11 7 4 8 3 9 2 10 1 11
REMARK H PARENT
REMARK Flexibility Score: inf
ROOT
ATOM      1  C   UNL     1      60.771  31.649  61.232  1.00  0.00     0.004 C 
ENDROOT
BRANCH   1   2
ATOM      2  C   UNL     1      61.230  32.668  60.178  1.00  0.00     0.027 C 
BRANCH   2   3
ATOM      3  C   UNL     1      61.850  33.874  60.824  1.00  0.00    -0.025 C 
ATOM      4  C   UNL     1      63.175  34.061  60.829  1.00  0.00     0.020 C 
BRANCH   4   5
ATOM      5  C   UNL     1      63.805  35.227  61.469  1.00  0.00     0.064 C 
ATOM      6  O   UNL     1      64.952  35.148  61.983  1.00  0.00    -0.545 OA
ATOM      7  O   UNL     1      63.121  36.435  61.510  1.00  0.00    -0.545 OA
ENDBRANCH   4   5
ENDBRANCH   2   3
ENDBRANCH   1   2
BRANCH   1   8
ATOM      8  C   UNL     1      61.391  30.256  61.026  1.00  0.00     0.000 C 
BRANCH   8   9
ATOM      9  C   UNL     1      62.544  29.909  61.986  1.00  0.00    -0.000 C 
BRANCH   9  10
ATOM     10  C   UNL     1      63.907  30.419  61.493  1.00  0.00    -0.003 C 
ATOM     11  C   UNL     1      64.075  30.180  59.996  1.00  0.00     0.004 C 
ENDBRANCH   9  10
ENDBRANCH   8   9
ENDBRANCH   1   8
TORSDOF 6
ENDMDL
MODEL 7
REMARK VINA RESULT:    -3.425      1.554      2.053
REMARK INTER + INTRA:          -4.964
REMARK INTER:                  -4.332
REMARK INTRA:                  -0.632
REMARK UNBOUND:                -0.337
REMARK SMILES CCCCCCC=CC(=O)[O-]
REMARK SMILES IDX 5 1 6 2 7 3 8 4 9 5 10 6 11 7 4 8 3 9 2 10 1 11
REMARK H PARENT
REMARK Flexibility Score: inf
ROOT
ATOM      1  C   UNL     1      62.153  34.544  59.497  1.00  0.00     0.004 C 
ENDROOT
BRANCH   1   2
ATOM      2  C   UNL     1      61.626  33.823  60.748  1.00  0.00     0.027 C 
BRANCH   2   3
ATOM      3  C   UNL     1      62.270  32.476  60.909  1.00  0.00    -0.025 C 
ATOM      4  C   UNL     1      63.600  32.336  60.940  1.00  0.00     0.020 C 
BRANCH   4   5
ATOM      5  C   UNL     1      64.252  31.024  61.081  1.00  0.00     0.064 C 
ATOM      6  O   UNL     1      63.799  30.153  61.870  1.00  0.00    -0.545 OA
ATOM      7  O   UNL     1      65.388  30.743  60.333  1.00  0.00    -0.545 OA
ENDBRANCH   4   5
ENDBRANCH   2   3
ENDBRANCH   1   2
BRANCH   1   8
ATOM      8  C   UNL     1      62.858  35.872  59.824  1.00  0.00     0.000 C 
BRANCH   8   9
ATOM      9  C   UNL     1      62.714  36.343  61.283  1.00  0.00    -0.000 C 
BRANCH   9  10
ATOM     10  C   UNL     1      64.057  36.720  61.926  1.00  0.00    -0.003 C 
ATOM     11  C   UNL     1      65.011  35.529  61.944  1.00  0.00     0.004 C 
ENDBRANCH   9  10
ENDBRANCH   8   9
ENDBRANCH   1   8
TORSDOF 6
ENDMDL
MODEL 8
REMARK VINA RESULT:    -3.408      3.153      5.235
REMARK INTER + INTRA:          -4.941
REMARK INTER:                  -4.239
REMARK INTRA:                  -0.701
REMARK UNBOUND:                -0.337
REMARK SMILES CCCCCCC=CC(=O)[O-]
REMARK SMILES IDX 5 1 6 2 7 3 8 4 9 5 10 6 11 7 4 8 3 9 2 10 1 11
REMARK H PARENT
REMARK Flexibility Score: inf
ROOT
ATOM      1  C   UNL     1      63.773  30.008  60.544  1.00  0.00     0.004 C 
ENDROOT
BRANCH   1   2
ATOM      2  C   UNL     1      64.742  31.167  60.262  1.00  0.00     0.027 C 
BRANCH   2   3
ATOM      3  C   UNL     1      64.426  32.359  61.119  1.00  0.00    -0.025 C 
ATOM      4  C   UNL     1      64.089  33.536  60.582  1.00  0.00     0.020 C 
BRANCH   4   5
ATOM      5  C   UNL     1      63.791  34.721  61.403  1.00  0.00     0.064 C 
ATOM      6  O   UNL     1      64.657  35.216  62.172  1.00  0.00    -0.545 OA
ATOM      7  O   UNL     1      62.531  35.302  61.330  1.00  0.00    -0.545 OA
ENDBRANCH   4   5
ENDBRANCH   2   3
ENDBRANCH   1   2
BRANCH   1   8
ATOM      8  C   UNL     1      63.028  30.164  61.882  1.00  0.00     0.000 C 
BRANCH   8   9
ATOM      9  C   UNL     1      61.492  30.180  61.773  1.00  0.00    -0.000 C 
BRANCH   9  10
ATOM     10  C   UNL     1      60.919  31.595  61.593  1.00  0.00    -0.003 C 
ATOM     11  C   UNL     1      60.625  31.886  60.125  1.00  0.00     0.004 C 
ENDBRANCH   9  10
ENDBRANCH   8   9
ENDBRANCH   1   8
TORSDOF 6
ENDMDL
MODEL 9
REMARK VINA RESULT:    -3.405      1.438      2.279
REMARK INTER + INTRA:          -4.937
REMARK INTER:                  -4.622
REMARK INTRA:                  -0.315
REMARK UNBOUND:                -0.337
REMARK SMILES CCCCCCC=CC(=O)[O-]
REMARK SMILES IDX 5 1 6 2 7 3 8 4 9 5 10 6 11 7 4 8 3 9 2 10 1 11
REMARK H PARENT
REMARK Flexibility Score: inf
ROOT
ATOM      1  C   UNL     1      61.133  32.163  60.912  1.00  0.00     0.004 C 
ENDROOT
BRANCH   1   2
ATOM      2  C   UNL     1      60.842  31.132  62.013  1.00  0.00     0.027 C 
BRANCH   2   3
ATOM      3  C   UNL     1      61.867  30.033  62.011  1.00  0.00    -0.025 C 
ATOM      4  C   UNL     1      61.693  28.916  61.297  1.00  0.00     0.020 C 
BRANCH   4   5
ATOM      5  C   UNL     1      62.676  27.821  61.293  1.00  0.00     0.064 C 
ATOM      6  O   UNL     1      62.579  26.855  62.095  1.00  0.00    -0.545 OA
ATOM      7  O   UNL     1      63.731  27.854  60.390  1.00  0.00    -0.545 OA
ENDBRANCH   4   5
ENDBRANCH   2   3
ENDBRANCH   1   2
BRANCH   1   8
ATOM      8  C   UNL     1      62.634  32.466  60.757  1.00  0.00     0.000 C 
BRANCH   8   9
ATOM      9  C   UNL     1      63.024  33.943  60.949  1.00  0.00    -0.000 C 
BRANCH   9  10
ATOM     10  C   UNL     1      61.822  34.896  60.861  1.00  0.00    -0.003 C 
ATOM     11  C   UNL     1      62.217  36.317  61.247  1.00  0.00     0.004 C 
ENDBRANCH   9  10
ENDBRANCH   8   9
ENDBRANCH   1   8
TORSDOF 6
ENDMDL
