MODEL 1
REMARK VINA RESULT:    -4.887      0.000      0.000
REMARK INTER + INTRA:          -6.175
REMARK INTER:                  -6.030
REMARK INTRA:                  -0.145
REMARK UNBOUND:                -0.145
REMARK SMILES COc1cc(-c2oc3cc(O)cc(O)c3c(=O)c2O)ccc1O
REMARK SMILES IDX 6 1 18 2 16 3 17 4 15 5 13 6 12 7 10 8 9 9 8 10 7 11 5 12
REMARK SMILES IDX 3 13 22 14 4 15 21 16 20 17 2 18 1 19 23 20 19 22 14 24
REMARK SMILES IDX 11 26
REMARK H PARENT 23 21 19 23 14 25 11 27
REMARK Flexibility Score: inf
ROOT
ATOM      1  C   UNL     1      20.473  -3.214  19.997  1.00  0.00     0.180 A 
ATOM      2  C   UNL     1      21.251  -3.597  18.891  1.00  0.00     0.208 A 
ATOM      3  C   UNL     1      22.042  -4.753  18.981  1.00  0.00     0.238 A 
ATOM      4  O   UNL     1      22.793  -5.047  18.015  1.00  0.00    -0.285 OA
ATOM      5  C   UNL     1      22.003  -5.544  20.155  1.00  0.00     0.111 A 
ATOM      6  C   UNL     1      22.728  -6.760  20.340  1.00  0.00     0.134 A 
ATOM      7  C   UNL     1      22.695  -7.402  21.584  1.00  0.00     0.093 A 
ATOM      8  C   UNL     1      21.911  -6.907  22.629  1.00  0.00     0.123 A 
ATOM      9  C   UNL     1      21.157  -5.752  22.441  1.00  0.00     0.094 A 
ATOM     10  C   UNL     1      21.200  -5.068  21.225  1.00  0.00     0.146 A 
ATOM     11  O   UNL     1      20.482  -3.959  21.096  1.00  0.00    -0.452 OA
ENDROOT
BRANCH   1  12
ATOM     12  C   UNL     1      19.624  -2.001  19.983  1.00  0.00     0.025 A 
ATOM     13  C   UNL     1      17.439  -0.964  20.343  1.00  0.00     0.161 A 
ATOM     14  C   UNL     1      17.992   0.291  20.028  1.00  0.00     0.157 A 
ATOM     15  C   UNL     1      18.266  -2.105  20.325  1.00  0.00     0.062 A 
ATOM     16  C   UNL     1      19.349   0.396  19.708  1.00  0.00     0.051 A 
ATOM     17  C   UNL     1      20.163  -0.737  19.691  1.00  0.00     0.016 A 
BRANCH  13  18
ATOM     18  O   UNL     1      16.075  -1.039  20.668  1.00  0.00    -0.493 OA
ATOM     19  C   UNL     1      15.302  -2.235  20.636  1.00  0.00     0.278 C 
ENDBRANCH  13  18
BRANCH  14  20
ATOM     20  O   UNL     1      17.210   1.446  20.033  1.00  0.00    -0.504 OA
ATOM     21  H   UNL     1      17.605   2.365  19.879  1.00  0.00     0.293 HD
ENDBRANCH  14  20
ENDBRANCH   1  12
BRANCH   2  22
ATOM     22  O   UNL     1      21.218  -2.844  17.713  1.00  0.00    -0.502 OA
ATOM     23  H   UNL     1      21.414  -1.851  17.698  1.00  0.00     0.293 HD
ENDBRANCH   2  22
BRANCH   6  24
ATOM     24  O   UNL     1      23.472  -7.389  19.337  1.00  0.00    -0.507 OA
ATOM     25  H   UNL     1      24.438  -7.666  19.422  1.00  0.00     0.293 HD
ENDBRANCH   6  24
BRANCH   8  26
ATOM     26  O   UNL     1      21.870  -7.562  23.858  1.00  0.00    -0.508 OA
ATOM     27  H   UNL     1      21.812  -7.050  24.731  1.00  0.00     0.293 HD
ENDBRANCH   8  26
TORSDOF 6
ENDMDL
MODEL 2
REMARK VINA RESULT:    -4.752      1.164      2.872
REMARK INTER + INTRA:          -6.007
REMARK INTER:                  -5.812
REMARK INTRA:                  -0.196
REMARK UNBOUND:                -0.145
REMARK SMILES COc1cc(-c2oc3cc(O)cc(O)c3c(=O)c2O)ccc1O
REMARK SMILES IDX 6 1 18 2 16 3 17 4 15 5 13 6 12 7 10 8 9 9 8 10 7 11 5 12
REMARK SMILES IDX 3 13 22 14 4 15 21 16 20 17 2 18 1 19 23 20 19 22 14 24
REMARK SMILES IDX 11 26
REMARK H PARENT 23 21 19 23 14 25 11 27
REMARK Flexibility Score: inf
ROOT
ATOM      1  C   UNL     1      20.363  -3.280  20.409  1.00  0.00     0.180 A 
ATOM      2  C   UNL     1      20.357  -4.123  21.533  1.00  0.00     0.208 A 
ATOM      3  C   UNL     1      21.157  -5.276  21.525  1.00  0.00     0.238 A 
ATOM      4  O   UNL     1      21.089  -6.065  22.504  1.00  0.00    -0.285 OA
ATOM      5  C   UNL     1      21.995  -5.546  20.416  1.00  0.00     0.111 A 
ATOM      6  C   UNL     1      22.880  -6.661  20.318  1.00  0.00     0.134 A 
ATOM      7  C   UNL     1      23.584  -6.883  19.127  1.00  0.00     0.093 A 
ATOM      8  C   UNL     1      23.483  -5.993  18.055  1.00  0.00     0.123 A 
ATOM      9  C   UNL     1      22.663  -4.873  18.161  1.00  0.00     0.094 A 
ATOM     10  C   UNL     1      21.920  -4.645  19.321  1.00  0.00     0.146 A 
ATOM     11  O   UNL     1      21.136  -3.575  19.370  1.00  0.00    -0.452 OA
ENDROOT
BRANCH   1  12
ATOM     12  C   UNL     1      19.537  -2.053  20.338  1.00  0.00     0.025 A 
ATOM     13  C   UNL     1      17.327  -1.007  20.350  1.00  0.00     0.161 A 
ATOM     14  C   UNL     1      17.935   0.259  20.269  1.00  0.00     0.157 A 
ATOM     15  C   UNL     1      18.138  -2.159  20.391  1.00  0.00     0.062 A 
ATOM     16  C   UNL     1      19.329   0.365  20.237  1.00  0.00     0.051 A 
ATOM     17  C   UNL     1      20.127  -0.779  20.278  1.00  0.00     0.016 A 
BRANCH  13  18
ATOM     18  O   UNL     1      15.925  -1.082  20.387  1.00  0.00    -0.493 OA
ATOM     19  C   UNL     1      15.189  -2.251  20.735  1.00  0.00     0.278 C 
ENDBRANCH  13  18
BRANCH  14  20
ATOM     20  O   UNL     1      17.171   1.425  20.225  1.00  0.00    -0.504 OA
ATOM     21  H   UNL     1      16.219   1.460  20.568  1.00  0.00     0.293 HD
ENDBRANCH  14  20
ENDBRANCH   1  12
BRANCH   2  22
ATOM     22  O   UNL     1      19.580  -3.800  22.650  1.00  0.00    -0.502 OA
ATOM     23  H   UNL     1      18.928  -3.026  22.653  1.00  0.00     0.293 HD
ENDBRANCH   2  22
BRANCH   6  24
ATOM     24  O   UNL     1      23.124  -7.562  21.360  1.00  0.00    -0.507 OA
ATOM     25  H   UNL     1      23.251  -7.304  22.327  1.00  0.00     0.293 HD
ENDBRANCH   6  24
BRANCH   8  26
ATOM     26  O   UNL     1      24.199  -6.213  16.880  1.00  0.00    -0.508 OA
ATOM     27  H   UNL     1      23.923  -5.787  16.003  1.00  0.00     0.293 HD
ENDBRANCH   8  26
TORSDOF 6
ENDMDL
MODEL 3
REMARK VINA RESULT:    -4.749      2.195      7.347
REMARK INTER + INTRA:          -6.005
REMARK INTER:                  -5.845
REMARK INTRA:                  -0.160
REMARK UNBOUND:                -0.145
REMARK SMILES COc1cc(-c2oc3cc(O)cc(O)c3c(=O)c2O)ccc1O
REMARK SMILES IDX 6 1 18 2 16 3 17 4 15 5 13 6 12 7 10 8 9 9 8 10 7 11 5 12
REMARK SMILES IDX 3 13 22 14 4 15 21 16 20 17 2 18 1 19 23 20 19 22 14 24
REMARK SMILES IDX 11 26
REMARK H PARENT 23 21 19 23 14 25 11 27
REMARK Flexibility Score: inf
ROOT
ATOM      1  C   UNL     1      21.165  -2.627  19.541  1.00  0.00     0.180 A 
ATOM      2  C   UNL     1      20.257  -3.183  20.458  1.00  0.00     0.208 A 
ATOM      3  C   UNL     1      19.094  -2.469  20.785  1.00  0.00     0.238 A 
ATOM      4  O   UNL     1      18.324  -2.939  21.663  1.00  0.00    -0.285 OA
ATOM      5  C   UNL     1      18.823  -1.233  20.149  1.00  0.00     0.111 A 
ATOM      6  C   UNL     1      17.654  -0.445  20.370  1.00  0.00     0.134 A 
ATOM      7  C   UNL     1      17.544   0.813  19.764  1.00  0.00     0.093 A 
ATOM      8  C   UNL     1      18.532   1.283  18.894  1.00  0.00     0.123 A 
ATOM      9  C   UNL     1      19.651   0.497  18.631  1.00  0.00     0.094 A 
ATOM     10  C   UNL     1      19.807  -0.745  19.249  1.00  0.00     0.146 A 
ATOM     11  O   UNL     1      20.900  -1.451  18.985  1.00  0.00    -0.452 OA
ENDROOT
BRANCH   1  12
ATOM     12  C   UNL     1      22.419  -3.314  19.157  1.00  0.00     0.025 A 
ATOM     13  C   UNL     1      23.531  -5.245  18.148  1.00  0.00     0.161 A 
ATOM     14  C   UNL     1      24.777  -4.624  18.355  1.00  0.00     0.157 A 
ATOM     15  C   UNL     1      22.355  -4.577  18.547  1.00  0.00     0.062 A 
ATOM     16  C   UNL     1      24.838  -3.358  18.944  1.00  0.00     0.051 A 
ATOM     17  C   UNL     1      23.671  -2.702  19.336  1.00  0.00     0.016 A 
BRANCH  13  18
ATOM     18  O   UNL     1      23.499  -6.513  17.548  1.00  0.00    -0.493 OA
ATOM     19  C   UNL     1      23.477  -7.745  18.264  1.00  0.00     0.278 C 
ENDBRANCH  13  18
BRANCH  14  20
ATOM     20  O   UNL     1      25.965  -5.249  17.978  1.00  0.00    -0.504 OA
ATOM     21  H   UNL     1      25.991  -5.985  17.283  1.00  0.00     0.293 HD
ENDBRANCH  14  20
ENDBRANCH   1  12
BRANCH   2  22
ATOM     22  O   UNL     1      20.505  -4.441  21.018  1.00  0.00    -0.502 OA
ATOM     23  H   UNL     1      19.766  -5.106  21.206  1.00  0.00     0.293 HD
ENDBRANCH   2  22
BRANCH   6  24
ATOM     24  O   UNL     1      16.567  -0.855  21.148  1.00  0.00    -0.507 OA
ATOM     25  H   UNL     1      16.335  -0.484  22.056  1.00  0.00     0.293 HD
ENDBRANCH   6  24
BRANCH   8  26
ATOM     26  O   UNL     1      18.406   2.528  18.283  1.00  0.00    -0.508 OA
ATOM     27  H   UNL     1      18.579   3.388  18.791  1.00  0.00     0.293 HD
ENDBRANCH   8  26
TORSDOF 6
ENDMDL
MODEL 4
REMARK VINA RESULT:    -4.688      1.494      6.900
REMARK INTER + INTRA:          -5.928
REMARK INTER:                  -5.662
REMARK INTRA:                  -0.267
REMARK UNBOUND:                -0.145
REMARK SMILES COc1cc(-c2oc3cc(O)cc(O)c3c(=O)c2O)ccc1O
REMARK SMILES IDX 6 1 18 2 16 3 17 4 15 5 13 6 12 7 10 8 9 9 8 10 7 11 5 12
REMARK SMILES IDX 3 13 22 14 4 15 21 16 20 17 2 18 1 19 23 20 19 22 14 24
REMARK SMILES IDX 11 26
REMARK H PARENT 23 21 19 23 14 25 11 27
REMARK Flexibility Score: inf
ROOT
ATOM      1  C   UNL     1      20.647  -2.884  19.947  1.00  0.00     0.180 A 
ATOM      2  C   UNL     1      21.125  -1.568  20.065  1.00  0.00     0.208 A 
ATOM      3  C   UNL     1      20.211  -0.529  20.294  1.00  0.00     0.238 A 
ATOM      4  O   UNL     1      20.637   0.655  20.323  1.00  0.00    -0.285 OA
ATOM      5  C   UNL     1      18.835  -0.823  20.458  1.00  0.00     0.111 A 
ATOM      6  C   UNL     1      17.825   0.146  20.738  1.00  0.00     0.134 A 
ATOM      7  C   UNL     1      16.481  -0.248  20.775  1.00  0.00     0.093 A 
ATOM      8  C   UNL     1      16.118  -1.586  20.605  1.00  0.00     0.123 A 
ATOM      9  C   UNL     1      17.101  -2.547  20.385  1.00  0.00     0.094 A 
ATOM     10  C   UNL     1      18.446  -2.180  20.306  1.00  0.00     0.146 A 
ATOM     11  O   UNL     1      19.348  -3.125  20.073  1.00  0.00    -0.452 OA
ENDROOT
BRANCH   1  12
ATOM     12  C   UNL     1      21.548  -4.031  19.692  1.00  0.00     0.025 A 
ATOM     13  C   UNL     1      22.472  -6.176  20.418  1.00  0.00     0.161 A 
ATOM     14  C   UNL     1      23.202  -6.258  19.218  1.00  0.00     0.157 A 
ATOM     15  C   UNL     1      21.641  -5.060  20.644  1.00  0.00     0.062 A 
ATOM     16  C   UNL     1      23.093  -5.244  18.263  1.00  0.00     0.051 A 
ATOM     17  C   UNL     1      22.268  -4.141  18.492  1.00  0.00     0.016 A 
BRANCH  13  18
ATOM     18  O   UNL     1      22.596  -7.213  21.357  1.00  0.00    -0.493 OA
ATOM     19  C   UNL     1      21.676  -8.293  21.493  1.00  0.00     0.278 C 
ENDBRANCH  13  18
BRANCH  14  20
ATOM     20  O   UNL     1      24.037  -7.344  18.955  1.00  0.00    -0.504 OA
ATOM     21  H   UNL     1      24.445  -7.502  18.041  1.00  0.00     0.293 HD
ENDBRANCH  14  20
ENDBRANCH   1  12
BRANCH   2  22
ATOM     22  O   UNL     1      22.496  -1.307  19.976  1.00  0.00    -0.502 OA
ATOM     23  H   UNL     1      22.879  -0.376  20.078  1.00  0.00     0.293 HD
ENDBRANCH   2  22
BRANCH   6  24
ATOM     24  O   UNL     1      18.084   1.493  21.011  1.00  0.00    -0.507 OA
ATOM     25  H   UNL     1      17.536   2.267  20.667  1.00  0.00     0.293 HD
ENDBRANCH   6  24
BRANCH   8  26
ATOM     26  O   UNL     1      14.780  -1.971  20.660  1.00  0.00    -0.508 OA
ATOM     27  H   UNL     1      14.214  -2.045  19.822  1.00  0.00     0.293 HD
ENDBRANCH   8  26
TORSDOF 6
ENDMDL
MODEL 5
REMARK VINA RESULT:    -4.682      3.343      4.792
REMARK INTER + INTRA:          -5.922
REMARK INTER:                  -5.559
REMARK INTRA:                  -0.363
REMARK UNBOUND:                -0.145
REMARK SMILES COc1cc(-c2oc3cc(O)cc(O)c3c(=O)c2O)ccc1O
REMARK SMILES IDX 6 1 18 2 16 3 17 4 15 5 13 6 12 7 10 8 9 9 8 10 7 11 5 12
REMARK SMILES IDX 3 13 22 14 4 15 21 16 20 17 2 18 1 19 23 20 19 22 14 24
REMARK SMILES IDX 11 26
REMARK H PARENT 23 21 19 23 14 25 11 27
REMARK Flexibility Score: inf
ROOT
ATOM      1  C   UNL     1      22.794  -5.928  19.068  1.00  0.00     0.180 A 
ATOM      2  C   UNL     1      23.456  -6.707  18.103  1.00  0.00     0.208 A 
ATOM      3  C   UNL     1      23.603  -8.085  18.324  1.00  0.00     0.238 A 
ATOM      4  O   UNL     1      24.262  -8.763  17.493  1.00  0.00    -0.285 OA
ATOM      5  C   UNL     1      23.038  -8.679  19.479  1.00  0.00     0.111 A 
ATOM      6  C   UNL     1      23.087 -10.073  19.782  1.00  0.00     0.134 A 
ATOM      7  C   UNL     1      22.585 -10.532  21.007  1.00  0.00     0.093 A 
ATOM      8  C   UNL     1      21.979  -9.655  21.910  1.00  0.00     0.123 A 
ATOM      9  C   UNL     1      21.877  -8.302  21.599  1.00  0.00     0.094 A 
ATOM     10  C   UNL     1      22.402  -7.808  20.402  1.00  0.00     0.146 A 
ATOM     11  O   UNL     1      22.302  -6.508  20.156  1.00  0.00    -0.452 OA
ENDROOT
BRANCH   1  12
ATOM     12  C   UNL     1      22.611  -4.467  18.912  1.00  0.00     0.025 A 
ATOM     13  C   UNL     1      23.547  -2.210  19.027  1.00  0.00     0.161 A 
ATOM     14  C   UNL     1      22.324  -1.689  18.569  1.00  0.00     0.157 A 
ATOM     15  C   UNL     1      23.684  -3.604  19.188  1.00  0.00     0.062 A 
ATOM     16  C   UNL     1      21.262  -2.550  18.275  1.00  0.00     0.051 A 
ATOM     17  C   UNL     1      21.404  -3.929  18.437  1.00  0.00     0.016 A 
BRANCH  13  18
ATOM     18  O   UNL     1      24.598  -1.323  19.307  1.00  0.00    -0.493 OA
ATOM     19  C   UNL     1      25.658  -1.015  18.407  1.00  0.00     0.278 C 
ENDBRANCH  13  18
BRANCH  14  20
ATOM     20  O   UNL     1      22.144  -0.317  18.396  1.00  0.00    -0.504 OA
ATOM     21  H   UNL     1      22.115   0.327  19.177  1.00  0.00     0.293 HD
ENDBRANCH  14  20
ENDBRANCH   1  12
BRANCH   2  22
ATOM     22  O   UNL     1      23.940  -6.115  16.932  1.00  0.00    -0.502 OA
ATOM     23  H   UNL     1      23.757  -5.147  16.697  1.00  0.00     0.293 HD
ENDBRANCH   2  22
BRANCH   6  24
ATOM     24  O   UNL     1      23.590 -11.047  18.914  1.00  0.00    -0.507 OA
ATOM     25  H   UNL     1      23.026 -11.651  18.336  1.00  0.00     0.293 HD
ENDBRANCH   6  24
BRANCH   8  26
ATOM     26  O   UNL     1      21.467 -10.123  23.119  1.00  0.00    -0.508 OA
ATOM     27  H   UNL     1      21.513  -9.567  23.965  1.00  0.00     0.293 HD
ENDBRANCH   8  26
TORSDOF 6
ENDMDL
MODEL 6
REMARK VINA RESULT:    -4.654     13.418     15.579
REMARK INTER + INTRA:          -5.887
REMARK INTER:                  -5.527
REMARK INTRA:                  -0.360
REMARK UNBOUND:                -0.145
REMARK SMILES COc1cc(-c2oc3cc(O)cc(O)c3c(=O)c2O)ccc1O
REMARK SMILES IDX 6 1 18 2 16 3 17 4 15 5 13 6 12 7 10 8 9 9 8 10 7 11 5 12
REMARK SMILES IDX 3 13 22 14 4 15 21 16 20 17 2 18 1 19 23 20 19 22 14 24
REMARK SMILES IDX 11 26
REMARK H PARENT 23 21 19 23 14 25 11 27
REMARK Flexibility Score: inf
ROOT
ATOM      1  C   UNL     1      13.478  -8.226   9.338  1.00  0.00     0.180 A 
ATOM      2  C   UNL     1      12.511  -7.663  10.188  1.00  0.00     0.208 A 
ATOM      3  C   UNL     1      12.362  -6.268  10.220  1.00  0.00     0.238 A 
ATOM      4  O   UNL     1      11.547  -5.766  11.039  1.00  0.00    -0.285 OA
ATOM      5  C   UNL     1      13.141  -5.454   9.362  1.00  0.00     0.111 A 
ATOM      6  C   UNL     1      13.042  -4.033   9.278  1.00  0.00     0.134 A 
ATOM      7  C   UNL     1      13.939  -3.324   8.468  1.00  0.00     0.093 A 
ATOM      8  C   UNL     1      14.888  -3.992   7.690  1.00  0.00     0.123 A 
ATOM      9  C   UNL     1      14.957  -5.382   7.724  1.00  0.00     0.094 A 
ATOM     10  C   UNL     1      14.102  -6.114   8.551  1.00  0.00     0.146 A 
ATOM     11  O   UNL     1      14.216  -7.436   8.567  1.00  0.00    -0.452 OA
ENDROOT
BRANCH   1  12
ATOM     12  C   UNL     1      13.703  -9.687   9.258  1.00  0.00     0.025 A 
ATOM     13  C   UNL     1      13.039 -11.869   8.374  1.00  0.00     0.161 A 
ATOM     14  C   UNL     1      14.134 -12.459   9.031  1.00  0.00     0.157 A 
ATOM     15  C   UNL     1      12.836 -10.479   8.488  1.00  0.00     0.062 A 
ATOM     16  C   UNL     1      15.009 -11.667   9.781  1.00  0.00     0.051 A 
ATOM     17  C   UNL     1      14.802 -10.292   9.890  1.00  0.00     0.016 A 
BRANCH  13  18
ATOM     18  O   UNL     1      12.181 -12.687   7.622  1.00  0.00    -0.493 OA
ATOM     19  C   UNL     1      10.941 -13.205   8.093  1.00  0.00     0.278 C 
ENDBRANCH  13  18
BRANCH  14  20
ATOM     20  O   UNL     1      14.372 -13.830   8.947  1.00  0.00    -0.504 OA
ATOM     21  H   UNL     1      13.795 -14.445   8.387  1.00  0.00     0.293 HD
ENDBRANCH  14  20
ENDBRANCH   1  12
BRANCH   2  22
ATOM     22  O   UNL     1      11.698  -8.487  10.973  1.00  0.00    -0.502 OA
ATOM     23  H   UNL     1      12.055  -9.305  11.451  1.00  0.00     0.293 HD
ENDBRANCH   2  22
BRANCH   6  24
ATOM     24  O   UNL     1      12.073  -3.274   9.942  1.00  0.00    -0.507 OA
ATOM     25  H   UNL     1      11.237  -3.648  10.364  1.00  0.00     0.293 HD
ENDBRANCH   6  24
BRANCH   8  26
ATOM     26  O   UNL     1      15.765  -3.280   6.875  1.00  0.00    -0.508 OA
ATOM     27  H   UNL     1      16.763  -3.263   7.055  1.00  0.00     0.293 HD
ENDBRANCH   8  26
TORSDOF 6
ENDMDL
MODEL 7
REMARK VINA RESULT:    -4.638      1.573      7.129
REMARK INTER + INTRA:          -5.867
REMARK INTER:                  -5.999
REMARK INTRA:                   0.132
REMARK UNBOUND:                -0.145
REMARK SMILES COc1cc(-c2oc3cc(O)cc(O)c3c(=O)c2O)ccc1O
REMARK SMILES IDX 6 1 18 2 16 3 17 4 15 5 13 6 12 7 10 8 9 9 8 10 7 11 5 12
REMARK SMILES IDX 3 13 22 14 4 15 21 16 20 17 2 18 1 19 23 20 19 22 14 24
REMARK SMILES IDX 11 26
REMARK H PARENT 23 21 19 23 14 25 11 27
REMARK Flexibility Score: inf
ROOT
ATOM      1  C   UNL     1      20.937  -2.998  19.510  1.00  0.00     0.180 A 
ATOM      2  C   UNL     1      21.504  -1.853  18.926  1.00  0.00     0.208 A 
ATOM      3  C   UNL     1      20.764  -0.661  18.904  1.00  0.00     0.238 A 
ATOM      4  O   UNL     1      21.246   0.340  18.313  1.00  0.00    -0.285 OA
ATOM      5  C   UNL     1      19.487  -0.612  19.517  1.00  0.00     0.111 A 
ATOM      6  C   UNL     1      18.668   0.554  19.595  1.00  0.00     0.134 A 
ATOM      7  C   UNL     1      17.377   0.457  20.132  1.00  0.00     0.093 A 
ATOM      8  C   UNL     1      16.903  -0.750  20.653  1.00  0.00     0.123 A 
ATOM      9  C   UNL     1      17.716  -1.880  20.631  1.00  0.00     0.094 A 
ATOM     10  C   UNL     1      18.993  -1.824  20.067  1.00  0.00     0.146 A 
ATOM     11  O   UNL     1      19.726  -2.930  20.049  1.00  0.00    -0.452 OA
ENDROOT
BRANCH   1  12
ATOM     12  C   UNL     1      21.651  -4.294  19.559  1.00  0.00     0.025 A 
ATOM     13  C   UNL     1      23.146  -5.909  18.491  1.00  0.00     0.161 A 
ATOM     14  C   UNL     1      23.074  -6.721  19.638  1.00  0.00     0.157 A 
ATOM     15  C   UNL     1      22.436  -4.692  18.464  1.00  0.00     0.062 A 
ATOM     16  C   UNL     1      22.309  -6.315  20.735  1.00  0.00     0.051 A 
ATOM     17  C   UNL     1      21.608  -5.109  20.702  1.00  0.00     0.016 A 
BRANCH  13  18
ATOM     18  O   UNL     1      23.928  -6.339  17.407  1.00  0.00    -0.493 OA
ATOM     19  C   UNL     1      25.250  -5.885  17.134  1.00  0.00     0.278 C 
ENDBRANCH  13  18
BRANCH  14  20
ATOM     20  O   UNL     1      23.759  -7.934  19.707  1.00  0.00    -0.504 OA
ATOM     21  H   UNL     1      23.427  -8.710  20.266  1.00  0.00     0.293 HD
ENDBRANCH  14  20
ENDBRANCH   1  12
BRANCH   2  22
ATOM     22  O   UNL     1      22.796  -1.901  18.393  1.00  0.00    -0.502 OA
ATOM     23  H   UNL     1      23.018  -1.542  17.473  1.00  0.00     0.293 HD
ENDBRANCH   2  22
BRANCH   6  24
ATOM     24  O   UNL     1      19.075   1.827  19.186  1.00  0.00    -0.507 OA
ATOM     25  H   UNL     1      18.616   2.380  18.478  1.00  0.00     0.293 HD
ENDBRANCH   6  24
BRANCH   8  26
ATOM     26  O   UNL     1      15.625  -0.833  21.201  1.00  0.00    -0.508 OA
ATOM     27  H   UNL     1      15.389  -1.535  21.893  1.00  0.00     0.293 HD
ENDBRANCH   8  26
TORSDOF 6
ENDMDL
MODEL 8
REMARK VINA RESULT:    -4.609      2.391      7.538
REMARK INTER + INTRA:          -5.831
REMARK INTER:                  -5.433
REMARK INTRA:                  -0.398
REMARK UNBOUND:                -0.145
REMARK SMILES COc1cc(-c2oc3cc(O)cc(O)c3c(=O)c2O)ccc1O
REMARK SMILES IDX 6 1 18 2 16 3 17 4 15 5 13 6 12 7 10 8 9 9 8 10 7 11 5 12
REMARK SMILES IDX 3 13 22 14 4 15 21 16 20 17 2 18 1 19 23 20 19 22 14 24
REMARK SMILES IDX 11 26
REMARK H PARENT 23 21 19 23 14 25 11 27
REMARK Flexibility Score: inf
ROOT
ATOM      1  C   UNL     1      20.482  -2.292  19.909  1.00  0.00     0.180 A 
ATOM      2  C   UNL     1      19.485  -2.716  20.804  1.00  0.00     0.208 A 
ATOM      3  C   UNL     1      18.399  -1.866  21.067  1.00  0.00     0.238 A 
ATOM      4  O   UNL     1      17.549  -2.220  21.925  1.00  0.00    -0.285 OA
ATOM      5  C   UNL     1      18.295  -0.626  20.391  1.00  0.00     0.111 A 
ATOM      6  C   UNL     1      17.216   0.295  20.547  1.00  0.00     0.134 A 
ATOM      7  C   UNL     1      17.272   1.540  19.906  1.00  0.00     0.093 A 
ATOM      8  C   UNL     1      18.338   1.869  19.065  1.00  0.00     0.123 A 
ATOM      9  C   UNL     1      19.369   0.956  18.865  1.00  0.00     0.094 A 
ATOM     10  C   UNL     1      19.360  -0.278  19.519  1.00  0.00     0.146 A 
ATOM     11  O   UNL     1      20.373  -1.110  19.315  1.00  0.00    -0.452 OA
ENDROOT
BRANCH   1  12
ATOM     12  C   UNL     1      21.663  -3.127  19.591  1.00  0.00     0.025 A 
ATOM     13  C   UNL     1      23.936  -3.845  20.140  1.00  0.00     0.161 A 
ATOM     14  C   UNL     1      23.904  -4.743  19.057  1.00  0.00     0.157 A 
ATOM     15  C   UNL     1      22.806  -3.045  20.403  1.00  0.00     0.062 A 
ATOM     16  C   UNL     1      22.759  -4.839  18.262  1.00  0.00     0.051 A 
ATOM     17  C   UNL     1      21.643  -4.045  18.528  1.00  0.00     0.016 A 
BRANCH  13  18
ATOM     18  O   UNL     1      25.097  -3.774  20.926  1.00  0.00    -0.493 OA
ATOM     19  C   UNL     1      25.228  -4.343  22.225  1.00  0.00     0.278 C 
ENDBRANCH  13  18
BRANCH  14  20
ATOM     20  O   UNL     1      25.001  -5.552  18.759  1.00  0.00    -0.504 OA
ATOM     21  H   UNL     1      25.688  -5.295  18.061  1.00  0.00     0.293 HD
ENDBRANCH  14  20
ENDBRANCH   1  12
BRANCH   2  22
ATOM     22  O   UNL     1      19.567  -3.977  21.403  1.00  0.00    -0.502 OA
ATOM     23  H   UNL     1      18.865  -4.693  21.261  1.00  0.00     0.293 HD
ENDBRANCH   2  22
BRANCH   6  24
ATOM     24  O   UNL     1      16.062   0.033  21.291  1.00  0.00    -0.507 OA
ATOM     25  H   UNL     1      15.221  -0.386  20.924  1.00  0.00     0.293 HD
ENDBRANCH   6  24
BRANCH   8  26
ATOM     26  O   UNL     1      18.377   3.103  18.419  1.00  0.00    -0.508 OA
ATOM     27  H   UNL     1      17.529   3.602  18.175  1.00  0.00     0.293 HD
ENDBRANCH   8  26
TORSDOF 6
ENDMDL
MODEL 9
REMARK VINA RESULT:    -4.543      6.017      9.855
REMARK INTER + INTRA:          -5.750
REMARK INTER:                  -5.353
REMARK INTRA:                  -0.397
REMARK UNBOUND:                -0.145
REMARK SMILES COc1cc(-c2oc3cc(O)cc(O)c3c(=O)c2O)ccc1O
REMARK SMILES IDX 6 1 18 2 16 3 17 4 15 5 13 6 12 7 10 8 9 9 8 10 7 11 5 12
REMARK SMILES IDX 3 13 22 14 4 15 21 16 20 17 2 18 1 19 23 20 19 22 14 24
REMARK SMILES IDX 11 26
REMARK H PARENT 23 21 19 23 14 25 11 27
REMARK Flexibility Score: inf
ROOT
ATOM      1  C   UNL     1      19.497 -11.233  23.752  1.00  0.00     0.180 A 
ATOM      2  C   UNL     1      19.934 -12.488  24.209  1.00  0.00     0.208 A 
ATOM      3  C   UNL     1      19.175 -13.163  25.177  1.00  0.00     0.238 A 
ATOM      4  O   UNL     1      19.611 -14.251  25.635  1.00  0.00    -0.285 OA
ATOM      5  C   UNL     1      17.958 -12.602  25.637  1.00  0.00     0.111 A 
ATOM      6  C   UNL     1      17.086 -13.219  26.583  1.00  0.00     0.134 A 
ATOM      7  C   UNL     1      15.961 -12.522  27.043  1.00  0.00     0.093 A 
ATOM      8  C   UNL     1      15.644 -11.256  26.543  1.00  0.00     0.123 A 
ATOM      9  C   UNL     1      16.460 -10.669  25.580  1.00  0.00     0.094 A 
ATOM     10  C   UNL     1      17.609 -11.323  25.129  1.00  0.00     0.146 A 
ATOM     11  O   UNL     1      18.369 -10.717  24.225  1.00  0.00    -0.452 OA
ENDROOT
BRANCH   1  12
ATOM     12  C   UNL     1      20.251 -10.454  22.743  1.00  0.00     0.025 A 
ATOM     13  C   UNL     1      21.966  -8.788  22.228  1.00  0.00     0.161 A 
ATOM     14  C   UNL     1      21.748  -9.000  20.855  1.00  0.00     0.157 A 
ATOM     15  C   UNL     1      21.216  -9.526  23.166  1.00  0.00     0.062 A 
ATOM     16  C   UNL     1      20.801  -9.939  20.434  1.00  0.00     0.051 A 
ATOM     17  C   UNL     1      20.062 -10.667  21.367  1.00  0.00     0.016 A 
BRANCH  13  18
ATOM     18  O   UNL     1      22.928  -7.844  22.622  1.00  0.00    -0.493 OA
ATOM     19  C   UNL     1      22.637  -6.498  22.988  1.00  0.00     0.278 C 
ENDBRANCH  13  18
BRANCH  14  20
ATOM     20  O   UNL     1      22.466  -8.291  19.892  1.00  0.00    -0.504 OA
ATOM     21  H   UNL     1      22.010  -7.757  19.163  1.00  0.00     0.293 HD
ENDBRANCH  14  20
ENDBRANCH   1  12
BRANCH   2  22
ATOM     22  O   UNL     1      21.099 -13.060  23.686  1.00  0.00    -0.502 OA
ATOM     23  H   UNL     1      21.155 -13.407  22.737  1.00  0.00     0.293 HD
ENDBRANCH   2  22
BRANCH   6  24
ATOM     24  O   UNL     1      17.259 -14.514  27.081  1.00  0.00    -0.507 OA
ATOM     25  H   UNL     1      17.716 -15.266  26.587  1.00  0.00     0.293 HD
ENDBRANCH   6  24
BRANCH   8  26
ATOM     26  O   UNL     1      14.515 -10.577  26.994  1.00  0.00    -0.508 OA
ATOM     27  H   UNL     1      14.587  -9.795  27.635  1.00  0.00     0.293 HD
ENDBRANCH   8  26
TORSDOF 6
ENDMDL
