MODEL 1
REMARK VINA RESULT:    -3.132      0.000      0.000
REMARK INTER + INTRA:          -4.729
REMARK INTER:                  -4.230
REMARK INTRA:                  -0.498
REMARK UNBOUND:                -0.498
REMARK SMILES [NH3+]CCCC[C@H]([NH3+])C(=O)[O-]
REMARK SMILES IDX 4 1 3 2 2 3 1 4 5 8 6 9 7 10 8 14 9 15 10 16
REMARK H PARENT 1 5 1 6 1 7 7 11 7 12 7 13
REMARK Flexibility Score: inf
ROOT
ATOM      1  C   UNL     1       0.486  -0.704  43.101  1.00  0.00     0.012 C 
ENDROOT
BRANCH   1   2
ATOM      2  C   UNL     1       1.503  -0.531  44.242  1.00  0.00     0.061 C 
BRANCH   2   3
ATOM      3  C   UNL     1       0.842  -0.438  45.627  1.00  0.00     0.258 C 
BRANCH   3   4
ATOM      4  N   UNL     1      -0.616  -0.479  45.513  1.00  0.00    -0.358 N 
ATOM      5  H   UNL     1      -0.895  -0.644  44.518  1.00  0.00     0.344 HD
ATOM      6  H   UNL     1      -1.003  -1.238  46.118  1.00  0.00     0.344 HD
ATOM      7  H   UNL     1      -1.009   0.438  45.826  1.00  0.00     0.344 HD
ENDBRANCH   3   4
ENDBRANCH   2   3
ENDBRANCH   1   2
BRANCH   1   8
ATOM      8  C   UNL     1       0.491  -2.091  42.423  1.00  0.00     0.072 C 
BRANCH   8   9
ATOM      9  C   UNL     1       1.259  -3.185  43.202  1.00  0.00     0.227 C 
BRANCH   9  10
ATOM     10  N   UNL     1       2.030  -4.021  42.274  1.00  0.00    -0.350 N 
ATOM     11  H   UNL     1       1.399  -4.665  41.743  1.00  0.00     0.345 HD
ATOM     12  H   UNL     1       2.730  -4.589  42.807  1.00  0.00     0.345 HD
ATOM     13  H   UNL     1       2.548  -3.415  41.599  1.00  0.00     0.345 HD
ENDBRANCH   9  10
BRANCH   9  14
ATOM     14  C   UNL     1       0.319  -4.043  44.006  1.00  0.00     0.099 C 
ATOM     15  O   UNL     1       0.525  -5.280  44.113  1.00  0.00    -0.544 OA
ATOM     16  O   UNL     1      -0.782  -3.475  44.638  1.00  0.00    -0.544 OA
ENDBRANCH   9  14
ENDBRANCH   8   9
ENDBRANCH   1   8
TORSDOF 7
ENDMDL
MODEL 2
REMARK VINA RESULT:    -3.080      1.665      3.647
REMARK INTER + INTRA:          -4.659
REMARK INTER:                  -4.173
REMARK INTRA:                  -0.486
REMARK UNBOUND:                -0.498
REMARK SMILES [NH3+]CCCC[C@H]([NH3+])C(=O)[O-]
REMARK SMILES IDX 4 1 3 2 2 3 1 4 5 8 6 9 7 10 8 14 9 15 10 16
REMARK H PARENT 1 5 1 6 1 7 7 11 7 12 7 13
REMARK Flexibility Score: inf
ROOT
ATOM      1  C   UNL     1       1.625  -1.107  44.309  1.00  0.00     0.012 C 
ENDROOT
BRANCH   1   2
ATOM      2  C   UNL     1       0.840  -1.767  43.162  1.00  0.00     0.061 C 
BRANCH   2   3
ATOM      3  C   UNL     1       1.577  -2.964  42.541  1.00  0.00     0.258 C 
BRANCH   3   4
ATOM      4  N   UNL     1       1.259  -4.200  43.255  1.00  0.00    -0.358 N 
ATOM      5  H   UNL     1       0.382  -4.622  42.872  1.00  0.00     0.344 HD
ATOM      6  H   UNL     1       2.047  -4.881  43.164  1.00  0.00     0.344 HD
ATOM      7  H   UNL     1       1.115  -3.982  44.268  1.00  0.00     0.344 HD
ENDBRANCH   3   4
ENDBRANCH   2   3
ENDBRANCH   1   2
BRANCH   1   8
ATOM      8  C   UNL     1       0.817  -0.863  45.601  1.00  0.00     0.072 C 
BRANCH   8   9
ATOM      9  C   UNL     1      -0.615  -1.448  45.585  1.00  0.00     0.227 C 
BRANCH   9  10
ATOM     10  N   UNL     1      -1.568  -0.473  46.127  1.00  0.00    -0.350 N 
ATOM     11  H   UNL     1      -2.498  -0.921  46.303  1.00  0.00     0.345 HD
ATOM     12  H   UNL     1      -1.690   0.316  45.450  1.00  0.00     0.345 HD
ATOM     13  H   UNL     1      -1.201  -0.080  47.024  1.00  0.00     0.345 HD
ENDBRANCH   9  10
BRANCH   9  14
ATOM     14  C   UNL     1      -0.688  -2.730  46.373  1.00  0.00     0.099 C 
ATOM     15  O   UNL     1       0.009  -3.723  46.032  1.00  0.00    -0.544 OA
ATOM     16  O   UNL     1      -1.520  -2.826  47.482  1.00  0.00    -0.544 OA
ENDBRANCH   9  14
ENDBRANCH   8   9
ENDBRANCH   1   8
TORSDOF 7
ENDMDL
MODEL 3
REMARK VINA RESULT:    -3.029      1.982      3.578
REMARK INTER + INTRA:          -4.590
REMARK INTER:                  -4.128
REMARK INTRA:                  -0.462
REMARK UNBOUND:                -0.498
REMARK SMILES [NH3+]CCCC[C@H]([NH3+])C(=O)[O-]
REMARK SMILES IDX 4 1 3 2 2 3 1 4 5 8 6 9 7 10 8 14 9 15 10 16
REMARK H PARENT 1 5 1 6 1 7 7 11 7 12 7 13
REMARK Flexibility Score: inf
ROOT
ATOM      1  C   UNL     1       0.172  -1.523  43.031  1.00  0.00     0.012 C 
ENDROOT
BRANCH   1   2
ATOM      2  C   UNL     1       1.273  -2.436  42.463  1.00  0.00     0.061 C 
BRANCH   2   3
ATOM      3  C   UNL     1       1.257  -3.847  43.073  1.00  0.00     0.258 C 
BRANCH   3   4
ATOM      4  N   UNL     1       0.046  -4.059  43.865  1.00  0.00    -0.358 N 
ATOM      5  H   UNL     1      -0.392  -4.975  43.615  1.00  0.00     0.344 HD
ATOM      6  H   UNL     1       0.277  -4.044  44.885  1.00  0.00     0.344 HD
ATOM      7  H   UNL     1      -0.635  -3.292  43.660  1.00  0.00     0.344 HD
ENDBRANCH   3   4
ENDBRANCH   2   3
ENDBRANCH   1   2
BRANCH   1   8
ATOM      8  C   UNL     1       0.663  -0.165  43.577  1.00  0.00     0.072 C 
BRANCH   8   9
ATOM      9  C   UNL     1       0.886  -0.131  45.108  1.00  0.00     0.227 C 
BRANCH   9  10
ATOM     10  N   UNL     1       2.265  -0.514  45.429  1.00  0.00    -0.350 N 
ATOM     11  H   UNL     1       2.697  -1.046  44.637  1.00  0.00     0.345 HD
ATOM     12  H   UNL     1       2.277  -1.111  46.289  1.00  0.00     0.345 HD
ATOM     13  H   UNL     1       2.836   0.341  45.618  1.00  0.00     0.345 HD
ENDBRANCH   9  10
BRANCH   9  14
ATOM     14  C   UNL     1      -0.079  -1.043  45.819  1.00  0.00     0.099 C 
ATOM     15  O   UNL     1      -1.279  -0.695  45.977  1.00  0.00    -0.544 OA
ATOM     16  O   UNL     1       0.346  -2.274  46.303  1.00  0.00    -0.544 OA
ENDBRANCH   9  14
ENDBRANCH   8   9
ENDBRANCH   1   8
TORSDOF 7
ENDMDL
MODEL 4
REMARK VINA RESULT:    -2.961      2.240      2.399
REMARK INTER + INTRA:          -4.498
REMARK INTER:                  -4.383
REMARK INTRA:                  -0.115
REMARK UNBOUND:                -0.498
REMARK SMILES [NH3+]CCCC[C@H]([NH3+])C(=O)[O-]
REMARK SMILES IDX 4 1 3 2 2 3 1 4 5 8 6 9 7 10 8 14 9 15 10 16
REMARK H PARENT 1 5 1 6 1 7 7 11 7 12 7 13
REMARK Flexibility Score: inf
ROOT
ATOM      1  C   UNL     1       0.461  -1.133  43.111  1.00  0.00     0.012 C 
ENDROOT
BRANCH   1   2
ATOM      2  C   UNL     1       0.901  -0.070  44.132  1.00  0.00     0.061 C 
BRANCH   2   3
ATOM      3  C   UNL     1       0.610  -0.476  45.586  1.00  0.00     0.258 C 
BRANCH   3   4
ATOM      4  N   UNL     1      -0.830  -0.515  45.838  1.00  0.00    -0.358 N 
ATOM      5  H   UNL     1      -1.356  -0.343  44.951  1.00  0.00     0.344 HD
ATOM      6  H   UNL     1      -1.100  -1.443  46.235  1.00  0.00     0.344 HD
ATOM      7  H   UNL     1      -1.077   0.233  46.527  1.00  0.00     0.344 HD
ENDBRANCH   3   4
ENDBRANCH   2   3
ENDBRANCH   1   2
BRANCH   1   8
ATOM      8  C   UNL     1       1.321  -2.415  43.087  1.00  0.00     0.072 C 
BRANCH   8   9
ATOM      9  C   UNL     1       0.705  -3.588  42.287  1.00  0.00     0.227 C 
BRANCH   9  10
ATOM     10  N   UNL     1       0.930  -4.855  42.991  1.00  0.00    -0.350 N 
ATOM     11  H   UNL     1       0.611  -4.790  43.985  1.00  0.00     0.345 HD
ATOM     12  H   UNL     1       1.949  -5.095  42.972  1.00  0.00     0.345 HD
ATOM     13  H   UNL     1       0.406  -5.624  42.513  1.00  0.00     0.345 HD
ENDBRANCH   9  10
BRANCH   9  14
ATOM     14  C   UNL     1       1.283  -3.662  40.898  1.00  0.00     0.099 C 
ATOM     15  O   UNL     1       1.990  -4.647  40.558  1.00  0.00    -0.544 OA
ATOM     16  O   UNL     1       1.038  -2.646  39.981  1.00  0.00    -0.544 OA
ENDBRANCH   9  14
ENDBRANCH   8   9
ENDBRANCH   1   8
TORSDOF 7
ENDMDL
MODEL 5
REMARK VINA RESULT:    -2.887     12.433     13.150
REMARK INTER + INTRA:          -4.398
REMARK INTER:                  -4.191
REMARK INTRA:                  -0.207
REMARK UNBOUND:                -0.498
REMARK SMILES [NH3+]CCCC[C@H]([NH3+])C(=O)[O-]
REMARK SMILES IDX 4 1 3 2 2 3 1 4 5 8 6 9 7 10 8 14 9 15 10 16
REMARK H PARENT 1 5 1 6 1 7 7 11 7 12 7 13
REMARK Flexibility Score: inf
ROOT
ATOM      1  C   UNL     1      -0.025  -3.297  56.748  1.00  0.00     0.012 C 
ENDROOT
BRANCH   1   2
ATOM      2  C   UNL     1      -0.509  -2.399  57.899  1.00  0.00     0.061 C 
BRANCH   2   3
ATOM      3  C   UNL     1       0.524  -2.261  59.029  1.00  0.00     0.258 C 
BRANCH   3   4
ATOM      4  N   UNL     1       1.862  -2.618  58.558  1.00  0.00    -0.358 N 
ATOM      5  H   UNL     1       2.371  -3.158  59.295  1.00  0.00     0.344 HD
ATOM      6  H   UNL     1       1.795  -3.188  57.685  1.00  0.00     0.344 HD
ATOM      7  H   UNL     1       2.397  -1.743  58.352  1.00  0.00     0.344 HD
ENDBRANCH   3   4
ENDBRANCH   2   3
ENDBRANCH   1   2
BRANCH   1   8
ATOM      8  C   UNL     1      -1.030  -4.374  56.288  1.00  0.00     0.072 C 
BRANCH   8   9
ATOM      9  C   UNL     1      -0.563  -5.831  56.520  1.00  0.00     0.227 C 
BRANCH   9  10
ATOM     10  N   UNL     1       0.598  -5.855  57.417  1.00  0.00    -0.350 N 
ATOM     11  H   UNL     1       1.099  -6.771  57.352  1.00  0.00     0.345 HD
ATOM     12  H   UNL     1       0.285  -5.704  58.405  1.00  0.00     0.345 HD
ATOM     13  H   UNL     1       1.258  -5.085  57.162  1.00  0.00     0.345 HD
ENDBRANCH   9  10
BRANCH   9  14
ATOM     14  C   UNL     1      -0.220  -6.506  55.218  1.00  0.00     0.099 C 
ATOM     15  O   UNL     1      -0.220  -7.763  55.138  1.00  0.00    -0.544 OA
ATOM     16  O   UNL     1       0.096  -5.749  54.097  1.00  0.00    -0.544 OA
ENDBRANCH   9  14
ENDBRANCH   8   9
ENDBRANCH   1   8
TORSDOF 7
ENDMDL
MODEL 6
REMARK VINA RESULT:    -2.857     11.351     12.322
REMARK INTER + INTRA:          -4.358
REMARK INTER:                  -3.897
REMARK INTRA:                  -0.461
REMARK UNBOUND:                -0.498
REMARK SMILES [NH3+]CCCC[C@H]([NH3+])C(=O)[O-]
REMARK SMILES IDX 4 1 3 2 2 3 1 4 5 8 6 9 7 10 8 14 9 15 10 16
REMARK H PARENT 1 5 1 6 1 7 7 11 7 12 7 13
REMARK Flexibility Score: inf
ROOT
ATOM      1  C   UNL     1      -0.863  -2.907  55.346  1.00  0.00     0.012 C 
ENDROOT
BRANCH   1   2
ATOM      2  C   UNL     1      -0.877  -2.495  56.828  1.00  0.00     0.061 C 
BRANCH   2   3
ATOM      3  C   UNL     1       0.481  -2.694  57.520  1.00  0.00     0.258 C 
BRANCH   3   4
ATOM      4  N   UNL     1       0.507  -3.953  58.264  1.00  0.00    -0.358 N 
ATOM      5  H   UNL     1       1.223  -3.906  59.026  1.00  0.00     0.344 HD
ATOM      6  H   UNL     1      -0.434  -4.147  58.676  1.00  0.00     0.344 HD
ATOM      7  H   UNL     1       0.760  -4.731  57.612  1.00  0.00     0.344 HD
ENDBRANCH   3   4
ENDBRANCH   2   3
ENDBRANCH   1   2
BRANCH   1   8
ATOM      8  C   UNL     1      -1.311  -4.357  55.063  1.00  0.00     0.072 C 
BRANCH   8   9
ATOM      9  C   UNL     1      -0.161  -5.326  54.699  1.00  0.00     0.227 C 
BRANCH   9  10
ATOM     10  N   UNL     1      -0.297  -5.776  53.309  1.00  0.00    -0.350 N 
ATOM     11  H   UNL     1      -0.087  -4.997  52.644  1.00  0.00     0.345 HD
ATOM     12  H   UNL     1      -1.273  -6.116  53.142  1.00  0.00     0.345 HD
ATOM     13  H   UNL     1       0.360  -6.569  53.128  1.00  0.00     0.345 HD
ENDBRANCH   9  10
BRANCH   9  14
ATOM     14  C   UNL     1      -0.137  -6.514  55.624  1.00  0.00     0.099 C 
ATOM     15  O   UNL     1       0.084  -6.355  56.854  1.00  0.00    -0.544 OA
ATOM     16  O   UNL     1      -0.362  -7.793  55.129  1.00  0.00    -0.544 OA
ENDBRANCH   9  14
ENDBRANCH   8   9
ENDBRANCH   1   8
TORSDOF 7
ENDMDL
MODEL 7
REMARK VINA RESULT:    -2.800      2.059      4.179
REMARK INTER + INTRA:          -4.280
REMARK INTER:                  -4.122
REMARK INTRA:                  -0.158
REMARK UNBOUND:                -0.498
REMARK SMILES [NH3+]CCCC[C@H]([NH3+])C(=O)[O-]
REMARK SMILES IDX 4 1 3 2 2 3 1 4 5 8 6 9 7 10 8 14 9 15 10 16
REMARK H PARENT 1 5 1 6 1 7 7 11 7 12 7 13
REMARK Flexibility Score: inf
ROOT
ATOM      1  C   UNL     1       0.848  -2.142  42.432  1.00  0.00     0.012 C 
ENDROOT
BRANCH   1   2
ATOM      2  C   UNL     1       1.575  -3.498  42.456  1.00  0.00     0.061 C 
BRANCH   2   3
ATOM      3  C   UNL     1       1.141  -4.432  41.315  1.00  0.00     0.258 C 
BRANCH   3   4
ATOM      4  N   UNL     1       2.303  -4.938  40.585  1.00  0.00    -0.358 N 
ATOM      5  H   UNL     1       3.177  -4.488  40.942  1.00  0.00     0.344 HD
ATOM      6  H   UNL     1       2.370  -5.976  40.692  1.00  0.00     0.344 HD
ATOM      7  H   UNL     1       2.196  -4.708  39.570  1.00  0.00     0.344 HD
ENDBRANCH   3   4
ENDBRANCH   2   3
ENDBRANCH   1   2
BRANCH   1   8
ATOM      8  C   UNL     1      -0.221  -1.952  43.529  1.00  0.00     0.072 C 
BRANCH   8   9
ATOM      9  C   UNL     1       0.136  -0.892  44.598  1.00  0.00     0.227 C 
BRANCH   9  10
ATOM     10  N   UNL     1       0.843   0.236  43.979  1.00  0.00    -0.350 N 
ATOM     11  H   UNL     1       1.721  -0.089  43.511  1.00  0.00     0.345 HD
ATOM     12  H   UNL     1       1.085   0.946  44.709  1.00  0.00     0.345 HD
ATOM     13  H   UNL     1       0.226   0.694  43.271  1.00  0.00     0.345 HD
ENDBRANCH   9  10
BRANCH   9  14
ATOM     14  C   UNL     1       0.980  -1.487  45.694  1.00  0.00     0.099 C 
ATOM     15  O   UNL     1       0.551  -2.464  46.364  1.00  0.00    -0.544 OA
ATOM     16  O   UNL     1       2.237  -0.965  45.974  1.00  0.00    -0.544 OA
ENDBRANCH   9  14
ENDBRANCH   8   9
ENDBRANCH   1   8
TORSDOF 7
ENDMDL
MODEL 8
REMARK VINA RESULT:    -2.787     11.530     12.568
REMARK INTER + INTRA:          -4.263
REMARK INTER:                  -4.135
REMARK INTRA:                  -0.128
REMARK UNBOUND:                -0.498
REMARK SMILES [NH3+]CCCC[C@H]([NH3+])C(=O)[O-]
REMARK SMILES IDX 4 1 3 2 2 3 1 4 5 8 6 9 7 10 8 14 9 15 10 16
REMARK H PARENT 1 5 1 6 1 7 7 11 7 12 7 13
REMARK Flexibility Score: inf
ROOT
ATOM      1  C   UNL     1      -0.549  -4.278  57.315  1.00  0.00     0.012 C 
ENDROOT
BRANCH   1   2
ATOM      2  C   UNL     1       0.246  -2.961  57.280  1.00  0.00     0.061 C 
BRANCH   2   3
ATOM      3  C   UNL     1       0.795  -2.554  58.656  1.00  0.00     0.258 C 
BRANCH   3   4
ATOM      4  N   UNL     1       2.254  -2.456  58.628  1.00  0.00    -0.358 N 
ATOM      5  H   UNL     1       2.545  -1.481  58.383  1.00  0.00     0.344 HD
ATOM      6  H   UNL     1       2.650  -2.719  59.558  1.00  0.00     0.344 HD
ATOM      7  H   UNL     1       2.627  -3.111  57.902  1.00  0.00     0.344 HD
ENDBRANCH   3   4
ENDBRANCH   2   3
ENDBRANCH   1   2
BRANCH   1   8
ATOM      8  C   UNL     1       0.131  -5.474  56.616  1.00  0.00     0.072 C 
BRANCH   8   9
ATOM      9  C   UNL     1      -0.591  -5.970  55.340  1.00  0.00     0.227 C 
BRANCH   9  10
ATOM     10  N   UNL     1      -0.088  -7.293  54.954  1.00  0.00    -0.350 N 
ATOM     11  H   UNL     1      -0.668  -7.701  54.184  1.00  0.00     0.345 HD
ATOM     12  H   UNL     1      -0.113  -7.936  55.780  1.00  0.00     0.345 HD
ATOM     13  H   UNL     1       0.903  -7.215  54.631  1.00  0.00     0.345 HD
ENDBRANCH   9  10
BRANCH   9  14
ATOM     14  C   UNL     1      -0.412  -5.000  54.202  1.00  0.00     0.099 C 
ATOM     15  O   UNL     1       0.543  -5.143  53.393  1.00  0.00    -0.544 OA
ATOM     16  O   UNL     1      -1.298  -3.943  54.034  1.00  0.00    -0.544 OA
ENDBRANCH   9  14
ENDBRANCH   8   9
ENDBRANCH   1   8
TORSDOF 7
ENDMDL
MODEL 9
REMARK VINA RESULT:    -2.782      1.668      1.961
REMARK INTER + INTRA:          -4.256
REMARK INTER:                  -4.044
REMARK INTRA:                  -0.213
REMARK UNBOUND:                -0.498
REMARK SMILES [NH3+]CCCC[C@H]([NH3+])C(=O)[O-]
REMARK SMILES IDX 4 1 3 2 2 3 1 4 5 8 6 9 7 10 8 14 9 15 10 16
REMARK H PARENT 1 5 1 6 1 7 7 11 7 12 7 13
REMARK Flexibility Score: inf
ROOT
ATOM      1  C   UNL     1       1.294  -1.116  43.977  1.00  0.00     0.012 C 
ENDROOT
BRANCH   1   2
ATOM      2  C   UNL     1       0.677  -0.290  45.119  1.00  0.00     0.061 C 
BRANCH   2   3
ATOM      3  C   UNL     1      -0.308  -1.096  45.980  1.00  0.00     0.258 C 
BRANCH   3   4
ATOM      4  N   UNL     1      -1.623  -0.457  46.006  1.00  0.00    -0.358 N 
ATOM      5  H   UNL     1      -2.281  -1.010  46.602  1.00  0.00     0.344 HD
ATOM      6  H   UNL     1      -1.542   0.517  46.378  1.00  0.00     0.344 HD
ATOM      7  H   UNL     1      -2.004  -0.417  45.032  1.00  0.00     0.344 HD
ENDBRANCH   3   4
ENDBRANCH   2   3
ENDBRANCH   1   2
BRANCH   1   8
ATOM      8  C   UNL     1       0.441  -1.202  42.693  1.00  0.00     0.072 C 
BRANCH   8   9
ATOM      9  C   UNL     1      -0.050  -2.626  42.341  1.00  0.00     0.227 C 
BRANCH   9  10
ATOM     10  N   UNL     1      -1.305  -2.918  43.044  1.00  0.00    -0.350 N 
ATOM     11  H   UNL     1      -1.152  -2.952  44.079  1.00  0.00     0.345 HD
ATOM     12  H   UNL     1      -1.685  -3.839  42.723  1.00  0.00     0.345 HD
ATOM     13  H   UNL     1      -2.012  -2.179  42.827  1.00  0.00     0.345 HD
ENDBRANCH   9  10
BRANCH   9  14
ATOM     14  C   UNL     1       0.986  -3.661  42.690  1.00  0.00     0.099 C 
ATOM     15  O   UNL     1       2.033  -3.768  41.997  1.00  0.00    -0.544 OA
ATOM     16  O   UNL     1       0.798  -4.504  43.779  1.00  0.00    -0.544 OA
ENDBRANCH   9  14
ENDBRANCH   8   9
ENDBRANCH   1   8
TORSDOF 7
ENDMDL
