MODEL 1
REMARK VINA RESULT:    -0.278      0.000      0.000
REMARK INTER + INTRA:          -0.671
REMARK INTER:                  -0.408
REMARK INTRA:                  -0.263
REMARK UNBOUND:                -0.263
REMARK SMILES O=C([O-])CCCCCCCC(=O)[O-]
REMARK SMILES IDX 7 1 6 2 5 3 4 4 2 5 1 6 3 7 8 8 9 9 10 10 11 11 12 12 13 13
REMARK H PARENT
REMARK Flexibility Score: inf
ROOT
ATOM      1  C   UNL     1      -3.347  19.371 -10.838  1.00  0.00     0.000 C 
ENDROOT
BRANCH   1   2
ATOM      2  C   UNL     1      -4.203  20.648 -10.792  1.00  0.00     0.000 C 
BRANCH   2   3
ATOM      3  C   UNL     1      -5.684  20.377 -11.102  1.00  0.00     0.006 C 
BRANCH   3   4
ATOM      4  C   UNL     1      -6.329  21.493 -11.933  1.00  0.00     0.053 C 
BRANCH   4   5
ATOM      5  C   UNL     1      -6.773  20.965 -13.261  1.00  0.00     0.041 C 
ATOM      6  O   UNL     1      -7.129  19.762 -13.378  1.00  0.00    -0.550 OA
ATOM      7  O   UNL     1      -6.746  21.787 -14.381  1.00  0.00    -0.550 OA
ENDBRANCH   4   5
ENDBRANCH   3   4
ENDBRANCH   2   3
ENDBRANCH   1   2
BRANCH   1   8
ATOM      8  C   UNL     1      -4.185  18.083 -10.730  1.00  0.00     0.000 C 
BRANCH   8   9
ATOM      9  C   UNL     1      -3.374  16.771 -10.741  1.00  0.00     0.006 C 
BRANCH   9  10
ATOM     10  C   UNL     1      -4.228  15.493 -10.757  1.00  0.00     0.053 C 
BRANCH  10  11
ATOM     11  C   UNL     1      -3.581  14.378  -9.995  1.00  0.00     0.041 C 
ATOM     12  O   UNL     1      -4.157  13.875  -8.994  1.00  0.00    -0.550 OA
ATOM     13  O   UNL     1      -2.326  13.917 -10.370  1.00  0.00    -0.550 OA
ENDBRANCH  10  11
ENDBRANCH   9  10
ENDBRANCH   8   9
ENDBRANCH   1   8
TORSDOF 8
ENDMDL
MODEL 2
REMARK VINA RESULT:     0.001      0.707      6.584
REMARK INTER + INTRA:          -0.262
REMARK INTER:                  -0.117
REMARK INTRA:                  -0.145
REMARK UNBOUND:                -0.263
REMARK SMILES O=C([O-])CCCCCCCC(=O)[O-]
REMARK SMILES IDX 7 1 6 2 5 3 4 4 2 5 1 6 3 7 8 8 9 9 10 10 11 11 12 12 13 13
REMARK H PARENT
REMARK Flexibility Score: inf
ROOT
ATOM      1  C   UNL     1      -4.437  19.180 -10.816  1.00  0.00     0.000 C 
ENDROOT
BRANCH   1   2
ATOM      2  C   UNL     1      -3.314  18.211 -11.223  1.00  0.00     0.000 C 
BRANCH   2   3
ATOM      3  C   UNL     1      -3.222  16.991 -10.293  1.00  0.00     0.006 C 
BRANCH   3   4
ATOM      4  C   UNL     1      -3.863  15.736 -10.898  1.00  0.00     0.053 C 
BRANCH   4   5
ATOM      5  C   UNL     1      -3.381  14.510 -10.189  1.00  0.00     0.041 C 
ATOM      6  O   UNL     1      -2.252  14.021 -10.463  1.00  0.00    -0.550 OA
ATOM      7  O   UNL     1      -4.197  13.877  -9.260  1.00  0.00    -0.550 OA
ENDBRANCH   4   5
ENDBRANCH   3   4
ENDBRANCH   2   3
ENDBRANCH   1   2
BRANCH   1   8
ATOM      8  C   UNL     1      -3.988  20.653 -10.813  1.00  0.00     0.000 C 
BRANCH   8   9
ATOM      9  C   UNL     1      -4.959  21.637 -11.497  1.00  0.00     0.006 C 
BRANCH   9  10
ATOM     10  C   UNL     1      -6.424  21.175 -11.523  1.00  0.00     0.053 C 
BRANCH  10  11
ATOM     11  C   UNL     1      -6.805  20.597 -12.852  1.00  0.00     0.041 C 
ATOM     12  O   UNL     1      -6.792  21.318 -13.884  1.00  0.00    -0.550 OA
ATOM     13  O   UNL     1      -7.207  19.271 -12.943  1.00  0.00    -0.550 OA
ENDBRANCH  10  11
ENDBRANCH   9  10
ENDBRANCH   8   9
ENDBRANCH   1   8
TORSDOF 8
ENDMDL
MODEL 3
REMARK VINA RESULT:     1.974      0.670      6.618
REMARK INTER + INTRA:           2.634
REMARK INTER:                   2.677
REMARK INTRA:                  -0.043
REMARK UNBOUND:                -0.263
REMARK SMILES O=C([O-])CCCCCCCC(=O)[O-]
REMARK SMILES IDX 7 1 6 2 5 3 4 4 2 5 1 6 3 7 8 8 9 9 10 10 11 11 12 12 13 13
REMARK H PARENT
REMARK Flexibility Score: inf
ROOT
ATOM      1  C   UNL     1      -3.406  18.429 -10.914  1.00  0.00     0.000 C 
ENDROOT
BRANCH   1   2
ATOM      2  C   UNL     1      -3.374  16.964 -10.448  1.00  0.00     0.000 C 
BRANCH   2   3
ATOM      3  C   UNL     1      -4.651  16.197 -10.827  1.00  0.00     0.006 C 
BRANCH   3   4
ATOM      4  C   UNL     1      -4.386  14.715 -11.122  1.00  0.00     0.053 C 
BRANCH   4   5
ATOM      5  C   UNL     1      -3.465  14.136 -10.095  1.00  0.00     0.041 C 
ATOM      6  O   UNL     1      -3.889  13.875  -8.937  1.00  0.00    -0.550 OA
ATOM      7  O   UNL     1      -2.126  13.930 -10.399  1.00  0.00    -0.550 OA
ENDBRANCH   4   5
ENDBRANCH   3   4
ENDBRANCH   2   3
ENDBRANCH   1   2
BRANCH   1   8
ATOM      8  C   UNL     1      -4.807  19.060 -10.815  1.00  0.00     0.000 C 
BRANCH   8   9
ATOM      9  C   UNL     1      -4.873  20.567 -11.136  1.00  0.00     0.006 C 
BRANCH   9  10
ATOM     10  C   UNL     1      -6.276  21.085 -11.487  1.00  0.00     0.053 C 
BRANCH  10  11
ATOM     11  C   UNL     1      -6.743  20.580 -12.818  1.00  0.00     0.041 C 
ATOM     12  O   UNL     1      -7.118  19.385 -12.947  1.00  0.00    -0.550 OA
ATOM     13  O   UNL     1      -6.732  21.421 -13.923  1.00  0.00    -0.550 OA
ENDBRANCH  10  11
ENDBRANCH   9  10
ENDBRANCH   8   9
ENDBRANCH   1   8
TORSDOF 8
ENDMDL
MODEL 4
REMARK VINA RESULT:     2.682      1.413      1.668
REMARK INTER + INTRA:           3.673
REMARK INTER:                   3.092
REMARK INTRA:                   0.580
REMARK UNBOUND:                -0.263
REMARK SMILES O=C([O-])CCCCCCCC(=O)[O-]
REMARK SMILES IDX 7 1 6 2 5 3 4 4 2 5 1 6 3 7 8 8 9 9 10 10 11 11 12 12 13 13
REMARK H PARENT
REMARK Flexibility Score: inf
ROOT
ATOM      1  C   UNL     1      -2.988  19.250 -10.771  1.00  0.00     0.000 C 
ENDROOT
BRANCH   1   2
ATOM      2  C   UNL     1      -3.919  20.474 -10.737  1.00  0.00     0.000 C 
BRANCH   2   3
ATOM      3  C   UNL     1      -5.386  20.106 -11.005  1.00  0.00     0.006 C 
BRANCH   3   4
ATOM      4  C   UNL     1      -6.150  21.215 -11.740  1.00  0.00     0.053 C 
BRANCH   4   5
ATOM      5  C   UNL     1      -6.748  20.687 -13.006  1.00  0.00     0.041 C 
ATOM      6  O   UNL     1      -7.163  19.498 -13.063  1.00  0.00    -0.550 OA
ATOM      7  O   UNL     1      -6.802  21.489 -14.138  1.00  0.00    -0.550 OA
ENDBRANCH   4   5
ENDBRANCH   3   4
ENDBRANCH   2   3
ENDBRANCH   1   2
BRANCH   1   8
ATOM      8  C   UNL     1      -3.753  17.914 -10.776  1.00  0.00     0.000 C 
BRANCH   8   9
ATOM      9  C   UNL     1      -2.955  16.699 -10.260  1.00  0.00     0.006 C 
BRANCH   9  10
ATOM     10  C   UNL     1      -3.759  15.392 -10.186  1.00  0.00     0.053 C 
BRANCH  10  11
ATOM     11  C   UNL     1      -5.054  15.488 -10.933  1.00  0.00     0.041 C 
ATOM     12  O   UNL     1      -5.372  14.602 -11.770  1.00  0.00    -0.550 OA
ATOM     13  O   UNL     1      -5.895  16.574 -10.728  1.00  0.00    -0.550 OA
ENDBRANCH  10  11
ENDBRANCH   9  10
ENDBRANCH   8   9
ENDBRANCH   1   8
TORSDOF 8
ENDMDL
