MODEL 1
REMARK VINA RESULT:     3.113      0.000      0.000
REMARK INTER + INTRA:           3.666
REMARK INTER:                   3.750
REMARK INTRA:                  -0.084
REMARK UNBOUND:                -0.084
REMARK SMILES O=c1c(O)c(-c2ccc(O)c(O)c2)oc2cc(O)cc(O)c12
REMARK SMILES IDX 5 1 3 2 2 3 1 4 22 5 20 6 19 7 17 8 16 9 15 10 14 11 6 12
REMARK SMILES IDX 7 13 8 14 9 15 13 16 11 17 10 18 12 20 4 22 21 24 18 26
REMARK H PARENT 10 19 12 21 4 23 21 25 18 27
REMARK Flexibility Score: inf
ROOT
ATOM      1  C   UNL     1      28.641  41.976  31.173  1.00  0.00     0.180 A 
ATOM      2  C   UNL     1      27.560  41.631  32.002  1.00  0.00     0.208 A 
ATOM      3  C   UNL     1      27.806  41.320  33.349  1.00  0.00     0.238 A 
ATOM      4  O   UNL     1      26.828  41.065  34.099  1.00  0.00    -0.285 OA
ATOM      5  C   UNL     1      29.132  41.341  33.845  1.00  0.00     0.111 A 
ATOM      6  C   UNL     1      29.502  41.006  35.182  1.00  0.00     0.134 A 
ATOM      7  C   UNL     1      30.826  41.189  35.599  1.00  0.00     0.093 A 
ATOM      8  C   UNL     1      31.807  41.634  34.708  1.00  0.00     0.123 A 
ATOM      9  C   UNL     1      31.467  41.907  33.386  1.00  0.00     0.094 A 
ATOM     10  C   UNL     1      30.147  41.770  32.949  1.00  0.00     0.146 A 
ATOM     11  O   UNL     1      29.864  42.052  31.684  1.00  0.00    -0.452 OA
ENDROOT
BRANCH   1  12
ATOM     12  C   UNL     1      28.463  42.291  29.737  1.00  0.00     0.025 A 
ATOM     13  C   UNL     1      28.823  43.544  29.212  1.00  0.00     0.016 A 
ATOM     14  C   UNL     1      28.624  43.828  27.859  1.00  0.00     0.051 A 
ATOM     15  C   UNL     1      28.049  42.870  27.012  1.00  0.00     0.157 A 
ATOM     16  C   UNL     1      27.868  41.342  28.889  1.00  0.00     0.062 A 
ATOM     17  C   UNL     1      27.666  41.622  27.533  1.00  0.00     0.158 A 
BRANCH  15  18
ATOM     18  O   UNL     1      27.853  43.155  25.662  1.00  0.00    -0.504 OA
ATOM     19  H   UNL     1      27.998  42.453  24.946  1.00  0.00     0.293 HD
ENDBRANCH  15  18
BRANCH  17  20
ATOM     20  O   UNL     1      27.085  40.650  26.719  1.00  0.00    -0.504 OA
ATOM     21  H   UNL     1      26.161  40.278  26.901  1.00  0.00     0.293 HD
ENDBRANCH  17  20
ENDBRANCH   1  12
BRANCH   2  22
ATOM     22  O   UNL     1      26.256  41.637  31.496  1.00  0.00    -0.502 OA
ATOM     23  H   UNL     1      25.440  41.654  32.096  1.00  0.00     0.293 HD
ENDBRANCH   2  22
BRANCH   6  24
ATOM     24  O   UNL     1      28.621  40.467  36.123  1.00  0.00    -0.507 OA
ATOM     25  H   UNL     1      27.623  40.386  35.997  1.00  0.00     0.293 HD
ENDBRANCH   6  24
BRANCH   8  26
ATOM     26  O   UNL     1      33.125  41.798  35.127  1.00  0.00    -0.508 OA
ATOM     27  H   UNL     1      33.582  41.115  35.721  1.00  0.00     0.293 HD
ENDBRANCH   8  26
TORSDOF 6
ENDMDL
MODEL 2
REMARK VINA RESULT:     3.580      6.513     11.861
REMARK INTER + INTRA:           4.228
REMARK INTER:                   4.464
REMARK INTRA:                  -0.236
REMARK UNBOUND:                -0.084
REMARK SMILES O=c1c(O)c(-c2ccc(O)c(O)c2)oc2cc(O)cc(O)c12
REMARK SMILES IDX 5 1 3 2 2 3 1 4 22 5 20 6 19 7 17 8 16 9 15 10 14 11 6 12
REMARK SMILES IDX 7 13 8 14 9 15 13 16 11 17 10 18 12 20 4 22 21 24 18 26
REMARK H PARENT 10 19 12 21 4 23 21 25 18 27
REMARK Flexibility Score: inf
ROOT
ATOM      1  C   UNL     1      29.758  42.406  22.402  1.00  0.00     0.180 A 
ATOM      2  C   UNL     1      31.161  42.352  22.347  1.00  0.00     0.208 A 
ATOM      3  C   UNL     1      31.804  42.569  21.118  1.00  0.00     0.238 A 
ATOM      4  O   UNL     1      33.062  42.573  21.086  1.00  0.00    -0.285 OA
ATOM      5  C   UNL     1      31.035  42.819  19.956  1.00  0.00     0.111 A 
ATOM      6  C   UNL     1      31.579  43.013  18.651  1.00  0.00     0.134 A 
ATOM      7  C   UNL     1      30.734  43.384  17.599  1.00  0.00     0.093 A 
ATOM      8  C   UNL     1      29.355  43.505  17.790  1.00  0.00     0.123 A 
ATOM      9  C   UNL     1      28.808  43.259  19.047  1.00  0.00     0.094 A 
ATOM     10  C   UNL     1      29.630  42.923  20.126  1.00  0.00     0.146 A 
ATOM     11  O   UNL     1      29.068  42.708  21.308  1.00  0.00    -0.452 OA
ENDROOT
BRANCH   1  12
ATOM     12  C   UNL     1      29.008  42.164  23.656  1.00  0.00     0.025 A 
ATOM     13  C   UNL     1      28.953  40.887  24.242  1.00  0.00     0.016 A 
ATOM     14  C   UNL     1      28.220  40.677  25.412  1.00  0.00     0.051 A 
ATOM     15  C   UNL     1      27.520  41.734  26.007  1.00  0.00     0.157 A 
ATOM     16  C   UNL     1      28.288  43.216  24.245  1.00  0.00     0.062 A 
ATOM     17  C   UNL     1      27.552  43.009  25.418  1.00  0.00     0.158 A 
BRANCH  15  18
ATOM     18  O   UNL     1      26.791  41.522  27.176  1.00  0.00    -0.504 OA
ATOM     19  H   UNL     1      25.930  40.987  27.175  1.00  0.00     0.293 HD
ENDBRANCH  15  18
BRANCH  17  20
ATOM     20  O   UNL     1      26.860  44.081  25.982  1.00  0.00    -0.504 OA
ATOM     21  H   UNL     1      27.334  44.911  26.316  1.00  0.00     0.293 HD
ENDBRANCH  17  20
ENDBRANCH   1  12
BRANCH   2  22
ATOM     22  O   UNL     1      31.901  42.125  23.512  1.00  0.00    -0.502 OA
ATOM     23  H   UNL     1      32.534  41.339  23.609  1.00  0.00     0.293 HD
ENDBRANCH   2  22
BRANCH   6  24
ATOM     24  O   UNL     1      32.927  42.828  18.332  1.00  0.00    -0.507 OA
ATOM     25  H   UNL     1      33.265  42.430  17.469  1.00  0.00     0.293 HD
ENDBRANCH   6  24
BRANCH   8  26
ATOM     26  O   UNL     1      28.519  43.859  16.734  1.00  0.00    -0.508 OA
ATOM     27  H   UNL     1      28.315  43.213  15.979  1.00  0.00     0.293 HD
ENDBRANCH   8  26
TORSDOF 6
ENDMDL
MODEL 3
REMARK VINA RESULT:     3.992      1.371      2.965
REMARK INTER + INTRA:           4.725
REMARK INTER:                   4.961
REMARK INTRA:                  -0.236
REMARK UNBOUND:                -0.084
REMARK SMILES O=c1c(O)c(-c2ccc(O)c(O)c2)oc2cc(O)cc(O)c12
REMARK SMILES IDX 5 1 3 2 2 3 1 4 22 5 20 6 19 7 17 8 16 9 15 10 14 11 6 12
REMARK SMILES IDX 7 13 8 14 9 15 13 16 11 17 10 18 12 20 4 22 21 24 18 26
REMARK H PARENT 10 19 12 21 4 23 21 25 18 27
REMARK Flexibility Score: inf
ROOT
ATOM      1  C   UNL     1      28.693  41.972  30.339  1.00  0.00     0.180 A 
ATOM      2  C   UNL     1      30.042  42.057  30.726  1.00  0.00     0.208 A 
ATOM      3  C   UNL     1      30.375  41.879  32.078  1.00  0.00     0.238 A 
ATOM      4  O   UNL     1      31.590  41.903  32.409  1.00  0.00    -0.285 OA
ATOM      5  C   UNL     1      29.355  41.636  33.029  1.00  0.00     0.111 A 
ATOM      6  C   UNL     1      29.574  41.481  34.430  1.00  0.00     0.134 A 
ATOM      7  C   UNL     1      28.508  41.113  35.259  1.00  0.00     0.093 A 
ATOM      8  C   UNL     1      27.216  40.959  34.748  1.00  0.00     0.123 A 
ATOM      9  C   UNL     1      26.982  41.167  33.391  1.00  0.00     0.094 A 
ATOM     10  C   UNL     1      28.033  41.499  32.531  1.00  0.00     0.146 A 
ATOM     11  O   UNL     1      27.766  41.677  31.244  1.00  0.00    -0.452 OA
ENDROOT
BRANCH   1  12
ATOM     12  C   UNL     1      28.262  42.173  28.937  1.00  0.00     0.025 A 
ATOM     13  C   UNL     1      28.323  43.437  28.325  1.00  0.00     0.016 A 
ATOM     14  C   UNL     1      27.888  43.608  27.009  1.00  0.00     0.051 A 
ATOM     15  C   UNL     1      27.371  42.522  26.288  1.00  0.00     0.157 A 
ATOM     16  C   UNL     1      27.724  41.093  28.217  1.00  0.00     0.062 A 
ATOM     17  C   UNL     1      27.287  41.259  26.898  1.00  0.00     0.158 A 
BRANCH  15  18
ATOM     18  O   UNL     1      26.940  42.695  24.975  1.00  0.00    -0.504 OA
ATOM     19  H   UNL     1      26.587  41.920  24.426  1.00  0.00     0.293 HD
ENDBRANCH  15  18
BRANCH  17  20
ATOM     20  O   UNL     1      26.772  40.161  26.211  1.00  0.00    -0.504 OA
ATOM     21  H   UNL     1      27.041  39.948  25.258  1.00  0.00     0.293 HD
ENDBRANCH  17  20
ENDBRANCH   1  12
BRANCH   2  22
ATOM     22  O   UNL     1      31.035  42.277  29.767  1.00  0.00    -0.502 OA
ATOM     23  H   UNL     1      30.960  43.000  29.061  1.00  0.00     0.293 HD
ENDBRANCH   2  22
BRANCH   6  24
ATOM     24  O   UNL     1      30.804  41.701  35.057  1.00  0.00    -0.507 OA
ATOM     25  H   UNL     1      30.925  41.855  36.047  1.00  0.00     0.293 HD
ENDBRANCH   6  24
BRANCH   8  26
ATOM     26  O   UNL     1      26.158  40.609  35.582  1.00  0.00    -0.508 OA
ATOM     27  H   UNL     1      26.316  40.186  36.490  1.00  0.00     0.293 HD
ENDBRANCH   8  26
TORSDOF 6
ENDMDL
