MODEL 1
REMARK VINA RESULT:    -3.722      0.000      0.000
REMARK INTER + INTRA:          -3.833
REMARK INTER:                  -4.592
REMARK INTRA:                   0.759
REMARK UNBOUND:                 0.759
REMARK SMILES CC1=CC=CC(C)(C)CC1=O
REMARK SMILES IDX 1 1 2 2 3 3 10 4 11 5 9 6 4 8 5 9 6 10 7 11 8 12
REMARK H PARENT
REMARK Flexibility Score: 80.00
ROOT
ATOM      1  C   UNL     1      17.537 -17.602 -19.140  1.00  0.00     0.048 C 
ATOM      2  C   UNL     1      16.126 -17.566 -19.678  1.00  0.00    -0.008 C 
ATOM      3  C   UNL     1      15.968 -17.411 -21.010  1.00  0.00     0.007 C 
ENDROOT
BRANCH   2   4
ATOM      4  C   UNL     1      15.025 -17.779 -18.704  1.00  0.00     0.159 C 
ATOM      5  O   UNL     1      15.310 -18.182 -17.544  1.00  0.00    -0.295 OA
BRANCH   4   6
ATOM      6  C   UNL     1      13.583 -17.529 -19.020  1.00  0.00     0.091 CG0
ATOM      7  G   UNL     1      13.058 -18.388 -20.192  1.00  0.00     0.000 G0
ENDBRANCH   4   6
ENDBRANCH   2   4
BRANCH   3   8
ATOM      8  C   UNL     1      14.729 -17.364 -21.822  1.00  0.00    -0.003 C 
ATOM      9  C   UNL     1      13.498 -17.787 -21.509  1.00  0.00    -0.020 C 
BRANCH   9  10
ATOM     10  C   UNL     1      13.067 -18.406 -20.200  1.00  0.00    -0.010 CG0
ATOM     11  C   UNL     1      11.523 -18.412 -20.152  1.00  0.00     0.016 C 
ATOM     12  C   UNL     1      13.552 -19.871 -20.125  1.00  0.00     0.016 C 
ATOM     13  G   UNL     1      13.581 -17.546 -19.024  1.00  0.00     0.000 G0
ENDBRANCH   9  10
ENDBRANCH   3   8
TORSDOF 0
ENDMDL
MODEL 2
REMARK VINA RESULT:    -3.628      7.393      8.251
REMARK INTER + INTRA:          -3.717
REMARK INTER:                  -4.459
REMARK INTRA:                   0.742
REMARK UNBOUND:                 0.759
REMARK SMILES CC1=CC=CC(C)(C)CC1=O
REMARK SMILES IDX 1 1 2 2 3 3 10 4 11 5 9 6 4 8 5 9 6 10 7 11 8 12
REMARK H PARENT
REMARK Flexibility Score: 80.00
ROOT
ATOM      1  C   UNL     1      20.153 -25.825 -23.159  1.00  0.00     0.048 C 
ATOM      2  C   UNL     1      18.913 -25.017 -23.462  1.00  0.00    -0.008 C 
ATOM      3  C   UNL     1      17.818 -25.245 -22.705  1.00  0.00     0.007 C 
ENDROOT
BRANCH   2   4
ATOM      4  C   UNL     1      19.022 -23.984 -24.523  1.00  0.00     0.159 C 
ATOM      5  O   UNL     1      20.163 -23.695 -24.976  1.00  0.00    -0.295 OA
BRANCH   4   6
ATOM      6  C   UNL     1      17.841 -23.265 -25.100  1.00  0.00     0.091 CG0
ATOM      7  G   UNL     1      17.023 -22.489 -24.043  1.00  0.00     0.000 G0
ENDBRANCH   4   6
ENDBRANCH   2   4
BRANCH   3   8
ATOM      8  C   UNL     1      16.483 -24.602 -22.747  1.00  0.00    -0.003 C 
ATOM      9  C   UNL     1      16.124 -23.434 -23.295  1.00  0.00    -0.020 C 
BRANCH   9  10
ATOM     10  C   UNL     1      17.024 -22.483 -24.049  1.00  0.00    -0.010 CG0
ATOM     11  C   UNL     1      16.134 -21.479 -24.815  1.00  0.00     0.016 C 
ATOM     12  C   UNL     1      17.898 -21.685 -23.056  1.00  0.00     0.016 C 
ATOM     13  G   UNL     1      17.861 -23.268 -25.083  1.00  0.00     0.000 G0
ENDBRANCH   9  10
ENDBRANCH   3   8
TORSDOF 0
ENDMDL
MODEL 3
REMARK VINA RESULT:    -3.596      7.164      8.202
REMARK INTER + INTRA:          -3.678
REMARK INTER:                  -4.455
REMARK INTRA:                   0.777
REMARK UNBOUND:                 0.759
REMARK SMILES CC1=CC=CC(C)(C)CC1=O
REMARK SMILES IDX 1 1 2 2 3 3 10 4 11 5 9 6 4 8 5 9 6 10 7 11 8 12
REMARK H PARENT
REMARK Flexibility Score: 80.00
ROOT
ATOM      1  C   UNL     1      17.583 -25.361 -21.729  1.00  0.00     0.048 C 
ATOM      2  C   UNL     1      17.291 -24.453 -22.901  1.00  0.00    -0.008 C 
ATOM      3  C   UNL     1      16.140 -23.749 -22.874  1.00  0.00     0.007 C 
ENDROOT
BRANCH   2   4
ATOM      4  C   UNL     1      18.333 -24.353 -23.954  1.00  0.00     0.159 C 
ATOM      5  O   UNL     1      19.470 -24.852 -23.734  1.00  0.00    -0.295 OA
BRANCH   4   6
ATOM      6  C   UNL     1      18.105 -23.697 -25.281  1.00  0.00     0.091 CG0
ATOM      7  G   UNL     1      17.708 -22.208 -25.165  1.00  0.00     0.000 G0
ENDBRANCH   4   6
ENDBRANCH   2   4
BRANCH   3   8
ATOM      8  C   UNL     1      15.599 -22.773 -23.851  1.00  0.00    -0.003 C 
ATOM      9  C   UNL     1      16.239 -22.102 -24.817  1.00  0.00    -0.020 C 
BRANCH   9  10
ATOM     10  C   UNL     1      17.705 -22.210 -25.165  1.00  0.00    -0.010 CG0
ATOM     11  C   UNL     1      17.928 -21.534 -26.536  1.00  0.00     0.016 C 
ATOM     12  C   UNL     1      18.553 -21.455 -24.117  1.00  0.00     0.016 C 
ATOM     13  G   UNL     1      18.101 -23.698 -25.292  1.00  0.00     0.000 G0
ENDBRANCH   9  10
ENDBRANCH   3   8
TORSDOF 0
ENDMDL
MODEL 4
REMARK VINA RESULT:    -3.541      7.960      8.954
REMARK INTER + INTRA:          -3.610
REMARK INTER:                  -4.344
REMARK INTRA:                   0.735
REMARK UNBOUND:                 0.759
REMARK SMILES CC1=CC=CC(C)(C)CC1=O
REMARK SMILES IDX 1 1 2 2 3 3 10 4 11 5 9 6 4 8 5 9 6 10 7 11 8 12
REMARK H PARENT
REMARK Flexibility Score: 80.00
ROOT
ATOM      1  C   UNL     1      17.406 -22.002 -25.266  1.00  0.00     0.048 C 
ATOM      2  C   UNL     1      17.743 -22.985 -24.169  1.00  0.00    -0.008 C 
ATOM      3  C   UNL     1      16.723 -23.666 -23.604  1.00  0.00     0.007 C 
ENDROOT
BRANCH   2   4
ATOM      4  C   UNL     1      19.181 -23.177 -23.852  1.00  0.00     0.159 C 
ATOM      5  O   UNL     1      20.046 -22.708 -24.640  1.00  0.00    -0.295 OA
BRANCH   4   6
ATOM      6  C   UNL     1      19.668 -23.894 -22.630  1.00  0.00     0.091 CG0
ATOM      7  G   UNL     1      19.215 -25.369 -22.567  1.00  0.00     0.000 G0
ENDBRANCH   4   6
ENDBRANCH   2   4
BRANCH   3   8
ATOM      8  C   UNL     1      16.742 -24.698 -22.541  1.00  0.00    -0.003 C 
ATOM      9  C   UNL     1      17.768 -25.433 -22.095  1.00  0.00    -0.020 C 
BRANCH   9  10
ATOM     10  C   UNL     1      19.200 -25.357 -22.571  1.00  0.00    -0.010 CG0
ATOM     11  C   UNL     1      20.094 -26.071 -21.534  1.00  0.00     0.016 C 
ATOM     12  C   UNL     1      19.348 -26.098 -23.919  1.00  0.00     0.016 C 
ATOM     13  G   UNL     1      19.643 -23.879 -22.653  1.00  0.00     0.000 G0
ENDBRANCH   9  10
ENDBRANCH   3   8
TORSDOF 0
ENDMDL
MODEL 5
REMARK VINA RESULT:    -3.485     12.374     13.478
REMARK INTER + INTRA:          -3.541
REMARK INTER:                  -4.293
REMARK INTRA:                   0.752
REMARK UNBOUND:                 0.759
REMARK SMILES CC1=CC=CC(C)(C)CC1=O
REMARK SMILES IDX 1 1 2 2 3 3 10 4 11 5 9 6 4 8 5 9 6 10 7 11 8 12
REMARK H PARENT
REMARK Flexibility Score: 80.00
ROOT
ATOM      1  C   UNL     1       4.550 -12.516 -25.700  1.00  0.00     0.048 C 
ATOM      2  C   UNL     1       5.526 -11.363 -25.676  1.00  0.00    -0.008 C 
ATOM      3  C   UNL     1       6.697 -11.522 -26.330  1.00  0.00     0.007 C 
ENDROOT
BRANCH   2   4
ATOM      4  C   UNL     1       5.085 -10.118 -24.998  1.00  0.00     0.159 C 
ATOM      5  O   UNL     1       3.877 -10.007 -24.654  1.00  0.00    -0.295 OA
BRANCH   4   6
ATOM      6  C   UNL     1       6.006  -8.978 -24.684  1.00  0.00     0.091 CG0
ATOM      7  G   UNL     1       6.667  -8.365 -25.938  1.00  0.00     0.000 G0
ENDBRANCH   4   6
ENDBRANCH   2   4
BRANCH   3   8
ATOM      8  C   UNL     1       7.825 -10.576 -26.503  1.00  0.00    -0.003 C 
ATOM      9  C   UNL     1       7.842  -9.246 -26.353  1.00  0.00    -0.020 C 
BRANCH   9  10
ATOM     10  C   UNL     1       6.683  -8.375 -25.930  1.00  0.00    -0.010 CG0
ATOM     11  C   UNL     1       7.237  -6.987 -25.537  1.00  0.00     0.016 C 
ATOM     12  C   UNL     1       5.709  -8.182 -27.114  1.00  0.00     0.016 C 
ATOM     13  G   UNL     1       5.997  -8.988 -24.689  1.00  0.00     0.000 G0
ENDBRANCH   9  10
ENDBRANCH   3   8
TORSDOF 0
ENDMDL
MODEL 6
REMARK VINA RESULT:    -3.459      2.111      3.926
REMARK INTER + INTRA:          -3.509
REMARK INTER:                  -4.264
REMARK INTRA:                   0.755
REMARK UNBOUND:                 0.759
REMARK SMILES CC1=CC=CC(C)(C)CC1=O
REMARK SMILES IDX 1 1 2 2 3 3 10 4 11 5 9 6 4 8 5 9 6 10 7 11 8 12
REMARK H PARENT
REMARK Flexibility Score: 80.00
ROOT
ATOM      1  C   UNL     1      10.787 -18.164 -20.246  1.00  0.00     0.048 C 
ATOM      2  C   UNL     1      12.273 -17.900 -20.191  1.00  0.00    -0.008 C 
ATOM      3  C   UNL     1      12.848 -17.811 -18.972  1.00  0.00     0.007 C 
ENDROOT
BRANCH   2   4
ATOM      4  C   UNL     1      12.996 -17.833 -21.486  1.00  0.00     0.159 C 
ATOM      5  O   UNL     1      12.395 -18.185 -22.537  1.00  0.00    -0.295 OA
BRANCH   4   6
ATOM      6  C   UNL     1      14.410 -17.356 -21.619  1.00  0.00     0.091 CG0
ATOM      7  G   UNL     1      15.414 -18.184 -20.787  1.00  0.00     0.000 G0
ENDBRANCH   4   6
ENDBRANCH   2   4
BRANCH   3   8
ATOM      8  C   UNL     1      14.267 -17.588 -18.604  1.00  0.00    -0.003 C 
ATOM      9  C   UNL     1      15.368 -17.751 -19.347  1.00  0.00    -0.020 C 
BRANCH   9  10
ATOM     10  C   UNL     1      15.419 -18.188 -20.793  1.00  0.00    -0.010 CG0
ATOM     11  C   UNL     1      16.834 -17.894 -21.338  1.00  0.00     0.016 C 
ATOM     12  C   UNL     1      15.176 -19.711 -20.891  1.00  0.00     0.016 C 
ATOM     13  G   UNL     1      14.404 -17.368 -21.620  1.00  0.00     0.000 G0
ENDBRANCH   9  10
ENDBRANCH   3   8
TORSDOF 0
ENDMDL
MODEL 7
REMARK VINA RESULT:    -3.458      7.931      8.906
REMARK INTER + INTRA:          -3.508
REMARK INTER:                  -4.261
REMARK INTRA:                   0.753
REMARK UNBOUND:                 0.759
REMARK SMILES CC1=CC=CC(C)(C)CC1=O
REMARK SMILES IDX 1 1 2 2 3 3 10 4 11 5 9 6 4 8 5 9 6 10 7 11 8 12
REMARK H PARENT
REMARK Flexibility Score: 80.00
ROOT
ATOM      1  C   UNL     1      18.786 -25.679 -19.544  1.00  0.00     0.048 C 
ATOM      2  C   UNL     1      18.732 -25.299 -21.005  1.00  0.00    -0.008 C 
ATOM      3  C   UNL     1      17.531 -25.354 -21.621  1.00  0.00     0.007 C 
ENDROOT
BRANCH   2   4
ATOM      4  C   UNL     1      19.993 -24.823 -21.627  1.00  0.00     0.159 C 
ATOM      5  O   UNL     1      20.983 -24.581 -20.884  1.00  0.00    -0.295 OA
BRANCH   4   6
ATOM      6  C   UNL     1      20.162 -24.621 -23.101  1.00  0.00     0.091 CG0
ATOM      7  G   UNL     1      19.169 -23.598 -23.695  1.00  0.00     0.000 G0
ENDBRANCH   4   6
ENDBRANCH   2   4
BRANCH   3   8
ATOM      8  C   UNL     1      17.164 -25.022 -23.019  1.00  0.00    -0.003 C 
ATOM      9  C   UNL     1      17.827 -24.278 -23.912  1.00  0.00    -0.020 C 
BRANCH   9  10
ATOM     10  C   UNL     1      19.163 -23.604 -23.704  1.00  0.00    -0.010 CG0
ATOM     11  C   UNL     1      19.703 -23.164 -25.083  1.00  0.00     0.016 C 
ATOM     12  C   UNL     1      18.986 -22.339 -22.835  1.00  0.00     0.016 C 
ATOM     13  G   UNL     1      20.164 -24.611 -23.094  1.00  0.00     0.000 G0
ENDBRANCH   9  10
ENDBRANCH   3   8
TORSDOF 0
ENDMDL
MODEL 8
REMARK VINA RESULT:    -3.380      1.584      2.335
REMARK INTER + INTRA:          -3.412
REMARK INTER:                  -4.163
REMARK INTRA:                   0.751
REMARK UNBOUND:                 0.759
REMARK SMILES CC1=CC=CC(C)(C)CC1=O
REMARK SMILES IDX 1 1 2 2 3 3 10 4 11 5 9 6 4 8 5 9 6 10 7 11 8 12
REMARK H PARENT
REMARK Flexibility Score: 80.00
ROOT
ATOM      1  C   UNL     1      15.008 -17.836 -17.873  1.00  0.00     0.048 C 
ATOM      2  C   UNL     1      14.825 -17.697 -19.367  1.00  0.00    -0.008 C 
ATOM      3  C   UNL     1      15.934 -17.534 -20.119  1.00  0.00     0.007 C 
ENDROOT
BRANCH   2   4
ATOM      4  C   UNL     1      13.443 -17.827 -19.894  1.00  0.00     0.159 C 
ATOM      5  O   UNL     1      12.528 -18.207 -19.114  1.00  0.00    -0.295 OA
BRANCH   4   6
ATOM      6  C   UNL     1      13.068 -17.520 -21.311  1.00  0.00     0.091 CG0
ATOM      7  G   UNL     1      13.849 -18.361 -22.345  1.00  0.00     0.000 G0
ENDBRANCH   4   6
ENDBRANCH   2   4
BRANCH   3   8
ATOM      8  C   UNL     1      16.075 -17.398 -21.589  1.00  0.00    -0.003 C 
ATOM      9  C   UNL     1      15.214 -17.742 -22.555  1.00  0.00    -0.020 C 
BRANCH   9  10
ATOM     10  C   UNL     1      13.841 -18.342 -22.362  1.00  0.00    -0.010 CG0
ATOM     11  C   UNL     1      13.075 -18.241 -23.700  1.00  0.00     0.016 C 
ATOM     12  C   UNL     1      13.967 -19.839 -21.996  1.00  0.00     0.016 C 
ATOM     13  G   UNL     1      13.064 -17.533 -21.300  1.00  0.00     0.000 G0
ENDBRANCH   9  10
ENDBRANCH   3   8
TORSDOF 0
ENDMDL
MODEL 9
REMARK VINA RESULT:    -3.311      1.645      2.564
REMARK INTER + INTRA:          -3.327
REMARK INTER:                  -4.385
REMARK INTRA:                   1.059
REMARK UNBOUND:                 0.759
REMARK SMILES CC1=CC=CC(C)(C)CC1=O
REMARK SMILES IDX 1 1 2 2 3 3 10 4 11 5 9 6 4 8 5 9 6 10 7 11 8 12
REMARK H PARENT
REMARK Flexibility Score: 80.00
ROOT
ATOM      1  C   UNL     1      17.905 -17.387 -18.630  1.00  0.00     0.048 C 
ATOM      2  C   UNL     1      16.502 -17.540 -19.169  1.00  0.00    -0.008 C 
ATOM      3  C   UNL     1      15.502 -17.696 -18.274  1.00  0.00     0.007 C 
ENDROOT
BRANCH   2   4
ATOM      4  C   UNL     1      16.327 -17.432 -20.639  1.00  0.00     0.159 C 
ATOM      5  O   UNL     1      17.340 -17.543 -21.382  1.00  0.00    -0.295 OA
BRANCH   4   6
ATOM      6  C   UNL     1      15.001 -17.209 -21.299  1.00  0.00     0.091 CG0
ATOM      7  G   UNL     1      13.972 -18.320 -20.992  1.00  0.00     0.000 G0
ENDBRANCH   4   6
ENDBRANCH   2   4
BRANCH   3   8
ATOM      8  C   UNL     1      14.044 -17.842 -18.495  1.00  0.00    -0.003 C 
ATOM      9  C   UNL     1      13.382 -18.094 -19.631  1.00  0.00    -0.020 C 
BRANCH   9  10
ATOM     10  C   UNL     1      13.993 -18.323 -20.993  1.00  0.00    -0.010 CG0
ATOM     11  C   UNL     1      14.751 -19.669 -20.964  1.00  0.00     0.016 C 
ATOM     12  C   UNL     1      12.880 -18.426 -22.060  1.00  0.00     0.016 C 
ATOM     13  G   UNL     1      15.012 -17.203 -21.302  1.00  0.00     0.000 G0
ENDBRANCH   9  10
ENDBRANCH   3   8
TORSDOF 0
ENDMDL
