MODEL 1
REMARK VINA RESULT:    -4.125      0.000      0.000
REMARK INTER + INTRA:         -11.921
REMARK INTER:                  -9.431
REMARK INTRA:                  -2.490
REMARK UNBOUND:                -2.490
REMARK SMILES CCCCCCCCCCCCCCCCCCCCCCCC(=O)[O-]
REMARK SMILES IDX 13 1 14 2 15 3 16 4 17 5 18 6 19 7 20 8 21 9 22 10 23 11
REMARK SMILES IDX 24 12 25 13 26 14 12 15 11 16 10 17 9 18 8 19 7 20 6 21 5 22
REMARK SMILES IDX 4 23 3 24 2 25 1 26
REMARK H PARENT
REMARK Flexibility Score: inf
ROOT
ATOM      1  C   UNL     1      23.052 -19.359 -16.913  1.00  0.00     0.000 C 
ENDROOT
BRANCH   1   2
ATOM      2  C   UNL     1      21.554 -19.644 -17.117  1.00  0.00     0.000 C 
BRANCH   2   3
ATOM      3  C   UNL     1      20.949 -19.075 -18.416  1.00  0.00     0.000 C 
BRANCH   3   4
ATOM      4  C   UNL     1      20.217 -20.124 -19.280  1.00  0.00     0.000 C 
BRANCH   4   5
ATOM      5  C   UNL     1      21.103 -21.336 -19.607  1.00  0.00     0.000 C 
BRANCH   5   6
ATOM      6  C   UNL     1      20.470 -22.641 -19.112  1.00  0.00     0.000 C 
BRANCH   6   7
ATOM      7  C   UNL     1      19.047 -22.802 -19.669  1.00  0.00     0.000 C 
BRANCH   7   8
ATOM      8  C   UNL     1      18.649 -24.274 -19.865  1.00  0.00     0.000 C 
BRANCH   8   9
ATOM      9  C   UNL     1      17.256 -24.592 -19.296  1.00  0.00     0.000 C 
BRANCH   9  10
ATOM     10  C   UNL     1      16.877 -23.689 -18.111  1.00  0.00     0.006 C 
BRANCH  10  11
ATOM     11  C   UNL     1      15.378 -23.737 -17.785  1.00  0.00     0.053 C 
BRANCH  11  12
ATOM     12  C   UNL     1      14.589 -23.039 -18.848  1.00  0.00     0.041 C 
ATOM     13  O   UNL     1      14.941 -21.899 -19.253  1.00  0.00    -0.550 OA
ATOM     14  O   UNL     1      13.487 -23.665 -19.420  1.00  0.00    -0.550 OA
ENDBRANCH  11  12
ENDBRANCH  10  11
ENDBRANCH   9  10
ENDBRANCH   8   9
ENDBRANCH   7   8
ENDBRANCH   6   7
ENDBRANCH   5   6
ENDBRANCH   4   5
ENDBRANCH   3   4
ENDBRANCH   2   3
ENDBRANCH   1   2
BRANCH   1  15
ATOM     15  C   UNL     1      23.917 -19.465 -18.186  1.00  0.00     0.000 C 
BRANCH  15  16
ATOM     16  C   UNL     1      25.022 -18.394 -18.287  1.00  0.00     0.000 C 
BRANCH  16  17
ATOM     17  C   UNL     1      24.790 -17.419 -19.455  1.00  0.00     0.000 C 
BRANCH  17  18
ATOM     18  C   UNL     1      23.972 -16.182 -19.042  1.00  0.00    -0.000 C 
BRANCH  18  19
ATOM     19  C   UNL     1      24.429 -15.531 -17.722  1.00  0.00    -0.000 C 
BRANCH  19  20
ATOM     20  C   UNL     1      23.414 -15.732 -16.581  1.00  0.00    -0.000 C 
BRANCH  20  21
ATOM     21  C   UNL     1      21.984 -15.958 -17.096  1.00  0.00    -0.000 C 
BRANCH  21  22
ATOM     22  C   UNL     1      20.916 -15.509 -16.086  1.00  0.00    -0.000 C 
BRANCH  22  23
ATOM     23  C   UNL     1      19.610 -16.288 -16.281  1.00  0.00    -0.000 C 
BRANCH  23  24
ATOM     24  C   UNL     1      18.743 -16.229 -15.014  1.00  0.00    -0.000 C 
BRANCH  24  25
ATOM     25  C   UNL     1      17.338 -15.666 -15.286  1.00  0.00    -0.003 C 
ATOM     26  C   UNL     1      17.368 -14.307 -15.985  1.00  0.00     0.004 C 
ENDBRANCH  24  25
ENDBRANCH  23  24
ENDBRANCH  22  23
ENDBRANCH  21  22
ENDBRANCH  20  21
ENDBRANCH  19  20
ENDBRANCH  18  19
ENDBRANCH  17  18
ENDBRANCH  16  17
ENDBRANCH  15  16
ENDBRANCH   1  15
TORSDOF 22
ENDMDL
MODEL 2
REMARK VINA RESULT:    -4.091      2.651      7.845
REMARK INTER + INTRA:         -11.843
REMARK INTER:                  -9.886
REMARK INTRA:                  -1.957
REMARK UNBOUND:                -2.490
REMARK SMILES CCCCCCCCCCCCCCCCCCCCCCCC(=O)[O-]
REMARK SMILES IDX 13 1 14 2 15 3 16 4 17 5 18 6 19 7 20 8 21 9 22 10 23 11
REMARK SMILES IDX 24 12 25 13 26 14 12 15 11 16 10 17 9 18 8 19 7 20 6 21 5 22
REMARK SMILES IDX 4 23 3 24 2 25 1 26
REMARK H PARENT
REMARK Flexibility Score: inf
ROOT
ATOM      1  C   UNL     1      21.523 -20.001 -17.378  1.00  0.00     0.000 C 
ENDROOT
BRANCH   1   2
ATOM      2  C   UNL     1      22.924 -19.466 -17.033  1.00  0.00     0.000 C 
BRANCH   2   3
ATOM      3  C   UNL     1      23.897 -19.362 -18.224  1.00  0.00     0.000 C 
BRANCH   3   4
ATOM      4  C   UNL     1      25.053 -18.361 -18.005  1.00  0.00     0.000 C 
BRANCH   4   5
ATOM      5  C   UNL     1      24.715 -17.298 -16.948  1.00  0.00     0.000 C 
BRANCH   5   6
ATOM      6  C   UNL     1      24.544 -15.913 -17.585  1.00  0.00     0.000 C 
BRANCH   6   7
ATOM      7  C   UNL     1      23.282 -15.220 -17.051  1.00  0.00     0.000 C 
BRANCH   7   8
ATOM      8  C   UNL     1      22.077 -16.170 -16.959  1.00  0.00     0.000 C 
BRANCH   8   9
ATOM      9  C   UNL     1      20.861 -15.522 -16.275  1.00  0.00     0.000 C 
BRANCH   9  10
ATOM     10  C   UNL     1      19.621 -16.430 -16.285  1.00  0.00     0.006 C 
BRANCH  10  11
ATOM     11  C   UNL     1      18.579 -16.021 -15.235  1.00  0.00     0.053 C 
BRANCH  11  12
ATOM     12  C   UNL     1      17.519 -15.166 -15.854  1.00  0.00     0.041 C 
ATOM     13  O   UNL     1      16.498 -15.696 -16.370  1.00  0.00    -0.550 OA
ATOM     14  O   UNL     1      17.637 -13.781 -15.826  1.00  0.00    -0.550 OA
ENDBRANCH  11  12
ENDBRANCH  10  11
ENDBRANCH   9  10
ENDBRANCH   8   9
ENDBRANCH   7   8
ENDBRANCH   6   7
ENDBRANCH   5   6
ENDBRANCH   4   5
ENDBRANCH   3   4
ENDBRANCH   2   3
ENDBRANCH   1   2
BRANCH   1  15
ATOM     15  C   UNL     1      20.907 -19.436 -18.674  1.00  0.00     0.000 C 
BRANCH  15  16
ATOM     16  C   UNL     1      20.258 -20.502 -19.580  1.00  0.00     0.000 C 
BRANCH  16  17
ATOM     17  C   UNL     1      20.379 -21.921 -18.996  1.00  0.00     0.000 C 
BRANCH  17  18
ATOM     18  C   UNL     1      19.060 -22.711 -19.080  1.00  0.00    -0.000 C 
BRANCH  18  19
ATOM     19  C   UNL     1      18.395 -22.690 -20.470  1.00  0.00    -0.000 C 
BRANCH  19  20
ATOM     20  C   UNL     1      16.998 -23.340 -20.467  1.00  0.00    -0.000 C 
BRANCH  20  21
ATOM     21  C   UNL     1      16.067 -22.731 -19.407  1.00  0.00    -0.000 C 
BRANCH  21  22
ATOM     22  C   UNL     1      15.401 -23.799 -18.526  1.00  0.00    -0.000 C 
BRANCH  22  23
ATOM     23  C   UNL     1      15.538 -23.451 -17.038  1.00  0.00    -0.000 C 
BRANCH  23  24
ATOM     24  C   UNL     1      14.460 -22.443 -16.611  1.00  0.00    -0.000 C 
BRANCH  24  25
ATOM     25  C   UNL     1      14.637 -21.969 -15.158  1.00  0.00    -0.003 C 
ATOM     26  C   UNL     1      13.357 -21.378 -14.567  1.00  0.00     0.004 C 
ENDBRANCH  24  25
ENDBRANCH  23  24
ENDBRANCH  22  23
ENDBRANCH  21  22
ENDBRANCH  20  21
ENDBRANCH  19  20
ENDBRANCH  18  19
ENDBRANCH  17  18
ENDBRANCH  16  17
ENDBRANCH  15  16
ENDBRANCH   1  15
TORSDOF 22
ENDMDL
MODEL 3
REMARK VINA RESULT:    -3.979      2.631      8.224
REMARK INTER + INTRA:         -11.586
REMARK INTER:                  -9.513
REMARK INTRA:                  -2.073
REMARK UNBOUND:                -2.490
REMARK SMILES CCCCCCCCCCCCCCCCCCCCCCCC(=O)[O-]
REMARK SMILES IDX 13 1 14 2 15 3 16 4 17 5 18 6 19 7 20 8 21 9 22 10 23 11
REMARK SMILES IDX 24 12 25 13 26 14 12 15 11 16 10 17 9 18 8 19 7 20 6 21 5 22
REMARK SMILES IDX 4 23 3 24 2 25 1 26
REMARK H PARENT
REMARK Flexibility Score: inf
ROOT
ATOM      1  C   UNL     1      20.954 -20.022 -18.153  1.00  0.00     0.000 C 
ENDROOT
BRANCH   1   2
ATOM      2  C   UNL     1      22.263 -19.760 -17.387  1.00  0.00     0.000 C 
BRANCH   2   3
ATOM      3  C   UNL     1      23.439 -19.262 -18.251  1.00  0.00     0.000 C 
BRANCH   3   4
ATOM      4  C   UNL     1      24.688 -18.856 -17.438  1.00  0.00     0.000 C 
BRANCH   4   5
ATOM      5  C   UNL     1      24.391 -17.737 -16.428  1.00  0.00     0.000 C 
BRANCH   5   6
ATOM      6  C   UNL     1      24.464 -16.355 -17.090  1.00  0.00     0.000 C 
BRANCH   6   7
ATOM      7  C   UNL     1      23.254 -15.497 -16.693  1.00  0.00     0.000 C 
BRANCH   7   8
ATOM      8  C   UNL     1      21.913 -16.180 -17.009  1.00  0.00     0.000 C 
BRANCH   8   9
ATOM      9  C   UNL     1      20.722 -15.499 -16.313  1.00  0.00     0.000 C 
BRANCH   9  10
ATOM     10  C   UNL     1      19.496 -16.420 -16.198  1.00  0.00     0.006 C 
BRANCH  10  11
ATOM     11  C   UNL     1      18.520 -15.973 -15.102  1.00  0.00     0.053 C 
BRANCH  11  12
ATOM     12  C   UNL     1      17.465 -15.079 -15.672  1.00  0.00     0.041 C 
ATOM     13  O   UNL     1      16.947 -15.343 -16.790  1.00  0.00    -0.550 OA
ATOM     14  O   UNL     1      17.022 -13.976 -14.950  1.00  0.00    -0.550 OA
ENDBRANCH  11  12
ENDBRANCH  10  11
ENDBRANCH   9  10
ENDBRANCH   8   9
ENDBRANCH   7   8
ENDBRANCH   6   7
ENDBRANCH   5   6
ENDBRANCH   4   5
ENDBRANCH   3   4
ENDBRANCH   2   3
ENDBRANCH   1   2
BRANCH   1  15
ATOM     15  C   UNL     1      21.043 -21.103 -19.249  1.00  0.00     0.000 C 
BRANCH  15  16
ATOM     16  C   UNL     1      20.018 -22.245 -19.090  1.00  0.00     0.000 C 
BRANCH  16  17
ATOM     17  C   UNL     1      19.070 -22.355 -20.298  1.00  0.00     0.000 C 
BRANCH  17  18
ATOM     18  C   UNL     1      17.767 -23.103 -19.964  1.00  0.00    -0.000 C 
BRANCH  18  19
ATOM     19  C   UNL     1      17.248 -22.865 -18.532  1.00  0.00    -0.000 C 
BRANCH  19  20
ATOM     20  C   UNL     1      16.411 -24.045 -18.002  1.00  0.00    -0.000 C 
BRANCH  20  21
ATOM     21  C   UNL     1      14.924 -23.690 -17.843  1.00  0.00    -0.000 C 
BRANCH  21  22
ATOM     22  C   UNL     1      14.061 -24.246 -18.985  1.00  0.00    -0.000 C 
BRANCH  22  23
ATOM     23  C   UNL     1      13.782 -23.169 -20.041  1.00  0.00    -0.000 C 
BRANCH  23  24
ATOM     24  C   UNL     1      13.817 -21.766 -19.415  1.00  0.00    -0.000 C 
BRANCH  24  25
ATOM     25  C   UNL     1      13.912 -20.651 -20.469  1.00  0.00    -0.003 C 
ATOM     26  C   UNL     1      15.313 -20.048 -20.570  1.00  0.00     0.004 C 
ENDBRANCH  24  25
ENDBRANCH  23  24
ENDBRANCH  22  23
ENDBRANCH  21  22
ENDBRANCH  20  21
ENDBRANCH  19  20
ENDBRANCH  18  19
ENDBRANCH  17  18
ENDBRANCH  16  17
ENDBRANCH  15  16
ENDBRANCH   1  15
TORSDOF 22
ENDMDL
MODEL 4
REMARK VINA RESULT:    -3.896      1.220      2.381
REMARK INTER + INTRA:         -11.398
REMARK INTER:                  -9.580
REMARK INTRA:                  -1.818
REMARK UNBOUND:                -2.490
REMARK SMILES CCCCCCCCCCCCCCCCCCCCCCCC(=O)[O-]
REMARK SMILES IDX 13 1 14 2 15 3 16 4 17 5 18 6 19 7 20 8 21 9 22 10 23 11
REMARK SMILES IDX 24 12 25 13 26 14 12 15 11 16 10 17 9 18 8 19 7 20 6 21 5 22
REMARK SMILES IDX 4 23 3 24 2 25 1 26
REMARK H PARENT
REMARK Flexibility Score: inf
ROOT
ATOM      1  C   UNL     1      21.005 -19.465 -17.989  1.00  0.00     0.000 C 
ENDROOT
BRANCH   1   2
ATOM      2  C   UNL     1      20.627 -20.254 -19.255  1.00  0.00     0.000 C 
BRANCH   2   3
ATOM      3  C   UNL     1      20.410 -21.766 -19.045  1.00  0.00     0.000 C 
BRANCH   3   4
ATOM      4  C   UNL     1      19.033 -22.275 -19.523  1.00  0.00     0.000 C 
BRANCH   4   5
ATOM      5  C   UNL     1      18.989 -23.805 -19.658  1.00  0.00     0.000 C 
BRANCH   5   6
ATOM      6  C   UNL     1      17.647 -24.368 -19.173  1.00  0.00     0.000 C 
BRANCH   6   7
ATOM      7  C   UNL     1      16.889 -23.327 -18.337  1.00  0.00     0.000 C 
BRANCH   7   8
ATOM      8  C   UNL     1      15.570 -23.871 -17.765  1.00  0.00     0.000 C 
BRANCH   8   9
ATOM      9  C   UNL     1      14.615 -24.382 -18.857  1.00  0.00     0.000 C 
BRANCH   9  10
ATOM     10  C   UNL     1      14.303 -23.316 -19.919  1.00  0.00     0.006 C 
BRANCH  10  11
ATOM     11  C   UNL     1      13.821 -21.994 -19.308  1.00  0.00     0.053 C 
BRANCH  11  12
ATOM     12  C   UNL     1      14.313 -20.834 -20.114  1.00  0.00     0.041 C 
ATOM     13  O   UNL     1      15.543 -20.712 -20.366  1.00  0.00    -0.550 OA
ATOM     14  O   UNL     1      13.411 -19.907 -20.623  1.00  0.00    -0.550 OA
ENDBRANCH  11  12
ENDBRANCH  10  11
ENDBRANCH   9  10
ENDBRANCH   8   9
ENDBRANCH   7   8
ENDBRANCH   6   7
ENDBRANCH   5   6
ENDBRANCH   4   5
ENDBRANCH   3   4
ENDBRANCH   2   3
ENDBRANCH   1   2
BRANCH   1  15
ATOM     15  C   UNL     1      22.370 -19.832 -17.372  1.00  0.00     0.000 C 
BRANCH  15  16
ATOM     16  C   UNL     1      23.557 -19.704 -18.349  1.00  0.00     0.000 C 
BRANCH  16  17
ATOM     17  C   UNL     1      24.654 -18.764 -17.819  1.00  0.00     0.000 C 
BRANCH  17  18
ATOM     18  C   UNL     1      24.196 -17.947 -16.597  1.00  0.00    -0.000 C 
BRANCH  18  19
ATOM     19  C   UNL     1      23.931 -16.458 -16.892  1.00  0.00    -0.000 C 
BRANCH  19  20
ATOM     20  C   UNL     1      22.440 -16.160 -17.139  1.00  0.00    -0.000 C 
BRANCH  20  21
ATOM     21  C   UNL     1      21.938 -14.951 -16.334  1.00  0.00    -0.000 C 
BRANCH  21  22
ATOM     22  C   UNL     1      20.405 -14.860 -16.304  1.00  0.00    -0.000 C 
BRANCH  22  23
ATOM     23  C   UNL     1      19.771 -16.250 -16.167  1.00  0.00    -0.000 C 
BRANCH  23  24
ATOM     24  C   UNL     1      18.392 -16.159 -15.497  1.00  0.00    -0.000 C 
BRANCH  24  25
ATOM     25  C   UNL     1      17.654 -14.854 -15.838  1.00  0.00    -0.003 C 
ATOM     26  C   UNL     1      16.465 -15.073 -16.773  1.00  0.00     0.004 C 
ENDBRANCH  24  25
ENDBRANCH  23  24
ENDBRANCH  22  23
ENDBRANCH  21  22
ENDBRANCH  20  21
ENDBRANCH  19  20
ENDBRANCH  18  19
ENDBRANCH  17  18
ENDBRANCH  16  17
ENDBRANCH  15  16
ENDBRANCH   1  15
TORSDOF 22
ENDMDL
MODEL 5
REMARK VINA RESULT:    -3.806      2.665      8.250
REMARK INTER + INTRA:         -11.190
REMARK INTER:                  -8.539
REMARK INTRA:                  -2.651
REMARK UNBOUND:                -2.490
REMARK SMILES CCCCCCCCCCCCCCCCCCCCCCCC(=O)[O-]
REMARK SMILES IDX 13 1 14 2 15 3 16 4 17 5 18 6 19 7 20 8 21 9 22 10 23 11
REMARK SMILES IDX 24 12 25 13 26 14 12 15 11 16 10 17 9 18 8 19 7 20 6 21 5 22
REMARK SMILES IDX 4 23 3 24 2 25 1 26
REMARK H PARENT
REMARK Flexibility Score: inf
ROOT
ATOM      1  C   UNL     1      20.607 -20.701 -18.691  1.00  0.00     0.000 C 
ENDROOT
BRANCH   1   2
ATOM      2  C   UNL     1      21.407 -19.437 -18.331  1.00  0.00     0.000 C 
BRANCH   2   3
ATOM      3  C   UNL     1      22.834 -19.691 -17.804  1.00  0.00     0.000 C 
BRANCH   3   4
ATOM      4  C   UNL     1      23.868 -19.988 -18.910  1.00  0.00     0.000 C 
BRANCH   4   5
ATOM      5  C   UNL     1      24.679 -18.744 -19.305  1.00  0.00     0.000 C 
BRANCH   5   6
ATOM      6  C   UNL     1      25.017 -17.887 -18.079  1.00  0.00     0.000 C 
BRANCH   6   7
ATOM      7  C   UNL     1      24.645 -16.417 -18.322  1.00  0.00     0.000 C 
BRANCH   7   8
ATOM      8  C   UNL     1      23.157 -16.131 -18.065  1.00  0.00     0.000 C 
BRANCH   8   9
ATOM      9  C   UNL     1      22.881 -15.672 -16.623  1.00  0.00     0.000 C 
BRANCH   9  10
ATOM     10  C   UNL     1      21.419 -15.251 -16.403  1.00  0.00     0.006 C 
BRANCH  10  11
ATOM     11  C   UNL     1      20.440 -16.426 -16.529  1.00  0.00     0.053 C 
BRANCH  11  12
ATOM     12  C   UNL     1      19.145 -16.103 -15.852  1.00  0.00     0.041 C 
ATOM     13  O   UNL     1      18.428 -15.156 -16.274  1.00  0.00    -0.550 OA
ATOM     14  O   UNL     1      18.708 -16.873 -14.780  1.00  0.00    -0.550 OA
ENDBRANCH  11  12
ENDBRANCH  10  11
ENDBRANCH   9  10
ENDBRANCH   8   9
ENDBRANCH   7   8
ENDBRANCH   6   7
ENDBRANCH   5   6
ENDBRANCH   4   5
ENDBRANCH   3   4
ENDBRANCH   2   3
ENDBRANCH   1   2
BRANCH   1  15
ATOM     15  C   UNL     1      20.594 -21.061 -20.191  1.00  0.00     0.000 C 
BRANCH  15  16
ATOM     16  C   UNL     1      21.399 -22.330 -20.540  1.00  0.00     0.000 C 
BRANCH  16  17
ATOM     17  C   UNL     1      20.927 -23.561 -19.746  1.00  0.00     0.000 C 
BRANCH  17  18
ATOM     18  C   UNL     1      20.085 -24.530 -20.597  1.00  0.00    -0.000 C 
BRANCH  18  19
ATOM     19  C   UNL     1      18.674 -24.800 -20.041  1.00  0.00    -0.000 C 
BRANCH  19  20
ATOM     20  C   UNL     1      17.682 -23.667 -20.367  1.00  0.00    -0.000 C 
BRANCH  20  21
ATOM     21  C   UNL     1      17.279 -22.860 -19.122  1.00  0.00    -0.000 C 
BRANCH  21  22
ATOM     22  C   UNL     1      16.881 -23.758 -17.942  1.00  0.00    -0.000 C 
BRANCH  22  23
ATOM     23  C   UNL     1      15.495 -23.380 -17.403  1.00  0.00    -0.000 C 
BRANCH  23  24
ATOM     24  C   UNL     1      14.499 -23.171 -18.554  1.00  0.00    -0.000 C 
BRANCH  24  25
ATOM     25  C   UNL     1      13.876 -24.490 -19.042  1.00  0.00    -0.003 C 
ATOM     26  C   UNL     1      14.088 -24.728 -20.537  1.00  0.00     0.004 C 
ENDBRANCH  24  25
ENDBRANCH  23  24
ENDBRANCH  22  23
ENDBRANCH  21  22
ENDBRANCH  20  21
ENDBRANCH  19  20
ENDBRANCH  18  19
ENDBRANCH  17  18
ENDBRANCH  16  17
ENDBRANCH  15  16
ENDBRANCH   1  15
TORSDOF 22
ENDMDL
MODEL 6
REMARK VINA RESULT:    -3.714      2.636      7.816
REMARK INTER + INTRA:         -10.980
REMARK INTER:                  -9.171
REMARK INTRA:                  -1.808
REMARK UNBOUND:                -2.490
REMARK SMILES CCCCCCCCCCCCCCCCCCCCCCCC(=O)[O-]
REMARK SMILES IDX 13 1 14 2 15 3 16 4 17 5 18 6 19 7 20 8 21 9 22 10 23 11
REMARK SMILES IDX 24 12 25 13 26 14 12 15 11 16 10 17 9 18 8 19 7 20 6 21 5 22
REMARK SMILES IDX 4 23 3 24 2 25 1 26
REMARK H PARENT
REMARK Flexibility Score: inf
ROOT
ATOM      1  C   UNL     1      23.782 -18.789 -17.224  1.00  0.00     0.000 C 
ENDROOT
BRANCH   1   2
ATOM      2  C   UNL     1      24.552 -18.349 -15.966  1.00  0.00     0.000 C 
BRANCH   2   3
ATOM      3  C   UNL     1      25.026 -16.882 -15.967  1.00  0.00     0.000 C 
BRANCH   3   4
ATOM      4  C   UNL     1      24.731 -16.127 -17.280  1.00  0.00     0.000 C 
BRANCH   4   5
ATOM      5  C   UNL     1      24.634 -14.608 -17.074  1.00  0.00     0.000 C 
BRANCH   5   6
ATOM      6  C   UNL     1      23.174 -14.145 -17.007  1.00  0.00     0.000 C 
BRANCH   6   7
ATOM      7  C   UNL     1      22.221 -15.350 -16.999  1.00  0.00     0.000 C 
BRANCH   7   8
ATOM      8  C   UNL     1      20.996 -15.131 -16.097  1.00  0.00     0.000 C 
BRANCH   8   9
ATOM      9  C   UNL     1      19.942 -16.242 -16.248  1.00  0.00     0.000 C 
BRANCH   9  10
ATOM     10  C   UNL     1      18.796 -16.116 -15.230  1.00  0.00     0.006 C 
BRANCH  10  11
ATOM     11  C   UNL     1      17.411 -16.195 -15.885  1.00  0.00     0.053 C 
BRANCH  11  12
ATOM     12  C   UNL     1      16.897 -14.823 -16.192  1.00  0.00     0.041 C 
ATOM     13  O   UNL     1      17.295 -13.833 -15.522  1.00  0.00    -0.550 OA
ATOM     14  O   UNL     1      16.009 -14.632 -17.244  1.00  0.00    -0.550 OA
ENDBRANCH  11  12
ENDBRANCH  10  11
ENDBRANCH   9  10
ENDBRANCH   8   9
ENDBRANCH   7   8
ENDBRANCH   6   7
ENDBRANCH   5   6
ENDBRANCH   4   5
ENDBRANCH   3   4
ENDBRANCH   2   3
ENDBRANCH   1   2
BRANCH   1  15
ATOM     15  C   UNL     1      22.356 -19.319 -16.966  1.00  0.00     0.000 C 
BRANCH  15  16
ATOM     16  C   UNL     1      21.406 -19.183 -18.173  1.00  0.00     0.000 C 
BRANCH  16  17
ATOM     17  C   UNL     1      20.642 -20.485 -18.469  1.00  0.00     0.000 C 
BRANCH  17  18
ATOM     18  C   UNL     1      20.081 -20.532 -19.902  1.00  0.00    -0.000 C 
BRANCH  18  19
ATOM     19  C   UNL     1      20.416 -21.824 -20.672  1.00  0.00    -0.000 C 
BRANCH  19  20
ATOM     20  C   UNL     1      20.443 -23.066 -19.761  1.00  0.00    -0.000 C 
BRANCH  20  21
ATOM     21  C   UNL     1      19.204 -23.957 -19.940  1.00  0.00    -0.000 C 
BRANCH  21  22
ATOM     22  C   UNL     1      17.992 -23.445 -19.146  1.00  0.00    -0.000 C 
BRANCH  22  23
ATOM     23  C   UNL     1      16.678 -23.797 -19.856  1.00  0.00    -0.000 C 
BRANCH  23  24
ATOM     24  C   UNL     1      15.687 -24.451 -18.882  1.00  0.00    -0.000 C 
BRANCH  24  25
ATOM     25  C   UNL     1      14.671 -23.447 -18.311  1.00  0.00    -0.003 C 
ATOM     26  C   UNL     1      15.015 -22.999 -16.891  1.00  0.00     0.004 C 
ENDBRANCH  24  25
ENDBRANCH  23  24
ENDBRANCH  22  23
ENDBRANCH  21  22
ENDBRANCH  20  21
ENDBRANCH  19  20
ENDBRANCH  18  19
ENDBRANCH  17  18
ENDBRANCH  16  17
ENDBRANCH  15  16
ENDBRANCH   1  15
TORSDOF 22
ENDMDL
MODEL 7
REMARK VINA RESULT:    -3.384      3.389      9.436
REMARK INTER + INTRA:         -10.226
REMARK INTER:                  -8.338
REMARK INTRA:                  -1.888
REMARK UNBOUND:                -2.490
REMARK SMILES CCCCCCCCCCCCCCCCCCCCCCCC(=O)[O-]
REMARK SMILES IDX 13 1 14 2 15 3 16 4 17 5 18 6 19 7 20 8 21 9 22 10 23 11
REMARK SMILES IDX 24 12 25 13 26 14 12 15 11 16 10 17 9 18 8 19 7 20 6 21 5 22
REMARK SMILES IDX 4 23 3 24 2 25 1 26
REMARK H PARENT
REMARK Flexibility Score: inf
ROOT
ATOM      1  C   UNL     1      15.412 -17.664 -20.903  1.00  0.00     0.000 C 
ENDROOT
BRANCH   1   2
ATOM      2  C   UNL     1      14.695 -16.303 -20.874  1.00  0.00     0.000 C 
BRANCH   2   3
ATOM      3  C   UNL     1      15.423 -15.196 -20.086  1.00  0.00     0.000 C 
BRANCH   3   4
ATOM      4  C   UNL     1      16.043 -15.675 -18.756  1.00  0.00     0.000 C 
BRANCH   4   5
ATOM      5  C   UNL     1      15.663 -14.770 -17.573  1.00  0.00     0.000 C 
BRANCH   5   6
ATOM      6  C   UNL     1      16.808 -14.669 -16.558  1.00  0.00     0.000 C 
BRANCH   6   7
ATOM      7  C   UNL     1      17.000 -16.002 -15.819  1.00  0.00     0.000 C 
BRANCH   7   8
ATOM      8  C   UNL     1      18.380 -16.118 -15.153  1.00  0.00     0.000 C 
BRANCH   8   9
ATOM      9  C   UNL     1      19.532 -16.143 -16.173  1.00  0.00     0.000 C 
BRANCH   9  10
ATOM     10  C   UNL     1      20.273 -17.489 -16.198  1.00  0.00     0.006 C 
BRANCH  10  11
ATOM     11  C   UNL     1      21.332 -17.561 -17.307  1.00  0.00     0.053 C 
BRANCH  11  12
ATOM     12  C   UNL     1      22.063 -18.865 -17.249  1.00  0.00     0.041 C 
ATOM     13  O   UNL     1      21.564 -19.845 -16.634  1.00  0.00    -0.550 OA
ATOM     14  O   UNL     1      23.278 -19.012 -17.909  1.00  0.00    -0.550 OA
ENDBRANCH  11  12
ENDBRANCH  10  11
ENDBRANCH   9  10
ENDBRANCH   8   9
ENDBRANCH   7   8
ENDBRANCH   6   7
ENDBRANCH   5   6
ENDBRANCH   4   5
ENDBRANCH   3   4
ENDBRANCH   2   3
ENDBRANCH   1   2
BRANCH   1  15
ATOM     15  C   UNL     1      14.488 -18.885 -21.090  1.00  0.00     0.000 C 
BRANCH  15  16
ATOM     16  C   UNL     1      14.986 -20.165 -20.387  1.00  0.00     0.000 C 
BRANCH  16  17
ATOM     17  C   UNL     1      13.844 -21.152 -20.087  1.00  0.00     0.000 C 
BRANCH  17  18
ATOM     18  C   UNL     1      14.129 -22.569 -20.618  1.00  0.00    -0.000 C 
BRANCH  18  19
ATOM     19  C   UNL     1      13.490 -23.699 -19.787  1.00  0.00    -0.000 C 
BRANCH  19  20
ATOM     20  C   UNL     1      14.520 -24.457 -18.929  1.00  0.00    -0.000 C 
BRANCH  20  21
ATOM     21  C   UNL     1      14.916 -23.683 -17.661  1.00  0.00    -0.000 C 
BRANCH  21  22
ATOM     22  C   UNL     1      16.432 -23.460 -17.558  1.00  0.00    -0.000 C 
BRANCH  22  23
ATOM     23  C   UNL     1      17.155 -23.997 -18.799  1.00  0.00    -0.000 C 
BRANCH  23  24
ATOM     24  C   UNL     1      17.835 -22.857 -19.573  1.00  0.00    -0.000 C 
BRANCH  24  25
ATOM     25  C   UNL     1      19.326 -22.714 -19.226  1.00  0.00    -0.003 C 
ATOM     26  C   UNL     1      19.858 -21.300 -19.461  1.00  0.00     0.004 C 
ENDBRANCH  24  25
ENDBRANCH  23  24
ENDBRANCH  22  23
ENDBRANCH  21  22
ENDBRANCH  20  21
ENDBRANCH  19  20
ENDBRANCH  18  19
ENDBRANCH  17  18
ENDBRANCH  16  17
ENDBRANCH  15  16
ENDBRANCH   1  15
TORSDOF 22
ENDMDL
MODEL 8
REMARK VINA RESULT:    -3.208      2.788      8.313
REMARK INTER + INTRA:          -9.824
REMARK INTER:                  -8.264
REMARK INTRA:                  -1.559
REMARK UNBOUND:                -2.490
REMARK SMILES CCCCCCCCCCCCCCCCCCCCCCCC(=O)[O-]
REMARK SMILES IDX 13 1 14 2 15 3 16 4 17 5 18 6 19 7 20 8 21 9 22 10 23 11
REMARK SMILES IDX 24 12 25 13 26 14 12 15 11 16 10 17 9 18 8 19 7 20 6 21 5 22
REMARK SMILES IDX 4 23 3 24 2 25 1 26
REMARK H PARENT
REMARK Flexibility Score: inf
ROOT
ATOM      1  C   UNL     1      20.500 -20.758 -18.972  1.00  0.00     0.000 C 
ENDROOT
BRANCH   1   2
ATOM      2  C   UNL     1      21.571 -19.890 -18.288  1.00  0.00     0.000 C 
BRANCH   2   3
ATOM      3  C   UNL     1      23.009 -20.099 -18.802  1.00  0.00     0.000 C 
BRANCH   3   4
ATOM      4  C   UNL     1      24.061 -19.213 -18.100  1.00  0.00     0.000 C 
BRANCH   4   5
ATOM      5  C   UNL     1      23.456 -18.372 -16.965  1.00  0.00     0.000 C 
BRANCH   5   6
ATOM      6  C   UNL     1      24.542 -17.613 -16.193  1.00  0.00     0.000 C 
BRANCH   6   7
ATOM      7  C   UNL     1      24.449 -16.104 -16.464  1.00  0.00     0.000 C 
BRANCH   7   8
ATOM      8  C   UNL     1      23.410 -15.758 -17.542  1.00  0.00     0.000 C 
BRANCH   8   9
ATOM      9  C   UNL     1      22.360 -14.745 -17.052  1.00  0.00     0.000 C 
BRANCH   9  10
ATOM     10  C   UNL     1      21.461 -15.312 -15.942  1.00  0.00     0.006 C 
BRANCH  10  11
ATOM     11  C   UNL     1      20.365 -16.240 -16.484  1.00  0.00     0.053 C 
BRANCH  11  12
ATOM     12  C   UNL     1      19.044 -15.907 -15.865  1.00  0.00     0.041 C 
ATOM     13  O   UNL     1      18.381 -14.918 -16.280  1.00  0.00    -0.550 OA
ATOM     14  O   UNL     1      18.524 -16.712 -14.859  1.00  0.00    -0.550 OA
ENDBRANCH  11  12
ENDBRANCH  10  11
ENDBRANCH   9  10
ENDBRANCH   8   9
ENDBRANCH   7   8
ENDBRANCH   6   7
ENDBRANCH   5   6
ENDBRANCH   4   5
ENDBRANCH   3   4
ENDBRANCH   2   3
ENDBRANCH   1   2
BRANCH   1  15
ATOM     15  C   UNL     1      20.947 -22.191 -19.326  1.00  0.00     0.000 C 
BRANCH  15  16
ATOM     16  C   UNL     1      19.788 -23.135 -19.710  1.00  0.00     0.000 C 
BRANCH  16  17
ATOM     17  C   UNL     1      18.657 -22.403 -20.454  1.00  0.00     0.000 C 
BRANCH  17  18
ATOM     18  C   UNL     1      17.299 -22.526 -19.737  1.00  0.00    -0.000 C 
BRANCH  18  19
ATOM     19  C   UNL     1      16.093 -22.675 -20.685  1.00  0.00    -0.000 C 
BRANCH  19  20
ATOM     20  C   UNL     1      14.762 -22.294 -20.011  1.00  0.00    -0.000 C 
BRANCH  20  21
ATOM     21  C   UNL     1      14.026 -23.512 -19.429  1.00  0.00    -0.000 C 
BRANCH  21  22
ATOM     22  C   UNL     1      14.499 -23.862 -18.010  1.00  0.00    -0.000 C 
BRANCH  22  23
ATOM     23  C   UNL     1      14.873 -22.598 -17.225  1.00  0.00    -0.000 C 
BRANCH  23  24
ATOM     24  C   UNL     1      14.637 -22.798 -15.721  1.00  0.00    -0.000 C 
BRANCH  24  25
ATOM     25  C   UNL     1      14.449 -21.469 -14.970  1.00  0.00    -0.003 C 
ATOM     26  C   UNL     1      13.031 -21.291 -14.426  1.00  0.00     0.004 C 
ENDBRANCH  24  25
ENDBRANCH  23  24
ENDBRANCH  22  23
ENDBRANCH  21  22
ENDBRANCH  20  21
ENDBRANCH  19  20
ENDBRANCH  18  19
ENDBRANCH  17  18
ENDBRANCH  16  17
ENDBRANCH  15  16
ENDBRANCH   1  15
TORSDOF 22
ENDMDL
MODEL 9
REMARK VINA RESULT:    -3.174      2.609      7.552
REMARK INTER + INTRA:          -9.746
REMARK INTER:                  -7.907
REMARK INTRA:                  -1.839
REMARK UNBOUND:                -2.490
REMARK SMILES CCCCCCCCCCCCCCCCCCCCCCCC(=O)[O-]
REMARK SMILES IDX 13 1 14 2 15 3 16 4 17 5 18 6 19 7 20 8 21 9 22 10 23 11
REMARK SMILES IDX 24 12 25 13 26 14 12 15 11 16 10 17 9 18 8 19 7 20 6 21 5 22
REMARK SMILES IDX 4 23 3 24 2 25 1 26
REMARK H PARENT
REMARK Flexibility Score: inf
ROOT
ATOM      1  C   UNL     1      24.709 -18.744 -19.517  1.00  0.00     0.000 C 
ENDROOT
BRANCH   1   2
ATOM      2  C   UNL     1      25.119 -17.612 -18.559  1.00  0.00     0.000 C 
BRANCH   2   3
ATOM      3  C   UNL     1      24.526 -16.227 -18.887  1.00  0.00     0.000 C 
BRANCH   3   4
ATOM      4  C   UNL     1      23.775 -15.570 -17.709  1.00  0.00     0.000 C 
BRANCH   4   5
ATOM      5  C   UNL     1      22.951 -16.584 -16.901  1.00  0.00     0.000 C 
BRANCH   5   6
ATOM      6  C   UNL     1      21.830 -17.195 -17.749  1.00  0.00     0.000 C 
BRANCH   6   7
ATOM      7  C   UNL     1      20.640 -17.604 -16.867  1.00  0.00     0.000 C 
BRANCH   7   8
ATOM      8  C   UNL     1      19.938 -16.399 -16.222  1.00  0.00     0.000 C 
BRANCH   8   9
ATOM      9  C   UNL     1      19.240 -16.757 -14.898  1.00  0.00     0.000 C 
BRANCH   9  10
ATOM     10  C   UNL     1      18.006 -15.883 -14.622  1.00  0.00     0.006 C 
BRANCH  10  11
ATOM     11  C   UNL     1      16.918 -16.041 -15.693  1.00  0.00     0.053 C 
BRANCH  11  12
ATOM     12  C   UNL     1      16.690 -14.744 -16.404  1.00  0.00     0.041 C 
ATOM     13  O   UNL     1      15.879 -14.683 -17.367  1.00  0.00    -0.550 OA
ATOM     14  O   UNL     1      17.342 -13.593 -15.977  1.00  0.00    -0.550 OA
ENDBRANCH  11  12
ENDBRANCH  10  11
ENDBRANCH   9  10
ENDBRANCH   8   9
ENDBRANCH   7   8
ENDBRANCH   6   7
ENDBRANCH   5   6
ENDBRANCH   4   5
ENDBRANCH   3   4
ENDBRANCH   2   3
ENDBRANCH   1   2
BRANCH   1  15
ATOM     15  C   UNL     1      24.015 -19.948 -18.848  1.00  0.00     0.000 C 
BRANCH  15  16
ATOM     16  C   UNL     1      22.804 -20.493 -19.633  1.00  0.00     0.000 C 
BRANCH  16  17
ATOM     17  C   UNL     1      21.551 -20.637 -18.752  1.00  0.00     0.000 C 
BRANCH  17  18
ATOM     18  C   UNL     1      20.254 -20.740 -19.577  1.00  0.00    -0.000 C 
BRANCH  18  19
ATOM     19  C   UNL     1      20.286 -21.818 -20.678  1.00  0.00    -0.000 C 
BRANCH  19  20
ATOM     20  C   UNL     1      19.026 -22.705 -20.673  1.00  0.00    -0.000 C 
BRANCH  20  21
ATOM     21  C   UNL     1      18.899 -23.541 -19.389  1.00  0.00    -0.000 C 
BRANCH  21  22
ATOM     22  C   UNL     1      17.541 -24.252 -19.283  1.00  0.00    -0.000 C 
BRANCH  22  23
ATOM     23  C   UNL     1      16.731 -23.721 -18.093  1.00  0.00    -0.000 C 
BRANCH  23  24
ATOM     24  C   UNL     1      15.659 -22.725 -18.561  1.00  0.00    -0.000 C 
BRANCH  24  25
ATOM     25  C   UNL     1      14.831 -23.260 -19.741  1.00  0.00    -0.003 C 
ATOM     26  C   UNL     1      13.788 -24.293 -19.314  1.00  0.00     0.004 C 
ENDBRANCH  24  25
ENDBRANCH  23  24
ENDBRANCH  22  23
ENDBRANCH  21  22
ENDBRANCH  20  21
ENDBRANCH  19  20
ENDBRANCH  18  19
ENDBRANCH  17  18
ENDBRANCH  16  17
ENDBRANCH  15  16
ENDBRANCH   1  15
TORSDOF 22
ENDMDL
