MODEL 1
REMARK VINA RESULT:    -4.164      0.000      0.000
REMARK INTER + INTRA:         -17.491
REMARK INTER:                 -10.981
REMARK INTRA:                  -6.510
REMARK UNBOUND:                -6.510
REMARK SMILES CCCCCCCCCCCCCCCCCCCCCCCCCCCCCC(=O)[O-]
REMARK SMILES IDX 16 1 17 2 18 3 19 4 20 5 21 6 22 7 23 8 24 9 25 10 26 11
REMARK SMILES IDX 27 12 28 13 29 14 30 15 31 16 32 17 15 18 14 19 13 20 12 21
REMARK SMILES IDX 11 22 10 23 9 24 8 25 7 26 6 27 5 28 4 29 3 30 2 31 1 32
REMARK H PARENT
REMARK Flexibility Score: inf
ROOT
ATOM      1  C   UNL     1     -25.526 -62.308   3.334  1.00  0.00     0.000 C 
ENDROOT
BRANCH   1   2
ATOM      2  C   UNL     1     -24.417 -61.843   2.367  1.00  0.00     0.000 C 
BRANCH   2   3
ATOM      3  C   UNL     1     -23.126 -62.686   2.424  1.00  0.00     0.000 C 
BRANCH   3   4
ATOM      4  C   UNL     1     -22.040 -62.315   1.401  1.00  0.00     0.000 C 
BRANCH   4   5
ATOM      5  C   UNL     1     -22.599 -61.584   0.168  1.00  0.00     0.000 C 
BRANCH   5   6
ATOM      6  C   UNL     1     -21.875 -60.258  -0.124  1.00  0.00     0.000 C 
BRANCH   6   7
ATOM      7  C   UNL     1     -22.090 -59.150   0.924  1.00  0.00     0.000 C 
BRANCH   7   8
ATOM      8  C   UNL     1     -23.307 -58.237   0.674  1.00  0.00     0.000 C 
BRANCH   8   9
ATOM      9  C   UNL     1     -23.855 -58.270  -0.764  1.00  0.00     0.000 C 
BRANCH   9  10
ATOM     10  C   UNL     1     -25.356 -58.603  -0.822  1.00  0.00     0.000 C 
BRANCH  10  11
ATOM     11  C   UNL     1     -25.883 -59.213   0.490  1.00  0.00     0.000 C 
BRANCH  11  12
ATOM     12  C   UNL     1     -27.075 -58.470   1.124  1.00  0.00     0.000 C 
BRANCH  12  13
ATOM     13  C   UNL     1     -27.390 -57.096   0.507  1.00  0.00     0.006 C 
BRANCH  13  14
ATOM     14  C   UNL     1     -27.472 -55.978   1.554  1.00  0.00     0.053 C 
BRANCH  14  15
ATOM     15  C   UNL     1     -26.448 -54.925   1.274  1.00  0.00     0.041 C 
ATOM     16  O   UNL     1     -25.335 -55.239   0.776  1.00  0.00    -0.550 OA
ATOM     17  O   UNL     1     -26.696 -53.604   1.624  1.00  0.00    -0.550 OA
ENDBRANCH  14  15
ENDBRANCH  13  14
ENDBRANCH  12  13
ENDBRANCH  11  12
ENDBRANCH  10  11
ENDBRANCH   9  10
ENDBRANCH   8   9
ENDBRANCH   7   8
ENDBRANCH   6   7
ENDBRANCH   5   6
ENDBRANCH   4   5
ENDBRANCH   3   4
ENDBRANCH   2   3
ENDBRANCH   1   2
BRANCH   1  18
ATOM     18  C   UNL     1     -25.174 -63.617   4.068  1.00  0.00     0.000 C 
BRANCH  18  19
ATOM     19  C   UNL     1     -25.486 -63.566   5.574  1.00  0.00     0.000 C 
BRANCH  19  20
ATOM     20  C   UNL     1     -24.571 -62.640   6.396  1.00  0.00     0.000 C 
BRANCH  20  21
ATOM     21  C   UNL     1     -23.075 -62.864   6.117  1.00  0.00     0.000 C 
BRANCH  21  22
ATOM     22  C   UNL     1     -22.342 -61.557   5.767  1.00  0.00     0.000 C 
BRANCH  22  23
ATOM     23  C   UNL     1     -23.268 -60.329   5.814  1.00  0.00     0.000 C 
BRANCH  23  24
ATOM     24  C   UNL     1     -23.023 -59.357   4.648  1.00  0.00    -0.000 C 
BRANCH  24  25
ATOM     25  C   UNL     1     -22.699 -57.930   5.126  1.00  0.00    -0.000 C 
BRANCH  25  26
ATOM     26  C   UNL     1     -23.109 -56.853   4.111  1.00  0.00    -0.000 C 
BRANCH  26  27
ATOM     27  C   UNL     1     -24.619 -56.867   3.807  1.00  0.00    -0.000 C 
BRANCH  27  28
ATOM     28  C   UNL     1     -25.446 -56.195   4.916  1.00  0.00    -0.000 C 
BRANCH  28  29
ATOM     29  C   UNL     1     -26.534 -57.120   5.491  1.00  0.00    -0.000 C 
BRANCH  29  30
ATOM     30  C   UNL     1     -26.686 -58.419   4.670  1.00  0.00    -0.000 C 
BRANCH  30  31
ATOM     31  C   UNL     1     -26.734 -59.692   5.530  1.00  0.00    -0.003 C 
ATOM     32  C   UNL     1     -28.071 -60.425   5.440  1.00  0.00     0.004 C 
ENDBRANCH  30  31
ENDBRANCH  29  30
ENDBRANCH  28  29
ENDBRANCH  27  28
ENDBRANCH  26  27
ENDBRANCH  25  26
ENDBRANCH  24  25
ENDBRANCH  23  24
ENDBRANCH  22  23
ENDBRANCH  21  22
ENDBRANCH  20  21
ENDBRANCH  19  20
ENDBRANCH  18  19
ENDBRANCH   1  18
TORSDOF 28
ENDMDL
MODEL 2
REMARK VINA RESULT:    -4.134      2.087      3.231
REMARK INTER + INTRA:         -17.410
REMARK INTER:                 -12.489
REMARK INTRA:                  -4.921
REMARK UNBOUND:                -6.510
REMARK SMILES CCCCCCCCCCCCCCCCCCCCCCCCCCCCCC(=O)[O-]
REMARK SMILES IDX 16 1 17 2 18 3 19 4 20 5 21 6 22 7 23 8 24 9 25 10 26 11
REMARK SMILES IDX 27 12 28 13 29 14 30 15 31 16 32 17 15 18 14 19 13 20 12 21
REMARK SMILES IDX 11 22 10 23 9 24 8 25 7 26 6 27 5 28 4 29 3 30 2 31 1 32
REMARK H PARENT
REMARK Flexibility Score: inf
ROOT
ATOM      1  C   UNL     1     -25.237 -62.082   2.875  1.00  0.00     0.000 C 
ENDROOT
BRANCH   1   2
ATOM      2  C   UNL     1     -24.492 -60.990   2.078  1.00  0.00     0.000 C 
BRANCH   2   3
ATOM      3  C   UNL     1     -22.954 -61.074   2.166  1.00  0.00     0.000 C 
BRANCH   3   4
ATOM      4  C   UNL     1     -22.179 -60.264   1.113  1.00  0.00     0.000 C 
BRANCH   4   5
ATOM      5  C   UNL     1     -21.980 -61.029  -0.207  1.00  0.00     0.000 C 
BRANCH   5   6
ATOM      6  C   UNL     1     -22.390 -60.210  -1.444  1.00  0.00     0.000 C 
BRANCH   6   7
ATOM      7  C   UNL     1     -23.397 -59.075  -1.173  1.00  0.00     0.000 C 
BRANCH   7   8
ATOM      8  C   UNL     1     -24.882 -59.487  -1.239  1.00  0.00     0.000 C 
BRANCH   8   9
ATOM      9  C   UNL     1     -25.653 -58.933  -2.450  1.00  0.00     0.000 C 
BRANCH   9  10
ATOM     10  C   UNL     1     -25.341 -57.452  -2.728  1.00  0.00     0.000 C 
BRANCH  10  11
ATOM     11  C   UNL     1     -26.527 -56.523  -2.410  1.00  0.00     0.000 C 
BRANCH  11  12
ATOM     12  C   UNL     1     -26.151 -55.055  -2.131  1.00  0.00     0.000 C 
BRANCH  12  13
ATOM     13  C   UNL     1     -27.269 -54.202  -1.505  1.00  0.00     0.006 C 
BRANCH  13  14
ATOM     14  C   UNL     1     -28.523 -55.019  -1.171  1.00  0.00     0.053 C 
BRANCH  14  15
ATOM     15  C   UNL     1     -29.572 -54.139  -0.566  1.00  0.00     0.041 C 
ATOM     16  O   UNL     1     -30.135 -53.253  -1.263  1.00  0.00    -0.550 OA
ATOM     17  O   UNL     1     -29.879 -54.251   0.784  1.00  0.00    -0.550 OA
ENDBRANCH  14  15
ENDBRANCH  13  14
ENDBRANCH  12  13
ENDBRANCH  11  12
ENDBRANCH  10  11
ENDBRANCH   9  10
ENDBRANCH   8   9
ENDBRANCH   7   8
ENDBRANCH   6   7
ENDBRANCH   5   6
ENDBRANCH   4   5
ENDBRANCH   3   4
ENDBRANCH   2   3
ENDBRANCH   1   2
BRANCH   1  18
ATOM     18  C   UNL     1     -24.478 -63.422   2.913  1.00  0.00     0.000 C 
BRANCH  18  19
ATOM     19  C   UNL     1     -24.823 -64.275   4.147  1.00  0.00     0.000 C 
BRANCH  19  20
ATOM     20  C   UNL     1     -23.985 -63.969   5.402  1.00  0.00     0.000 C 
BRANCH  20  21
ATOM     21  C   UNL     1     -22.605 -63.371   5.077  1.00  0.00     0.000 C 
BRANCH  21  22
ATOM     22  C   UNL     1     -22.412 -61.975   5.695  1.00  0.00     0.000 C 
BRANCH  22  23
ATOM     23  C   UNL     1     -23.712 -61.408   6.292  1.00  0.00     0.000 C 
BRANCH  23  24
ATOM     24  C   UNL     1     -24.080 -60.032   5.710  1.00  0.00    -0.000 C 
BRANCH  24  25
ATOM     25  C   UNL     1     -22.851 -59.259   5.199  1.00  0.00    -0.000 C 
BRANCH  25  26
ATOM     26  C   UNL     1     -22.885 -57.770   5.574  1.00  0.00    -0.000 C 
BRANCH  26  27
ATOM     27  C   UNL     1     -22.987 -56.850   4.343  1.00  0.00    -0.000 C 
BRANCH  27  28
ATOM     28  C   UNL     1     -23.785 -57.492   3.196  1.00  0.00    -0.000 C 
BRANCH  28  29
ATOM     29  C   UNL     1     -23.444 -56.887   1.822  1.00  0.00    -0.000 C 
BRANCH  29  30
ATOM     30  C   UNL     1     -24.707 -56.465   1.041  1.00  0.00    -0.000 C 
BRANCH  30  31
ATOM     31  C   UNL     1     -25.313 -55.136   1.518  1.00  0.00    -0.003 C 
ATOM     32  C   UNL     1     -24.263 -54.057   1.773  1.00  0.00     0.004 C 
ENDBRANCH  30  31
ENDBRANCH  29  30
ENDBRANCH  28  29
ENDBRANCH  27  28
ENDBRANCH  26  27
ENDBRANCH  25  26
ENDBRANCH  24  25
ENDBRANCH  23  24
ENDBRANCH  22  23
ENDBRANCH  21  22
ENDBRANCH  20  21
ENDBRANCH  19  20
ENDBRANCH  18  19
ENDBRANCH   1  18
TORSDOF 28
ENDMDL
MODEL 3
REMARK VINA RESULT:    -4.120      2.368      4.557
REMARK INTER + INTRA:         -17.375
REMARK INTER:                 -11.908
REMARK INTRA:                  -5.467
REMARK UNBOUND:                -6.510
REMARK SMILES CCCCCCCCCCCCCCCCCCCCCCCCCCCCCC(=O)[O-]
REMARK SMILES IDX 16 1 17 2 18 3 19 4 20 5 21 6 22 7 23 8 24 9 25 10 26 11
REMARK SMILES IDX 27 12 28 13 29 14 30 15 31 16 32 17 15 18 14 19 13 20 12 21
REMARK SMILES IDX 11 22 10 23 9 24 8 25 7 26 6 27 5 28 4 29 3 30 2 31 1 32
REMARK H PARENT
REMARK Flexibility Score: inf
ROOT
ATOM      1  C   UNL     1     -25.271 -58.932   3.149  1.00  0.00     0.000 C 
ENDROOT
BRANCH   1   2
ATOM      2  C   UNL     1     -25.449 -59.924   1.980  1.00  0.00     0.000 C 
BRANCH   2   3
ATOM      3  C   UNL     1     -24.579 -61.193   2.082  1.00  0.00     0.000 C 
BRANCH   3   4
ATOM      4  C   UNL     1     -23.065 -60.958   2.219  1.00  0.00     0.000 C 
BRANCH   4   5
ATOM      5  C   UNL     1     -22.337 -60.924   0.864  1.00  0.00     0.000 C 
BRANCH   5   6
ATOM      6  C   UNL     1     -21.876 -59.511   0.465  1.00  0.00     0.000 C 
BRANCH   6   7
ATOM      7  C   UNL     1     -22.679 -58.859  -0.677  1.00  0.00     0.000 C 
BRANCH   7   8
ATOM      8  C   UNL     1     -23.736 -59.767  -1.339  1.00  0.00     0.000 C 
BRANCH   8   9
ATOM      9  C   UNL     1     -25.078 -59.079  -1.646  1.00  0.00     0.000 C 
BRANCH   9  10
ATOM     10  C   UNL     1     -25.140 -57.633  -1.121  1.00  0.00     0.000 C 
BRANCH  10  11
ATOM     11  C   UNL     1     -26.128 -56.755  -1.910  1.00  0.00     0.000 C 
BRANCH  11  12
ATOM     12  C   UNL     1     -26.474 -57.267  -3.322  1.00  0.00     0.000 C 
BRANCH  12  13
ATOM     13  C   UNL     1     -26.438 -56.200  -4.431  1.00  0.00     0.006 C 
BRANCH  13  14
ATOM     14  C   UNL     1     -25.237 -55.255  -4.308  1.00  0.00     0.053 C 
BRANCH  14  15
ATOM     15  C   UNL     1     -25.696 -53.868  -3.988  1.00  0.00     0.041 C 
ATOM     16  O   UNL     1     -24.858 -52.976  -3.689  1.00  0.00    -0.550 OA
ATOM     17  O   UNL     1     -27.053 -53.575  -3.954  1.00  0.00    -0.550 OA
ENDBRANCH  14  15
ENDBRANCH  13  14
ENDBRANCH  12  13
ENDBRANCH  11  12
ENDBRANCH  10  11
ENDBRANCH   9  10
ENDBRANCH   8   9
ENDBRANCH   7   8
ENDBRANCH   6   7
ENDBRANCH   5   6
ENDBRANCH   4   5
ENDBRANCH   3   4
ENDBRANCH   2   3
ENDBRANCH   1   2
BRANCH   1  18
ATOM     18  C   UNL     1     -25.190 -57.465   2.685  1.00  0.00     0.000 C 
BRANCH  18  19
ATOM     19  C   UNL     1     -23.744 -56.958   2.539  1.00  0.00     0.000 C 
BRANCH  19  20
ATOM     20  C   UNL     1     -22.743 -57.553   3.546  1.00  0.00     0.000 C 
BRANCH  20  21
ATOM     21  C   UNL     1     -22.937 -57.026   4.978  1.00  0.00     0.000 C 
BRANCH  21  22
ATOM     22  C   UNL     1     -23.147 -58.160   5.996  1.00  0.00     0.000 C 
BRANCH  22  23
ATOM     23  C   UNL     1     -22.529 -59.491   5.534  1.00  0.00     0.000 C 
BRANCH  23  24
ATOM     24  C   UNL     1     -23.366 -60.711   5.957  1.00  0.00    -0.000 C 
BRANCH  24  25
ATOM     25  C   UNL     1     -22.635 -62.043   5.709  1.00  0.00    -0.000 C 
BRANCH  25  26
ATOM     26  C   UNL     1     -23.557 -63.264   5.847  1.00  0.00    -0.000 C 
BRANCH  26  27
ATOM     27  C   UNL     1     -23.522 -64.178   4.608  1.00  0.00    -0.000 C 
BRANCH  27  28
ATOM     28  C   UNL     1     -24.898 -64.301   3.931  1.00  0.00    -0.000 C 
BRANCH  28  29
ATOM     29  C   UNL     1     -26.058 -63.913   4.866  1.00  0.00    -0.000 C 
BRANCH  29  30
ATOM     30  C   UNL     1     -26.878 -62.728   4.315  1.00  0.00    -0.000 C 
BRANCH  30  31
ATOM     31  C   UNL     1     -26.855 -61.485   5.218  1.00  0.00    -0.003 C 
ATOM     32  C   UNL     1     -28.190 -61.224   5.911  1.00  0.00     0.004 C 
ENDBRANCH  30  31
ENDBRANCH  29  30
ENDBRANCH  28  29
ENDBRANCH  27  28
ENDBRANCH  26  27
ENDBRANCH  25  26
ENDBRANCH  24  25
ENDBRANCH  23  24
ENDBRANCH  22  23
ENDBRANCH  21  22
ENDBRANCH  20  21
ENDBRANCH  19  20
ENDBRANCH  18  19
ENDBRANCH   1  18
TORSDOF 28
ENDMDL
MODEL 4
REMARK VINA RESULT:    -4.112      1.631      4.472
REMARK INTER + INTRA:         -17.354
REMARK INTER:                 -11.095
REMARK INTRA:                  -6.259
REMARK UNBOUND:                -6.510
REMARK SMILES CCCCCCCCCCCCCCCCCCCCCCCCCCCCCC(=O)[O-]
REMARK SMILES IDX 16 1 17 2 18 3 19 4 20 5 21 6 22 7 23 8 24 9 25 10 26 11
REMARK SMILES IDX 27 12 28 13 29 14 30 15 31 16 32 17 15 18 14 19 13 20 12 21
REMARK SMILES IDX 11 22 10 23 9 24 8 25 7 26 6 27 5 28 4 29 3 30 2 31 1 32
REMARK H PARENT
REMARK Flexibility Score: inf
ROOT
ATOM      1  C   UNL     1     -25.003 -62.272   2.884  1.00  0.00     0.000 C 
ENDROOT
BRANCH   1   2
ATOM      2  C   UNL     1     -25.181 -62.489   4.401  1.00  0.00     0.000 C 
BRANCH   2   3
ATOM      3  C   UNL     1     -25.039 -61.208   5.250  1.00  0.00     0.000 C 
BRANCH   3   4
ATOM      4  C   UNL     1     -23.734 -61.080   6.052  1.00  0.00     0.000 C 
BRANCH   4   5
ATOM      5  C   UNL     1     -22.837 -59.931   5.559  1.00  0.00     0.000 C 
BRANCH   5   6
ATOM      6  C   UNL     1     -23.371 -59.256   4.284  1.00  0.00     0.000 C 
BRANCH   6   7
ATOM      7  C   UNL     1     -22.650 -57.955   3.880  1.00  0.00     0.000 C 
BRANCH   7   8
ATOM      8  C   UNL     1     -23.059 -56.702   4.681  1.00  0.00     0.000 C 
BRANCH   8   9
ATOM      9  C   UNL     1     -23.939 -55.702   3.911  1.00  0.00     0.000 C 
BRANCH   9  10
ATOM     10  C   UNL     1     -24.041 -56.029   2.410  1.00  0.00     0.000 C 
BRANCH  10  11
ATOM     11  C   UNL     1     -24.594 -54.856   1.581  1.00  0.00     0.000 C 
BRANCH  11  12
ATOM     12  C   UNL     1     -26.130 -54.800   1.473  1.00  0.00     0.000 C 
BRANCH  12  13
ATOM     13  C   UNL     1     -26.732 -55.590   0.298  1.00  0.00     0.006 C 
BRANCH  13  14
ATOM     14  C   UNL     1     -25.683 -55.994  -0.746  1.00  0.00     0.053 C 
BRANCH  14  15
ATOM     15  C   UNL     1     -26.272 -55.952  -2.120  1.00  0.00     0.041 C 
ATOM     16  O   UNL     1     -27.318 -56.604  -2.382  1.00  0.00    -0.550 OA
ATOM     17  O   UNL     1     -25.630 -55.248  -3.131  1.00  0.00    -0.550 OA
ENDBRANCH  14  15
ENDBRANCH  13  14
ENDBRANCH  12  13
ENDBRANCH  11  12
ENDBRANCH  10  11
ENDBRANCH   9  10
ENDBRANCH   8   9
ENDBRANCH   7   8
ENDBRANCH   6   7
ENDBRANCH   5   6
ENDBRANCH   4   5
ENDBRANCH   3   4
ENDBRANCH   2   3
ENDBRANCH   1   2
BRANCH   1  18
ATOM     18  C   UNL     1     -23.709 -62.904   2.335  1.00  0.00     0.000 C 
BRANCH  18  19
ATOM     19  C   UNL     1     -22.679 -61.860   1.868  1.00  0.00     0.000 C 
BRANCH  19  20
ATOM     20  C   UNL     1     -22.105 -62.098   0.460  1.00  0.00     0.000 C 
BRANCH  20  21
ATOM     21  C   UNL     1     -21.876 -60.798  -0.330  1.00  0.00     0.000 C 
BRANCH  21  22
ATOM     22  C   UNL     1     -21.993 -59.546   0.557  1.00  0.00     0.000 C 
BRANCH  22  23
ATOM     23  C   UNL     1     -23.050 -58.553   0.043  1.00  0.00     0.000 C 
BRANCH  23  24
ATOM     24  C   UNL     1     -23.664 -58.985  -1.300  1.00  0.00    -0.000 C 
BRANCH  24  25
ATOM     25  C   UNL     1     -25.136 -59.415  -1.165  1.00  0.00    -0.000 C 
BRANCH  25  26
ATOM     26  C   UNL     1     -25.490 -59.895   0.250  1.00  0.00    -0.000 C 
BRANCH  26  27
ATOM     27  C   UNL     1     -26.654 -59.103   0.873  1.00  0.00    -0.000 C 
BRANCH  27  28
ATOM     28  C   UNL     1     -26.437 -58.820   2.370  1.00  0.00    -0.000 C 
BRANCH  28  29
ATOM     29  C   UNL     1     -27.541 -59.424   3.256  1.00  0.00    -0.000 C 
BRANCH  29  30
ATOM     30  C   UNL     1     -28.002 -58.446   4.359  1.00  0.00    -0.000 C 
BRANCH  30  31
ATOM     31  C   UNL     1     -26.905 -57.473   4.820  1.00  0.00    -0.003 C 
ATOM     32  C   UNL     1     -26.306 -57.845   6.174  1.00  0.00     0.004 C 
ENDBRANCH  30  31
ENDBRANCH  29  30
ENDBRANCH  28  29
ENDBRANCH  27  28
ENDBRANCH  26  27
ENDBRANCH  25  26
ENDBRANCH  24  25
ENDBRANCH  23  24
ENDBRANCH  22  23
ENDBRANCH  21  22
ENDBRANCH  20  21
ENDBRANCH  19  20
ENDBRANCH  18  19
ENDBRANCH   1  18
TORSDOF 28
ENDMDL
MODEL 5
REMARK VINA RESULT:    -4.050      2.031      5.781
REMARK INTER + INTRA:         -17.190
REMARK INTER:                 -11.233
REMARK INTRA:                  -5.957
REMARK UNBOUND:                -6.510
REMARK SMILES CCCCCCCCCCCCCCCCCCCCCCCCCCCCCC(=O)[O-]
REMARK SMILES IDX 16 1 17 2 18 3 19 4 20 5 21 6 22 7 23 8 24 9 25 10 26 11
REMARK SMILES IDX 27 12 28 13 29 14 30 15 31 16 32 17 15 18 14 19 13 20 12 21
REMARK SMILES IDX 11 22 10 23 9 24 8 25 7 26 6 27 5 28 4 29 3 30 2 31 1 32
REMARK H PARENT
REMARK Flexibility Score: inf
ROOT
ATOM      1  C   UNL     1     -24.172 -59.507  -1.626  1.00  0.00     0.000 C 
ENDROOT
BRANCH   1   2
ATOM      2  C   UNL     1     -25.477 -59.253  -0.843  1.00  0.00     0.000 C 
BRANCH   2   3
ATOM      3  C   UNL     1     -25.562 -57.864  -0.178  1.00  0.00     0.000 C 
BRANCH   3   4
ATOM      4  C   UNL     1     -26.852 -57.576   0.608  1.00  0.00     0.000 C 
BRANCH   4   5
ATOM      5  C   UNL     1     -27.734 -56.505  -0.056  1.00  0.00     0.000 C 
BRANCH   5   6
ATOM      6  C   UNL     1     -27.465 -55.088   0.482  1.00  0.00     0.000 C 
BRANCH   6   7
ATOM      7  C   UNL     1     -26.540 -54.220  -0.394  1.00  0.00     0.000 C 
BRANCH   7   8
ATOM      8  C   UNL     1     -25.790 -53.099   0.354  1.00  0.00     0.000 C 
BRANCH   8   9
ATOM      9  C   UNL     1     -25.586 -53.351   1.858  1.00  0.00     0.000 C 
BRANCH   9  10
ATOM     10  C   UNL     1     -24.218 -53.983   2.176  1.00  0.00     0.000 C 
BRANCH  10  11
ATOM     11  C   UNL     1     -24.314 -55.489   2.483  1.00  0.00     0.000 C 
BRANCH  11  12
ATOM     12  C   UNL     1     -24.842 -55.837   3.888  1.00  0.00     0.000 C 
BRANCH  12  13
ATOM     13  C   UNL     1     -26.195 -56.569   3.914  1.00  0.00     0.006 C 
BRANCH  13  14
ATOM     14  C   UNL     1     -26.326 -57.534   5.099  1.00  0.00     0.053 C 
BRANCH  14  15
ATOM     15  C   UNL     1     -26.438 -56.772   6.382  1.00  0.00     0.041 C 
ATOM     16  O   UNL     1     -27.501 -56.159   6.664  1.00  0.00    -0.550 OA
ATOM     17  O   UNL     1     -25.345 -56.682   7.234  1.00  0.00    -0.550 OA
ENDBRANCH  14  15
ENDBRANCH  13  14
ENDBRANCH  12  13
ENDBRANCH  11  12
ENDBRANCH  10  11
ENDBRANCH   9  10
ENDBRANCH   8   9
ENDBRANCH   7   8
ENDBRANCH   6   7
ENDBRANCH   5   6
ENDBRANCH   4   5
ENDBRANCH   3   4
ENDBRANCH   2   3
ENDBRANCH   1   2
BRANCH   1  18
ATOM     18  C   UNL     1     -22.915 -59.444  -0.736  1.00  0.00     0.000 C 
BRANCH  18  19
ATOM     19  C   UNL     1     -22.501 -60.819  -0.181  1.00  0.00     0.000 C 
BRANCH  19  20
ATOM     20  C   UNL     1     -22.656 -60.976   1.343  1.00  0.00     0.000 C 
BRANCH  20  21
ATOM     21  C   UNL     1     -23.013 -59.659   2.055  1.00  0.00     0.000 C 
BRANCH  21  22
ATOM     22  C   UNL     1     -24.408 -59.703   2.701  1.00  0.00     0.000 C 
BRANCH  22  23
ATOM     23  C   UNL     1     -25.173 -60.997   2.370  1.00  0.00     0.000 C 
BRANCH  23  24
ATOM     24  C   UNL     1     -26.182 -61.384   3.465  1.00  0.00    -0.000 C 
BRANCH  24  25
ATOM     25  C   UNL     1     -26.003 -62.835   3.946  1.00  0.00    -0.000 C 
BRANCH  25  26
ATOM     26  C   UNL     1     -24.854 -63.563   3.232  1.00  0.00    -0.000 C 
BRANCH  26  27
ATOM     27  C   UNL     1     -23.716 -63.963   4.191  1.00  0.00    -0.000 C 
BRANCH  27  28
ATOM     28  C   UNL     1     -22.747 -62.800   4.468  1.00  0.00    -0.000 C 
BRANCH  28  29
ATOM     29  C   UNL     1     -23.104 -62.020   5.746  1.00  0.00    -0.000 C 
BRANCH  29  30
ATOM     30  C   UNL     1     -22.342 -60.680   5.841  1.00  0.00    -0.000 C 
BRANCH  30  31
ATOM     31  C   UNL     1     -23.257 -59.460   6.031  1.00  0.00    -0.003 C 
ATOM     32  C   UNL     1     -22.649 -58.167   5.493  1.00  0.00     0.004 C 
ENDBRANCH  30  31
ENDBRANCH  29  30
ENDBRANCH  28  29
ENDBRANCH  27  28
ENDBRANCH  26  27
ENDBRANCH  25  26
ENDBRANCH  24  25
ENDBRANCH  23  24
ENDBRANCH  22  23
ENDBRANCH  21  22
ENDBRANCH  20  21
ENDBRANCH  19  20
ENDBRANCH  18  19
ENDBRANCH   1  18
TORSDOF 28
ENDMDL
MODEL 6
REMARK VINA RESULT:    -4.042      1.569      3.569
REMARK INTER + INTRA:         -17.168
REMARK INTER:                 -11.017
REMARK INTRA:                  -6.151
REMARK UNBOUND:                -6.510
REMARK SMILES CCCCCCCCCCCCCCCCCCCCCCCCCCCCCC(=O)[O-]
REMARK SMILES IDX 16 1 17 2 18 3 19 4 20 5 21 6 22 7 23 8 24 9 25 10 26 11
REMARK SMILES IDX 27 12 28 13 29 14 30 15 31 16 32 17 15 18 14 19 13 20 12 21
REMARK SMILES IDX 11 22 10 23 9 24 8 25 7 26 6 27 5 28 4 29 3 30 2 31 1 32
REMARK H PARENT
REMARK Flexibility Score: inf
ROOT
ATOM      1  C   UNL     1     -23.015 -58.939   4.925  1.00  0.00     0.000 C 
ENDROOT
BRANCH   1   2
ATOM      2  C   UNL     1     -23.386 -58.912   3.427  1.00  0.00     0.000 C 
BRANCH   2   3
ATOM      3  C   UNL     1     -22.677 -57.810   2.613  1.00  0.00     0.000 C 
BRANCH   3   4
ATOM      4  C   UNL     1     -22.199 -58.217   1.210  1.00  0.00     0.000 C 
BRANCH   4   5
ATOM      5  C   UNL     1     -22.217 -59.740   0.988  1.00  0.00     0.000 C 
BRANCH   5   6
ATOM      6  C   UNL     1     -23.044 -60.158  -0.241  1.00  0.00     0.000 C 
BRANCH   6   7
ATOM      7  C   UNL     1     -24.547 -59.827  -0.162  1.00  0.00     0.000 C 
BRANCH   7   8
ATOM      8  C   UNL     1     -25.041 -58.775  -1.176  1.00  0.00     0.000 C 
BRANCH   8   9
ATOM      9  C   UNL     1     -25.741 -57.555  -0.551  1.00  0.00     0.000 C 
BRANCH   9  10
ATOM     10  C   UNL     1     -26.042 -57.743   0.947  1.00  0.00     0.000 C 
BRANCH  10  11
ATOM     11  C   UNL     1     -25.907 -56.437   1.750  1.00  0.00     0.000 C 
BRANCH  11  12
ATOM     12  C   UNL     1     -26.674 -55.232   1.171  1.00  0.00     0.000 C 
BRANCH  12  13
ATOM     13  C   UNL     1     -26.458 -53.902   1.915  1.00  0.00     0.006 C 
BRANCH  13  14
ATOM     14  C   UNL     1     -26.404 -52.694   0.971  1.00  0.00     0.053 C 
BRANCH  14  15
ATOM     15  C   UNL     1     -24.985 -52.286   0.728  1.00  0.00     0.041 C 
ATOM     16  O   UNL     1     -24.039 -52.980   1.185  1.00  0.00    -0.550 OA
ATOM     17  O   UNL     1     -24.708 -51.102   0.056  1.00  0.00    -0.550 OA
ENDBRANCH  14  15
ENDBRANCH  13  14
ENDBRANCH  12  13
ENDBRANCH  11  12
ENDBRANCH  10  11
ENDBRANCH   9  10
ENDBRANCH   8   9
ENDBRANCH   7   8
ENDBRANCH   6   7
ENDBRANCH   5   6
ENDBRANCH   4   5
ENDBRANCH   3   4
ENDBRANCH   2   3
ENDBRANCH   1   2
BRANCH   1  18
ATOM     18  C   UNL     1     -23.437 -60.245   5.625  1.00  0.00     0.000 C 
BRANCH  18  19
ATOM     19  C   UNL     1     -22.404 -61.375   5.468  1.00  0.00     0.000 C 
BRANCH  19  20
ATOM     20  C   UNL     1     -22.924 -62.635   4.753  1.00  0.00     0.000 C 
BRANCH  20  21
ATOM     21  C   UNL     1     -22.841 -62.541   3.220  1.00  0.00     0.000 C 
BRANCH  21  22
ATOM     22  C   UNL     1     -24.230 -62.463   2.562  1.00  0.00     0.000 C 
BRANCH  22  23
ATOM     23  C   UNL     1     -25.325 -63.131   3.413  1.00  0.00     0.000 C 
BRANCH  23  24
ATOM     24  C   UNL     1     -26.380 -62.128   3.911  1.00  0.00    -0.000 C 
BRANCH  24  25
ATOM     25  C   UNL     1     -26.319 -60.785   3.162  1.00  0.00    -0.000 C 
BRANCH  25  26
ATOM     26  C   UNL     1     -27.119 -59.675   3.861  1.00  0.00    -0.000 C 
BRANCH  26  27
ATOM     27  C   UNL     1     -27.081 -59.792   5.396  1.00  0.00    -0.000 C 
BRANCH  27  28
ATOM     28  C   UNL     1     -26.656 -58.478   6.074  1.00  0.00    -0.000 C 
BRANCH  28  29
ATOM     29  C   UNL     1     -26.527 -57.310   5.080  1.00  0.00    -0.000 C 
BRANCH  29  30
ATOM     30  C   UNL     1     -25.471 -56.277   5.529  1.00  0.00    -0.000 C 
BRANCH  30  31
ATOM     31  C   UNL     1     -25.254 -56.236   7.050  1.00  0.00    -0.003 C 
ATOM     32  C   UNL     1     -23.797 -56.451   7.453  1.00  0.00     0.004 C 
ENDBRANCH  30  31
ENDBRANCH  29  30
ENDBRANCH  28  29
ENDBRANCH  27  28
ENDBRANCH  26  27
ENDBRANCH  25  26
ENDBRANCH  24  25
ENDBRANCH  23  24
ENDBRANCH  22  23
ENDBRANCH  21  22
ENDBRANCH  20  21
ENDBRANCH  19  20
ENDBRANCH  18  19
ENDBRANCH   1  18
TORSDOF 28
ENDMDL
MODEL 7
REMARK VINA RESULT:    -4.042      1.612      3.470
REMARK INTER + INTRA:         -17.167
REMARK INTER:                 -10.902
REMARK INTRA:                  -6.265
REMARK UNBOUND:                -6.510
REMARK SMILES CCCCCCCCCCCCCCCCCCCCCCCCCCCCCC(=O)[O-]
REMARK SMILES IDX 16 1 17 2 18 3 19 4 20 5 21 6 22 7 23 8 24 9 25 10 26 11
REMARK SMILES IDX 27 12 28 13 29 14 30 15 31 16 32 17 15 18 14 19 13 20 12 21
REMARK SMILES IDX 11 22 10 23 9 24 8 25 7 26 6 27 5 28 4 29 3 30 2 31 1 32
REMARK H PARENT
REMARK Flexibility Score: inf
ROOT
ATOM      1  C   UNL     1     -25.759 -60.688   2.606  1.00  0.00     0.000 C 
ENDROOT
BRANCH   1   2
ATOM      2  C   UNL     1     -25.324 -61.915   3.434  1.00  0.00     0.000 C 
BRANCH   2   3
ATOM      3  C   UNL     1     -24.250 -62.792   2.759  1.00  0.00     0.000 C 
BRANCH   3   4
ATOM      4  C   UNL     1     -22.943 -62.076   2.381  1.00  0.00     0.000 C 
BRANCH   4   5
ATOM      5  C   UNL     1     -22.351 -62.569   1.049  1.00  0.00     0.000 C 
BRANCH   5   6
ATOM      6  C   UNL     1     -22.221 -61.452  -0.001  1.00  0.00     0.000 C 
BRANCH   6   7
ATOM      7  C   UNL     1     -21.875 -60.060   0.563  1.00  0.00     0.000 C 
BRANCH   7   8
ATOM      8  C   UNL     1     -22.900 -58.952   0.249  1.00  0.00     0.000 C 
BRANCH   8   9
ATOM      9  C   UNL     1     -23.214 -58.766  -1.246  1.00  0.00     0.000 C 
BRANCH   9  10
ATOM     10  C   UNL     1     -24.661 -59.149  -1.604  1.00  0.00     0.000 C 
BRANCH  10  11
ATOM     11  C   UNL     1     -25.701 -58.218  -0.955  1.00  0.00     0.000 C 
BRANCH  11  12
ATOM     12  C   UNL     1     -25.831 -56.828  -1.607  1.00  0.00     0.000 C 
BRANCH  12  13
ATOM     13  C   UNL     1     -26.555 -55.771  -0.753  1.00  0.00     0.006 C 
BRANCH  13  14
ATOM     14  C   UNL     1     -25.991 -54.359  -0.950  1.00  0.00     0.053 C 
BRANCH  14  15
ATOM     15  C   UNL     1     -25.872 -53.658   0.366  1.00  0.00     0.041 C 
ATOM     16  O   UNL     1     -24.747 -53.530   0.917  1.00  0.00    -0.550 OA
ATOM     17  O   UNL     1     -27.012 -53.205   1.018  1.00  0.00    -0.550 OA
ENDBRANCH  14  15
ENDBRANCH  13  14
ENDBRANCH  12  13
ENDBRANCH  11  12
ENDBRANCH  10  11
ENDBRANCH   9  10
ENDBRANCH   8   9
ENDBRANCH   7   8
ENDBRANCH   6   7
ENDBRANCH   5   6
ENDBRANCH   4   5
ENDBRANCH   3   4
ENDBRANCH   2   3
ENDBRANCH   1   2
BRANCH   1  18
ATOM     18  C   UNL     1     -27.127 -60.125   3.039  1.00  0.00     0.000 C 
BRANCH  18  19
ATOM     19  C   UNL     1     -27.920 -59.505   1.874  1.00  0.00     0.000 C 
BRANCH  19  20
ATOM     20  C   UNL     1     -27.884 -57.968   1.810  1.00  0.00     0.000 C 
BRANCH  20  21
ATOM     21  C   UNL     1     -27.414 -57.317   3.123  1.00  0.00     0.000 C 
BRANCH  21  22
ATOM     22  C   UNL     1     -26.330 -56.250   2.892  1.00  0.00     0.000 C 
BRANCH  22  23
ATOM     23  C   UNL     1     -24.972 -56.861   2.505  1.00  0.00     0.000 C 
BRANCH  23  24
ATOM     24  C   UNL     1     -23.791 -56.174   3.213  1.00  0.00    -0.000 C 
BRANCH  24  25
ATOM     25  C   UNL     1     -22.894 -57.172   3.967  1.00  0.00    -0.000 C 
BRANCH  25  26
ATOM     26  C   UNL     1     -23.331 -58.632   3.774  1.00  0.00    -0.000 C 
BRANCH  26  27
ATOM     27  C   UNL     1     -23.009 -59.515   4.994  1.00  0.00    -0.000 C 
BRANCH  27  28
ATOM     28  C   UNL     1     -23.739 -59.049   6.265  1.00  0.00    -0.000 C 
BRANCH  28  29
ATOM     29  C   UNL     1     -25.228 -59.438   6.274  1.00  0.00    -0.000 C 
BRANCH  29  30
ATOM     30  C   UNL     1     -26.152 -58.207   6.161  1.00  0.00    -0.000 C 
BRANCH  30  31
ATOM     31  C   UNL     1     -25.465 -56.882   6.529  1.00  0.00    -0.003 C 
ATOM     32  C   UNL     1     -26.430 -55.699   6.568  1.00  0.00     0.004 C 
ENDBRANCH  30  31
ENDBRANCH  29  30
ENDBRANCH  28  29
ENDBRANCH  27  28
ENDBRANCH  26  27
ENDBRANCH  25  26
ENDBRANCH  24  25
ENDBRANCH  23  24
ENDBRANCH  22  23
ENDBRANCH  21  22
ENDBRANCH  20  21
ENDBRANCH  19  20
ENDBRANCH  18  19
ENDBRANCH   1  18
TORSDOF 28
ENDMDL
MODEL 8
REMARK VINA RESULT:    -4.026      1.201      2.197
REMARK INTER + INTRA:         -17.127
REMARK INTER:                 -11.337
REMARK INTRA:                  -5.790
REMARK UNBOUND:                -6.510
REMARK SMILES CCCCCCCCCCCCCCCCCCCCCCCCCCCCCC(=O)[O-]
REMARK SMILES IDX 16 1 17 2 18 3 19 4 20 5 21 6 22 7 23 8 24 9 25 10 26 11
REMARK SMILES IDX 27 12 28 13 29 14 30 15 31 16 32 17 15 18 14 19 13 20 12 21
REMARK SMILES IDX 11 22 10 23 9 24 8 25 7 26 6 27 5 28 4 29 3 30 2 31 1 32
REMARK H PARENT
REMARK Flexibility Score: inf
ROOT
ATOM      1  C   UNL     1     -23.940 -63.236   2.486  1.00  0.00     0.000 C 
ENDROOT
BRANCH   1   2
ATOM      2  C   UNL     1     -22.637 -62.478   2.157  1.00  0.00     0.000 C 
BRANCH   2   3
ATOM      3  C   UNL     1     -22.228 -62.525   0.671  1.00  0.00     0.000 C 
BRANCH   3   4
ATOM      4  C   UNL     1     -22.072 -61.162  -0.024  1.00  0.00     0.000 C 
BRANCH   4   5
ATOM      5  C   UNL     1     -22.176 -59.976   0.951  1.00  0.00     0.000 C 
BRANCH   5   6
ATOM      6  C   UNL     1     -23.300 -58.992   0.581  1.00  0.00     0.000 C 
BRANCH   6   7
ATOM      7  C   UNL     1     -24.721 -59.588   0.589  1.00  0.00     0.000 C 
BRANCH   7   8
ATOM      8  C   UNL     1     -25.668 -59.040  -0.499  1.00  0.00     0.000 C 
BRANCH   8   9
ATOM      9  C   UNL     1     -25.929 -57.526  -0.425  1.00  0.00     0.000 C 
BRANCH   9  10
ATOM     10  C   UNL     1     -26.795 -57.128   0.783  1.00  0.00     0.000 C 
BRANCH  10  11
ATOM     11  C   UNL     1     -26.381 -55.778   1.395  1.00  0.00     0.000 C 
BRANCH  11  12
ATOM     12  C   UNL     1     -27.526 -54.764   1.578  1.00  0.00     0.000 C 
BRANCH  12  13
ATOM     13  C   UNL     1     -27.518 -53.585   0.589  1.00  0.00     0.006 C 
BRANCH  13  14
ATOM     14  C   UNL     1     -26.193 -53.456  -0.173  1.00  0.00     0.053 C 
BRANCH  14  15
ATOM     15  C   UNL     1     -25.321 -52.425   0.471  1.00  0.00     0.041 C 
ATOM     16  O   UNL     1     -24.197 -52.748   0.938  1.00  0.00    -0.550 OA
ATOM     17  O   UNL     1     -25.777 -51.121   0.616  1.00  0.00    -0.550 OA
ENDBRANCH  14  15
ENDBRANCH  13  14
ENDBRANCH  12  13
ENDBRANCH  11  12
ENDBRANCH  10  11
ENDBRANCH   9  10
ENDBRANCH   8   9
ENDBRANCH   7   8
ENDBRANCH   6   7
ENDBRANCH   5   6
ENDBRANCH   4   5
ENDBRANCH   3   4
ENDBRANCH   2   3
ENDBRANCH   1   2
BRANCH   1  18
ATOM     18  C   UNL     1     -25.082 -62.303   2.934  1.00  0.00     0.000 C 
BRANCH  18  19
ATOM     19  C   UNL     1     -25.980 -62.927   4.017  1.00  0.00     0.000 C 
BRANCH  19  20
ATOM     20  C   UNL     1     -25.232 -63.718   5.105  1.00  0.00     0.000 C 
BRANCH  20  21
ATOM     21  C   UNL     1     -24.579 -62.816   6.168  1.00  0.00     0.000 C 
BRANCH  21  22
ATOM     22  C   UNL     1     -23.049 -62.974   6.209  1.00  0.00     0.000 C 
BRANCH  22  23
ATOM     23  C   UNL     1     -22.311 -61.715   5.722  1.00  0.00     0.000 C 
BRANCH  23  24
ATOM     24  C   UNL     1     -23.188 -60.453   5.787  1.00  0.00    -0.000 C 
BRANCH  24  25
ATOM     25  C   UNL     1     -23.172 -59.655   4.471  1.00  0.00    -0.000 C 
BRANCH  25  26
ATOM     26  C   UNL     1     -23.084 -58.137   4.694  1.00  0.00    -0.000 C 
BRANCH  26  27
ATOM     27  C   UNL     1     -24.141 -57.356   3.891  1.00  0.00    -0.000 C 
BRANCH  27  28
ATOM     28  C   UNL     1     -25.057 -56.512   4.794  1.00  0.00    -0.000 C 
BRANCH  28  29
ATOM     29  C   UNL     1     -26.477 -57.094   4.913  1.00  0.00    -0.000 C 
BRANCH  29  30
ATOM     30  C   UNL     1     -26.619 -58.438   4.166  1.00  0.00    -0.000 C 
BRANCH  30  31
ATOM     31  C   UNL     1     -27.031 -59.609   5.073  1.00  0.00    -0.003 C 
ATOM     32  C   UNL     1     -26.576 -59.434   6.520  1.00  0.00     0.004 C 
ENDBRANCH  30  31
ENDBRANCH  29  30
ENDBRANCH  28  29
ENDBRANCH  27  28
ENDBRANCH  26  27
ENDBRANCH  25  26
ENDBRANCH  24  25
ENDBRANCH  23  24
ENDBRANCH  22  23
ENDBRANCH  21  22
ENDBRANCH  20  21
ENDBRANCH  19  20
ENDBRANCH  18  19
ENDBRANCH   1  18
TORSDOF 28
ENDMDL
MODEL 9
REMARK VINA RESULT:    -4.008      1.709      4.751
REMARK INTER + INTRA:         -17.079
REMARK INTER:                 -10.751
REMARK INTRA:                  -6.329
REMARK UNBOUND:                -6.510
REMARK SMILES CCCCCCCCCCCCCCCCCCCCCCCCCCCCCC(=O)[O-]
REMARK SMILES IDX 16 1 17 2 18 3 19 4 20 5 21 6 22 7 23 8 24 9 25 10 26 11
REMARK SMILES IDX 27 12 28 13 29 14 30 15 31 16 32 17 15 18 14 19 13 20 12 21
REMARK SMILES IDX 11 22 10 23 9 24 8 25 7 26 6 27 5 28 4 29 3 30 2 31 1 32
REMARK H PARENT
REMARK Flexibility Score: inf
ROOT
ATOM      1  C   UNL     1     -23.330 -58.628   0.383  1.00  0.00     0.000 C 
ENDROOT
BRANCH   1   2
ATOM      2  C   UNL     1     -24.092 -59.438  -0.687  1.00  0.00     0.000 C 
BRANCH   2   3
ATOM      3  C   UNL     1     -25.615 -59.527  -0.455  1.00  0.00     0.000 C 
BRANCH   3   4
ATOM      4  C   UNL     1     -26.149 -58.774   0.774  1.00  0.00     0.000 C 
BRANCH   4   5
ATOM      5  C   UNL     1     -27.171 -59.592   1.583  1.00  0.00     0.000 C 
BRANCH   5   6
ATOM      6  C   UNL     1     -28.479 -58.825   1.848  1.00  0.00     0.000 C 
BRANCH   6   7
ATOM      7  C   UNL     1     -28.502 -57.372   1.335  1.00  0.00     0.000 C 
BRANCH   7   8
ATOM      8  C   UNL     1     -28.400 -56.289   2.428  1.00  0.00     0.000 C 
BRANCH   8   9
ATOM      9  C   UNL     1     -27.869 -54.929   1.942  1.00  0.00     0.000 C 
BRANCH   9  10
ATOM     10  C   UNL     1     -26.473 -54.600   2.502  1.00  0.00     0.000 C 
BRANCH  10  11
ATOM     11  C   UNL     1     -25.450 -54.279   1.397  1.00  0.00     0.000 C 
BRANCH  11  12
ATOM     12  C   UNL     1     -25.279 -55.374   0.327  1.00  0.00     0.000 C 
BRANCH  12  13
ATOM     13  C   UNL     1     -25.782 -54.997  -1.078  1.00  0.00     0.006 C 
BRANCH  13  14
ATOM     14  C   UNL     1     -26.546 -56.138  -1.762  1.00  0.00     0.053 C 
BRANCH  14  15
ATOM     15  C   UNL     1     -27.979 -55.758  -1.962  1.00  0.00     0.041 C 
ATOM     16  O   UNL     1     -28.785 -56.574  -2.482  1.00  0.00    -0.550 OA
ATOM     17  O   UNL     1     -28.411 -54.478  -1.638  1.00  0.00    -0.550 OA
ENDBRANCH  14  15
ENDBRANCH  13  14
ENDBRANCH  12  13
ENDBRANCH  11  12
ENDBRANCH  10  11
ENDBRANCH   9  10
ENDBRANCH   8   9
ENDBRANCH   7   8
ENDBRANCH   6   7
ENDBRANCH   5   6
ENDBRANCH   4   5
ENDBRANCH   3   4
ENDBRANCH   2   3
ENDBRANCH   1   2
BRANCH   1  18
ATOM     18  C   UNL     1     -22.614 -59.521   1.415  1.00  0.00     0.000 C 
BRANCH  18  19
ATOM     19  C   UNL     1     -22.296 -60.928   0.878  1.00  0.00     0.000 C 
BRANCH  19  20
ATOM     20  C   UNL     1     -22.888 -62.086   1.701  1.00  0.00     0.000 C 
BRANCH  20  21
ATOM     21  C   UNL     1     -24.322 -61.814   2.186  1.00  0.00     0.000 C 
BRANCH  21  22
ATOM     22  C   UNL     1     -24.736 -62.742   3.341  1.00  0.00     0.000 C 
BRANCH  22  23
ATOM     23  C   UNL     1     -23.631 -63.745   3.718  1.00  0.00     0.000 C 
BRANCH  23  24
ATOM     24  C   UNL     1     -23.278 -63.702   5.215  1.00  0.00    -0.000 C 
BRANCH  24  25
ATOM     25  C   UNL     1     -23.604 -62.343   5.860  1.00  0.00    -0.000 C 
BRANCH  25  26
ATOM     26  C   UNL     1     -22.444 -61.340   5.756  1.00  0.00    -0.000 C 
BRANCH  26  27
ATOM     27  C   UNL     1     -22.889 -59.973   5.204  1.00  0.00    -0.000 C 
BRANCH  27  28
ATOM     28  C   UNL     1     -24.201 -59.482   5.840  1.00  0.00    -0.000 C 
BRANCH  28  29
ATOM     29  C   UNL     1     -25.319 -59.265   4.805  1.00  0.00    -0.000 C 
BRANCH  29  30
ATOM     30  C   UNL     1     -25.518 -57.772   4.469  1.00  0.00    -0.000 C 
BRANCH  30  31
ATOM     31  C   UNL     1     -24.342 -57.148   3.700  1.00  0.00    -0.003 C 
ATOM     32  C   UNL     1     -23.609 -56.074   4.499  1.00  0.00     0.004 C 
ENDBRANCH  30  31
ENDBRANCH  29  30
ENDBRANCH  28  29
ENDBRANCH  27  28
ENDBRANCH  26  27
ENDBRANCH  25  26
ENDBRANCH  24  25
ENDBRANCH  23  24
ENDBRANCH  22  23
ENDBRANCH  21  22
ENDBRANCH  20  21
ENDBRANCH  19  20
ENDBRANCH  18  19
ENDBRANCH   1  18
TORSDOF 28
ENDMDL
