MODEL 1
REMARK VINA RESULT:    -4.866      0.000      0.000
REMARK INTER + INTRA:          -5.763
REMARK INTER:                  -5.861
REMARK INTRA:                   0.098
REMARK UNBOUND:                 0.098
REMARK SMILES CC[C@H](C)[C@H]([NH3+])C(=O)[O-]
REMARK SMILES IDX 3 1 4 2 5 3 6 4 7 8 8 9 9 10 2 11 1 12
REMARK H PARENT 6 5 6 6 6 7
REMARK Flexibility Score: inf
ROOT
ATOM      1  C   UNL     1     160.639 160.778 159.951  1.00  0.00     0.050 C 
ATOM      2  C   UNL     1     161.671 161.921 159.927  1.00  0.00     0.014 C 
ENDROOT
BRANCH   1   3
ATOM      3  C   UNL     1     161.025 159.665 160.975  1.00  0.00     0.230 C 
BRANCH   3   4
ATOM      4  N   UNL     1     160.549 158.329 160.590  1.00  0.00    -0.350 N 
ATOM      5  H   UNL     1     161.346 157.677 160.414  1.00  0.00     0.345 HD
ATOM      6  H   UNL     1     159.986 158.404 159.712  1.00  0.00     0.345 HD
ATOM      7  H   UNL     1     159.927 157.935 161.332  1.00  0.00     0.345 HD
ENDBRANCH   3   4
BRANCH   3   8
ATOM      8  C   UNL     1     160.551 160.021 162.365  1.00  0.00     0.099 C 
ATOM      9  O   UNL     1     160.508 159.135 163.259  1.00  0.00    -0.544 OA
ATOM     10  O   UNL     1     160.202 161.329 162.685  1.00  0.00    -0.544 OA
ENDBRANCH   3   8
ENDBRANCH   1   3
BRANCH   1  11
ATOM     11  C   UNL     1     160.267 160.261 158.532  1.00  0.00     0.006 C 
ATOM     12  C   UNL     1     160.639 161.188 157.368  1.00  0.00     0.004 C 
ENDBRANCH   1  11
TORSDOF 4
ENDMDL
MODEL 2
REMARK VINA RESULT:    -4.801      2.784      4.276
REMARK INTER + INTRA:          -5.685
REMARK INTER:                  -5.786
REMARK INTRA:                   0.101
REMARK UNBOUND:                 0.098
REMARK SMILES CC[C@H](C)[C@H]([NH3+])C(=O)[O-]
REMARK SMILES IDX 3 1 4 2 5 3 6 4 7 8 8 9 9 10 2 11 1 12
REMARK H PARENT 6 5 6 6 6 7
REMARK Flexibility Score: inf
ROOT
ATOM      1  C   UNL     1     160.631 160.157 161.027  1.00  0.00     0.050 C 
ATOM      2  C   UNL     1     161.655 159.007 161.035  1.00  0.00     0.014 C 
ENDROOT
BRANCH   1   3
ATOM      3  C   UNL     1     161.016 161.274 160.006  1.00  0.00     0.230 C 
BRANCH   3   4
ATOM      4  N   UNL     1     160.540 162.609 160.397  1.00  0.00    -0.350 N 
ATOM      5  H   UNL     1     159.907 163.014 159.672  1.00  0.00     0.345 HD
ATOM      6  H   UNL     1     161.360 163.248 160.510  1.00  0.00     0.345 HD
ATOM      7  H   UNL     1     160.044 162.565 161.316  1.00  0.00     0.345 HD
ENDBRANCH   3   4
BRANCH   3   8
ATOM      8  C   UNL     1     160.539 160.922 158.616  1.00  0.00     0.099 C 
ATOM      9  O   UNL     1     160.515 161.807 157.720  1.00  0.00    -0.544 OA
ATOM     10  O   UNL     1     160.168 159.621 158.299  1.00  0.00    -0.544 OA
ENDBRANCH   3   8
ENDBRANCH   1   3
BRANCH   1  11
ATOM     11  C   UNL     1     160.275 160.668 162.453  1.00  0.00     0.006 C 
ATOM     12  C   UNL     1     160.697 159.755 163.611  1.00  0.00     0.004 C 
ENDBRANCH   1  11
TORSDOF 4
ENDMDL
MODEL 3
REMARK VINA RESULT:    -4.792      1.781      2.378
REMARK INTER + INTRA:          -5.674
REMARK INTER:                  -5.740
REMARK INTRA:                   0.066
REMARK UNBOUND:                 0.098
REMARK SMILES CC[C@H](C)[C@H]([NH3+])C(=O)[O-]
REMARK SMILES IDX 3 1 4 2 5 3 6 4 7 8 8 9 9 10 2 11 1 12
REMARK H PARENT 6 5 6 6 6 7
REMARK Flexibility Score: inf
ROOT
ATOM      1  C   UNL     1     160.259 160.058 159.825  1.00  0.00     0.050 C 
ATOM      2  C   UNL     1     159.129 159.012 159.851  1.00  0.00     0.014 C 
ENDROOT
BRANCH   1   3
ATOM      3  C   UNL     1     159.999 161.224 160.830  1.00  0.00     0.230 C 
BRANCH   3   4
ATOM      4  N   UNL     1     160.573 162.506 160.396  1.00  0.00    -0.350 N 
ATOM      5  H   UNL     1     161.398 162.769 160.979  1.00  0.00     0.345 HD
ATOM      6  H   UNL     1     159.852 163.257 160.490  1.00  0.00     0.345 HD
ATOM      7  H   UNL     1     160.851 162.459 159.390  1.00  0.00     0.345 HD
ENDBRANCH   3   4
BRANCH   3   8
ATOM      8  C   UNL     1     160.484 160.863 162.214  1.00  0.00     0.099 C 
ATOM      9  O   UNL     1     160.518 161.741 163.115  1.00  0.00    -0.544 OA
ATOM     10  O   UNL     1     160.852 159.558 162.521  1.00  0.00    -0.544 OA
ENDBRANCH   3   8
ENDBRANCH   1   3
BRANCH   1  11
ATOM     11  C   UNL     1     160.643 160.507 158.386  1.00  0.00     0.006 C 
ATOM     12  C   UNL     1     160.303 159.515 157.266  1.00  0.00     0.004 C 
ENDBRANCH   1  11
TORSDOF 4
ENDMDL
MODEL 4
REMARK VINA RESULT:    -4.756      2.965      3.968
REMARK INTER + INTRA:          -5.631
REMARK INTER:                  -5.539
REMARK INTRA:                  -0.092
REMARK UNBOUND:                 0.098
REMARK SMILES CC[C@H](C)[C@H]([NH3+])C(=O)[O-]
REMARK SMILES IDX 3 1 4 2 5 3 6 4 7 8 8 9 9 10 2 11 1 12
REMARK H PARENT 6 5 6 6 6 7
REMARK Flexibility Score: inf
ROOT
ATOM      1  C   UNL     1     160.860 160.482 160.052  1.00  0.00     0.050 C 
ATOM      2  C   UNL     1     160.614 161.920 160.545  1.00  0.00     0.014 C 
ENDROOT
BRANCH   1   3
ATOM      3  C   UNL     1     159.755 160.009 159.055  1.00  0.00     0.230 C 
BRANCH   3   4
ATOM      4  N   UNL     1     159.110 158.751 159.455  1.00  0.00    -0.350 N 
ATOM      5  H   UNL     1     158.208 158.927 159.951  1.00  0.00     0.345 HD
ATOM      6  H   UNL     1     159.744 158.229 160.103  1.00  0.00     0.345 HD
ATOM      7  H   UNL     1     158.942 158.145 158.621  1.00  0.00     0.345 HD
ENDBRANCH   3   4
BRANCH   3   8
ATOM      8  C   UNL     1     160.303 159.906 157.651  1.00  0.00     0.099 C 
ATOM      9  O   UNL     1     160.451 158.775 157.118  1.00  0.00    -0.544 OA
ATOM     10  O   UNL     1     160.607 161.048 156.919  1.00  0.00    -0.544 OA
ENDBRANCH   3   8
ENDBRANCH   1   3
BRANCH   1  11
ATOM     11  C   UNL     1     161.171 159.485 161.206  1.00  0.00     0.006 C 
ATOM     12  C   UNL     1     160.614 159.868 162.583  1.00  0.00     0.004 C 
ENDBRANCH   1  11
TORSDOF 4
ENDMDL
MODEL 5
REMARK VINA RESULT:    -4.723      1.674      2.387
REMARK INTER + INTRA:          -5.591
REMARK INTER:                  -5.502
REMARK INTRA:                  -0.089
REMARK UNBOUND:                 0.098
REMARK SMILES CC[C@H](C)[C@H]([NH3+])C(=O)[O-]
REMARK SMILES IDX 3 1 4 2 5 3 6 4 7 8 8 9 9 10 2 11 1 12
REMARK H PARENT 6 5 6 6 6 7
REMARK Flexibility Score: inf
ROOT
ATOM      1  C   UNL     1     160.960 160.326 160.916  1.00  0.00     0.050 C 
ATOM      2  C   UNL     1     160.628 158.979 160.249  1.00  0.00     0.014 C 
ENDROOT
BRANCH   1   3
ATOM      3  C   UNL     1     159.912 160.711 162.008  1.00  0.00     0.230 C 
BRANCH   3   4
ATOM      4  N   UNL     1     159.198 161.962 161.714  1.00  0.00    -0.350 N 
ATOM      5  H   UNL     1     158.385 161.795 161.079  1.00  0.00     0.345 HD
ATOM      6  H   UNL     1     159.851 162.629 161.242  1.00  0.00     0.345 HD
ATOM      7  H   UNL     1     158.870 162.411 162.598  1.00  0.00     0.345 HD
ENDBRANCH   3   4
BRANCH   3   8
ATOM      8  C   UNL     1     160.552 160.770 163.375  1.00  0.00     0.099 C 
ATOM      9  O   UNL     1     160.661 161.875 163.968  1.00  0.00    -0.544 OA
ATOM     10  O   UNL     1     160.986 159.611 164.009  1.00  0.00    -0.544 OA
ENDBRANCH   3   8
ENDBRANCH   1   3
BRANCH   1  11
ATOM     11  C   UNL     1     161.283 161.453 159.892  1.00  0.00     0.006 C 
ATOM     12  C   UNL     1     160.705 161.257 158.485  1.00  0.00     0.004 C 
ENDBRANCH   1  11
TORSDOF 4
ENDMDL
MODEL 6
REMARK VINA RESULT:    -4.581      2.191      3.948
REMARK INTER + INTRA:          -5.420
REMARK INTER:                  -5.340
REMARK INTRA:                  -0.080
REMARK UNBOUND:                 0.098
REMARK SMILES CC[C@H](C)[C@H]([NH3+])C(=O)[O-]
REMARK SMILES IDX 3 1 4 2 5 3 6 4 7 8 8 9 9 10 2 11 1 12
REMARK H PARENT 6 5 6 6 6 7
REMARK Flexibility Score: inf
ROOT
ATOM      1  C   UNL     1     160.666 160.541 162.148  1.00  0.00     0.050 C 
ATOM      2  C   UNL     1     159.923 161.460 163.135  1.00  0.00     0.014 C 
ENDROOT
BRANCH   1   3
ATOM      3  C   UNL     1     160.020 160.566 160.727  1.00  0.00     0.230 C 
BRANCH   3   4
ATOM      4  N   UNL     1     159.781 159.226 160.172  1.00  0.00    -0.350 N 
ATOM      5  H   UNL     1     158.760 159.040 160.054  1.00  0.00     0.345 HD
ATOM      6  H   UNL     1     160.172 158.508 160.825  1.00  0.00     0.345 HD
ATOM      7  H   UNL     1     160.269 159.118 159.255  1.00  0.00     0.345 HD
ENDBRANCH   3   4
BRANCH   3   8
ATOM      8  C   UNL     1     160.843 161.400 159.774  1.00  0.00     0.099 C 
ATOM      9  O   UNL     1     161.795 162.097 160.213  1.00  0.00    -0.544 OA
ATOM     10  O   UNL     1     160.592 161.375 158.406  1.00  0.00    -0.544 OA
ENDBRANCH   3   8
ENDBRANCH   1   3
BRANCH   1  11
ATOM     11  C   UNL     1     160.934 159.119 162.720  1.00  0.00     0.006 C 
ATOM     12  C   UNL     1     160.862 158.993 164.247  1.00  0.00     0.004 C 
ENDBRANCH   1  11
TORSDOF 4
ENDMDL
MODEL 7
REMARK VINA RESULT:    -4.564      2.559      3.973
REMARK INTER + INTRA:          -5.400
REMARK INTER:                  -5.312
REMARK INTRA:                  -0.088
REMARK UNBOUND:                 0.098
REMARK SMILES CC[C@H](C)[C@H]([NH3+])C(=O)[O-]
REMARK SMILES IDX 3 1 4 2 5 3 6 4 7 8 8 9 9 10 2 11 1 12
REMARK H PARENT 6 5 6 6 6 7
REMARK Flexibility Score: inf
ROOT
ATOM      1  C   UNL     1     160.271 160.378 162.218  1.00  0.00     0.050 C 
ATOM      2  C   UNL     1     161.036 159.508 163.231  1.00  0.00     0.014 C 
ENDROOT
BRANCH   1   3
ATOM      3  C   UNL     1     160.957 160.381 160.815  1.00  0.00     0.230 C 
BRANCH   3   4
ATOM      4  N   UNL     1     161.118 161.727 160.248  1.00  0.00    -0.350 N 
ATOM      5  H   UNL     1     160.605 161.823 159.344  1.00  0.00     0.345 HD
ATOM      6  H   UNL     1     162.133 161.907 160.070  1.00  0.00     0.345 HD
ATOM      7  H   UNL     1     160.782 162.450 160.924  1.00  0.00     0.345 HD
ENDBRANCH   3   4
BRANCH   3   8
ATOM      8  C   UNL     1     160.220 159.480 159.852  1.00  0.00     0.099 C 
ATOM      9  O   UNL     1     159.278 158.755 160.268  1.00  0.00    -0.544 OA
ATOM     10  O   UNL     1     160.538 159.472 158.498  1.00  0.00    -0.544 OA
ENDBRANCH   3   8
ENDBRANCH   1   3
BRANCH   1  11
ATOM     11  C   UNL     1     159.910 161.786 162.772  1.00  0.00     0.006 C 
ATOM     12  C   UNL     1     160.267 162.034 164.243  1.00  0.00     0.004 C 
ENDBRANCH   1  11
TORSDOF 4
ENDMDL
MODEL 8
REMARK VINA RESULT:    -4.425      2.601      4.116
REMARK INTER + INTRA:          -5.233
REMARK INTER:                  -5.208
REMARK INTRA:                  -0.025
REMARK UNBOUND:                 0.098
REMARK SMILES CC[C@H](C)[C@H]([NH3+])C(=O)[O-]
REMARK SMILES IDX 3 1 4 2 5 3 6 4 7 8 8 9 9 10 2 11 1 12
REMARK H PARENT 6 5 6 6 6 7
REMARK Flexibility Score: inf
ROOT
ATOM      1  C   UNL     1     160.726 160.809 163.107  1.00  0.00     0.050 C 
ATOM      2  C   UNL     1     160.131 161.960 163.939  1.00  0.00     0.014 C 
ENDROOT
BRANCH   1   3
ATOM      3  C   UNL     1     160.518 161.027 161.575  1.00  0.00     0.230 C 
BRANCH   3   4
ATOM      4  N   UNL     1     159.318 161.814 161.256  1.00  0.00    -0.350 N 
ATOM      5  H   UNL     1     159.317 162.119 160.258  1.00  0.00     0.345 HD
ATOM      6  H   UNL     1     159.296 162.669 161.860  1.00  0.00     0.345 HD
ATOM      7  H   UNL     1     158.454 161.262 161.459  1.00  0.00     0.345 HD
ENDBRANCH   3   4
BRANCH   3   8
ATOM      8  C   UNL     1     160.502 159.708 160.839  1.00  0.00     0.099 C 
ATOM      9  O   UNL     1     159.419 159.258 160.382  1.00  0.00    -0.544 OA
ATOM     10  O   UNL     1     161.679 159.001 160.619  1.00  0.00    -0.544 OA
ENDBRANCH   3   8
ENDBRANCH   1   3
BRANCH   1  11
ATOM     11  C   UNL     1     160.315 159.401 163.629  1.00  0.00     0.006 C 
ATOM     12  C   UNL     1     161.382 158.656 164.440  1.00  0.00     0.004 C 
ENDBRANCH   1  11
TORSDOF 4
ENDMDL
MODEL 9
REMARK VINA RESULT:    -4.172     11.822     12.787
REMARK INTER + INTRA:          -4.927
REMARK INTER:                  -4.848
REMARK INTRA:                  -0.080
REMARK UNBOUND:                 0.098
REMARK SMILES CC[C@H](C)[C@H]([NH3+])C(=O)[O-]
REMARK SMILES IDX 3 1 4 2 5 3 6 4 7 8 8 9 9 10 2 11 1 12
REMARK H PARENT 6 5 6 6 6 7
REMARK Flexibility Score: inf
ROOT
ATOM      1  C   UNL     1     167.673 167.343 153.366  1.00  0.00     0.050 C 
ATOM      2  C   UNL     1     169.161 167.419 152.981  1.00  0.00     0.014 C 
ENDROOT
BRANCH   1   3
ATOM      3  C   UNL     1     166.980 168.741 153.303  1.00  0.00     0.230 C 
BRANCH   3   4
ATOM      4  N   UNL     1     166.559 169.243 154.619  1.00  0.00    -0.350 N 
ATOM      5  H   UNL     1     167.382 169.462 155.223  1.00  0.00     0.345 HD
ATOM      6  H   UNL     1     165.985 168.512 155.098  1.00  0.00     0.345 HD
ATOM      7  H   UNL     1     165.963 170.094 154.511  1.00  0.00     0.345 HD
ENDBRANCH   3   4
BRANCH   3   8
ATOM      8  C   UNL     1     165.817 168.724 152.340  1.00  0.00     0.099 C 
ATOM      9  O   UNL     1     165.911 168.094 151.254  1.00  0.00    -0.544 OA
ATOM     10  O   UNL     1     164.621 169.360 152.656  1.00  0.00    -0.544 OA
ENDBRANCH   3   8
ENDBRANCH   1   3
BRANCH   1  11
ATOM     11  C   UNL     1     167.422 166.548 154.680  1.00  0.00     0.006 C 
ATOM     12  C   UNL     1     168.489 165.507 155.041  1.00  0.00     0.004 C 
ENDBRANCH   1  11
TORSDOF 4
ENDMDL
