MODEL 1
REMARK VINA RESULT:    -2.554      0.000      0.000
REMARK INTER + INTRA:          -2.882
REMARK INTER:                  -2.852
REMARK INTRA:                  -0.030
REMARK UNBOUND:                -0.030
REMARK SMILES CCCC(=O)[O-]
REMARK SMILES IDX 3 1 4 2 5 3 6 4 2 5 1 6
REMARK H PARENT
REMARK Flexibility Score: inf
ROOT
ATOM      1  C   UNL     1     153.455 132.957 164.713  1.00  0.00     0.052 C 
ENDROOT
BRANCH   1   2
ATOM      2  C   UNL     1     154.113 132.364 165.922  1.00  0.00     0.041 C 
ATOM      3  O   UNL     1     153.467 132.232 166.995  1.00  0.00    -0.550 OA
ATOM      4  O   UNL     1     155.430 131.928 165.853  1.00  0.00    -0.550 OA
ENDBRANCH   1   2
BRANCH   1   5
ATOM      5  C   UNL     1     152.860 131.875 163.804  1.00  0.00     0.003 C 
ATOM      6  C   UNL     1     151.332 131.912 163.779  1.00  0.00     0.004 C 
ENDBRANCH   1   5
TORSDOF 2
ENDMDL
MODEL 2
REMARK VINA RESULT:    -2.537      3.213      4.144
REMARK INTER + INTRA:          -2.863
REMARK INTER:                  -2.827
REMARK INTRA:                  -0.037
REMARK UNBOUND:                -0.030
REMARK SMILES CCCC(=O)[O-]
REMARK SMILES IDX 3 1 4 2 5 3 6 4 2 5 1 6
REMARK H PARENT
REMARK Flexibility Score: inf
ROOT
ATOM      1  C   UNL     1     150.885 131.901 163.752  1.00  0.00     0.052 C 
ENDROOT
BRANCH   1   2
ATOM      2  C   UNL     1     150.293 133.246 163.459  1.00  0.00     0.041 C 
ATOM      3  O   UNL     1     149.362 133.361 162.619  1.00  0.00    -0.550 OA
ATOM      4  O   UNL     1     150.749 134.369 164.139  1.00  0.00    -0.550 OA
ENDBRANCH   1   2
BRANCH   1   5
ATOM      5  C   UNL     1     152.395 131.876 163.485  1.00  0.00     0.003 C 
ATOM      6  C   UNL     1     153.213 131.887 164.776  1.00  0.00     0.004 C 
ENDBRANCH   1   5
TORSDOF 2
ENDMDL
MODEL 3
REMARK VINA RESULT:    -2.489      2.510      3.580
REMARK INTER + INTRA:          -2.810
REMARK INTER:                  -2.773
REMARK INTRA:                  -0.037
REMARK UNBOUND:                -0.030
REMARK SMILES CCCC(=O)[O-]
REMARK SMILES IDX 3 1 4 2 5 3 6 4 2 5 1 6
REMARK H PARENT
REMARK Flexibility Score: inf
ROOT
ATOM      1  C   UNL     1     152.216 131.972 163.620  1.00  0.00     0.052 C 
ENDROOT
BRANCH   1   2
ATOM      2  C   UNL     1     150.862 132.251 164.198  1.00  0.00     0.041 C 
ATOM      3  O   UNL     1     149.836 132.186 163.471  1.00  0.00    -0.550 OA
ATOM      4  O   UNL     1     150.731 132.552 165.548  1.00  0.00    -0.550 OA
ENDBRANCH   1   2
BRANCH   1   5
ATOM      5  C   UNL     1     153.289 131.875 164.710  1.00  0.00     0.003 C 
ATOM      6  C   UNL     1     154.160 133.130 164.782  1.00  0.00     0.004 C 
ENDBRANCH   1   5
TORSDOF 2
ENDMDL
MODEL 4
REMARK VINA RESULT:    -2.474      6.982      7.927
REMARK INTER + INTRA:          -2.793
REMARK INTER:                  -2.733
REMARK INTRA:                  -0.061
REMARK UNBOUND:                -0.030
REMARK SMILES CCCC(=O)[O-]
REMARK SMILES IDX 3 1 4 2 5 3 6 4 2 5 1 6
REMARK H PARENT
REMARK Flexibility Score: inf
ROOT
ATOM      1  C   UNL     1     147.144 133.204 160.953  1.00  0.00     0.052 C 
ENDROOT
BRANCH   1   2
ATOM      2  C   UNL     1     146.908 133.000 162.419  1.00  0.00     0.041 C 
ATOM      3  O   UNL     1     146.065 133.707 163.030  1.00  0.00    -0.550 OA
ATOM      4  O   UNL     1     147.598 132.006 163.102  1.00  0.00    -0.550 OA
ENDBRANCH   1   2
BRANCH   1   5
ATOM      5  C   UNL     1     145.827 133.279 160.172  1.00  0.00     0.003 C 
ATOM      6  C   UNL     1     145.131 131.922 160.073  1.00  0.00     0.004 C 
ENDBRANCH   1   5
TORSDOF 2
ENDMDL
MODEL 5
REMARK VINA RESULT:    -2.462      7.612      8.777
REMARK INTER + INTRA:          -2.779
REMARK INTER:                  -2.770
REMARK INTRA:                  -0.009
REMARK UNBOUND:                -0.030
REMARK SMILES CCCC(=O)[O-]
REMARK SMILES IDX 3 1 4 2 5 3 6 4 2 5 1 6
REMARK H PARENT
REMARK Flexibility Score: inf
ROOT
ATOM      1  C   UNL     1     146.497 132.354 161.713  1.00  0.00     0.052 C 
ENDROOT
BRANCH   1   2
ATOM      2  C   UNL     1     145.503 132.539 160.608  1.00  0.00     0.041 C 
ATOM      3  O   UNL     1     144.407 131.919 160.630  1.00  0.00    -0.550 OA
ATOM      4  O   UNL     1     145.773 133.421 159.569  1.00  0.00    -0.550 OA
ENDBRANCH   1   2
BRANCH   1   5
ATOM      5  C   UNL     1     147.591 133.428 161.677  1.00  0.00     0.003 C 
ATOM      6  C   UNL     1     148.701 133.162 162.694  1.00  0.00     0.004 C 
ENDBRANCH   1   5
TORSDOF 2
ENDMDL
MODEL 6
REMARK VINA RESULT:    -2.456      2.428      3.910
REMARK INTER + INTRA:          -2.772
REMARK INTER:                  -2.748
REMARK INTRA:                  -0.025
REMARK UNBOUND:                -0.030
REMARK SMILES CCCC(=O)[O-]
REMARK SMILES IDX 3 1 4 2 5 3 6 4 2 5 1 6
REMARK H PARENT
REMARK Flexibility Score: inf
ROOT
ATOM      1  C   UNL     1     155.228 132.078 165.981  1.00  0.00     0.052 C 
ENDROOT
BRANCH   1   2
ATOM      2  C   UNL     1     154.391 133.108 165.286  1.00  0.00     0.041 C 
ATOM      3  O   UNL     1     154.478 134.321 165.611  1.00  0.00    -0.550 OA
ATOM      4  O   UNL     1     153.537 132.731 164.257  1.00  0.00    -0.550 OA
ENDBRANCH   1   2
BRANCH   1   5
ATOM      5  C   UNL     1     156.043 132.689 167.128  1.00  0.00     0.003 C 
ATOM      6  C   UNL     1     157.507 132.249 167.099  1.00  0.00     0.004 C 
ENDBRANCH   1   5
TORSDOF 2
ENDMDL
MODEL 7
REMARK VINA RESULT:    -2.440      2.803      3.571
REMARK INTER + INTRA:          -2.755
REMARK INTER:                  -2.732
REMARK INTRA:                  -0.022
REMARK UNBOUND:                -0.030
REMARK SMILES CCCC(=O)[O-]
REMARK SMILES IDX 3 1 4 2 5 3 6 4 2 5 1 6
REMARK H PARENT
REMARK Flexibility Score: inf
ROOT
ATOM      1  C   UNL     1     155.519 132.570 167.330  1.00  0.00     0.052 C 
ENDROOT
BRANCH   1   2
ATOM      2  C   UNL     1     156.987 132.850 167.437  1.00  0.00     0.041 C 
ATOM      3  O   UNL     1     157.826 131.989 167.064  1.00  0.00    -0.550 OA
ATOM      4  O   UNL     1     157.428 134.076 167.921  1.00  0.00    -0.550 OA
ENDBRANCH   1   2
BRANCH   1   5
ATOM      5  C   UNL     1     155.132 132.106 165.921  1.00  0.00     0.003 C 
ATOM      6  C   UNL     1     154.389 133.187 165.136  1.00  0.00     0.004 C 
ENDBRANCH   1   5
TORSDOF 2
ENDMDL
MODEL 8
REMARK VINA RESULT:    -2.409      1.480      1.740
REMARK INTER + INTRA:          -2.720
REMARK INTER:                  -2.701
REMARK INTRA:                  -0.019
REMARK UNBOUND:                -0.030
REMARK SMILES CCCC(=O)[O-]
REMARK SMILES IDX 3 1 4 2 5 3 6 4 2 5 1 6
REMARK H PARENT
REMARK Flexibility Score: inf
ROOT
ATOM      1  C   UNL     1     154.429 131.902 165.750  1.00  0.00     0.052 C 
ENDROOT
BRANCH   1   2
ATOM      2  C   UNL     1     154.688 132.813 166.912  1.00  0.00     0.041 C 
ATOM      3  O   UNL     1     154.334 134.020 166.863  1.00  0.00    -0.550 OA
ATOM      4  O   UNL     1     155.293 132.319 168.061  1.00  0.00    -0.550 OA
ENDBRANCH   1   2
BRANCH   1   5
ATOM      5  C   UNL     1     152.979 132.007 165.260  1.00  0.00     0.003 C 
ATOM      6  C   UNL     1     152.868 131.876 163.741  1.00  0.00     0.004 C 
ENDBRANCH   1   5
TORSDOF 2
ENDMDL
MODEL 9
REMARK VINA RESULT:    -2.405      2.094      3.429
REMARK INTER + INTRA:          -2.716
REMARK INTER:                  -2.707
REMARK INTRA:                  -0.009
REMARK UNBOUND:                -0.030
REMARK SMILES CCCC(=O)[O-]
REMARK SMILES IDX 3 1 4 2 5 3 6 4 2 5 1 6
REMARK H PARENT
REMARK Flexibility Score: inf
ROOT
ATOM      1  C   UNL     1     153.901 132.935 165.007  1.00  0.00     0.052 C 
ENDROOT
BRANCH   1   2
ATOM      2  C   UNL     1     152.739 132.346 164.268  1.00  0.00     0.041 C 
ATOM      3  O   UNL     1     152.870 131.974 163.072  1.00  0.00    -0.550 OA
ATOM      4  O   UNL     1     151.519 132.177 164.912  1.00  0.00    -0.550 OA
ENDBRANCH   1   2
BRANCH   1   5
ATOM      5  C   UNL     1     154.646 131.877 165.830  1.00  0.00     0.003 C 
ATOM      6  C   UNL     1     155.150 132.427 167.164  1.00  0.00     0.004 C 
ENDBRANCH   1   5
TORSDOF 2
ENDMDL
