MODEL 1
REMARK VINA RESULT:    -2.318      0.000      0.000
REMARK INTER + INTRA:          -2.318
REMARK INTER:                  -2.318
REMARK INTRA:                   0.000
REMARK UNBOUND:                 0.000
REMARK SMILES CC(=O)[O-]
REMARK SMILES IDX 1 1 2 2 3 3 4 4
REMARK H PARENT
REMARK Flexibility Score: inf
ROOT
ATOM      1  C   UNL     1     -20.146  -9.547 -13.063  1.00  0.00     0.063 C 
ATOM      2  C   UNL     1     -20.211  -8.078 -13.305  1.00  0.00     0.038 C 
ATOM      3  O   UNL     1     -19.560  -7.565 -14.252  1.00  0.00    -0.550 OA
ATOM      4  O   UNL     1     -20.947  -7.264 -12.454  1.00  0.00    -0.550 OA
ENDROOT
TORSDOF 0
ENDMDL
MODEL 2
REMARK VINA RESULT:    -2.124      1.527      2.300
REMARK INTER + INTRA:          -2.124
REMARK INTER:                  -2.124
REMARK INTRA:                   0.000
REMARK UNBOUND:                 0.000
REMARK SMILES CC(=O)[O-]
REMARK SMILES IDX 1 1 2 2 3 3 4 4
REMARK H PARENT
REMARK Flexibility Score: inf
ROOT
ATOM      1  C   UNL     1     -19.982  -7.508 -13.992  1.00  0.00     0.063 C 
ATOM      2  C   UNL     1     -20.389  -8.529 -12.985  1.00  0.00     0.038 C 
ATOM      3  O   UNL     1     -20.906  -8.169 -11.895  1.00  0.00    -0.550 OA
ATOM      4  O   UNL     1     -20.150  -9.876 -13.223  1.00  0.00    -0.550 OA
ENDROOT
TORSDOF 0
ENDMDL
MODEL 3
REMARK VINA RESULT:    -1.947      2.598      3.288
REMARK INTER + INTRA:          -1.947
REMARK INTER:                  -1.947
REMARK INTRA:                   0.000
REMARK UNBOUND:                 0.000
REMARK SMILES CC(=O)[O-]
REMARK SMILES IDX 1 1 2 2 3 3 4 4
REMARK H PARENT
REMARK Flexibility Score: inf
ROOT
ATOM      1  C   UNL     1     -20.459  -6.624 -12.985  1.00  0.00     0.063 C 
ATOM      2  C   UNL     1     -20.240  -5.216 -13.424  1.00  0.00     0.038 C 
ATOM      3  O   UNL     1     -20.774  -4.267 -12.793  1.00  0.00    -0.550 OA
ATOM      4  O   UNL     1     -19.488  -4.951 -14.561  1.00  0.00    -0.550 OA
ENDROOT
TORSDOF 0
ENDMDL
MODEL 4
REMARK VINA RESULT:    -1.922      1.585      2.156
REMARK INTER + INTRA:          -1.922
REMARK INTER:                  -1.922
REMARK INTRA:                   0.000
REMARK UNBOUND:                 0.000
REMARK SMILES CC(=O)[O-]
REMARK SMILES IDX 1 1 2 2 3 3 4 4
REMARK H PARENT
REMARK Flexibility Score: inf
ROOT
ATOM      1  C   UNL     1     -20.274  -5.712 -12.972  1.00  0.00     0.063 C 
ATOM      2  C   UNL     1     -20.638  -7.120 -13.299  1.00  0.00     0.038 C 
ATOM      3  O   UNL     1     -20.951  -7.435 -14.476  1.00  0.00    -0.550 OA
ATOM      4  O   UNL     1     -20.684  -8.079 -12.294  1.00  0.00    -0.550 OA
ENDROOT
TORSDOF 0
ENDMDL
MODEL 5
REMARK VINA RESULT:    -1.917     18.667     18.801
REMARK INTER + INTRA:          -1.917
REMARK INTER:                  -1.917
REMARK INTRA:                   0.000
REMARK UNBOUND:                 0.000
REMARK SMILES CC(=O)[O-]
REMARK SMILES IDX 1 1 2 2 3 3 4 4
REMARK H PARENT
REMARK Flexibility Score: inf
ROOT
ATOM      1  C   UNL     1      -6.550 -10.507  -0.372  1.00  0.00     0.063 C 
ATOM      2  C   UNL     1      -7.203  -9.281   0.167  1.00  0.00     0.038 C 
ATOM      3  O   UNL     1      -7.787  -8.481  -0.610  1.00  0.00    -0.550 OA
ATOM      4  O   UNL     1      -7.124  -8.989   1.523  1.00  0.00    -0.550 OA
ENDROOT
TORSDOF 0
ENDMDL
MODEL 6
REMARK VINA RESULT:    -1.912     18.687     18.856
REMARK INTER + INTRA:          -1.912
REMARK INTER:                  -1.912
REMARK INTRA:                   0.000
REMARK UNBOUND:                 0.000
REMARK SMILES CC(=O)[O-]
REMARK SMILES IDX 1 1 2 2 3 3 4 4
REMARK H PARENT
REMARK Flexibility Score: inf
ROOT
ATOM      1  C   UNL     1      -6.516 -10.486  -0.376  1.00  0.00     0.063 C 
ATOM      2  C   UNL     1      -7.146  -9.278   0.229  1.00  0.00     0.038 C 
ATOM      3  O   UNL     1      -7.097  -9.096   1.473  1.00  0.00    -0.550 OA
ATOM      4  O   UNL     1      -7.834  -8.376  -0.573  1.00  0.00    -0.550 OA
ENDROOT
TORSDOF 0
ENDMDL
MODEL 7
REMARK VINA RESULT:    -1.879      2.396      2.690
REMARK INTER + INTRA:          -1.879
REMARK INTER:                  -1.879
REMARK INTRA:                   0.000
REMARK UNBOUND:                 0.000
REMARK SMILES CC(=O)[O-]
REMARK SMILES IDX 1 1 2 2 3 3 4 4
REMARK H PARENT
REMARK Flexibility Score: inf
ROOT
ATOM      1  C   UNL     1     -20.481  -6.715 -12.953  1.00  0.00     0.063 C 
ATOM      2  C   UNL     1     -20.204  -6.092 -14.278  1.00  0.00     0.038 C 
ATOM      3  O   UNL     1     -19.578  -5.002 -14.345  1.00  0.00    -0.550 OA
ATOM      4  O   UNL     1     -20.682  -6.684 -15.440  1.00  0.00    -0.550 OA
ENDROOT
TORSDOF 0
ENDMDL
MODEL 8
REMARK VINA RESULT:    -1.877     18.586     18.660
REMARK INTER + INTRA:          -1.877
REMARK INTER:                  -1.877
REMARK INTRA:                   0.000
REMARK UNBOUND:                 0.000
REMARK SMILES CC(=O)[O-]
REMARK SMILES IDX 1 1 2 2 3 3 4 4
REMARK H PARENT
REMARK Flexibility Score: inf
ROOT
ATOM      1  C   UNL     1      -7.539  -8.513  -0.330  1.00  0.00     0.063 C 
ATOM      2  C   UNL     1      -7.188  -7.116   0.055  1.00  0.00     0.038 C 
ATOM      3  O   UNL     1      -6.161  -6.568  -0.425  1.00  0.00    -0.550 OA
ATOM      4  O   UNL     1      -7.962  -6.434   0.985  1.00  0.00    -0.550 OA
ENDROOT
TORSDOF 0
ENDMDL
MODEL 9
REMARK VINA RESULT:    -1.839     19.075     19.245
REMARK INTER + INTRA:          -1.839
REMARK INTER:                  -1.839
REMARK INTRA:                   0.000
REMARK UNBOUND:                 0.000
REMARK SMILES CC(=O)[O-]
REMARK SMILES IDX 1 1 2 2 3 3 4 4
REMARK H PARENT
REMARK Flexibility Score: inf
ROOT
ATOM      1  C   UNL     1      -7.605  -8.947  -0.329  1.00  0.00     0.063 C 
ATOM      2  C   UNL     1      -6.795 -10.063   0.236  1.00  0.00     0.038 C 
ATOM      3  O   UNL     1      -6.754 -10.247   1.481  1.00  0.00    -0.550 OA
ATOM      4  O   UNL     1      -6.039 -10.870  -0.605  1.00  0.00    -0.550 OA
ENDROOT
TORSDOF 0
ENDMDL
