MODEL 1
REMARK VINA RESULT:    -3.182      0.000      0.000
REMARK INTER + INTRA:          -8.855
REMARK INTER:                  -6.159
REMARK INTRA:                  -2.696
REMARK UNBOUND:                -2.696
REMARK SMILES CCCCCCCCCCCCCCCCCC(=O)[O-]
REMARK SMILES IDX 10 1 11 2 12 3 13 4 14 5 15 6 16 7 17 8 18 9 19 10 20 11
REMARK SMILES IDX 9 12 8 13 7 14 6 15 5 16 4 17 3 18 2 19 1 20
REMARK H PARENT
REMARK Flexibility Score: inf
ROOT
ATOM      1  C   UNL     1      18.778  -8.288 188.305  1.00  0.00     0.000 C 
ENDROOT
BRANCH   1   2
ATOM      2  C   UNL     1      19.378  -9.690 188.531  1.00  0.00     0.000 C 
BRANCH   2   3
ATOM      3  C   UNL     1      19.406 -10.595 187.283  1.00  0.00     0.000 C 
BRANCH   3   4
ATOM      4  C   UNL     1      19.425 -12.107 187.571  1.00  0.00     0.000 C 
BRANCH   4   5
ATOM      5  C   UNL     1      18.456 -12.899 186.676  1.00  0.00     0.000 C 
BRANCH   5   6
ATOM      6  C   UNL     1      18.614 -14.419 186.838  1.00  0.00     0.000 C 
BRANCH   6   7
ATOM      7  C   UNL     1      17.263 -15.149 186.938  1.00  0.00     0.006 C 
BRANCH   7   8
ATOM      8  C   UNL     1      16.079 -14.214 186.659  1.00  0.00     0.053 C 
BRANCH   8   9
ATOM      9  C   UNL     1      15.308 -14.641 185.448  1.00  0.00     0.041 C 
ATOM     10  O   UNL     1      14.362 -13.930 185.016  1.00  0.00    -0.550 OA
ATOM     11  O   UNL     1      15.658 -15.803 184.773  1.00  0.00    -0.550 OA
ENDBRANCH   8   9
ENDBRANCH   7   8
ENDBRANCH   6   7
ENDBRANCH   5   6
ENDBRANCH   4   5
ENDBRANCH   3   4
ENDBRANCH   2   3
ENDBRANCH   1   2
BRANCH   1  12
ATOM     12  C   UNL     1      18.817  -7.788 186.847  1.00  0.00     0.000 C 
BRANCH  12  13
ATOM     13  C   UNL     1      17.623  -6.915 186.420  1.00  0.00    -0.000 C 
BRANCH  13  14
ATOM     14  C   UNL     1      16.990  -7.372 185.095  1.00  0.00    -0.000 C 
BRANCH  14  15
ATOM     15  C   UNL     1      17.470  -8.764 184.648  1.00  0.00    -0.000 C 
BRANCH  15  16
ATOM     16  C   UNL     1      16.378  -9.687 184.076  1.00  0.00    -0.000 C 
BRANCH  16  17
ATOM     17  C   UNL     1      15.976 -10.813 185.043  1.00  0.00    -0.000 C 
BRANCH  17  18
ATOM     18  C   UNL     1      15.141 -10.302 186.229  1.00  0.00    -0.000 C 
BRANCH  18  19
ATOM     19  C   UNL     1      15.834 -10.523 187.581  1.00  0.00    -0.003 C 
ATOM     20  C   UNL     1      15.123  -9.760 188.694  1.00  0.00     0.004 C 
ENDBRANCH  18  19
ENDBRANCH  17  18
ENDBRANCH  16  17
ENDBRANCH  15  16
ENDBRANCH  14  15
ENDBRANCH  13  14
ENDBRANCH  12  13
ENDBRANCH   1  12
TORSDOF 16
ENDMDL
MODEL 2
REMARK VINA RESULT:    -3.180      2.390      5.804
REMARK INTER + INTRA:          -8.851
REMARK INTER:                  -6.129
REMARK INTRA:                  -2.723
REMARK UNBOUND:                -2.696
REMARK SMILES CCCCCCCCCCCCCCCCCC(=O)[O-]
REMARK SMILES IDX 10 1 11 2 12 3 13 4 14 5 15 6 16 7 17 8 18 9 19 10 20 11
REMARK SMILES IDX 9 12 8 13 7 14 6 15 5 16 4 17 3 18 2 19 1 20
REMARK H PARENT
REMARK Flexibility Score: inf
ROOT
ATOM      1  C   UNL     1      15.776 -13.475 187.391  1.00  0.00     0.000 C 
ENDROOT
BRANCH   1   2
ATOM      2  C   UNL     1      14.597 -13.474 186.398  1.00  0.00     0.000 C 
BRANCH   2   3
ATOM      3  C   UNL     1      14.931 -14.004 184.989  1.00  0.00     0.000 C 
BRANCH   3   4
ATOM      4  C   UNL     1      15.230 -12.921 183.937  1.00  0.00     0.000 C 
BRANCH   4   5
ATOM      5  C   UNL     1      15.128 -11.494 184.502  1.00  0.00     0.000 C 
BRANCH   5   6
ATOM      6  C   UNL     1      16.298 -10.601 184.060  1.00  0.00     0.000 C 
BRANCH   6   7
ATOM      7  C   UNL     1      16.725  -9.600 185.149  1.00  0.00     0.006 C 
BRANCH   7   8
ATOM      8  C   UNL     1      15.962  -9.814 186.462  1.00  0.00     0.053 C 
BRANCH   8   9
ATOM      9  C   UNL     1      15.214  -8.585 186.877  1.00  0.00     0.041 C 
ATOM     10  O   UNL     1      15.823  -7.493 187.027  1.00  0.00    -0.550 OA
ATOM     11  O   UNL     1      13.838  -8.635 187.059  1.00  0.00    -0.550 OA
ENDBRANCH   8   9
ENDBRANCH   7   8
ENDBRANCH   6   7
ENDBRANCH   5   6
ENDBRANCH   4   5
ENDBRANCH   3   4
ENDBRANCH   2   3
ENDBRANCH   1   2
BRANCH   1  12
ATOM     12  C   UNL     1      16.791 -14.620 187.199  1.00  0.00     0.000 C 
BRANCH  12  13
ATOM     13  C   UNL     1      18.212 -14.179 186.805  1.00  0.00    -0.000 C 
BRANCH  13  14
ATOM     14  C   UNL     1      18.335 -12.658 186.612  1.00  0.00    -0.000 C 
BRANCH  14  15
ATOM     15  C   UNL     1      19.422 -12.026 187.499  1.00  0.00    -0.000 C 
BRANCH  15  16
ATOM     16  C   UNL     1      19.609 -10.506 187.332  1.00  0.00    -0.000 C 
BRANCH  16  17
ATOM     17  C   UNL     1      19.056  -9.699 188.518  1.00  0.00    -0.000 C 
BRANCH  17  18
ATOM     18  C   UNL     1      19.131  -8.180 188.285  1.00  0.00    -0.000 C 
BRANCH  18  19
ATOM     19  C   UNL     1      19.512  -7.821 186.841  1.00  0.00    -0.003 C 
ATOM     20  C   UNL     1      19.110  -6.388 186.508  1.00  0.00     0.004 C 
ENDBRANCH  18  19
ENDBRANCH  17  18
ENDBRANCH  16  17
ENDBRANCH  15  16
ENDBRANCH  14  15
ENDBRANCH  13  14
ENDBRANCH  12  13
ENDBRANCH   1  12
TORSDOF 16
ENDMDL
MODEL 3
REMARK VINA RESULT:    -3.178      2.506      5.671
REMARK INTER + INTRA:          -8.846
REMARK INTER:                  -6.286
REMARK INTRA:                  -2.561
REMARK UNBOUND:                -2.696
REMARK SMILES CCCCCCCCCCCCCCCCCC(=O)[O-]
REMARK SMILES IDX 10 1 11 2 12 3 13 4 14 5 15 6 16 7 17 8 18 9 19 10 20 11
REMARK SMILES IDX 9 12 8 13 7 14 6 15 5 16 4 17 3 18 2 19 1 20
REMARK H PARENT
REMARK Flexibility Score: inf
ROOT
ATOM      1  C   UNL     1      16.819 -11.660 187.147  1.00  0.00     0.000 C 
ENDROOT
BRANCH   1   2
ATOM      2  C   UNL     1      18.179 -12.138 186.602  1.00  0.00     0.000 C 
BRANCH   2   3
ATOM      3  C   UNL     1      19.394 -11.786 187.485  1.00  0.00     0.000 C 
BRANCH   3   4
ATOM      4  C   UNL     1      19.541 -10.293 187.830  1.00  0.00     0.000 C 
BRANCH   4   5
ATOM      5  C   UNL     1      19.748  -9.409 186.588  1.00  0.00     0.000 C 
BRANCH   5   6
ATOM      6  C   UNL     1      18.615  -8.388 186.397  1.00  0.00     0.000 C 
BRANCH   6   7
ATOM      7  C   UNL     1      17.778  -8.659 185.134  1.00  0.00     0.006 C 
BRANCH   7   8
ATOM      8  C   UNL     1      17.087  -7.391 184.617  1.00  0.00     0.053 C 
BRANCH   8   9
ATOM      9  C   UNL     1      15.683  -7.277 185.124  1.00  0.00     0.041 C 
ATOM     10  O   UNL     1      15.141  -8.249 185.713  1.00  0.00    -0.550 OA
ATOM     11  O   UNL     1      14.985  -6.084 184.982  1.00  0.00    -0.550 OA
ENDBRANCH   8   9
ENDBRANCH   7   8
ENDBRANCH   6   7
ENDBRANCH   5   6
ENDBRANCH   4   5
ENDBRANCH   3   4
ENDBRANCH   2   3
ENDBRANCH   1   2
BRANCH   1  12
ATOM     12  C   UNL     1      15.676 -11.628 186.112  1.00  0.00     0.000 C 
BRANCH  12  13
ATOM     13  C   UNL     1      16.114 -11.774 184.644  1.00  0.00    -0.000 C 
BRANCH  13  14
ATOM     14  C   UNL     1      15.293 -12.823 183.875  1.00  0.00    -0.000 C 
BRANCH  14  15
ATOM     15  C   UNL     1      14.494 -13.758 184.801  1.00  0.00    -0.000 C 
BRANCH  15  16
ATOM     16  C   UNL     1      14.937 -15.233 184.793  1.00  0.00    -0.000 C 
BRANCH  16  17
ATOM     17  C   UNL     1      16.198 -15.487 185.635  1.00  0.00    -0.000 C 
BRANCH  17  18
ATOM     18  C   UNL     1      15.943 -15.323 187.143  1.00  0.00    -0.000 C 
BRANCH  18  19
ATOM     19  C   UNL     1      17.221 -15.481 187.980  1.00  0.00    -0.003 C 
ATOM     20  C   UNL     1      18.437 -15.712 187.088  1.00  0.00     0.004 C 
ENDBRANCH  18  19
ENDBRANCH  17  18
ENDBRANCH  16  17
ENDBRANCH  15  16
ENDBRANCH  14  15
ENDBRANCH  13  14
ENDBRANCH  12  13
ENDBRANCH   1  12
TORSDOF 16
ENDMDL
MODEL 4
REMARK VINA RESULT:    -3.105      3.445      6.295
REMARK INTER + INTRA:          -8.705
REMARK INTER:                  -6.395
REMARK INTRA:                  -2.310
REMARK UNBOUND:                -2.696
REMARK SMILES CCCCCCCCCCCCCCCCCC(=O)[O-]
REMARK SMILES IDX 10 1 11 2 12 3 13 4 14 5 15 6 16 7 17 8 18 9 19 10 20 11
REMARK SMILES IDX 9 12 8 13 7 14 6 15 5 16 4 17 3 18 2 19 1 20
REMARK H PARENT
REMARK Flexibility Score: inf
ROOT
ATOM      1  C   UNL     1      15.987 -10.337 186.590  1.00  0.00     0.000 C 
ENDROOT
BRANCH   1   2
ATOM      2  C   UNL     1      16.080  -9.240 185.510  1.00  0.00     0.000 C 
BRANCH   2   3
ATOM      3  C   UNL     1      17.513  -8.891 185.059  1.00  0.00     0.000 C 
BRANCH   3   4
ATOM      4  C   UNL     1      18.468  -8.460 186.187  1.00  0.00     0.000 C 
BRANCH   4   5
ATOM      5  C   UNL     1      19.767  -9.283 186.218  1.00  0.00     0.000 C 
BRANCH   5   6
ATOM      6  C   UNL     1      20.016  -9.937 187.587  1.00  0.00     0.000 C 
BRANCH   6   7
ATOM      7  C   UNL     1      18.914  -9.611 188.610  1.00  0.00     0.006 C 
BRANCH   7   8
ATOM      8  C   UNL     1      19.482  -8.995 189.895  1.00  0.00     0.053 C 
BRANCH   8   9
ATOM      9  C   UNL     1      18.958  -7.611 190.126  1.00  0.00     0.041 C 
ATOM     10  O   UNL     1      18.442  -7.306 191.234  1.00  0.00    -0.550 OA
ATOM     11  O   UNL     1      19.074  -6.647 189.133  1.00  0.00    -0.550 OA
ENDBRANCH   8   9
ENDBRANCH   7   8
ENDBRANCH   6   7
ENDBRANCH   5   6
ENDBRANCH   4   5
ENDBRANCH   3   4
ENDBRANCH   2   3
ENDBRANCH   1   2
BRANCH   1  12
ATOM     12  C   UNL     1      16.105 -11.782 186.065  1.00  0.00     0.000 C 
BRANCH  12  13
ATOM     13  C   UNL     1      17.542 -12.320 185.942  1.00  0.00    -0.000 C 
BRANCH  13  14
ATOM     14  C   UNL     1      17.987 -13.127 187.174  1.00  0.00    -0.000 C 
BRANCH  14  15
ATOM     15  C   UNL     1      18.460 -14.549 186.823  1.00  0.00    -0.000 C 
BRANCH  15  16
ATOM     16  C   UNL     1      17.442 -15.671 187.101  1.00  0.00    -0.000 C 
BRANCH  16  17
ATOM     17  C   UNL     1      16.542 -15.979 185.893  1.00  0.00    -0.000 C 
BRANCH  17  18
ATOM     18  C   UNL     1      15.046 -15.836 186.219  1.00  0.00    -0.000 C 
BRANCH  18  19
ATOM     19  C   UNL     1      14.349 -14.777 185.352  1.00  0.00    -0.003 C 
ATOM     20  C   UNL     1      14.916 -14.768 183.935  1.00  0.00     0.004 C 
ENDBRANCH  18  19
ENDBRANCH  17  18
ENDBRANCH  16  17
ENDBRANCH  15  16
ENDBRANCH  14  15
ENDBRANCH  13  14
ENDBRANCH  12  13
ENDBRANCH   1  12
TORSDOF 16
ENDMDL
MODEL 5
REMARK VINA RESULT:    -3.099      2.004      4.771
REMARK INTER + INTRA:          -8.693
REMARK INTER:                  -6.628
REMARK INTRA:                  -2.065
REMARK UNBOUND:                -2.696
REMARK SMILES CCCCCCCCCCCCCCCCCC(=O)[O-]
REMARK SMILES IDX 10 1 11 2 12 3 13 4 14 5 15 6 16 7 17 8 18 9 19 10 20 11
REMARK SMILES IDX 9 12 8 13 7 14 6 15 5 16 4 17 3 18 2 19 1 20
REMARK H PARENT
REMARK Flexibility Score: inf
ROOT
ATOM      1  C   UNL     1      18.631 -14.276 186.902  1.00  0.00     0.000 C 
ENDROOT
BRANCH   1   2
ATOM      2  C   UNL     1      17.916 -15.638 186.997  1.00  0.00     0.000 C 
BRANCH   2   3
ATOM      3  C   UNL     1      16.664 -15.780 186.108  1.00  0.00     0.000 C 
BRANCH   3   4
ATOM      4  C   UNL     1      15.320 -15.716 186.856  1.00  0.00     0.000 C 
BRANCH   4   5
ATOM      5  C   UNL     1      14.142 -15.346 185.938  1.00  0.00     0.000 C 
BRANCH   5   6
ATOM      6  C   UNL     1      14.591 -14.569 184.689  1.00  0.00     0.000 C 
BRANCH   6   7
ATOM      7  C   UNL     1      14.408 -13.048 184.838  1.00  0.00     0.006 C 
BRANCH   7   8
ATOM      8  C   UNL     1      15.375 -12.260 183.947  1.00  0.00     0.053 C 
BRANCH   8   9
ATOM      9  C   UNL     1      15.488 -10.830 184.378  1.00  0.00     0.041 C 
ATOM     10  O   UNL     1      16.529 -10.170 184.117  1.00  0.00    -0.550 OA
ATOM     11  O   UNL     1      14.429 -10.214 185.033  1.00  0.00    -0.550 OA
ENDBRANCH   8   9
ENDBRANCH   7   8
ENDBRANCH   6   7
ENDBRANCH   5   6
ENDBRANCH   4   5
ENDBRANCH   3   4
ENDBRANCH   2   3
ENDBRANCH   1   2
BRANCH   1  12
ATOM     12  C   UNL     1      17.755 -13.111 186.399  1.00  0.00     0.000 C 
BRANCH  12  13
ATOM     13  C   UNL     1      18.090 -11.732 186.994  1.00  0.00    -0.000 C 
BRANCH  13  14
ATOM     14  C   UNL     1      19.551 -11.620 187.460  1.00  0.00    -0.000 C 
BRANCH  14  15
ATOM     15  C   UNL     1      20.047 -10.164 187.538  1.00  0.00    -0.000 C 
BRANCH  15  16
ATOM     16  C   UNL     1      19.781  -9.308 186.286  1.00  0.00    -0.000 C 
BRANCH  16  17
ATOM     17  C   UNL     1      19.456  -7.842 186.619  1.00  0.00    -0.000 C 
BRANCH  17  18
ATOM     18  C   UNL     1      18.274  -7.706 187.594  1.00  0.00    -0.000 C 
BRANCH  18  19
ATOM     19  C   UNL     1      16.939  -8.138 186.969  1.00  0.00    -0.003 C 
ATOM     20  C   UNL     1      16.064  -8.859 187.990  1.00  0.00     0.004 C 
ENDBRANCH  18  19
ENDBRANCH  17  18
ENDBRANCH  16  17
ENDBRANCH  15  16
ENDBRANCH  14  15
ENDBRANCH  13  14
ENDBRANCH  12  13
ENDBRANCH   1  12
TORSDOF 16
ENDMDL
MODEL 6
REMARK VINA RESULT:    -3.083      3.415      6.169
REMARK INTER + INTRA:          -8.663
REMARK INTER:                  -6.441
REMARK INTRA:                  -2.222
REMARK UNBOUND:                -2.696
REMARK SMILES CCCCCCCCCCCCCCCCCC(=O)[O-]
REMARK SMILES IDX 10 1 11 2 12 3 13 4 14 5 15 6 16 7 17 8 18 9 19 10 20 11
REMARK SMILES IDX 9 12 8 13 7 14 6 15 5 16 4 17 3 18 2 19 1 20
REMARK H PARENT
REMARK Flexibility Score: inf
ROOT
ATOM      1  C   UNL     1      16.919 -15.169 187.029  1.00  0.00     0.000 C 
ENDROOT
BRANCH   1   2
ATOM      2  C   UNL     1      18.274 -14.450 186.876  1.00  0.00     0.000 C 
BRANCH   2   3
ATOM      3  C   UNL     1      18.188 -12.914 186.776  1.00  0.00     0.000 C 
BRANCH   3   4
ATOM      4  C   UNL     1      19.427 -12.155 187.286  1.00  0.00     0.000 C 
BRANCH   4   5
ATOM      5  C   UNL     1      19.214 -10.632 187.343  1.00  0.00     0.000 C 
BRANCH   5   6
ATOM      6  C   UNL     1      18.982 -10.123 188.775  1.00  0.00     0.000 C 
BRANCH   6   7
ATOM      7  C   UNL     1      19.468  -8.677 188.977  1.00  0.00     0.006 C 
BRANCH   7   8
ATOM      8  C   UNL     1      19.492  -8.277 190.458  1.00  0.00     0.053 C 
BRANCH   8   9
ATOM      9  C   UNL     1      18.533  -7.163 190.748  1.00  0.00     0.041 C 
ATOM     10  O   UNL     1      17.321  -7.271 190.425  1.00  0.00    -0.550 OA
ATOM     11  O   UNL     1      18.970  -6.023 191.410  1.00  0.00    -0.550 OA
ENDBRANCH   8   9
ENDBRANCH   7   8
ENDBRANCH   6   7
ENDBRANCH   5   6
ENDBRANCH   4   5
ENDBRANCH   3   4
ENDBRANCH   2   3
ENDBRANCH   1   2
BRANCH   1  12
ATOM     12  C   UNL     1      15.714 -14.430 186.412  1.00  0.00     0.000 C 
BRANCH  12  13
ATOM     13  C   UNL     1      15.141 -15.064 185.131  1.00  0.00    -0.000 C 
BRANCH  13  14
ATOM     14  C   UNL     1      14.982 -14.054 183.982  1.00  0.00    -0.000 C 
BRANCH  14  15
ATOM     15  C   UNL     1      14.990 -12.592 184.462  1.00  0.00    -0.000 C 
BRANCH  15  16
ATOM     16  C   UNL     1      16.154 -11.730 183.937  1.00  0.00    -0.000 C 
BRANCH  16  17
ATOM     17  C   UNL     1      16.221 -10.344 184.599  1.00  0.00    -0.000 C 
BRANCH  17  18
ATOM     18  C   UNL     1      15.130 -10.145 185.664  1.00  0.00    -0.000 C 
BRANCH  18  19
ATOM     19  C   UNL     1      15.708  -9.908 187.067  1.00  0.00    -0.003 C 
ATOM     20  C   UNL     1      15.319 -11.035 188.019  1.00  0.00     0.004 C 
ENDBRANCH  18  19
ENDBRANCH  17  18
ENDBRANCH  16  17
ENDBRANCH  15  16
ENDBRANCH  14  15
ENDBRANCH  13  14
ENDBRANCH  12  13
ENDBRANCH   1  12
TORSDOF 16
ENDMDL
MODEL 7
REMARK VINA RESULT:    -3.058      2.924      5.864
REMARK INTER + INTRA:          -8.614
REMARK INTER:                  -6.166
REMARK INTRA:                  -2.449
REMARK UNBOUND:                -2.696
REMARK SMILES CCCCCCCCCCCCCCCCCC(=O)[O-]
REMARK SMILES IDX 10 1 11 2 12 3 13 4 14 5 15 6 16 7 17 8 18 9 19 10 20 11
REMARK SMILES IDX 9 12 8 13 7 14 6 15 5 16 4 17 3 18 2 19 1 20
REMARK H PARENT
REMARK Flexibility Score: inf
ROOT
ATOM      1  C   UNL     1      16.087 -14.801 187.526  1.00  0.00     0.000 C 
ENDROOT
BRANCH   1   2
ATOM      2  C   UNL     1      17.460 -15.501 187.494  1.00  0.00     0.000 C 
BRANCH   2   3
ATOM      3  C   UNL     1      18.613 -14.648 186.927  1.00  0.00     0.000 C 
BRANCH   3   4
ATOM      4  C   UNL     1      18.307 -13.146 186.787  1.00  0.00     0.000 C 
BRANCH   4   5
ATOM      5  C   UNL     1      19.417 -12.253 187.369  1.00  0.00     0.000 C 
BRANCH   5   6
ATOM      6  C   UNL     1      18.906 -10.856 187.755  1.00  0.00     0.000 C 
BRANCH   6   7
ATOM      7  C   UNL     1      18.699  -9.942 186.534  1.00  0.00     0.006 C 
BRANCH   7   8
ATOM      8  C   UNL     1      19.775  -8.853 186.438  1.00  0.00     0.053 C 
BRANCH   8   9
ATOM      9  C   UNL     1      19.178  -7.479 186.448  1.00  0.00     0.041 C 
ATOM     10  O   UNL     1      17.964  -7.314 186.153  1.00  0.00    -0.550 OA
ATOM     11  O   UNL     1      19.950  -6.386 186.819  1.00  0.00    -0.550 OA
ENDBRANCH   8   9
ENDBRANCH   7   8
ENDBRANCH   6   7
ENDBRANCH   5   6
ENDBRANCH   4   5
ENDBRANCH   3   4
ENDBRANCH   2   3
ENDBRANCH   1   2
BRANCH   1  12
ATOM     12  C   UNL     1      14.893 -15.685 187.113  1.00  0.00     0.000 C 
BRANCH  12  13
ATOM     13  C   UNL     1      14.285 -15.367 185.735  1.00  0.00    -0.000 C 
BRANCH  13  14
ATOM     14  C   UNL     1      15.270 -14.648 184.798  1.00  0.00    -0.000 C 
BRANCH  14  15
ATOM     15  C   UNL     1      14.774 -13.259 184.357  1.00  0.00    -0.000 C 
BRANCH  15  16
ATOM     16  C   UNL     1      15.775 -12.106 184.556  1.00  0.00    -0.000 C 
BRANCH  16  17
ATOM     17  C   UNL     1      15.183 -10.925 185.343  1.00  0.00    -0.000 C 
BRANCH  17  18
ATOM     18  C   UNL     1      14.387 -11.379 186.579  1.00  0.00    -0.000 C 
BRANCH  18  19
ATOM     19  C   UNL     1      15.237 -11.392 187.858  1.00  0.00    -0.003 C 
ATOM     20  C   UNL     1      15.392  -9.985 188.428  1.00  0.00     0.004 C 
ENDBRANCH  18  19
ENDBRANCH  17  18
ENDBRANCH  16  17
ENDBRANCH  15  16
ENDBRANCH  14  15
ENDBRANCH  13  14
ENDBRANCH  12  13
ENDBRANCH   1  12
TORSDOF 16
ENDMDL
MODEL 8
REMARK VINA RESULT:    -3.042     17.763     19.820
REMARK INTER + INTRA:          -8.583
REMARK INTER:                  -5.703
REMARK INTRA:                  -2.879
REMARK UNBOUND:                -2.696
REMARK SMILES CCCCCCCCCCCCCCCCCC(=O)[O-]
REMARK SMILES IDX 10 1 11 2 12 3 13 4 14 5 15 6 16 7 17 8 18 9 19 10 20 11
REMARK SMILES IDX 9 12 8 13 7 14 6 15 5 16 4 17 3 18 2 19 1 20
REMARK H PARENT
REMARK Flexibility Score: inf
ROOT
ATOM      1  C   UNL     1      16.440  -2.593 201.488  1.00  0.00     0.000 C 
ENDROOT
BRANCH   1   2
ATOM      2  C   UNL     1      15.269  -3.541 201.811  1.00  0.00     0.000 C 
BRANCH   2   3
ATOM      3  C   UNL     1      13.934  -2.839 202.136  1.00  0.00     0.000 C 
BRANCH   3   4
ATOM      4  C   UNL     1      13.664  -2.610 203.634  1.00  0.00     0.000 C 
BRANCH   4   5
ATOM      5  C   UNL     1      12.299  -1.952 203.901  1.00  0.00     0.000 C 
BRANCH   5   6
ATOM      6  C   UNL     1      11.431  -1.864 202.635  1.00  0.00     0.000 C 
BRANCH   6   7
ATOM      7  C   UNL     1      10.675  -0.528 202.525  1.00  0.00     0.006 C 
BRANCH   7   8
ATOM      8  C   UNL     1       9.845  -0.438 201.238  1.00  0.00     0.053 C 
BRANCH   8   9
ATOM      9  C   UNL     1       9.271   0.931 201.042  1.00  0.00     0.041 C 
ATOM     10  O   UNL     1       8.312   1.325 201.758  1.00  0.00    -0.550 OA
ATOM     11  O   UNL     1       9.818   1.787 200.095  1.00  0.00    -0.550 OA
ENDBRANCH   8   9
ENDBRANCH   7   8
ENDBRANCH   6   7
ENDBRANCH   5   6
ENDBRANCH   4   5
ENDBRANCH   3   4
ENDBRANCH   2   3
ENDBRANCH   1   2
BRANCH   1  12
ATOM     12  C   UNL     1      17.189  -2.038 202.717  1.00  0.00     0.000 C 
BRANCH  12  13
ATOM     13  C   UNL     1      18.123  -0.847 202.434  1.00  0.00    -0.000 C 
BRANCH  13  14
ATOM     14  C   UNL     1      17.683   0.442 203.149  1.00  0.00    -0.000 C 
BRANCH  14  15
ATOM     15  C   UNL     1      16.313   0.309 203.839  1.00  0.00    -0.000 C 
BRANCH  15  16
ATOM     16  C   UNL     1      15.298   1.419 203.510  1.00  0.00    -0.000 C 
BRANCH  16  17
ATOM     17  C   UNL     1      14.136   0.930 202.629  1.00  0.00    -0.000 C 
BRANCH  17  18
ATOM     18  C   UNL     1      14.580   0.613 201.191  1.00  0.00    -0.000 C 
BRANCH  18  19
ATOM     19  C   UNL     1      13.467   0.852 200.161  1.00  0.00    -0.003 C 
ATOM     20  C   UNL     1      13.047  -0.453 199.493  1.00  0.00     0.004 C 
ENDBRANCH  18  19
ENDBRANCH  17  18
ENDBRANCH  16  17
ENDBRANCH  15  16
ENDBRANCH  14  15
ENDBRANCH  13  14
ENDBRANCH  12  13
ENDBRANCH   1  12
TORSDOF 16
ENDMDL
MODEL 9
REMARK VINA RESULT:    -3.025      2.985      5.434
REMARK INTER + INTRA:          -8.551
REMARK INTER:                  -5.955
REMARK INTRA:                  -2.596
REMARK UNBOUND:                -2.696
REMARK SMILES CCCCCCCCCCCCCCCCCC(=O)[O-]
REMARK SMILES IDX 10 1 11 2 12 3 13 4 14 5 15 6 16 7 17 8 18 9 19 10 20 11
REMARK SMILES IDX 9 12 8 13 7 14 6 15 5 16 4 17 3 18 2 19 1 20
REMARK H PARENT
REMARK Flexibility Score: inf
ROOT
ATOM      1  C   UNL     1      14.842 -14.496 186.386  1.00  0.00     0.000 C 
ENDROOT
BRANCH   1   2
ATOM      2  C   UNL     1      16.031 -14.630 187.358  1.00  0.00     0.000 C 
BRANCH   2   3
ATOM      3  C   UNL     1      17.311 -15.229 186.742  1.00  0.00     0.000 C 
BRANCH   3   4
ATOM      4  C   UNL     1      18.581 -14.375 186.914  1.00  0.00     0.000 C 
BRANCH   4   5
ATOM      5  C   UNL     1      18.320 -12.871 186.722  1.00  0.00     0.000 C 
BRANCH   5   6
ATOM      6  C   UNL     1      19.335 -11.997 187.476  1.00  0.00     0.000 C 
BRANCH   6   7
ATOM      7  C   UNL     1      19.408 -10.562 186.925  1.00  0.00     0.006 C 
BRANCH   7   8
ATOM      8  C   UNL     1      19.731  -9.538 188.021  1.00  0.00     0.053 C 
BRANCH   8   9
ATOM      9  C   UNL     1      18.789  -8.374 187.989  1.00  0.00     0.041 C 
ATOM     10  O   UNL     1      18.815  -7.565 187.024  1.00  0.00    -0.550 OA
ATOM     11  O   UNL     1      17.858  -8.203 189.005  1.00  0.00    -0.550 OA
ENDBRANCH   8   9
ENDBRANCH   7   8
ENDBRANCH   6   7
ENDBRANCH   5   6
ENDBRANCH   4   5
ENDBRANCH   3   4
ENDBRANCH   2   3
ENDBRANCH   1   2
BRANCH   1  12
ATOM     12  C   UNL     1      15.190 -14.693 184.897  1.00  0.00     0.000 C 
BRANCH  12  13
ATOM     13  C   UNL     1      14.870 -13.495 183.984  1.00  0.00    -0.000 C 
BRANCH  13  14
ATOM     14  C   UNL     1      15.802 -12.295 184.220  1.00  0.00    -0.000 C 
BRANCH  14  15
ATOM     15  C   UNL     1      15.063 -11.055 184.754  1.00  0.00    -0.000 C 
BRANCH  15  16
ATOM     16  C   UNL     1      15.737 -10.344 185.942  1.00  0.00    -0.000 C 
BRANCH  16  17
ATOM     17  C   UNL     1      15.265 -10.874 187.306  1.00  0.00    -0.000 C 
BRANCH  17  18
ATOM     18  C   UNL     1      13.778 -10.581 187.570  1.00  0.00    -0.000 C 
BRANCH  18  19
ATOM     19  C   UNL     1      13.044 -11.771 188.205  1.00  0.00    -0.003 C 
ATOM     20  C   UNL     1      13.849 -12.360 189.359  1.00  0.00     0.004 C 
ENDBRANCH  18  19
ENDBRANCH  17  18
ENDBRANCH  16  17
ENDBRANCH  15  16
ENDBRANCH  14  15
ENDBRANCH  13  14
ENDBRANCH  12  13
ENDBRANCH   1  12
TORSDOF 16
ENDMDL
