MODEL 1
REMARK VINA RESULT:    -5.398      0.000      0.000
REMARK INTER + INTRA:         -17.624
REMARK INTER:                 -13.603
REMARK INTRA:                  -4.021
REMARK UNBOUND:                -4.021
REMARK SMILES CCCCCCCCCCCCCCCCCCCCCCCCCCCC(=O)[O-]
REMARK SMILES IDX 15 1 16 2 17 3 18 4 19 5 20 6 21 7 22 8 23 9 24 10 25 11
REMARK SMILES IDX 26 12 27 13 28 14 29 15 30 16 14 17 13 18 12 19 11 20 10 21
REMARK SMILES IDX 9 22 8 23 7 24 6 25 5 26 4 27 3 28 2 29 1 30
REMARK H PARENT
REMARK Flexibility Score: inf
ROOT
ATOM      1  C   UNL     1      19.100 -21.392 -26.604  1.00  0.00     0.000 C 
ENDROOT
BRANCH   1   2
ATOM      2  C   UNL     1      19.230 -21.173 -25.079  1.00  0.00     0.000 C 
BRANCH   2   3
ATOM      3  C   UNL     1      20.356 -21.995 -24.425  1.00  0.00     0.000 C 
BRANCH   3   4
ATOM      4  C   UNL     1      19.890 -23.222 -23.616  1.00  0.00     0.000 C 
BRANCH   4   5
ATOM      5  C   UNL     1      18.542 -23.062 -22.881  1.00  0.00     0.000 C 
BRANCH   5   6
ATOM      6  C   UNL     1      17.469 -24.109 -23.258  1.00  0.00     0.000 C 
BRANCH   6   7
ATOM      7  C   UNL     1      17.050 -24.077 -24.742  1.00  0.00     0.000 C 
BRANCH   7   8
ATOM      8  C   UNL     1      17.377 -25.348 -25.541  1.00  0.00     0.000 C 
BRANCH   8   9
ATOM      9  C   UNL     1      18.595 -25.240 -26.479  1.00  0.00     0.000 C 
BRANCH   9  10
ATOM     10  C   UNL     1      18.712 -26.401 -27.489  1.00  0.00     0.000 C 
BRANCH  10  11
ATOM     11  C   UNL     1      18.597 -25.931 -28.948  1.00  0.00     0.000 C 
BRANCH  11  12
ATOM     12  C   UNL     1      17.790 -26.932 -29.787  1.00  0.00     0.006 C 
BRANCH  12  13
ATOM     13  C   UNL     1      16.843 -27.779 -28.925  1.00  0.00     0.053 C 
BRANCH  13  14
ATOM     14  C   UNL     1      15.554 -28.063 -29.632  1.00  0.00     0.041 C 
ATOM     15  O   UNL     1      15.542 -28.792 -30.660  1.00  0.00    -0.550 OA
ATOM     16  O   UNL     1      14.364 -27.532 -29.150  1.00  0.00    -0.550 OA
ENDBRANCH  13  14
ENDBRANCH  12  13
ENDBRANCH  11  12
ENDBRANCH  10  11
ENDBRANCH   9  10
ENDBRANCH   8   9
ENDBRANCH   7   8
ENDBRANCH   6   7
ENDBRANCH   5   6
ENDBRANCH   4   5
ENDBRANCH   3   4
ENDBRANCH   2   3
ENDBRANCH   1   2
BRANCH   1  17
ATOM     17  C   UNL     1      20.316 -22.072 -27.267  1.00  0.00     0.000 C 
BRANCH  17  18
ATOM     18  C   UNL     1      20.241 -22.222 -28.799  1.00  0.00     0.000 C 
BRANCH  18  19
ATOM     19  C   UNL     1      18.943 -21.667 -29.404  1.00  0.00     0.000 C 
BRANCH  19  20
ATOM     20  C   UNL     1      18.332 -22.656 -30.409  1.00  0.00     0.000 C 
BRANCH  20  21
ATOM     21  C   UNL     1      16.855 -22.979 -30.097  1.00  0.00     0.000 C 
BRANCH  21  22
ATOM     22  C   UNL     1      16.553 -23.124 -28.596  1.00  0.00    -0.000 C 
BRANCH  22  23
ATOM     23  C   UNL     1      15.137 -23.656 -28.317  1.00  0.00    -0.000 C 
BRANCH  23  24
ATOM     24  C   UNL     1      14.317 -22.712 -27.424  1.00  0.00    -0.000 C 
BRANCH  24  25
ATOM     25  C   UNL     1      12.805 -22.990 -27.507  1.00  0.00    -0.000 C 
BRANCH  25  26
ATOM     26  C   UNL     1      11.980 -22.029 -26.636  1.00  0.00    -0.000 C 
BRANCH  26  27
ATOM     27  C   UNL     1      12.023 -20.581 -27.144  1.00  0.00    -0.000 C 
BRANCH  27  28
ATOM     28  C   UNL     1      12.873 -19.701 -26.215  1.00  0.00    -0.000 C 
BRANCH  28  29
ATOM     29  C   UNL     1      12.017 -18.870 -25.245  1.00  0.00    -0.003 C 
ATOM     30  C   UNL     1      12.849 -18.183 -24.162  1.00  0.00     0.004 C 
ENDBRANCH  28  29
ENDBRANCH  27  28
ENDBRANCH  26  27
ENDBRANCH  25  26
ENDBRANCH  24  25
ENDBRANCH  23  24
ENDBRANCH  22  23
ENDBRANCH  21  22
ENDBRANCH  20  21
ENDBRANCH  19  20
ENDBRANCH  18  19
ENDBRANCH  17  18
ENDBRANCH   1  17
TORSDOF 26
ENDMDL
MODEL 2
REMARK VINA RESULT:    -5.242      3.006      7.291
REMARK INTER + INTRA:         -17.231
REMARK INTER:                 -12.263
REMARK INTRA:                  -4.967
REMARK UNBOUND:                -4.021
REMARK SMILES CCCCCCCCCCCCCCCCCCCCCCCCCCCC(=O)[O-]
REMARK SMILES IDX 15 1 16 2 17 3 18 4 19 5 20 6 21 7 22 8 23 9 24 10 25 11
REMARK SMILES IDX 26 12 27 13 28 14 29 15 30 16 14 17 13 18 12 19 11 20 10 21
REMARK SMILES IDX 9 22 8 23 7 24 6 25 5 26 4 27 3 28 2 29 1 30
REMARK H PARENT
REMARK Flexibility Score: inf
ROOT
ATOM      1  C   UNL     1      20.494 -22.252 -24.905  1.00  0.00     0.000 C 
ENDROOT
BRANCH   1   2
ATOM      2  C   UNL     1      19.236 -21.718 -25.626  1.00  0.00     0.000 C 
BRANCH   2   3
ATOM      3  C   UNL     1      19.271 -21.899 -27.155  1.00  0.00     0.000 C 
BRANCH   3   4
ATOM      4  C   UNL     1      17.916 -22.239 -27.808  1.00  0.00     0.000 C 
BRANCH   4   5
ATOM      5  C   UNL     1      16.681 -22.087 -26.896  1.00  0.00     0.000 C 
BRANCH   5   6
ATOM      6  C   UNL     1      15.533 -23.080 -27.187  1.00  0.00     0.000 C 
BRANCH   6   7
ATOM      7  C   UNL     1      15.161 -23.196 -28.679  1.00  0.00     0.000 C 
BRANCH   7   8
ATOM      8  C   UNL     1      13.698 -23.573 -28.962  1.00  0.00     0.000 C 
BRANCH   8   9
ATOM      9  C   UNL     1      12.889 -22.523 -29.749  1.00  0.00     0.000 C 
BRANCH   9  10
ATOM     10  C   UNL     1      11.747 -21.877 -28.938  1.00  0.00     0.000 C 
BRANCH  10  11
ATOM     11  C   UNL     1      12.012 -21.895 -27.423  1.00  0.00     0.000 C 
BRANCH  11  12
ATOM     12  C   UNL     1      12.710 -20.604 -26.972  1.00  0.00     0.006 C 
BRANCH  12  13
ATOM     13  C   UNL     1      11.786 -19.705 -26.139  1.00  0.00     0.053 C 
BRANCH  13  14
ATOM     14  C   UNL     1      11.347 -18.498 -26.907  1.00  0.00     0.041 C 
ATOM     15  O   UNL     1      11.871 -18.231 -28.021  1.00  0.00    -0.550 OA
ATOM     16  O   UNL     1      10.350 -17.674 -26.399  1.00  0.00    -0.550 OA
ENDBRANCH  13  14
ENDBRANCH  12  13
ENDBRANCH  11  12
ENDBRANCH  10  11
ENDBRANCH   9  10
ENDBRANCH   8   9
ENDBRANCH   7   8
ENDBRANCH   6   7
ENDBRANCH   5   6
ENDBRANCH   4   5
ENDBRANCH   3   4
ENDBRANCH   2   3
ENDBRANCH   1   2
BRANCH   1  17
ATOM     17  C   UNL     1      20.243 -22.801 -23.485  1.00  0.00     0.000 C 
BRANCH  17  18
ATOM     18  C   UNL     1      18.765 -22.886 -23.056  1.00  0.00     0.000 C 
BRANCH  18  19
ATOM     19  C   UNL     1      18.204 -24.315 -23.078  1.00  0.00     0.000 C 
BRANCH  19  20
ATOM     20  C   UNL     1      17.068 -24.449 -24.105  1.00  0.00     0.000 C 
BRANCH  20  21
ATOM     21  C   UNL     1      17.359 -25.527 -25.171  1.00  0.00     0.000 C 
BRANCH  21  22
ATOM     22  C   UNL     1      18.687 -25.320 -25.920  1.00  0.00    -0.000 C 
BRANCH  22  23
ATOM     23  C   UNL     1      18.754 -26.092 -27.248  1.00  0.00    -0.000 C 
BRANCH  23  24
ATOM     24  C   UNL     1      17.433 -26.035 -28.032  1.00  0.00    -0.000 C 
BRANCH  24  25
ATOM     25  C   UNL     1      17.446 -26.947 -29.273  1.00  0.00    -0.000 C 
BRANCH  25  26
ATOM     26  C   UNL     1      18.141 -26.292 -30.477  1.00  0.00    -0.000 C 
BRANCH  26  27
ATOM     27  C   UNL     1      17.765 -24.813 -30.649  1.00  0.00    -0.000 C 
BRANCH  27  28
ATOM     28  C   UNL     1      19.021 -23.948 -30.831  1.00  0.00    -0.000 C 
BRANCH  28  29
ATOM     29  C   UNL     1      20.314 -24.706 -30.486  1.00  0.00    -0.003 C 
ATOM     30  C   UNL     1      21.125 -24.020 -29.386  1.00  0.00     0.004 C 
ENDBRANCH  28  29
ENDBRANCH  27  28
ENDBRANCH  26  27
ENDBRANCH  25  26
ENDBRANCH  24  25
ENDBRANCH  23  24
ENDBRANCH  22  23
ENDBRANCH  21  22
ENDBRANCH  20  21
ENDBRANCH  19  20
ENDBRANCH  18  19
ENDBRANCH  17  18
ENDBRANCH   1  17
TORSDOF 26
ENDMDL
MODEL 3
REMARK VINA RESULT:    -5.241      2.661      6.225
REMARK INTER + INTRA:         -17.229
REMARK INTER:                 -12.789
REMARK INTRA:                  -4.440
REMARK UNBOUND:                -4.021
REMARK SMILES CCCCCCCCCCCCCCCCCCCCCCCCCCCC(=O)[O-]
REMARK SMILES IDX 15 1 16 2 17 3 18 4 19 5 20 6 21 7 22 8 23 9 24 10 25 11
REMARK SMILES IDX 26 12 27 13 28 14 29 15 30 16 14 17 13 18 12 19 11 20 10 21
REMARK SMILES IDX 9 22 8 23 7 24 6 25 5 26 4 27 3 28 2 29 1 30
REMARK H PARENT
REMARK Flexibility Score: inf
ROOT
ATOM      1  C   UNL     1      17.271 -25.234 -24.927  1.00  0.00     0.000 C 
ENDROOT
BRANCH   1   2
ATOM      2  C   UNL     1      17.092 -24.156 -23.835  1.00  0.00     0.000 C 
BRANCH   2   3
ATOM      3  C   UNL     1      18.299 -24.023 -22.887  1.00  0.00     0.000 C 
BRANCH   3   4
ATOM      4  C   UNL     1      18.978 -22.639 -22.875  1.00  0.00     0.000 C 
BRANCH   4   5
ATOM      5  C   UNL     1      20.017 -22.398 -23.991  1.00  0.00     0.000 C 
BRANCH   5   6
ATOM      6  C   UNL     1      19.656 -21.266 -24.980  1.00  0.00     0.000 C 
BRANCH   6   7
ATOM      7  C   UNL     1      19.126 -21.761 -26.341  1.00  0.00     0.000 C 
BRANCH   7   8
ATOM      8  C   UNL     1      17.595 -21.794 -26.474  1.00  0.00     0.000 C 
BRANCH   8   9
ATOM      9  C   UNL     1      17.055 -22.618 -27.659  1.00  0.00     0.000 C 
BRANCH   9  10
ATOM     10  C   UNL     1      15.565 -22.997 -27.530  1.00  0.00     0.000 C 
BRANCH  10  11
ATOM     11  C   UNL     1      15.028 -23.720 -28.776  1.00  0.00     0.000 C 
BRANCH  11  12
ATOM     12  C   UNL     1      13.500 -23.598 -28.867  1.00  0.00     0.006 C 
BRANCH  12  13
ATOM     13  C   UNL     1      12.973 -22.353 -28.141  1.00  0.00     0.053 C 
BRANCH  13  14
ATOM     14  C   UNL     1      11.915 -21.653 -28.936  1.00  0.00     0.041 C 
ATOM     15  O   UNL     1      11.100 -22.319 -29.628  1.00  0.00    -0.550 OA
ATOM     16  O   UNL     1      11.821 -20.267 -28.904  1.00  0.00    -0.550 OA
ENDBRANCH  13  14
ENDBRANCH  12  13
ENDBRANCH  11  12
ENDBRANCH  10  11
ENDBRANCH   9  10
ENDBRANCH   8   9
ENDBRANCH   7   8
ENDBRANCH   6   7
ENDBRANCH   5   6
ENDBRANCH   4   5
ENDBRANCH   3   4
ENDBRANCH   2   3
ENDBRANCH   1   2
BRANCH   1  17
ATOM     17  C   UNL     1      18.716 -25.406 -25.438  1.00  0.00     0.000 C 
BRANCH  17  18
ATOM     18  C   UNL     1      18.863 -25.623 -26.958  1.00  0.00     0.000 C 
BRANCH  18  19
ATOM     19  C   UNL     1      17.659 -26.334 -27.592  1.00  0.00     0.000 C 
BRANCH  19  20
ATOM     20  C   UNL     1      18.095 -27.605 -28.338  1.00  0.00     0.000 C 
BRANCH  20  21
ATOM     21  C   UNL     1      16.922 -28.576 -28.588  1.00  0.00     0.000 C 
BRANCH  21  22
ATOM     22  C   UNL     1      16.177 -28.327 -29.910  1.00  0.00    -0.000 C 
BRANCH  22  23
ATOM     23  C   UNL     1      17.023 -27.561 -30.941  1.00  0.00    -0.000 C 
BRANCH  23  24
ATOM     24  C   UNL     1      16.576 -26.100 -31.104  1.00  0.00    -0.000 C 
BRANCH  24  25
ATOM     25  C   UNL     1      17.595 -25.258 -31.892  1.00  0.00    -0.000 C 
BRANCH  25  26
ATOM     26  C   UNL     1      19.038 -25.476 -31.410  1.00  0.00    -0.000 C 
BRANCH  26  27
ATOM     27  C   UNL     1      19.436 -24.519 -30.275  1.00  0.00    -0.000 C 
BRANCH  27  28
ATOM     28  C   UNL     1      20.328 -23.386 -30.804  1.00  0.00    -0.000 C 
BRANCH  28  29
ATOM     29  C   UNL     1      21.641 -23.253 -30.016  1.00  0.00    -0.003 C 
ATOM     30  C   UNL     1      21.469 -23.550 -28.526  1.00  0.00     0.004 C 
ENDBRANCH  28  29
ENDBRANCH  27  28
ENDBRANCH  26  27
ENDBRANCH  25  26
ENDBRANCH  24  25
ENDBRANCH  23  24
ENDBRANCH  22  23
ENDBRANCH  21  22
ENDBRANCH  20  21
ENDBRANCH  19  20
ENDBRANCH  18  19
ENDBRANCH  17  18
ENDBRANCH   1  17
TORSDOF 26
ENDMDL
MODEL 4
REMARK VINA RESULT:    -5.193      3.256      7.434
REMARK INTER + INTRA:         -17.107
REMARK INTER:                 -13.068
REMARK INTRA:                  -4.039
REMARK UNBOUND:                -4.021
REMARK SMILES CCCCCCCCCCCCCCCCCCCCCCCCCCCC(=O)[O-]
REMARK SMILES IDX 15 1 16 2 17 3 18 4 19 5 20 6 21 7 22 8 23 9 24 10 25 11
REMARK SMILES IDX 26 12 27 13 28 14 29 15 30 16 14 17 13 18 12 19 11 20 10 21
REMARK SMILES IDX 9 22 8 23 7 24 6 25 5 26 4 27 3 28 2 29 1 30
REMARK H PARENT
REMARK Flexibility Score: inf
ROOT
ATOM      1  C   UNL     1      17.617 -25.239 -25.540  1.00  0.00     0.000 C 
ENDROOT
BRANCH   1   2
ATOM      2  C   UNL     1      17.393 -23.765 -25.136  1.00  0.00     0.000 C 
BRANCH   2   3
ATOM      3  C   UNL     1      17.252 -22.805 -26.332  1.00  0.00     0.000 C 
BRANCH   3   4
ATOM      4  C   UNL     1      15.949 -22.952 -27.143  1.00  0.00     0.000 C 
BRANCH   4   5
ATOM      5  C   UNL     1      16.125 -23.401 -28.609  1.00  0.00     0.000 C 
BRANCH   5   6
ATOM      6  C   UNL     1      14.959 -24.243 -29.175  1.00  0.00     0.000 C 
BRANCH   6   7
ATOM      7  C   UNL     1      13.627 -23.474 -29.298  1.00  0.00     0.000 C 
BRANCH   7   8
ATOM      8  C   UNL     1      12.489 -23.990 -28.402  1.00  0.00     0.000 C 
BRANCH   8   9
ATOM      9  C   UNL     1      11.755 -22.910 -27.584  1.00  0.00     0.000 C 
BRANCH   9  10
ATOM     10  C   UNL     1      12.230 -21.472 -27.878  1.00  0.00     0.000 C 
BRANCH  10  11
ATOM     11  C   UNL     1      12.356 -20.618 -26.606  1.00  0.00     0.000 C 
BRANCH  11  12
ATOM     12  C   UNL     1      11.589 -19.297 -26.752  1.00  0.00     0.006 C 
BRANCH  12  13
ATOM     13  C   UNL     1      12.262 -18.342 -27.748  1.00  0.00     0.053 C 
BRANCH  13  14
ATOM     14  C   UNL     1      11.450 -18.178 -28.995  1.00  0.00     0.041 C 
ATOM     15  O   UNL     1      10.214 -18.424 -28.982  1.00  0.00    -0.550 OA
ATOM     16  O   UNL     1      12.054 -17.743 -30.168  1.00  0.00    -0.550 OA
ENDBRANCH  13  14
ENDBRANCH  12  13
ENDBRANCH  11  12
ENDBRANCH  10  11
ENDBRANCH   9  10
ENDBRANCH   8   9
ENDBRANCH   7   8
ENDBRANCH   6   7
ENDBRANCH   5   6
ENDBRANCH   4   5
ENDBRANCH   3   4
ENDBRANCH   2   3
ENDBRANCH   1   2
BRANCH   1  17
ATOM     17  C   UNL     1      18.740 -25.465 -26.573  1.00  0.00     0.000 C 
BRANCH  17  18
ATOM     18  C   UNL     1      18.363 -26.341 -27.785  1.00  0.00     0.000 C 
BRANCH  18  19
ATOM     19  C   UNL     1      17.346 -27.441 -27.450  1.00  0.00     0.000 C 
BRANCH  19  20
ATOM     20  C   UNL     1      17.142 -28.389 -28.642  1.00  0.00     0.000 C 
BRANCH  20  21
ATOM     21  C   UNL     1      16.287 -27.757 -29.761  1.00  0.00     0.000 C 
BRANCH  21  22
ATOM     22  C   UNL     1      16.928 -27.840 -31.157  1.00  0.00    -0.000 C 
BRANCH  22  23
ATOM     23  C   UNL     1      16.770 -26.544 -31.968  1.00  0.00    -0.000 C 
BRANCH  23  24
ATOM     24  C   UNL     1      18.054 -26.157 -32.719  1.00  0.00    -0.000 C 
BRANCH  24  25
ATOM     25  C   UNL     1      18.460 -24.692 -32.474  1.00  0.00    -0.000 C 
BRANCH  25  26
ATOM     26  C   UNL     1      18.427 -24.313 -30.985  1.00  0.00    -0.000 C 
BRANCH  26  27
ATOM     27  C   UNL     1      19.826 -24.268 -30.353  1.00  0.00    -0.000 C 
BRANCH  27  28
ATOM     28  C   UNL     1      19.912 -23.157 -29.295  1.00  0.00    -0.000 C 
BRANCH  28  29
ATOM     29  C   UNL     1      19.315 -21.828 -29.787  1.00  0.00    -0.003 C 
ATOM     30  C   UNL     1      19.224 -20.776 -28.681  1.00  0.00     0.004 C 
ENDBRANCH  28  29
ENDBRANCH  27  28
ENDBRANCH  26  27
ENDBRANCH  25  26
ENDBRANCH  24  25
ENDBRANCH  23  24
ENDBRANCH  22  23
ENDBRANCH  21  22
ENDBRANCH  20  21
ENDBRANCH  19  20
ENDBRANCH  18  19
ENDBRANCH  17  18
ENDBRANCH   1  17
TORSDOF 26
ENDMDL
MODEL 5
REMARK VINA RESULT:    -5.184      3.474      8.346
REMARK INTER + INTRA:         -17.086
REMARK INTER:                 -13.396
REMARK INTRA:                  -3.690
REMARK UNBOUND:                -4.021
REMARK SMILES CCCCCCCCCCCCCCCCCCCCCCCCCCCC(=O)[O-]
REMARK SMILES IDX 15 1 16 2 17 3 18 4 19 5 20 6 21 7 22 8 23 9 24 10 25 11
REMARK SMILES IDX 26 12 27 13 28 14 29 15 30 16 14 17 13 18 12 19 11 20 10 21
REMARK SMILES IDX 9 22 8 23 7 24 6 25 5 26 4 27 3 28 2 29 1 30
REMARK H PARENT
REMARK Flexibility Score: inf
ROOT
ATOM      1  C   UNL     1      17.133 -26.321 -30.078  1.00  0.00     0.000 C 
ENDROOT
BRANCH   1   2
ATOM      2  C   UNL     1      15.842 -25.705 -29.495  1.00  0.00     0.000 C 
BRANCH   2   3
ATOM      3  C   UNL     1      15.777 -24.171 -29.609  1.00  0.00     0.000 C 
BRANCH   3   4
ATOM      4  C   UNL     1      15.813 -23.409 -28.269  1.00  0.00     0.000 C 
BRANCH   4   5
ATOM      5  C   UNL     1      14.437 -23.026 -27.684  1.00  0.00     0.000 C 
BRANCH   5   6
ATOM      6  C   UNL     1      13.355 -22.691 -28.736  1.00  0.00     0.000 C 
BRANCH   6   7
ATOM      7  C   UNL     1      12.079 -22.054 -28.148  1.00  0.00     0.000 C 
BRANCH   7   8
ATOM      8  C   UNL     1      12.123 -21.779 -26.636  1.00  0.00     0.000 C 
BRANCH   8   9
ATOM      9  C   UNL     1      11.738 -20.348 -26.216  1.00  0.00     0.000 C 
BRANCH   9  10
ATOM     10  C   UNL     1      12.781 -19.279 -26.606  1.00  0.00     0.000 C 
BRANCH  10  11
ATOM     11  C   UNL     1      12.184 -18.160 -27.475  1.00  0.00     0.000 C 
BRANCH  11  12
ATOM     12  C   UNL     1      10.732 -18.476 -27.858  1.00  0.00     0.006 C 
BRANCH  12  13
ATOM     13  C   UNL     1       9.723 -17.749 -26.958  1.00  0.00     0.053 C 
BRANCH  13  14
ATOM     14  C   UNL     1       8.345 -17.766 -27.542  1.00  0.00     0.041 C 
ATOM     15  O   UNL     1       8.166 -18.146 -28.730  1.00  0.00    -0.550 OA
ATOM     16  O   UNL     1       7.257 -17.374 -26.772  1.00  0.00    -0.550 OA
ENDBRANCH  13  14
ENDBRANCH  12  13
ENDBRANCH  11  12
ENDBRANCH  10  11
ENDBRANCH   9  10
ENDBRANCH   8   9
ENDBRANCH   7   8
ENDBRANCH   6   7
ENDBRANCH   5   6
ENDBRANCH   4   5
ENDBRANCH   3   4
ENDBRANCH   2   3
ENDBRANCH   1   2
BRANCH   1  17
ATOM     17  C   UNL     1      17.785 -27.411 -29.202  1.00  0.00     0.000 C 
BRANCH  17  18
ATOM     18  C   UNL     1      17.693 -27.183 -27.680  1.00  0.00     0.000 C 
BRANCH  18  19
ATOM     19  C   UNL     1      18.530 -25.992 -27.189  1.00  0.00     0.000 C 
BRANCH  19  20
ATOM     20  C   UNL     1      17.844 -25.280 -26.012  1.00  0.00     0.000 C 
BRANCH  20  21
ATOM     21  C   UNL     1      18.801 -25.048 -24.823  1.00  0.00     0.000 C 
BRANCH  21  22
ATOM     22  C   UNL     1      18.580 -23.710 -24.097  1.00  0.00    -0.000 C 
BRANCH  22  23
ATOM     23  C   UNL     1      19.576 -22.621 -24.528  1.00  0.00    -0.000 C 
BRANCH  23  24
ATOM     24  C   UNL     1      18.879 -21.363 -25.069  1.00  0.00    -0.000 C 
BRANCH  24  25
ATOM     25  C   UNL     1      18.395 -21.535 -26.520  1.00  0.00    -0.000 C 
BRANCH  25  26
ATOM     26  C   UNL     1      19.555 -21.565 -27.528  1.00  0.00    -0.000 C 
BRANCH  26  27
ATOM     27  C   UNL     1      19.508 -22.791 -28.452  1.00  0.00    -0.000 C 
BRANCH  27  28
ATOM     28  C   UNL     1      19.061 -22.393 -29.866  1.00  0.00    -0.000 C 
BRANCH  28  29
ATOM     29  C   UNL     1      19.258 -23.524 -30.888  1.00  0.00    -0.003 C 
ATOM     30  C   UNL     1      20.355 -24.507 -30.476  1.00  0.00     0.004 C 
ENDBRANCH  28  29
ENDBRANCH  27  28
ENDBRANCH  26  27
ENDBRANCH  25  26
ENDBRANCH  24  25
ENDBRANCH  23  24
ENDBRANCH  22  23
ENDBRANCH  21  22
ENDBRANCH  20  21
ENDBRANCH  19  20
ENDBRANCH  18  19
ENDBRANCH  17  18
ENDBRANCH   1  17
TORSDOF 26
ENDMDL
MODEL 6
REMARK VINA RESULT:    -5.174      3.404      7.478
REMARK INTER + INTRA:         -17.061
REMARK INTER:                 -12.666
REMARK INTRA:                  -4.395
REMARK UNBOUND:                -4.021
REMARK SMILES CCCCCCCCCCCCCCCCCCCCCCCCCCCC(=O)[O-]
REMARK SMILES IDX 15 1 16 2 17 3 18 4 19 5 20 6 21 7 22 8 23 9 24 10 25 11
REMARK SMILES IDX 26 12 27 13 28 14 29 15 30 16 14 17 13 18 12 19 11 20 10 21
REMARK SMILES IDX 9 22 8 23 7 24 6 25 5 26 4 27 3 28 2 29 1 30
REMARK H PARENT
REMARK Flexibility Score: inf
ROOT
ATOM      1  C   UNL     1      18.774 -25.461 -26.654  1.00  0.00     0.000 C 
ENDROOT
BRANCH   1   2
ATOM      2  C   UNL     1      17.487 -24.900 -26.008  1.00  0.00     0.000 C 
BRANCH   2   3
ATOM      3  C   UNL     1      17.264 -23.398 -26.266  1.00  0.00     0.000 C 
BRANCH   3   4
ATOM      4  C   UNL     1      15.958 -23.045 -27.005  1.00  0.00     0.000 C 
BRANCH   4   5
ATOM      5  C   UNL     1      15.855 -23.556 -28.457  1.00  0.00     0.000 C 
BRANCH   5   6
ATOM      6  C   UNL     1      14.535 -23.202 -29.179  1.00  0.00     0.000 C 
BRANCH   6   7
ATOM      7  C   UNL     1      13.361 -24.145 -28.844  1.00  0.00     0.000 C 
BRANCH   7   8
ATOM      8  C   UNL     1      12.043 -23.443 -28.478  1.00  0.00     0.000 C 
BRANCH   8   9
ATOM      9  C   UNL     1      11.708 -23.417 -26.973  1.00  0.00     0.000 C 
BRANCH   9  10
ATOM     10  C   UNL     1      12.088 -22.097 -26.271  1.00  0.00     0.000 C 
BRANCH  10  11
ATOM     11  C   UNL     1      12.340 -20.949 -27.263  1.00  0.00     0.000 C 
BRANCH  11  12
ATOM     12  C   UNL     1      12.643 -19.639 -26.523  1.00  0.00     0.006 C 
BRANCH  12  13
ATOM     13  C   UNL     1      11.651 -19.374 -25.382  1.00  0.00     0.053 C 
BRANCH  13  14
ATOM     14  C   UNL     1      12.077 -18.215 -24.535  1.00  0.00     0.041 C 
ATOM     15  O   UNL     1      13.214 -18.212 -23.993  1.00  0.00    -0.550 OA
ATOM     16  O   UNL     1      11.223 -17.134 -24.354  1.00  0.00    -0.550 OA
ENDBRANCH  13  14
ENDBRANCH  12  13
ENDBRANCH  11  12
ENDBRANCH  10  11
ENDBRANCH   9  10
ENDBRANCH   8   9
ENDBRANCH   7   8
ENDBRANCH   6   7
ENDBRANCH   5   6
ENDBRANCH   4   5
ENDBRANCH   3   4
ENDBRANCH   2   3
ENDBRANCH   1   2
BRANCH   1  17
ATOM     17  C   UNL     1      18.560 -26.685 -27.568  1.00  0.00     0.000 C 
BRANCH  17  18
ATOM     18  C   UNL     1      17.164 -27.336 -27.493  1.00  0.00     0.000 C 
BRANCH  18  19
ATOM     19  C   UNL     1      16.972 -28.487 -28.492  1.00  0.00     0.000 C 
BRANCH  19  20
ATOM     20  C   UNL     1      17.158 -28.002 -29.938  1.00  0.00     0.000 C 
BRANCH  20  21
ATOM     21  C   UNL     1      16.285 -26.773 -30.267  1.00  0.00     0.000 C 
BRANCH  21  22
ATOM     22  C   UNL     1      16.976 -25.741 -31.175  1.00  0.00    -0.000 C 
BRANCH  22  23
ATOM     23  C   UNL     1      18.496 -25.950 -31.271  1.00  0.00    -0.000 C 
BRANCH  23  24
ATOM     24  C   UNL     1      19.293 -24.780 -30.673  1.00  0.00    -0.000 C 
BRANCH  24  25
ATOM     25  C   UNL     1      18.494 -23.465 -30.669  1.00  0.00    -0.000 C 
BRANCH  25  26
ATOM     26  C   UNL     1      19.368 -22.244 -30.341  1.00  0.00    -0.000 C 
BRANCH  26  27
ATOM     27  C   UNL     1      18.653 -21.226 -29.441  1.00  0.00    -0.000 C 
BRANCH  27  28
ATOM     28  C   UNL     1      19.449 -20.985 -28.149  1.00  0.00    -0.000 C 
BRANCH  28  29
ATOM     29  C   UNL     1      20.691 -21.886 -28.046  1.00  0.00    -0.003 C 
ATOM     30  C   UNL     1      20.879 -22.475 -26.647  1.00  0.00     0.004 C 
ENDBRANCH  28  29
ENDBRANCH  27  28
ENDBRANCH  26  27
ENDBRANCH  25  26
ENDBRANCH  24  25
ENDBRANCH  23  24
ENDBRANCH  22  23
ENDBRANCH  21  22
ENDBRANCH  20  21
ENDBRANCH  19  20
ENDBRANCH  18  19
ENDBRANCH  17  18
ENDBRANCH   1  17
TORSDOF 26
ENDMDL
MODEL 7
REMARK VINA RESULT:    -5.158      3.508      8.258
REMARK INTER + INTRA:         -17.020
REMARK INTER:                 -13.362
REMARK INTRA:                  -3.659
REMARK UNBOUND:                -4.021
REMARK SMILES CCCCCCCCCCCCCCCCCCCCCCCCCCCC(=O)[O-]
REMARK SMILES IDX 15 1 16 2 17 3 18 4 19 5 20 6 21 7 22 8 23 9 24 10 25 11
REMARK SMILES IDX 26 12 27 13 28 14 29 15 30 16 14 17 13 18 12 19 11 20 10 21
REMARK SMILES IDX 9 22 8 23 7 24 6 25 5 26 4 27 3 28 2 29 1 30
REMARK H PARENT
REMARK Flexibility Score: inf
ROOT
ATOM      1  C   UNL     1      18.302 -21.494 -26.022  1.00  0.00     0.000 C 
ENDROOT
BRANCH   1   2
ATOM      2  C   UNL     1      17.665 -22.203 -27.239  1.00  0.00     0.000 C 
BRANCH   2   3
ATOM      3  C   UNL     1      16.167 -22.516 -27.063  1.00  0.00     0.000 C 
BRANCH   3   4
ATOM      4  C   UNL     1      15.568 -23.473 -28.113  1.00  0.00     0.000 C 
BRANCH   4   5
ATOM      5  C   UNL     1      14.043 -23.361 -28.321  1.00  0.00     0.000 C 
BRANCH   5   6
ATOM      6  C   UNL     1      13.215 -23.271 -27.019  1.00  0.00     0.000 C 
BRANCH   6   7
ATOM      7  C   UNL     1      12.278 -22.048 -26.951  1.00  0.00     0.000 C 
BRANCH   7   8
ATOM      8  C   UNL     1      12.882 -20.732 -27.470  1.00  0.00     0.000 C 
BRANCH   8   9
ATOM      9  C   UNL     1      11.971 -19.495 -27.342  1.00  0.00     0.000 C 
BRANCH   9  10
ATOM     10  C   UNL     1      11.655 -19.100 -25.884  1.00  0.00     0.000 C 
BRANCH  10  11
ATOM     11  C   UNL     1      10.266 -18.456 -25.734  1.00  0.00     0.000 C 
BRANCH  11  12
ATOM     12  C   UNL     1      10.035 -17.389 -26.813  1.00  0.00     0.006 C 
BRANCH  12  13
ATOM     13  C   UNL     1       8.771 -17.664 -27.640  1.00  0.00     0.053 C 
BRANCH  13  14
ATOM     14  C   UNL     1       8.994 -17.405 -29.097  1.00  0.00     0.041 C 
ATOM     15  O   UNL     1      10.092 -17.712 -29.634  1.00  0.00    -0.550 OA
ATOM     16  O   UNL     1       7.986 -16.836 -29.866  1.00  0.00    -0.550 OA
ENDBRANCH  13  14
ENDBRANCH  12  13
ENDBRANCH  11  12
ENDBRANCH  10  11
ENDBRANCH   9  10
ENDBRANCH   8   9
ENDBRANCH   7   8
ENDBRANCH   6   7
ENDBRANCH   5   6
ENDBRANCH   4   5
ENDBRANCH   3   4
ENDBRANCH   2   3
ENDBRANCH   1   2
BRANCH   1  17
ATOM     17  C   UNL     1      19.205 -22.390 -25.149  1.00  0.00     0.000 C 
BRANCH  17  18
ATOM     18  C   UNL     1      18.468 -23.402 -24.250  1.00  0.00     0.000 C 
BRANCH  18  19
ATOM     19  C   UNL     1      18.801 -24.865 -24.575  1.00  0.00     0.000 C 
BRANCH  19  20
ATOM     20  C   UNL     1      17.686 -25.517 -25.407  1.00  0.00     0.000 C 
BRANCH  20  21
ATOM     21  C   UNL     1      18.160 -25.917 -26.821  1.00  0.00     0.000 C 
BRANCH  21  22
ATOM     22  C   UNL     1      17.429 -27.139 -27.401  1.00  0.00    -0.000 C 
BRANCH  22  23
ATOM     23  C   UNL     1      17.893 -27.498 -28.822  1.00  0.00    -0.000 C 
BRANCH  23  24
ATOM     24  C   UNL     1      17.023 -26.848 -29.910  1.00  0.00    -0.000 C 
BRANCH  24  25
ATOM     25  C   UNL     1      17.688 -26.888 -31.297  1.00  0.00    -0.000 C 
BRANCH  25  26
ATOM     26  C   UNL     1      18.521 -25.629 -31.588  1.00  0.00    -0.000 C 
BRANCH  26  27
ATOM     27  C   UNL     1      18.238 -24.489 -30.599  1.00  0.00    -0.000 C 
BRANCH  27  28
ATOM     28  C   UNL     1      19.520 -23.700 -30.295  1.00  0.00    -0.000 C 
BRANCH  28  29
ATOM     29  C   UNL     1      20.499 -24.484 -29.405  1.00  0.00    -0.003 C 
ATOM     30  C   UNL     1      20.880 -23.725 -28.134  1.00  0.00     0.004 C 
ENDBRANCH  28  29
ENDBRANCH  27  28
ENDBRANCH  26  27
ENDBRANCH  25  26
ENDBRANCH  24  25
ENDBRANCH  23  24
ENDBRANCH  22  23
ENDBRANCH  21  22
ENDBRANCH  20  21
ENDBRANCH  19  20
ENDBRANCH  18  19
ENDBRANCH  17  18
ENDBRANCH   1  17
TORSDOF 26
ENDMDL
MODEL 8
REMARK VINA RESULT:    -5.138      2.500      7.202
REMARK INTER + INTRA:         -16.969
REMARK INTER:                 -12.265
REMARK INTRA:                  -4.704
REMARK UNBOUND:                -4.021
REMARK SMILES CCCCCCCCCCCCCCCCCCCCCCCCCCCC(=O)[O-]
REMARK SMILES IDX 15 1 16 2 17 3 18 4 19 5 20 6 21 7 22 8 23 9 24 10 25 11
REMARK SMILES IDX 26 12 27 13 28 14 29 15 30 16 14 17 13 18 12 19 11 20 10 21
REMARK SMILES IDX 9 22 8 23 7 24 6 25 5 26 4 27 3 28 2 29 1 30
REMARK H PARENT
REMARK Flexibility Score: inf
ROOT
ATOM      1  C   UNL     1      18.739 -26.316 -27.759  1.00  0.00     0.000 C 
ENDROOT
BRANCH   1   2
ATOM      2  C   UNL     1      17.731 -27.478 -27.614  1.00  0.00     0.000 C 
BRANCH   2   3
ATOM      3  C   UNL     1      17.294 -28.096 -28.955  1.00  0.00     0.000 C 
BRANCH   3   4
ATOM      4  C   UNL     1      16.496 -27.158 -29.883  1.00  0.00     0.000 C 
BRANCH   4   5
ATOM      5  C   UNL     1      16.997 -27.077 -31.340  1.00  0.00     0.000 C 
BRANCH   5   6
ATOM      6  C   UNL     1      17.138 -25.644 -31.900  1.00  0.00     0.000 C 
BRANCH   6   7
ATOM      7  C   UNL     1      17.994 -24.706 -31.024  1.00  0.00     0.000 C 
BRANCH   7   8
ATOM      8  C   UNL     1      17.295 -23.411 -30.576  1.00  0.00     0.000 C 
BRANCH   8   9
ATOM      9  C   UNL     1      16.990 -23.316 -29.068  1.00  0.00     0.000 C 
BRANCH   9  10
ATOM     10  C   UNL     1      15.540 -23.694 -28.698  1.00  0.00     0.000 C 
BRANCH  10  11
ATOM     11  C   UNL     1      15.060 -23.005 -27.410  1.00  0.00     0.000 C 
BRANCH  11  12
ATOM     12  C   UNL     1      13.682 -22.359 -27.613  1.00  0.00     0.006 C 
BRANCH  12  13
ATOM     13  C   UNL     1      13.083 -22.690 -28.987  1.00  0.00     0.053 C 
BRANCH  13  14
ATOM     14  C   UNL     1      11.790 -21.970 -29.216  1.00  0.00     0.041 C 
ATOM     15  O   UNL     1      11.690 -20.745 -28.937  1.00  0.00    -0.550 OA
ATOM     16  O   UNL     1      10.700 -22.648 -29.748  1.00  0.00    -0.550 OA
ENDBRANCH  13  14
ENDBRANCH  12  13
ENDBRANCH  11  12
ENDBRANCH  10  11
ENDBRANCH   9  10
ENDBRANCH   8   9
ENDBRANCH   7   8
ENDBRANCH   6   7
ENDBRANCH   5   6
ENDBRANCH   4   5
ENDBRANCH   3   4
ENDBRANCH   2   3
ENDBRANCH   1   2
BRANCH   1  17
ATOM     17  C   UNL     1      18.735 -25.305 -26.595  1.00  0.00     0.000 C 
BRANCH  17  18
ATOM     18  C   UNL     1      17.711 -25.582 -25.476  1.00  0.00     0.000 C 
BRANCH  18  19
ATOM     19  C   UNL     1      17.040 -24.311 -24.935  1.00  0.00     0.000 C 
BRANCH  19  20
ATOM     20  C   UNL     1      17.358 -24.107 -23.445  1.00  0.00     0.000 C 
BRANCH  20  21
ATOM     21  C   UNL     1      18.643 -24.841 -23.009  1.00  0.00     0.000 C 
BRANCH  21  22
ATOM     22  C   UNL     1      19.929 -24.022 -23.210  1.00  0.00    -0.000 C 
BRANCH  22  23
ATOM     23  C   UNL     1      19.660 -22.520 -23.402  1.00  0.00    -0.000 C 
BRANCH  23  24
ATOM     24  C   UNL     1      20.016 -22.032 -24.815  1.00  0.00    -0.000 C 
BRANCH  24  25
ATOM     25  C   UNL     1      18.876 -21.227 -25.464  1.00  0.00    -0.000 C 
BRANCH  25  26
ATOM     26  C   UNL     1      18.965 -21.210 -26.998  1.00  0.00    -0.000 C 
BRANCH  26  27
ATOM     27  C   UNL     1      20.413 -21.254 -27.509  1.00  0.00    -0.000 C 
BRANCH  27  28
ATOM     28  C   UNL     1      20.508 -22.063 -28.812  1.00  0.00    -0.000 C 
BRANCH  28  29
ATOM     29  C   UNL     1      21.217 -23.413 -28.617  1.00  0.00    -0.003 C 
ATOM     30  C   UNL     1      21.387 -24.185 -29.926  1.00  0.00     0.004 C 
ENDBRANCH  28  29
ENDBRANCH  27  28
ENDBRANCH  26  27
ENDBRANCH  25  26
ENDBRANCH  24  25
ENDBRANCH  23  24
ENDBRANCH  22  23
ENDBRANCH  21  22
ENDBRANCH  20  21
ENDBRANCH  19  20
ENDBRANCH  18  19
ENDBRANCH  17  18
ENDBRANCH   1  17
TORSDOF 26
ENDMDL
MODEL 9
REMARK VINA RESULT:    -5.131      2.989      5.321
REMARK INTER + INTRA:         -16.952
REMARK INTER:                 -11.988
REMARK INTRA:                  -4.964
REMARK UNBOUND:                -4.021
REMARK SMILES CCCCCCCCCCCCCCCCCCCCCCCCCCCC(=O)[O-]
REMARK SMILES IDX 15 1 16 2 17 3 18 4 19 5 20 6 21 7 22 8 23 9 24 10 25 11
REMARK SMILES IDX 26 12 27 13 28 14 29 15 30 16 14 17 13 18 12 19 11 20 10 21
REMARK SMILES IDX 9 22 8 23 7 24 6 25 5 26 4 27 3 28 2 29 1 30
REMARK H PARENT
REMARK Flexibility Score: inf
ROOT
ATOM      1  C   UNL     1      18.854 -26.163 -27.386  1.00  0.00     0.000 C 
ENDROOT
BRANCH   1   2
ATOM      2  C   UNL     1      18.727 -25.271 -26.131  1.00  0.00     0.000 C 
BRANCH   2   3
ATOM      3  C   UNL     1      17.380 -25.413 -25.399  1.00  0.00     0.000 C 
BRANCH   3   4
ATOM      4  C   UNL     1      16.968 -24.202 -24.538  1.00  0.00     0.000 C 
BRANCH   4   5
ATOM      5  C   UNL     1      17.632 -24.118 -23.147  1.00  0.00     0.000 C 
BRANCH   5   6
ATOM      6  C   UNL     1      18.597 -22.925 -22.959  1.00  0.00     0.000 C 
BRANCH   6   7
ATOM      7  C   UNL     1      19.896 -23.028 -23.784  1.00  0.00     0.000 C 
BRANCH   7   8
ATOM      8  C   UNL     1      20.330 -21.730 -24.484  1.00  0.00     0.000 C 
BRANCH   8   9
ATOM      9  C   UNL     1      19.198 -20.943 -25.172  1.00  0.00     0.000 C 
BRANCH   9  10
ATOM     10  C   UNL     1      18.627 -21.637 -26.427  1.00  0.00     0.000 C 
BRANCH  10  11
ATOM     11  C   UNL     1      19.362 -21.230 -27.714  1.00  0.00     0.000 C 
BRANCH  11  12
ATOM     12  C   UNL     1      19.855 -22.465 -28.481  1.00  0.00     0.006 C 
BRANCH  12  13
ATOM     13  C   UNL     1      21.112 -23.078 -27.847  1.00  0.00     0.053 C 
BRANCH  13  14
ATOM     14  C   UNL     1      22.364 -22.471 -28.400  1.00  0.00     0.041 C 
ATOM     15  O   UNL     1      23.167 -21.871 -27.636  1.00  0.00    -0.550 OA
ATOM     16  O   UNL     1      22.650 -22.578 -29.755  1.00  0.00    -0.550 OA
ENDBRANCH  13  14
ENDBRANCH  12  13
ENDBRANCH  11  12
ENDBRANCH  10  11
ENDBRANCH   9  10
ENDBRANCH   8   9
ENDBRANCH   7   8
ENDBRANCH   6   7
ENDBRANCH   5   6
ENDBRANCH   4   5
ENDBRANCH   3   4
ENDBRANCH   2   3
ENDBRANCH   1   2
BRANCH   1  17
ATOM     17  C   UNL     1      17.685 -27.146 -27.604  1.00  0.00     0.000 C 
BRANCH  17  18
ATOM     18  C   UNL     1      17.779 -28.023 -28.869  1.00  0.00     0.000 C 
BRANCH  18  19
ATOM     19  C   UNL     1      16.435 -28.197 -29.591  1.00  0.00     0.000 C 
BRANCH  19  20
ATOM     20  C   UNL     1      16.395 -27.381 -30.893  1.00  0.00     0.000 C 
BRANCH  20  21
ATOM     21  C   UNL     1      17.782 -26.834 -31.291  1.00  0.00     0.000 C 
BRANCH  21  22
ATOM     22  C   UNL     1      17.845 -25.299 -31.378  1.00  0.00    -0.000 C 
BRANCH  22  23
ATOM     23  C   UNL     1      16.567 -24.616 -30.865  1.00  0.00    -0.000 C 
BRANCH  23  24
ATOM     24  C   UNL     1      16.795 -23.840 -29.558  1.00  0.00    -0.000 C 
BRANCH  24  25
ATOM     25  C   UNL     1      15.742 -24.173 -28.485  1.00  0.00    -0.000 C 
BRANCH  25  26
ATOM     26  C   UNL     1      15.329 -22.943 -27.663  1.00  0.00    -0.000 C 
BRANCH  26  27
ATOM     27  C   UNL     1      13.812 -22.861 -27.438  1.00  0.00    -0.000 C 
BRANCH  27  28
ATOM     28  C   UNL     1      13.051 -23.507 -28.605  1.00  0.00    -0.000 C 
BRANCH  28  29
ATOM     29  C   UNL     1      12.282 -22.478 -29.449  1.00  0.00    -0.003 C 
ATOM     30  C   UNL     1      12.064 -21.155 -28.714  1.00  0.00     0.004 C 
ENDBRANCH  28  29
ENDBRANCH  27  28
ENDBRANCH  26  27
ENDBRANCH  25  26
ENDBRANCH  24  25
ENDBRANCH  23  24
ENDBRANCH  22  23
ENDBRANCH  21  22
ENDBRANCH  20  21
ENDBRANCH  19  20
ENDBRANCH  18  19
ENDBRANCH  17  18
ENDBRANCH   1  17
TORSDOF 26
ENDMDL
