MODEL 1
REMARK VINA RESULT:    -4.270      0.000      0.000
REMARK INTER + INTRA:          -4.538
REMARK INTER:                  -4.520
REMARK INTRA:                  -0.018
REMARK UNBOUND:                -0.018
REMARK SMILES O=C([O-])c1cccnc1
REMARK SMILES IDX 4 1 5 2 9 3 6 4 8 5 7 6 2 7 1 8 3 9
REMARK H PARENT
REMARK Flexibility Score: inf
ROOT
ATOM      1  C   UNL     1       7.447  18.617  20.680  1.00  0.00     0.016 A 
ATOM      2  C   UNL     1       7.138  17.855  21.819  1.00  0.00     0.013 A 
ATOM      3  C   UNL     1       7.816  17.941  19.505  1.00  0.00     0.120 A 
ATOM      4  C   UNL     1       7.202  16.462  21.770  1.00  0.00     0.021 A 
ATOM      5  N   UNL     1       7.872  16.582  19.483  1.00  0.00    -0.264 NA
ATOM      6  C   UNL     1       7.575  15.836  20.580  1.00  0.00     0.111 A 
ENDROOT
BRANCH   1   7
ATOM      7  C   UNL     1       7.384  20.094  20.711  1.00  0.00     0.073 C 
ATOM      8  O   UNL     1       8.145  20.751  21.471  1.00  0.00    -0.545 OA
ATOM      9  O   UNL     1       6.486  20.779  19.901  1.00  0.00    -0.545 OA
ENDBRANCH   1   7
TORSDOF 1
ENDMDL
MODEL 2
REMARK VINA RESULT:    -4.215      7.558      8.535
REMARK INTER + INTRA:          -4.479
REMARK INTER:                  -4.461
REMARK INTRA:                  -0.018
REMARK UNBOUND:                -0.018
REMARK SMILES O=C([O-])c1cccnc1
REMARK SMILES IDX 4 1 5 2 9 3 6 4 8 5 7 6 2 7 1 8 3 9
REMARK H PARENT
REMARK Flexibility Score: inf
ROOT
ATOM      1  C   UNL     1       4.651  12.023  17.094  1.00  0.00     0.016 A 
ATOM      2  C   UNL     1       4.784  12.615  15.828  1.00  0.00     0.013 A 
ATOM      3  C   UNL     1       4.377  12.852  18.195  1.00  0.00     0.120 A 
ATOM      4  C   UNL     1       4.645  13.997  15.682  1.00  0.00     0.021 A 
ATOM      5  N   UNL     1       4.247  14.195  18.026  1.00  0.00    -0.264 NA
ATOM      6  C   UNL     1       4.373  14.779  16.805  1.00  0.00     0.111 A 
ENDROOT
BRANCH   1   7
ATOM      7  C   UNL     1       4.794  10.561  17.270  1.00  0.00     0.073 C 
ATOM      8  O   UNL     1       3.871   9.887  17.799  1.00  0.00    -0.545 OA
ATOM      9  O   UNL     1       5.949   9.911  16.852  1.00  0.00    -0.545 OA
ENDBRANCH   1   7
TORSDOF 1
ENDMDL
MODEL 3
REMARK VINA RESULT:    -4.131      1.730      2.794
REMARK INTER + INTRA:          -4.390
REMARK INTER:                  -4.367
REMARK INTRA:                  -0.023
REMARK UNBOUND:                -0.018
REMARK SMILES O=C([O-])c1cccnc1
REMARK SMILES IDX 4 1 5 2 9 3 6 4 8 5 7 6 2 7 1 8 3 9
REMARK H PARENT
REMARK Flexibility Score: inf
ROOT
ATOM      1  C   UNL     1       7.866  18.186  19.651  1.00  0.00     0.016 A 
ATOM      2  C   UNL     1       8.353  18.981  18.601  1.00  0.00     0.013 A 
ATOM      3  C   UNL     1       7.785  16.797  19.455  1.00  0.00     0.120 A 
ATOM      4  C   UNL     1       8.743  18.391  17.397  1.00  0.00     0.021 A 
ATOM      5  N   UNL     1       8.171  16.247  18.273  1.00  0.00    -0.264 NA
ATOM      6  C   UNL     1       8.644  17.007  17.250  1.00  0.00     0.111 A 
ENDROOT
BRANCH   1   7
ATOM      7  C   UNL     1       7.448  18.791  20.934  1.00  0.00     0.073 C 
ATOM      8  O   UNL     1       6.896  18.089  21.823  1.00  0.00    -0.545 OA
ATOM      9  O   UNL     1       7.660  20.143  21.177  1.00  0.00    -0.545 OA
ENDBRANCH   1   7
TORSDOF 1
ENDMDL
MODEL 4
REMARK VINA RESULT:    -4.128      2.473      3.170
REMARK INTER + INTRA:          -4.386
REMARK INTER:                  -4.363
REMARK INTRA:                  -0.024
REMARK UNBOUND:                -0.018
REMARK SMILES O=C([O-])c1cccnc1
REMARK SMILES IDX 4 1 5 2 9 3 6 4 8 5 7 6 2 7 1 8 3 9
REMARK H PARENT
REMARK Flexibility Score: inf
ROOT
ATOM      1  C   UNL     1       7.980  17.667  19.124  1.00  0.00     0.016 A 
ATOM      2  C   UNL     1       7.777  18.820  19.901  1.00  0.00     0.013 A 
ATOM      3  C   UNL     1       7.729  16.414  19.708  1.00  0.00     0.120 A 
ATOM      4  C   UNL     1       7.336  18.706  21.221  1.00  0.00     0.021 A 
ATOM      5  N   UNL     1       7.301  16.331  20.996  1.00  0.00    -0.264 NA
ATOM      6  C   UNL     1       7.101  17.439  21.757  1.00  0.00     0.111 A 
ENDROOT
BRANCH   1   7
ATOM      7  C   UNL     1       8.445  17.766  17.724  1.00  0.00     0.073 C 
ATOM      8  O   UNL     1       8.840  18.868  17.256  1.00  0.00    -0.545 OA
ATOM      9  O   UNL     1       8.455  16.644  16.903  1.00  0.00    -0.545 OA
ENDBRANCH   1   7
TORSDOF 1
ENDMDL
MODEL 5
REMARK VINA RESULT:    -4.115      3.136      3.911
REMARK INTER + INTRA:          -4.373
REMARK INTER:                  -4.350
REMARK INTRA:                  -0.023
REMARK UNBOUND:                -0.018
REMARK SMILES O=C([O-])c1cccnc1
REMARK SMILES IDX 4 1 5 2 9 3 6 4 8 5 7 6 2 7 1 8 3 9
REMARK H PARENT
REMARK Flexibility Score: inf
ROOT
ATOM      1  C   UNL     1       8.207  18.141  19.013  1.00  0.00     0.016 A 
ATOM      2  C   UNL     1       7.712  18.002  20.321  1.00  0.00     0.013 A 
ATOM      3  C   UNL     1       8.311  19.433  18.472  1.00  0.00     0.120 A 
ATOM      4  C   UNL     1       7.337  19.131  21.052  1.00  0.00     0.021 A 
ATOM      5  N   UNL     1       7.938  20.516  19.205  1.00  0.00    -0.264 NA
ATOM      6  C   UNL     1       7.458  20.393  20.471  1.00  0.00     0.111 A 
ENDROOT
BRANCH   1   7
ATOM      7  C   UNL     1       8.611  16.958  18.223  1.00  0.00     0.073 C 
ATOM      8  O   UNL     1       8.750  17.041  16.973  1.00  0.00    -0.545 OA
ATOM      9  O   UNL     1       8.844  15.738  18.848  1.00  0.00    -0.545 OA
ENDBRANCH   1   7
TORSDOF 1
ENDMDL
MODEL 6
REMARK VINA RESULT:    -4.096      1.950      2.630
REMARK INTER + INTRA:          -4.353
REMARK INTER:                  -4.330
REMARK INTRA:                  -0.023
REMARK UNBOUND:                -0.018
REMARK SMILES O=C([O-])c1cccnc1
REMARK SMILES IDX 4 1 5 2 9 3 6 4 8 5 7 6 2 7 1 8 3 9
REMARK H PARENT
REMARK Flexibility Score: inf
ROOT
ATOM      1  C   UNL     1       7.876  18.138  19.680  1.00  0.00     0.016 A 
ATOM      2  C   UNL     1       7.869  16.749  19.472  1.00  0.00     0.013 A 
ATOM      3  C   UNL     1       8.294  18.970  18.628  1.00  0.00     0.120 A 
ATOM      4  C   UNL     1       8.272  16.223  18.242  1.00  0.00     0.021 A 
ATOM      5  N   UNL     1       8.682  18.432  17.441  1.00  0.00    -0.264 NA
ATOM      6  C   UNL     1       8.679  17.089  17.228  1.00  0.00     0.111 A 
ENDROOT
BRANCH   1   7
ATOM      7  C   UNL     1       7.453  18.716  20.974  1.00  0.00     0.073 C 
ATOM      8  O   UNL     1       7.595  19.947  21.203  1.00  0.00    -0.545 OA
ATOM      9  O   UNL     1       6.890  17.909  21.956  1.00  0.00    -0.545 OA
ENDBRANCH   1   7
TORSDOF 1
ENDMDL
MODEL 7
REMARK VINA RESULT:    -4.093      2.582      3.340
REMARK INTER + INTRA:          -4.350
REMARK INTER:                  -4.326
REMARK INTRA:                  -0.024
REMARK UNBOUND:                -0.018
REMARK SMILES O=C([O-])c1cccnc1
REMARK SMILES IDX 4 1 5 2 9 3 6 4 8 5 7 6 2 7 1 8 3 9
REMARK H PARENT
REMARK Flexibility Score: inf
ROOT
ATOM      1  C   UNL     1       8.683  18.291  18.073  1.00  0.00     0.016 A 
ATOM      2  C   UNL     1       8.882  17.187  17.228  1.00  0.00     0.013 A 
ATOM      3  C   UNL     1       8.112  18.070  19.338  1.00  0.00     0.120 A 
ATOM      4  C   UNL     1       8.514  15.907  17.648  1.00  0.00     0.021 A 
ATOM      5  N   UNL     1       7.762  16.813  19.722  1.00  0.00    -0.264 NA
ATOM      6  C   UNL     1       7.950  15.738  18.912  1.00  0.00     0.111 A 
ENDROOT
BRANCH   1   7
ATOM      7  C   UNL     1       9.066  19.654  17.648  1.00  0.00     0.073 C 
ATOM      8  O   UNL     1       8.912  20.635  18.424  1.00  0.00    -0.545 OA
ATOM      9  O   UNL     1       9.604  19.874  16.385  1.00  0.00    -0.545 OA
ENDBRANCH   1   7
TORSDOF 1
ENDMDL
MODEL 8
REMARK VINA RESULT:    -4.003      2.807      3.743
REMARK INTER + INTRA:          -4.255
REMARK INTER:                  -4.232
REMARK INTRA:                  -0.023
REMARK UNBOUND:                -0.018
REMARK SMILES O=C([O-])c1cccnc1
REMARK SMILES IDX 4 1 5 2 9 3 6 4 8 5 7 6 2 7 1 8 3 9
REMARK H PARENT
REMARK Flexibility Score: inf
ROOT
ATOM      1  C   UNL     1       7.752  17.920  19.875  1.00  0.00     0.016 A 
ATOM      2  C   UNL     1       7.470  18.687  21.017  1.00  0.00     0.013 A 
ATOM      3  C   UNL     1       8.058  18.590  18.678  1.00  0.00     0.120 A 
ATOM      4  C   UNL     1       7.496  20.081  20.949  1.00  0.00     0.021 A 
ATOM      5  N   UNL     1       8.076  19.950  18.639  1.00  0.00    -0.264 NA
ATOM      6  C   UNL     1       7.805  20.702  19.738  1.00  0.00     0.111 A 
ENDROOT
BRANCH   1   7
ATOM      7  C   UNL     1       7.730  16.442  19.925  1.00  0.00     0.073 C 
ATOM      8  O   UNL     1       8.206  15.762  18.977  1.00  0.00    -0.545 OA
ATOM      9  O   UNL     1       7.185  15.782  21.021  1.00  0.00    -0.545 OA
ENDBRANCH   1   7
TORSDOF 1
ENDMDL
MODEL 9
REMARK VINA RESULT:    -3.967      3.500      4.298
REMARK INTER + INTRA:          -4.217
REMARK INTER:                  -4.196
REMARK INTRA:                  -0.021
REMARK UNBOUND:                -0.018
REMARK SMILES O=C([O-])c1cccnc1
REMARK SMILES IDX 4 1 5 2 9 3 6 4 8 5 7 6 2 7 1 8 3 9
REMARK H PARENT
REMARK Flexibility Score: inf
ROOT
ATOM      1  C   UNL     1       7.938  15.519  19.672  1.00  0.00     0.016 A 
ATOM      2  C   UNL     1       7.771  14.788  20.860  1.00  0.00     0.013 A 
ATOM      3  C   UNL     1       7.763  16.912  19.714  1.00  0.00     0.120 A 
ATOM      4  C   UNL     1       7.438  15.445  22.046  1.00  0.00     0.021 A 
ATOM      5  N   UNL     1       7.439  17.528  20.883  1.00  0.00    -0.264 NA
ATOM      6  C   UNL     1       7.275  16.831  22.038  1.00  0.00     0.111 A 
ENDROOT
BRANCH   1   7
ATOM      7  C   UNL     1       8.290  14.842  18.405  1.00  0.00     0.073 C 
ATOM      8  O   UNL     1       7.774  13.732  18.106  1.00  0.00    -0.545 OA
ATOM      9  O   UNL     1       9.196  15.422  17.524  1.00  0.00    -0.545 OA
ENDBRANCH   1   7
TORSDOF 1
ENDMDL
