MODEL 1
REMARK VINA RESULT:    -5.191      0.000      0.000
REMARK INTER + INTRA:          -5.576
REMARK INTER:                  -5.494
REMARK INTRA:                  -0.082
REMARK UNBOUND:                -0.082
REMARK SMILES C=C(C)[C@@H]1CC=C(C)C(=O)C1
REMARK SMILES IDX 8 1 7 2 6 3 5 4 4 5 11 6 9 7 10 8 2 9 1 10 3 11
REMARK H PARENT
REMARK Flexibility Score: inf
ROOT
ATOM      1  C   UNL     1      16.432 -27.992  22.702  1.00  0.00     0.048 C 
ATOM      2  C   UNL     1      15.353 -28.937  23.158  1.00  0.00    -0.012 C 
ATOM      3  C   UNL     1      14.137 -28.460  23.461  1.00  0.00    -0.019 C 
ATOM      4  C   UNL     1      13.022 -29.341  23.954  1.00  0.00     0.036 C 
ATOM      5  C   UNL     1      13.106 -30.790  23.429  1.00  0.00     0.025 C 
ATOM      6  C   UNL     1      14.529 -31.366  23.561  1.00  0.00     0.089 C 
ATOM      7  C   UNL     1      15.592 -30.399  23.123  1.00  0.00     0.158 C 
ATOM      8  O   UNL     1      16.712 -30.847  22.757  1.00  0.00    -0.295 OA
ENDROOT
BRANCH   5   9
ATOM      9  C   UNL     1      12.522 -30.950  22.026  1.00  0.00    -0.077 C 
ATOM     10  C   UNL     1      11.271 -30.562  21.717  1.00  0.00     0.008 C 
ATOM     11  C   UNL     1      13.394 -31.559  20.958  1.00  0.00     0.039 C 
ENDBRANCH   5   9
TORSDOF 1
ENDMDL
MODEL 2
REMARK VINA RESULT:    -5.179      2.034      4.050
REMARK INTER + INTRA:          -5.563
REMARK INTER:                  -5.408
REMARK INTRA:                  -0.155
REMARK UNBOUND:                -0.082
REMARK SMILES C=C(C)[C@@H]1CC=C(C)C(=O)C1
REMARK SMILES IDX 8 1 7 2 6 3 5 4 4 5 11 6 9 7 10 8 2 9 1 10 3 11
REMARK H PARENT
REMARK Flexibility Score: inf
ROOT
ATOM      1  C   UNL     1      10.875 -30.584  21.230  1.00  0.00     0.048 C 
ATOM      2  C   UNL     1      11.970 -30.473  22.255  1.00  0.00    -0.012 C 
ATOM      3  C   UNL     1      12.935 -31.404  22.300  1.00  0.00    -0.019 C 
ATOM      4  C   UNL     1      14.042 -31.373  23.318  1.00  0.00     0.036 C 
ATOM      5  C   UNL     1      14.407 -29.948  23.788  1.00  0.00     0.025 C 
ATOM      6  C   UNL     1      13.153 -29.119  24.129  1.00  0.00     0.089 C 
ATOM      7  C   UNL     1      12.063 -29.262  23.105  1.00  0.00     0.158 C 
ATOM      8  O   UNL     1      11.199 -28.351  23.000  1.00  0.00    -0.295 OA
ENDROOT
BRANCH   5   9
ATOM      9  C   UNL     1      15.358 -29.232  22.831  1.00  0.00    -0.077 C 
ATOM     10  C   UNL     1      15.581 -27.907  22.893  1.00  0.00     0.008 C 
ATOM     11  C   UNL     1      16.071 -30.055  21.789  1.00  0.00     0.039 C 
ENDBRANCH   5   9
TORSDOF 1
ENDMDL
MODEL 3
REMARK VINA RESULT:    -4.896      1.997      3.482
REMARK INTER + INTRA:          -5.264
REMARK INTER:                  -5.261
REMARK INTRA:                  -0.003
REMARK UNBOUND:                -0.082
REMARK SMILES C=C(C)[C@@H]1CC=C(C)C(=O)C1
REMARK SMILES IDX 8 1 7 2 6 3 5 4 4 5 11 6 9 7 10 8 2 9 1 10 3 11
REMARK H PARENT
REMARK Flexibility Score: inf
ROOT
ATOM      1  C   UNL     1      11.635 -28.432  23.707  1.00  0.00     0.048 C 
ATOM      2  C   UNL     1      12.788 -29.198  23.119  1.00  0.00    -0.012 C 
ATOM      3  C   UNL     1      14.043 -28.879  23.467  1.00  0.00    -0.019 C 
ATOM      4  C   UNL     1      15.245 -29.581  22.894  1.00  0.00     0.036 C 
ATOM      5  C   UNL     1      14.969 -31.046  22.494  1.00  0.00     0.025 C 
ATOM      6  C   UNL     1      13.660 -31.184  21.691  1.00  0.00     0.089 C 
ATOM      7  C   UNL     1      12.528 -30.393  22.282  1.00  0.00     0.158 C 
ATOM      8  O   UNL     1      11.343 -30.737  22.025  1.00  0.00    -0.295 OA
ENDROOT
BRANCH   5   9
ATOM      9  C   UNL     1      15.052 -32.011  23.675  1.00  0.00    -0.077 C 
ATOM     10  C   UNL     1      13.959 -32.520  24.270  1.00  0.00     0.008 C 
ATOM     11  C   UNL     1      16.419 -32.403  24.177  1.00  0.00     0.039 C 
ENDBRANCH   5   9
TORSDOF 1
ENDMDL
MODEL 4
REMARK VINA RESULT:    -4.891      1.937      2.822
REMARK INTER + INTRA:          -5.258
REMARK INTER:                  -5.090
REMARK INTRA:                  -0.169
REMARK UNBOUND:                -0.082
REMARK SMILES C=C(C)[C@@H]1CC=C(C)C(=O)C1
REMARK SMILES IDX 8 1 7 2 6 3 5 4 4 5 11 6 9 7 10 8 2 9 1 10 3 11
REMARK H PARENT
REMARK Flexibility Score: inf
ROOT
ATOM      1  C   UNL     1      15.329 -27.565  23.491  1.00  0.00     0.048 C 
ATOM      2  C   UNL     1      14.607 -28.734  22.879  1.00  0.00    -0.012 C 
ATOM      3  C   UNL     1      15.203 -29.453  21.916  1.00  0.00    -0.019 C 
ATOM      4  C   UNL     1      14.528 -30.614  21.238  1.00  0.00     0.036 C 
ATOM      5  C   UNL     1      13.504 -31.340  22.135  1.00  0.00     0.025 C 
ATOM      6  C   UNL     1      12.573 -30.348  22.861  1.00  0.00     0.089 C 
ATOM      7  C   UNL     1      13.311 -29.177  23.445  1.00  0.00     0.158 C 
ATOM      8  O   UNL     1      12.793 -28.546  24.405  1.00  0.00    -0.295 OA
ENDROOT
BRANCH   5   9
ATOM      9  C   UNL     1      14.151 -32.354  23.077  1.00  0.00    -0.077 C 
ATOM     10  C   UNL     1      13.813 -32.451  24.375  1.00  0.00     0.008 C 
ATOM     11  C   UNL     1      15.201 -33.277  22.514  1.00  0.00     0.039 C 
ENDBRANCH   5   9
TORSDOF 1
ENDMDL
MODEL 5
REMARK VINA RESULT:    -4.869      2.128      4.319
REMARK INTER + INTRA:          -5.235
REMARK INTER:                  -5.033
REMARK INTRA:                  -0.202
REMARK UNBOUND:                -0.082
REMARK SMILES C=C(C)[C@@H]1CC=C(C)C(=O)C1
REMARK SMILES IDX 8 1 7 2 6 3 5 4 4 5 11 6 9 7 10 8 2 9 1 10 3 11
REMARK H PARENT
REMARK Flexibility Score: inf
ROOT
ATOM      1  C   UNL     1      15.024 -34.086  20.114  1.00  0.00     0.048 C 
ATOM      2  C   UNL     1      14.682 -33.362  21.388  1.00  0.00    -0.012 C 
ATOM      3  C   UNL     1      15.318 -33.682  22.525  1.00  0.00    -0.019 C 
ATOM      4  C   UNL     1      15.004 -33.023  23.840  1.00  0.00     0.036 C 
ATOM      5  C   UNL     1      14.494 -31.573  23.696  1.00  0.00     0.025 C 
ATOM      6  C   UNL     1      13.411 -31.453  22.605  1.00  0.00     0.089 C 
ATOM      7  C   UNL     1      13.761 -32.202  21.351  1.00  0.00     0.158 C 
ATOM      8  O   UNL     1      13.229 -31.853  20.263  1.00  0.00    -0.295 OA
ENDROOT
BRANCH   5   9
ATOM      9  C   UNL     1      15.624 -30.558  23.533  1.00  0.00    -0.077 C 
ATOM     10  C   UNL     1      15.436 -29.353  22.964  1.00  0.00     0.008 C 
ATOM     11  C   UNL     1      16.994 -30.932  24.039  1.00  0.00     0.039 C 
ENDBRANCH   5   9
TORSDOF 1
ENDMDL
MODEL 6
REMARK VINA RESULT:    -4.757      1.748      3.609
REMARK INTER + INTRA:          -5.117
REMARK INTER:                  -4.947
REMARK INTRA:                  -0.170
REMARK UNBOUND:                -0.082
REMARK SMILES C=C(C)[C@@H]1CC=C(C)C(=O)C1
REMARK SMILES IDX 8 1 7 2 6 3 5 4 4 5 11 6 9 7 10 8 2 9 1 10 3 11
REMARK H PARENT
REMARK Flexibility Score: inf
ROOT
ATOM      1  C   UNL     1      13.893 -32.885  24.630  1.00  0.00     0.048 C 
ATOM      2  C   UNL     1      13.919 -31.774  23.617  1.00  0.00    -0.012 C 
ATOM      3  C   UNL     1      13.699 -30.511  24.011  1.00  0.00    -0.019 C 
ATOM      4  C   UNL     1      13.678 -29.355  23.047  1.00  0.00     0.036 C 
ATOM      5  C   UNL     1      14.579 -29.567  21.812  1.00  0.00     0.025 C 
ATOM      6  C   UNL     1      14.381 -30.965  21.193  1.00  0.00     0.089 C 
ATOM      7  C   UNL     1      14.335 -32.058  22.223  1.00  0.00     0.158 C 
ATOM      8  O   UNL     1      14.621 -33.236  21.877  1.00  0.00    -0.295 OA
ENDROOT
BRANCH   5   9
ATOM      9  C   UNL     1      16.045 -29.231  22.078  1.00  0.00    -0.077 C 
ATOM     10  C   UNL     1      16.420 -28.164  22.806  1.00  0.00     0.008 C 
ATOM     11  C   UNL     1      17.099 -30.143  21.504  1.00  0.00     0.039 C 
ENDBRANCH   5   9
TORSDOF 1
ENDMDL
MODEL 7
REMARK VINA RESULT:    -4.733      1.427      3.172
REMARK INTER + INTRA:          -5.092
REMARK INTER:                  -5.005
REMARK INTRA:                  -0.087
REMARK UNBOUND:                -0.082
REMARK SMILES C=C(C)[C@@H]1CC=C(C)C(=O)C1
REMARK SMILES IDX 8 1 7 2 6 3 5 4 4 5 11 6 9 7 10 8 2 9 1 10 3 11
REMARK H PARENT
REMARK Flexibility Score: inf
ROOT
ATOM      1  C   UNL     1      17.254 -32.593  23.610  1.00  0.00     0.048 C 
ATOM      2  C   UNL     1      15.953 -32.003  23.139  1.00  0.00    -0.012 C 
ATOM      3  C   UNL     1      14.859 -32.107  23.907  1.00  0.00    -0.019 C 
ATOM      4  C   UNL     1      13.519 -31.569  23.485  1.00  0.00     0.036 C 
ATOM      5  C   UNL     1      13.615 -30.346  22.549  1.00  0.00     0.025 C 
ATOM      6  C   UNL     1      14.639 -30.568  21.418  1.00  0.00     0.089 C 
ATOM      7  C   UNL     1      15.922 -31.180  21.907  1.00  0.00     0.158 C 
ATOM      8  O   UNL     1      16.973 -31.016  21.231  1.00  0.00    -0.295 OA
ENDROOT
BRANCH   5   9
ATOM      9  C   UNL     1      13.828 -29.035  23.302  1.00  0.00    -0.077 C 
ATOM     10  C   UNL     1      14.912 -28.261  23.113  1.00  0.00     0.008 C 
ATOM     11  C   UNL     1      12.773 -28.601  24.288  1.00  0.00     0.039 C 
ENDBRANCH   5   9
TORSDOF 1
ENDMDL
MODEL 8
REMARK VINA RESULT:    -4.662      3.394      4.601
REMARK INTER + INTRA:          -5.016
REMARK INTER:                  -4.821
REMARK INTRA:                  -0.194
REMARK UNBOUND:                -0.082
REMARK SMILES C=C(C)[C@@H]1CC=C(C)C(=O)C1
REMARK SMILES IDX 8 1 7 2 6 3 5 4 4 5 11 6 9 7 10 8 2 9 1 10 3 11
REMARK H PARENT
REMARK Flexibility Score: inf
ROOT
ATOM      1  C   UNL     1      17.775 -34.126  18.990  1.00  0.00     0.048 C 
ATOM      2  C   UNL     1      17.104 -33.641  20.245  1.00  0.00    -0.012 C 
ATOM      3  C   UNL     1      17.565 -32.544  20.863  1.00  0.00    -0.019 C 
ATOM      4  C   UNL     1      16.964 -32.021  22.140  1.00  0.00     0.036 C 
ATOM      5  C   UNL     1      15.461 -32.341  22.288  1.00  0.00     0.025 C 
ATOM      6  C   UNL     1      15.153 -33.814  21.951  1.00  0.00     0.089 C 
ATOM      7  C   UNL     1      15.851 -34.285  20.707  1.00  0.00     0.158 C 
ATOM      8  O   UNL     1      15.376 -35.266  20.074  1.00  0.00    -0.295 OA
ENDROOT
BRANCH   5   9
ATOM      9  C   UNL     1      14.565 -31.355  21.541  1.00  0.00    -0.077 C 
ATOM     10  C   UNL     1      13.460 -31.742  20.879  1.00  0.00     0.008 C 
ATOM     11  C   UNL     1      14.943 -29.896  21.562  1.00  0.00     0.039 C 
ENDBRANCH   5   9
TORSDOF 1
ENDMDL
MODEL 9
REMARK VINA RESULT:    -4.629      1.940      3.373
REMARK INTER + INTRA:          -4.982
REMARK INTER:                  -4.771
REMARK INTRA:                  -0.211
REMARK UNBOUND:                -0.082
REMARK SMILES C=C(C)[C@@H]1CC=C(C)C(=O)C1
REMARK SMILES IDX 8 1 7 2 6 3 5 4 4 5 11 6 9 7 10 8 2 9 1 10 3 11
REMARK H PARENT
REMARK Flexibility Score: inf
ROOT
ATOM      1  C   UNL     1      12.730 -29.483  23.301  1.00  0.00     0.048 C 
ATOM      2  C   UNL     1      13.824 -30.467  23.613  1.00  0.00    -0.012 C 
ATOM      3  C   UNL     1      13.514 -31.745  23.875  1.00  0.00    -0.019 C 
ATOM      4  C   UNL     1      14.554 -32.775  24.226  1.00  0.00     0.036 C 
ATOM      5  C   UNL     1      15.935 -32.494  23.596  1.00  0.00     0.025 C 
ATOM      6  C   UNL     1      16.356 -31.021  23.774  1.00  0.00     0.089 C 
ATOM      7  C   UNL     1      15.242 -30.057  23.480  1.00  0.00     0.158 C 
ATOM      8  O   UNL     1      15.529 -28.874  23.153  1.00  0.00    -0.295 OA
ENDROOT
BRANCH   5   9
ATOM      9  C   UNL     1      16.040 -32.978  22.152  1.00  0.00    -0.077 C 
ATOM     10  C   UNL     1      15.301 -33.996  21.676  1.00  0.00     0.008 C 
ATOM     11  C   UNL     1      17.008 -32.274  21.235  1.00  0.00     0.039 C 
ENDBRANCH   5   9
TORSDOF 1
ENDMDL
