MODEL 1
REMARK VINA RESULT:    -2.841      0.000      0.000
REMARK INTER + INTRA:          -7.198
REMARK INTER:                  -5.166
REMARK INTRA:                  -2.032
REMARK UNBOUND:                -2.032
REMARK SMILES CCCCCCCCCCCCCC[C@@H](C)C(=O)[O-]
REMARK SMILES IDX 9 1 10 2 11 3 12 4 13 5 14 6 15 7 16 8 17 9 18 10 19 11 8 12
REMARK SMILES IDX 7 13 6 14 5 15 4 16 3 17 2 18 1 19
REMARK H PARENT
REMARK Flexibility Score: inf
ROOT
ATOM      1  C   UNL     1      52.842  80.981  29.606  1.00  0.00     0.000 C 
ENDROOT
BRANCH   1   2
ATOM      2  C   UNL     1      52.873  81.412  31.082  1.00  0.00     0.000 C 
BRANCH   2   3
ATOM      3  C   UNL     1      51.635  82.227  31.515  1.00  0.00     0.000 C 
BRANCH   3   4
ATOM      4  C   UNL     1      50.539  82.232  30.434  1.00  0.00     0.000 C 
BRANCH   4   5
ATOM      5  C   UNL     1      50.261  83.638  29.876  1.00  0.00     0.001 C 
BRANCH   5   6
ATOM      6  C   UNL     1      50.519  84.747  30.911  1.00  0.00     0.009 C 
BRANCH   6   7
ATOM      7  C   UNL     1      49.242  85.123  31.690  1.00  0.00     0.032 C 
ATOM      8  C   UNL     1      48.050  84.288  31.209  1.00  0.00     0.014 C 
BRANCH   7   9
ATOM      9  C   UNL     1      49.424  84.934  33.172  1.00  0.00     0.044 C 
ATOM     10  O   UNL     1      50.568  85.043  33.687  1.00  0.00    -0.550 OA
ATOM     11  O   UNL     1      48.331  84.657  33.986  1.00  0.00    -0.550 OA
ENDBRANCH   7   9
ENDBRANCH   6   7
ENDBRANCH   5   6
ENDBRANCH   4   5
ENDBRANCH   3   4
ENDBRANCH   2   3
ENDBRANCH   1   2
BRANCH   1  12
ATOM     12  C   UNL     1      54.210  81.114  28.916  1.00  0.00     0.000 C 
BRANCH  12  13
ATOM     13  C   UNL     1      54.996  82.355  29.374  1.00  0.00    -0.000 C 
BRANCH  13  14
ATOM     14  C   UNL     1      54.323  83.707  29.073  1.00  0.00    -0.000 C 
BRANCH  14  15
ATOM     15  C   UNL     1      54.893  84.863  29.907  1.00  0.00    -0.000 C 
BRANCH  15  16
ATOM     16  C   UNL     1      54.095  85.051  31.207  1.00  0.00    -0.000 C 
BRANCH  16  17
ATOM     17  C   UNL     1      54.999  85.026  32.457  1.00  0.00    -0.000 C 
BRANCH  17  18
ATOM     18  C   UNL     1      56.126  83.984  32.385  1.00  0.00    -0.003 C 
ATOM     19  C   UNL     1      55.737  82.636  32.988  1.00  0.00     0.004 C 
ENDBRANCH  17  18
ENDBRANCH  16  17
ENDBRANCH  15  16
ENDBRANCH  14  15
ENDBRANCH  13  14
ENDBRANCH  12  13
ENDBRANCH   1  12
TORSDOF 14
ENDMDL
MODEL 2
REMARK VINA RESULT:    -2.762      0.868      1.421
REMARK INTER + INTRA:          -7.055
REMARK INTER:                  -5.324
REMARK INTRA:                  -1.731
REMARK UNBOUND:                -2.032
REMARK SMILES CCCCCCCCCCCCCC[C@@H](C)C(=O)[O-]
REMARK SMILES IDX 9 1 10 2 11 3 12 4 13 5 14 6 15 7 16 8 17 9 18 10 19 11 8 12
REMARK SMILES IDX 7 13 6 14 5 15 4 16 3 17 2 18 1 19
REMARK H PARENT
REMARK Flexibility Score: inf
ROOT
ATOM      1  C   UNL     1      53.560  81.606  31.302  1.00  0.00     0.000 C 
ENDROOT
BRANCH   1   2
ATOM      2  C   UNL     1      52.105  81.833  31.748  1.00  0.00     0.000 C 
BRANCH   2   3
ATOM      3  C   UNL     1      51.113  81.972  30.573  1.00  0.00     0.000 C 
BRANCH   3   4
ATOM      4  C   UNL     1      51.198  83.356  29.905  1.00  0.00     0.000 C 
BRANCH   4   5
ATOM      5  C   UNL     1      49.815  83.962  29.614  1.00  0.00     0.001 C 
BRANCH   5   6
ATOM      6  C   UNL     1      49.447  85.092  30.593  1.00  0.00     0.009 C 
BRANCH   6   7
ATOM      7  C   UNL     1      48.431  84.629  31.658  1.00  0.00     0.032 C 
ATOM      8  C   UNL     1      47.876  83.244  31.310  1.00  0.00     0.014 C 
BRANCH   7   9
ATOM      9  C   UNL     1      49.050  84.593  33.030  1.00  0.00     0.044 C 
ATOM     10  O   UNL     1      50.293  84.735  33.166  1.00  0.00    -0.550 OA
ATOM     11  O   UNL     1      48.253  84.422  34.157  1.00  0.00    -0.550 OA
ENDBRANCH   7   9
ENDBRANCH   6   7
ENDBRANCH   5   6
ENDBRANCH   4   5
ENDBRANCH   3   4
ENDBRANCH   2   3
ENDBRANCH   1   2
BRANCH   1  12
ATOM     12  C   UNL     1      53.663  80.892  29.944  1.00  0.00     0.000 C 
BRANCH  12  13
ATOM     13  C   UNL     1      54.383  81.734  28.875  1.00  0.00    -0.000 C 
BRANCH  13  14
ATOM     14  C   UNL     1      55.579  82.559  29.384  1.00  0.00    -0.000 C 
BRANCH  14  15
ATOM     15  C   UNL     1      55.434  84.063  29.109  1.00  0.00    -0.000 C 
BRANCH  15  16
ATOM     16  C   UNL     1      56.240  84.890  30.123  1.00  0.00    -0.000 C 
BRANCH  16  17
ATOM     17  C   UNL     1      56.782  84.028  31.283  1.00  0.00    -0.000 C 
BRANCH  17  18
ATOM     18  C   UNL     1      55.936  84.115  32.563  1.00  0.00    -0.003 C 
ATOM     19  C   UNL     1      54.739  85.053  32.430  1.00  0.00     0.004 C 
ENDBRANCH  17  18
ENDBRANCH  16  17
ENDBRANCH  15  16
ENDBRANCH  14  15
ENDBRANCH  13  14
ENDBRANCH  12  13
ENDBRANCH   1  12
TORSDOF 14
ENDMDL
MODEL 3
REMARK VINA RESULT:    -2.568      2.714      6.268
REMARK INTER + INTRA:          -6.702
REMARK INTER:                  -4.999
REMARK INTRA:                  -1.703
REMARK UNBOUND:                -2.032
REMARK SMILES CCCCCCCCCCCCCC[C@@H](C)C(=O)[O-]
REMARK SMILES IDX 9 1 10 2 11 3 12 4 13 5 14 6 15 7 16 8 17 9 18 10 19 11 8 12
REMARK SMILES IDX 7 13 6 14 5 15 4 16 3 17 2 18 1 19
REMARK H PARENT
REMARK Flexibility Score: inf
ROOT
ATOM      1  C   UNL     1      53.506  81.887  32.894  1.00  0.00     0.000 C 
ENDROOT
BRANCH   1   2
ATOM      2  C   UNL     1      54.997  81.736  32.546  1.00  0.00     0.000 C 
BRANCH   2   3
ATOM      3  C   UNL     1      55.820  83.022  32.778  1.00  0.00     0.000 C 
BRANCH   3   4
ATOM      4  C   UNL     1      55.013  84.292  32.454  1.00  0.00     0.000 C 
BRANCH   4   5
ATOM      5  C   UNL     1      55.520  85.014  31.195  1.00  0.00     0.001 C 
BRANCH   5   6
ATOM      6  C   UNL     1      54.713  84.648  29.937  1.00  0.00     0.009 C 
BRANCH   6   7
ATOM      7  C   UNL     1      55.580  83.939  28.875  1.00  0.00     0.032 C 
ATOM      8  C   UNL     1      57.063  84.264  29.085  1.00  0.00     0.014 C 
BRANCH   7   9
ATOM      9  C   UNL     1      55.382  82.447  28.909  1.00  0.00     0.044 C 
ATOM     10  O   UNL     1      54.219  81.965  28.938  1.00  0.00    -0.550 OA
ATOM     11  O   UNL     1      56.477  81.591  28.886  1.00  0.00    -0.550 OA
ENDBRANCH   7   9
ENDBRANCH   6   7
ENDBRANCH   5   6
ENDBRANCH   4   5
ENDBRANCH   3   4
ENDBRANCH   2   3
ENDBRANCH   1   2
BRANCH   1  12
ATOM     12  C   UNL     1      52.582  81.596  31.700  1.00  0.00     0.000 C 
BRANCH  12  13
ATOM     13  C   UNL     1      51.718  82.805  31.299  1.00  0.00    -0.000 C 
BRANCH  13  14
ATOM     14  C   UNL     1      50.400  82.462  30.581  1.00  0.00    -0.000 C 
BRANCH  14  15
ATOM     15  C   UNL     1      50.034  83.469  29.481  1.00  0.00    -0.000 C 
BRANCH  15  16
ATOM     16  C   UNL     1      48.620  84.030  29.696  1.00  0.00    -0.000 C 
BRANCH  16  17
ATOM     17  C   UNL     1      47.955  83.473  30.972  1.00  0.00    -0.000 C 
BRANCH  17  18
ATOM     18  C   UNL     1      47.880  84.489  32.123  1.00  0.00    -0.003 C 
ATOM     19  C   UNL     1      48.006  83.845  33.502  1.00  0.00     0.004 C 
ENDBRANCH  17  18
ENDBRANCH  16  17
ENDBRANCH  15  16
ENDBRANCH  14  15
ENDBRANCH  13  14
ENDBRANCH  12  13
ENDBRANCH   1  12
TORSDOF 14
ENDMDL
MODEL 4
REMARK VINA RESULT:    -2.496      2.391      5.417
REMARK INTER + INTRA:          -6.571
REMARK INTER:                  -5.022
REMARK INTRA:                  -1.549
REMARK UNBOUND:                -2.032
REMARK SMILES CCCCCCCCCCCCCC[C@@H](C)C(=O)[O-]
REMARK SMILES IDX 9 1 10 2 11 3 12 4 13 5 14 6 15 7 16 8 17 9 18 10 19 11 8 12
REMARK SMILES IDX 7 13 6 14 5 15 4 16 3 17 2 18 1 19
REMARK H PARENT
REMARK Flexibility Score: inf
ROOT
ATOM      1  C   UNL     1      53.796  81.267  29.929  1.00  0.00     0.000 C 
ENDROOT
BRANCH   1   2
ATOM      2  C   UNL     1      55.136  81.505  29.213  1.00  0.00     0.000 C 
BRANCH   2   3
ATOM      3  C   UNL     1      55.405  82.989  28.880  1.00  0.00     0.000 C 
BRANCH   3   4
ATOM      4  C   UNL     1      56.834  83.417  29.261  1.00  0.00     0.000 C 
BRANCH   4   5
ATOM      5  C   UNL     1      56.861  84.440  30.409  1.00  0.00     0.001 C 
BRANCH   5   6
ATOM      6  C   UNL     1      55.475  85.041  30.699  1.00  0.00     0.009 C 
BRANCH   6   7
ATOM      7  C   UNL     1      54.967  84.677  32.110  1.00  0.00     0.032 C 
ATOM      8  C   UNL     1      53.489  84.274  32.065  1.00  0.00     0.014 C 
BRANCH   7   9
ATOM      9  C   UNL     1      55.775  83.559  32.715  1.00  0.00     0.044 C 
ATOM     10  O   UNL     1      56.851  83.812  33.318  1.00  0.00    -0.550 OA
ATOM     11  O   UNL     1      55.330  82.244  32.630  1.00  0.00    -0.550 OA
ENDBRANCH   7   9
ENDBRANCH   6   7
ENDBRANCH   5   6
ENDBRANCH   4   5
ENDBRANCH   3   4
ENDBRANCH   2   3
ENDBRANCH   1   2
BRANCH   1  12
ATOM     12  C   UNL     1      52.581  81.530  29.024  1.00  0.00     0.000 C 
BRANCH  12  13
ATOM     13  C   UNL     1      51.403  82.178  29.773  1.00  0.00    -0.000 C 
BRANCH  13  14
ATOM     14  C   UNL     1      51.058  83.614  29.338  1.00  0.00    -0.000 C 
BRANCH  14  15
ATOM     15  C   UNL     1      49.547  83.875  29.265  1.00  0.00    -0.000 C 
BRANCH  15  16
ATOM     16  C   UNL     1      49.125  84.960  30.267  1.00  0.00    -0.000 C 
BRANCH  16  17
ATOM     17  C   UNL     1      48.420  84.371  31.507  1.00  0.00    -0.000 C 
BRANCH  17  18
ATOM     18  C   UNL     1      49.391  83.867  32.587  1.00  0.00    -0.003 C 
ATOM     19  C   UNL     1      50.016  84.994  33.406  1.00  0.00     0.004 C 
ENDBRANCH  17  18
ENDBRANCH  16  17
ENDBRANCH  15  16
ENDBRANCH  14  15
ENDBRANCH  13  14
ENDBRANCH  12  13
ENDBRANCH   1  12
TORSDOF 14
ENDMDL
MODEL 5
REMARK VINA RESULT:    -2.336      1.720      2.815
REMARK INTER + INTRA:          -6.279
REMARK INTER:                  -4.281
REMARK INTRA:                  -1.998
REMARK UNBOUND:                -2.032
REMARK SMILES CCCCCCCCCCCCCC[C@@H](C)C(=O)[O-]
REMARK SMILES IDX 9 1 10 2 11 3 12 4 13 5 14 6 15 7 16 8 17 9 18 10 19 11 8 12
REMARK SMILES IDX 7 13 6 14 5 15 4 16 3 17 2 18 1 19
REMARK H PARENT
REMARK Flexibility Score: inf
ROOT
ATOM      1  C   UNL     1      53.775  81.096  30.946  1.00  0.00     0.000 C 
ENDROOT
BRANCH   1   2
ATOM      2  C   UNL     1      52.711  81.593  29.952  1.00  0.00     0.000 C 
BRANCH   2   3
ATOM      3  C   UNL     1      53.057  82.951  29.305  1.00  0.00     0.000 C 
BRANCH   3   4
ATOM      4  C   UNL     1      52.210  84.099  29.882  1.00  0.00     0.000 C 
BRANCH   4   5
ATOM      5  C   UNL     1      51.182  84.645  28.876  1.00  0.00     0.001 C 
BRANCH   5   6
ATOM      6  C   UNL     1      49.757  84.132  29.151  1.00  0.00     0.009 C 
BRANCH   6   7
ATOM      7  C   UNL     1      49.328  84.364  30.615  1.00  0.00     0.032 C 
ATOM      8  C   UNL     1      47.997  85.123  30.674  1.00  0.00     0.014 C 
BRANCH   7   9
ATOM      9  C   UNL     1      49.200  83.065  31.364  1.00  0.00     0.044 C 
ATOM     10  O   UNL     1      48.800  82.030  30.768  1.00  0.00    -0.550 OA
ATOM     11  O   UNL     1      49.541  82.992  32.710  1.00  0.00    -0.550 OA
ENDBRANCH   7   9
ENDBRANCH   6   7
ENDBRANCH   5   6
ENDBRANCH   4   5
ENDBRANCH   3   4
ENDBRANCH   2   3
ENDBRANCH   1   2
BRANCH   1  12
ATOM     12  C   UNL     1      53.851  81.954  32.220  1.00  0.00     0.000 C 
BRANCH  12  13
ATOM     13  C   UNL     1      55.245  81.943  32.871  1.00  0.00    -0.000 C 
BRANCH  13  14
ATOM     14  C   UNL     1      56.086  83.213  32.645  1.00  0.00    -0.000 C 
BRANCH  14  15
ATOM     15  C   UNL     1      55.254  84.406  32.155  1.00  0.00    -0.000 C 
BRANCH  15  16
ATOM     16  C   UNL     1      55.714  84.865  30.763  1.00  0.00    -0.000 C 
BRANCH  16  17
ATOM     17  C   UNL     1      56.754  83.908  30.144  1.00  0.00    -0.000 C 
BRANCH  17  18
ATOM     18  C   UNL     1      56.256  83.187  28.881  1.00  0.00    -0.003 C 
ATOM     19  C   UNL     1      56.538  81.687  28.895  1.00  0.00     0.004 C 
ENDBRANCH  17  18
ENDBRANCH  16  17
ENDBRANCH  15  16
ENDBRANCH  14  15
ENDBRANCH  13  14
ENDBRANCH  12  13
ENDBRANCH   1  12
TORSDOF 14
ENDMDL
MODEL 6
REMARK VINA RESULT:    -2.277      1.683      3.725
REMARK INTER + INTRA:          -6.173
REMARK INTER:                  -4.450
REMARK INTRA:                  -1.723
REMARK UNBOUND:                -2.032
REMARK SMILES CCCCCCCCCCCCCC[C@@H](C)C(=O)[O-]
REMARK SMILES IDX 9 1 10 2 11 3 12 4 13 5 14 6 15 7 16 8 17 9 18 10 19 11 8 12
REMARK SMILES IDX 7 13 6 14 5 15 4 16 3 17 2 18 1 19
REMARK H PARENT
REMARK Flexibility Score: inf
ROOT
ATOM      1  C   UNL     1      55.168  84.997  30.010  1.00  0.00     0.000 C 
ENDROOT
BRANCH   1   2
ATOM      2  C   UNL     1      54.730  83.845  29.090  1.00  0.00     0.000 C 
BRANCH   2   3
ATOM      3  C   UNL     1      53.198  83.715  28.948  1.00  0.00     0.000 C 
BRANCH   3   4
ATOM      4  C   UNL     1      52.505  85.088  28.876  1.00  0.00     0.000 C 
BRANCH   4   5
ATOM      5  C   UNL     1      51.014  85.022  29.247  1.00  0.00     0.001 C 
BRANCH   5   6
ATOM      6  C   UNL     1      50.777  85.125  30.764  1.00  0.00     0.009 C 
BRANCH   6   7
ATOM      7  C   UNL     1      50.102  83.859  31.333  1.00  0.00     0.032 C 
ATOM      8  C   UNL     1      49.993  83.945  32.859  1.00  0.00     0.014 C 
BRANCH   7   9
ATOM      9  C   UNL     1      48.734  83.651  30.742  1.00  0.00     0.044 C 
ATOM     10  O   UNL     1      48.321  82.486  30.501  1.00  0.00    -0.550 OA
ATOM     11  O   UNL     1      47.909  84.738  30.477  1.00  0.00    -0.550 OA
ENDBRANCH   7   9
ENDBRANCH   6   7
ENDBRANCH   5   6
ENDBRANCH   4   5
ENDBRANCH   3   4
ENDBRANCH   2   3
ENDBRANCH   1   2
BRANCH   1  12
ATOM     12  C   UNL     1      56.281  84.587  30.990  1.00  0.00     0.000 C 
BRANCH  12  13
ATOM     13  C   UNL     1      55.758  84.301  32.409  1.00  0.00    -0.000 C 
BRANCH  13  14
ATOM     14  C   UNL     1      55.974  82.861  32.910  1.00  0.00    -0.000 C 
BRANCH  14  15
ATOM     15  C   UNL     1      55.024  81.847  32.257  1.00  0.00    -0.000 C 
BRANCH  15  16
ATOM     16  C   UNL     1      53.564  82.314  32.359  1.00  0.00    -0.000 C 
BRANCH  16  17
ATOM     17  C   UNL     1      52.568  81.225  31.910  1.00  0.00    -0.000 C 
BRANCH  17  18
ATOM     18  C   UNL     1      52.203  81.299  30.418  1.00  0.00    -0.003 C 
ATOM     19  C   UNL     1      52.936  80.263  29.569  1.00  0.00     0.004 C 
ENDBRANCH  17  18
ENDBRANCH  16  17
ENDBRANCH  15  16
ENDBRANCH  14  15
ENDBRANCH  13  14
ENDBRANCH  12  13
ENDBRANCH   1  12
TORSDOF 14
ENDMDL
MODEL 7
REMARK VINA RESULT:    -2.233      1.339      2.459
REMARK INTER + INTRA:          -6.093
REMARK INTER:                  -4.651
REMARK INTRA:                  -1.442
REMARK UNBOUND:                -2.032
REMARK SMILES CCCCCCCCCCCCCC[C@@H](C)C(=O)[O-]
REMARK SMILES IDX 9 1 10 2 11 3 12 4 13 5 14 6 15 7 16 8 17 9 18 10 19 11 8 12
REMARK SMILES IDX 7 13 6 14 5 15 4 16 3 17 2 18 1 19
REMARK H PARENT
REMARK Flexibility Score: inf
ROOT
ATOM      1  C   UNL     1      56.090  81.642  29.580  1.00  0.00     0.000 C 
ENDROOT
BRANCH   1   2
ATOM      2  C   UNL     1      54.776  81.255  28.880  1.00  0.00     0.000 C 
BRANCH   2   3
ATOM      3  C   UNL     1      53.688  82.347  28.960  1.00  0.00     0.000 C 
BRANCH   3   4
ATOM      4  C   UNL     1      52.307  81.763  29.309  1.00  0.00     0.000 C 
BRANCH   4   5
ATOM      5  C   UNL     1      51.152  82.717  28.960  1.00  0.00     0.001 C 
BRANCH   5   6
ATOM      6  C   UNL     1      50.113  82.825  30.090  1.00  0.00     0.009 C 
BRANCH   6   7
ATOM      7  C   UNL     1      50.191  84.180  30.825  1.00  0.00     0.032 C 
ATOM      8  C   UNL     1      49.088  85.124  30.335  1.00  0.00     0.014 C 
BRANCH   7   9
ATOM      9  C   UNL     1      50.080  84.005  32.315  1.00  0.00     0.044 C 
ATOM     10  O   UNL     1      50.955  84.497  33.076  1.00  0.00    -0.550 OA
ATOM     11  O   UNL     1      49.002  83.320  32.865  1.00  0.00    -0.550 OA
ENDBRANCH   7   9
ENDBRANCH   6   7
ENDBRANCH   5   6
ENDBRANCH   4   5
ENDBRANCH   3   4
ENDBRANCH   2   3
ENDBRANCH   1   2
BRANCH   1  12
ATOM     12  C   UNL     1      56.641  82.999  29.107  1.00  0.00     0.000 C 
BRANCH  12  13
ATOM     13  C   UNL     1      56.822  84.007  30.256  1.00  0.00    -0.000 C 
BRANCH  13  14
ATOM     14  C   UNL     1      55.536  84.721  30.713  1.00  0.00    -0.000 C 
BRANCH  14  15
ATOM     15  C   UNL     1      55.400  84.796  32.241  1.00  0.00    -0.000 C 
BRANCH  15  16
ATOM     16  C   UNL     1      56.044  83.574  32.913  1.00  0.00    -0.000 C 
BRANCH  16  17
ATOM     17  C   UNL     1      55.310  82.261  32.568  1.00  0.00    -0.000 C 
BRANCH  17  18
ATOM     18  C   UNL     1      53.778  82.383  32.600  1.00  0.00    -0.003 C 
ATOM     19  C   UNL     1      53.074  81.051  32.853  1.00  0.00     0.004 C 
ENDBRANCH  17  18
ENDBRANCH  16  17
ENDBRANCH  15  16
ENDBRANCH  14  15
ENDBRANCH  13  14
ENDBRANCH  12  13
ENDBRANCH   1  12
TORSDOF 14
ENDMDL
MODEL 8
REMARK VINA RESULT:    -1.152      1.141      2.465
REMARK INTER + INTRA:          -4.127
REMARK INTER:                  -2.622
REMARK INTRA:                  -1.505
REMARK UNBOUND:                -2.032
REMARK SMILES CCCCCCCCCCCCCC[C@@H](C)C(=O)[O-]
REMARK SMILES IDX 9 1 10 2 11 3 12 4 13 5 14 6 15 7 16 8 17 9 18 10 19 11 8 12
REMARK SMILES IDX 7 13 6 14 5 15 4 16 3 17 2 18 1 19
REMARK H PARENT
REMARK Flexibility Score: inf
ROOT
ATOM      1  C   UNL     1      53.467  81.862  32.644  1.00  0.00     0.000 C 
ENDROOT
BRANCH   1   2
ATOM      2  C   UNL     1      52.439  81.569  31.538  1.00  0.00     0.000 C 
BRANCH   2   3
ATOM      3  C   UNL     1      52.306  82.706  30.501  1.00  0.00     0.000 C 
BRANCH   3   4
ATOM      4  C   UNL     1      51.241  82.393  29.434  1.00  0.00     0.000 C 
BRANCH   4   5
ATOM      5  C   UNL     1      49.931  83.166  29.657  1.00  0.00     0.001 C 
BRANCH   5   6
ATOM      6  C   UNL     1      49.507  83.198  31.136  1.00  0.00     0.009 C 
BRANCH   6   7
ATOM      7  C   UNL     1      49.397  84.639  31.678  1.00  0.00     0.032 C 
ATOM      8  C   UNL     1      47.944  85.125  31.628  1.00  0.00     0.014 C 
BRANCH   7   9
ATOM      9  C   UNL     1      49.913  84.738  33.088  1.00  0.00     0.044 C 
ATOM     10  O   UNL     1      51.152  84.786  33.305  1.00  0.00    -0.550 OA
ATOM     11  O   UNL     1      49.027  84.799  34.159  1.00  0.00    -0.550 OA
ENDBRANCH   7   9
ENDBRANCH   6   7
ENDBRANCH   5   6
ENDBRANCH   4   5
ENDBRANCH   3   4
ENDBRANCH   2   3
ENDBRANCH   1   2
BRANCH   1  12
ATOM     12  C   UNL     1      54.920  81.783  32.146  1.00  0.00     0.000 C 
BRANCH  12  13
ATOM     13  C   UNL     1      55.905  82.552  33.043  1.00  0.00    -0.000 C 
BRANCH  13  14
ATOM     14  C   UNL     1      56.161  84.015  32.635  1.00  0.00    -0.000 C 
BRANCH  14  15
ATOM     15  C   UNL     1      55.245  84.492  31.498  1.00  0.00    -0.000 C 
BRANCH  15  16
ATOM     16  C   UNL     1      56.066  84.934  30.277  1.00  0.00    -0.000 C 
BRANCH  16  17
ATOM     17  C   UNL     1      56.681  83.738  29.520  1.00  0.00    -0.000 C 
BRANCH  17  18
ATOM     18  C   UNL     1      55.637  82.813  28.875  1.00  0.00    -0.003 C 
ATOM     19  C   UNL     1      56.049  81.343  28.886  1.00  0.00     0.004 C 
ENDBRANCH  17  18
ENDBRANCH  16  17
ENDBRANCH  15  16
ENDBRANCH  14  15
ENDBRANCH  13  14
ENDBRANCH  12  13
ENDBRANCH   1  12
TORSDOF 14
ENDMDL
