MODEL 1
REMARK VINA RESULT:    -4.103      0.000      0.000
REMARK INTER + INTRA:          -4.752
REMARK INTER:                  -4.583
REMARK INTRA:                  -0.169
REMARK UNBOUND:                -0.169
REMARK SMILES O=C([O-])c1ccccc1C(=O)[O-]
REMARK SMILES IDX 4 1 9 2 5 3 8 4 6 5 7 6 2 7 1 8 3 9 10 10 11 11 12 12
REMARK H PARENT
REMARK Flexibility Score: inf
ROOT
ATOM      1  C   UNL     1      41.308 184.975 173.068  1.00  0.00     0.006 A 
ATOM      2  C   UNL     1      40.909 183.968 172.143  1.00  0.00     0.006 A 
ATOM      3  C   UNL     1      42.481 184.785 173.820  1.00  0.00     0.010 A 
ATOM      4  C   UNL     1      41.662 182.784 172.055  1.00  0.00     0.010 A 
ATOM      5  C   UNL     1      43.225 183.611 173.699  1.00  0.00     0.001 A 
ATOM      6  C   UNL     1      42.811 182.608 172.828  1.00  0.00     0.001 A 
ENDROOT
BRANCH   1   7
ATOM      7  C   UNL     1      40.507 186.193 173.330  1.00  0.00     0.072 C 
ATOM      8  O   UNL     1      40.809 187.292 172.796  1.00  0.00    -0.545 OA
ATOM      9  O   UNL     1      39.366 186.119 174.122  1.00  0.00    -0.545 OA
ENDBRANCH   1   7
BRANCH   2  10
ATOM     10  C   UNL     1      39.769 184.133 171.212  1.00  0.00     0.072 C 
ATOM     11  O   UNL     1      39.963 184.301 169.978  1.00  0.00    -0.545 OA
ATOM     12  O   UNL     1      38.465 184.037 171.682  1.00  0.00    -0.545 OA
ENDBRANCH   2  10
TORSDOF 2
ENDMDL
MODEL 2
REMARK VINA RESULT:    -4.090      0.063      2.879
REMARK INTER + INTRA:          -4.737
REMARK INTER:                  -4.564
REMARK INTRA:                  -0.173
REMARK UNBOUND:                -0.169
REMARK SMILES O=C([O-])c1ccccc1C(=O)[O-]
REMARK SMILES IDX 4 1 9 2 5 3 8 4 6 5 7 6 2 7 1 8 3 9 10 10 11 11 12 12
REMARK H PARENT
REMARK Flexibility Score: inf
ROOT
ATOM      1  C   UNL     1      40.882 183.969 172.139  1.00  0.00     0.006 A 
ATOM      2  C   UNL     1      41.323 184.981 173.039  1.00  0.00     0.006 A 
ATOM      3  C   UNL     1      41.618 182.774 172.042  1.00  0.00     0.010 A 
ATOM      4  C   UNL     1      42.517 184.785 173.756  1.00  0.00     0.010 A 
ATOM      5  C   UNL     1      42.788 182.593 172.780  1.00  0.00     0.001 A 
ATOM      6  C   UNL     1      43.243 183.600 173.626  1.00  0.00     0.001 A 
ENDROOT
BRANCH   1   7
ATOM      7  C   UNL     1      39.717 184.139 171.241  1.00  0.00     0.072 C 
ATOM      8  O   UNL     1      39.874 184.311 170.004  1.00  0.00    -0.545 OA
ATOM      9  O   UNL     1      38.426 184.043 171.750  1.00  0.00    -0.545 OA
ENDBRANCH   1   7
BRANCH   2  10
ATOM     10  C   UNL     1      40.547 186.213 173.311  1.00  0.00     0.072 C 
ATOM     11  O   UNL     1      40.858 187.305 172.766  1.00  0.00    -0.545 OA
ATOM     12  O   UNL     1      39.421 186.162 174.124  1.00  0.00    -0.545 OA
ENDBRANCH   2  10
TORSDOF 2
ENDMDL
MODEL 3
REMARK VINA RESULT:    -3.808      1.829      2.407
REMARK INTER + INTRA:          -4.423
REMARK INTER:                  -4.203
REMARK INTRA:                  -0.219
REMARK UNBOUND:                -0.169
REMARK SMILES O=C([O-])c1ccccc1C(=O)[O-]
REMARK SMILES IDX 4 1 9 2 5 3 8 4 6 5 7 6 2 7 1 8 3 9 10 10 11 11 12 12
REMARK H PARENT
REMARK Flexibility Score: inf
ROOT
ATOM      1  C   UNL     1      39.459 186.094 172.414  1.00  0.00     0.006 A 
ATOM      2  C   UNL     1      39.335 184.985 171.529  1.00  0.00     0.006 A 
ATOM      3  C   UNL     1      40.723 186.404 172.948  1.00  0.00     0.010 A 
ATOM      4  C   UNL     1      40.465 184.191 171.266  1.00  0.00     0.010 A 
ATOM      5  C   UNL     1      41.836 185.615 172.654  1.00  0.00     0.001 A 
ATOM      6  C   UNL     1      41.705 184.504 171.825  1.00  0.00     0.001 A 
ENDROOT
BRANCH   1   7
ATOM      7  C   UNL     1      38.303 186.905 172.860  1.00  0.00     0.072 C 
ATOM      8  O   UNL     1      37.971 187.950 172.242  1.00  0.00    -0.545 OA
ATOM      9  O   UNL     1      37.525 186.480 173.931  1.00  0.00    -0.545 OA
ENDBRANCH   1   7
BRANCH   2  10
ATOM     10  C   UNL     1      38.080 184.661 170.813  1.00  0.00     0.072 C 
ATOM     11  O   UNL     1      37.197 183.941 171.351  1.00  0.00    -0.545 OA
ATOM     12  O   UNL     1      37.833 185.206 169.558  1.00  0.00    -0.545 OA
ENDBRANCH   2  10
TORSDOF 2
ENDMDL
MODEL 4
REMARK VINA RESULT:    -3.792      1.778      3.705
REMARK INTER + INTRA:          -4.404
REMARK INTER:                  -4.177
REMARK INTRA:                  -0.227
REMARK UNBOUND:                -0.169
REMARK SMILES O=C([O-])c1ccccc1C(=O)[O-]
REMARK SMILES IDX 4 1 9 2 5 3 8 4 6 5 7 6 2 7 1 8 3 9 10 10 11 11 12 12
REMARK H PARENT
REMARK Flexibility Score: inf
ROOT
ATOM      1  C   UNL     1      39.354 184.991 171.518  1.00  0.00     0.006 A 
ATOM      2  C   UNL     1      39.520 186.086 172.413  1.00  0.00     0.006 A 
ATOM      3  C   UNL     1      40.449 184.147 171.260  1.00  0.00     0.010 A 
ATOM      4  C   UNL     1      40.792 186.332 172.962  1.00  0.00     0.010 A 
ATOM      5  C   UNL     1      41.695 184.398 171.834  1.00  0.00     0.001 A 
ATOM      6  C   UNL     1      41.870 185.494 172.673  1.00  0.00     0.001 A 
ENDROOT
BRANCH   1   7
ATOM      7  C   UNL     1      38.093 184.732 170.786  1.00  0.00     0.072 C 
ATOM      8  O   UNL     1      37.196 184.001 171.282  1.00  0.00    -0.545 OA
ATOM      9  O   UNL     1      37.857 185.352 169.563  1.00  0.00    -0.545 OA
ENDBRANCH   1   7
BRANCH   2  10
ATOM     10  C   UNL     1      38.399 186.948 172.852  1.00  0.00     0.072 C 
ATOM     11  O   UNL     1      38.140 188.025 172.253  1.00  0.00    -0.545 OA
ATOM     12  O   UNL     1      37.574 186.541 173.894  1.00  0.00    -0.545 OA
ENDBRANCH   2  10
TORSDOF 2
ENDMDL
MODEL 5
REMARK VINA RESULT:    -3.580     23.582     24.591
REMARK INTER + INTRA:          -4.168
REMARK INTER:                  -3.951
REMARK INTRA:                  -0.217
REMARK UNBOUND:                -0.169
REMARK SMILES O=C([O-])c1ccccc1C(=O)[O-]
REMARK SMILES IDX 4 1 9 2 5 3 8 4 6 5 7 6 2 7 1 8 3 9 10 10 11 11 12 12
REMARK H PARENT
REMARK Flexibility Score: inf
ROOT
ATOM      1  C   UNL     1      30.059 171.210 155.012  1.00  0.00     0.006 A 
ATOM      2  C   UNL     1      31.365 171.684 154.700  1.00  0.00     0.006 A 
ATOM      3  C   UNL     1      28.948 172.015 154.704  1.00  0.00     0.010 A 
ATOM      4  C   UNL     1      31.512 172.972 154.154  1.00  0.00     0.010 A 
ATOM      5  C   UNL     1      29.116 173.281 154.141  1.00  0.00     0.001 A 
ATOM      6  C   UNL     1      30.395 173.763 153.877  1.00  0.00     0.001 A 
ENDROOT
BRANCH   1   7
ATOM      7  C   UNL     1      29.812 169.929 155.714  1.00  0.00     0.072 C 
ATOM      8  O   UNL     1      29.652 168.860 155.068  1.00  0.00    -0.545 OA
ATOM      9  O   UNL     1      29.820 169.883 157.103  1.00  0.00    -0.545 OA
ENDBRANCH   1   7
BRANCH   2  10
ATOM     10  C   UNL     1      32.584 170.859 154.861  1.00  0.00     0.072 C 
ATOM     11  O   UNL     1      33.089 170.256 153.877  1.00  0.00    -0.545 OA
ATOM     12  O   UNL     1      33.225 170.795 156.092  1.00  0.00    -0.545 OA
ENDBRANCH   2  10
TORSDOF 2
ENDMDL
MODEL 6
REMARK VINA RESULT:    -3.553      2.352      3.227
REMARK INTER + INTRA:          -4.138
REMARK INTER:                  -3.914
REMARK INTRA:                  -0.224
REMARK UNBOUND:                -0.169
REMARK SMILES O=C([O-])c1ccccc1C(=O)[O-]
REMARK SMILES IDX 4 1 9 2 5 3 8 4 6 5 7 6 2 7 1 8 3 9 10 10 11 11 12 12
REMARK H PARENT
REMARK Flexibility Score: inf
ROOT
ATOM      1  C   UNL     1      38.579 183.662 172.619  1.00  0.00     0.006 A 
ATOM      2  C   UNL     1      39.036 184.314 171.439  1.00  0.00     0.006 A 
ATOM      3  C   UNL     1      39.494 182.923 173.389  1.00  0.00     0.010 A 
ATOM      4  C   UNL     1      40.374 184.145 171.040  1.00  0.00     0.010 A 
ATOM      5  C   UNL     1      40.823 182.788 172.986  1.00  0.00     0.001 A 
ATOM      6  C   UNL     1      41.260 183.387 171.808  1.00  0.00     0.001 A 
ENDROOT
BRANCH   1   7
ATOM      7  C   UNL     1      37.161 183.667 173.046  1.00  0.00     0.072 C 
ATOM      8  O   UNL     1      36.754 184.472 173.924  1.00  0.00    -0.545 OA
ATOM      9  O   UNL     1      36.245 182.823 172.429  1.00  0.00    -0.545 OA
ENDBRANCH   1   7
BRANCH   2  10
ATOM     10  C   UNL     1      38.186 185.223 170.637  1.00  0.00     0.072 C 
ATOM     11  O   UNL     1      37.652 184.830 169.565  1.00  0.00    -0.545 OA
ATOM     12  O   UNL     1      37.910 186.506 171.096  1.00  0.00    -0.545 OA
ENDBRANCH   2  10
TORSDOF 2
ENDMDL
MODEL 7
REMARK VINA RESULT:    -3.519      2.316      3.372
REMARK INTER + INTRA:          -4.100
REMARK INTER:                  -3.894
REMARK INTRA:                  -0.206
REMARK UNBOUND:                -0.169
REMARK SMILES O=C([O-])c1ccccc1C(=O)[O-]
REMARK SMILES IDX 4 1 9 2 5 3 8 4 6 5 7 6 2 7 1 8 3 9 10 10 11 11 12 12
REMARK H PARENT
REMARK Flexibility Score: inf
ROOT
ATOM      1  C   UNL     1      39.085 184.363 171.475  1.00  0.00     0.006 A 
ATOM      2  C   UNL     1      38.598 183.654 172.611  1.00  0.00     0.006 A 
ATOM      3  C   UNL     1      40.449 184.269 171.145  1.00  0.00     0.010 A 
ATOM      4  C   UNL     1      39.506 182.935 173.408  1.00  0.00     0.010 A 
ATOM      5  C   UNL     1      41.327 183.531 171.939  1.00  0.00     0.001 A 
ATOM      6  C   UNL     1      40.860 182.875 173.074  1.00  0.00     0.001 A 
ENDROOT
BRANCH   1   7
ATOM      7  C   UNL     1      38.234 185.256 170.656  1.00  0.00     0.072 C 
ATOM      8  O   UNL     1      37.930 186.409 171.061  1.00  0.00    -0.545 OA
ATOM      9  O   UNL     1      37.816 184.854 169.392  1.00  0.00    -0.545 OA
ENDBRANCH   1   7
BRANCH   2  10
ATOM     10  C   UNL     1      37.161 183.581 172.961  1.00  0.00     0.072 C 
ATOM     11  O   UNL     1      36.671 184.339 173.840  1.00  0.00    -0.545 OA
ATOM     12  O   UNL     1      36.319 182.716 172.272  1.00  0.00    -0.545 OA
ENDBRANCH   2  10
TORSDOF 2
ENDMDL
MODEL 8
REMARK VINA RESULT:    -3.512     22.670     23.691
REMARK INTER + INTRA:          -4.092
REMARK INTER:                  -3.900
REMARK INTRA:                  -0.193
REMARK UNBOUND:                -0.169
REMARK SMILES O=C([O-])c1ccccc1C(=O)[O-]
REMARK SMILES IDX 4 1 9 2 5 3 8 4 6 5 7 6 2 7 1 8 3 9 10 10 11 11 12 12
REMARK H PARENT
REMARK Flexibility Score: inf
ROOT
ATOM      1  C   UNL     1      32.504 169.508 156.827  1.00  0.00     0.006 A 
ATOM      2  C   UNL     1      32.796 170.200 155.617  1.00  0.00     0.006 A 
ATOM      3  C   UNL     1      33.565 169.118 157.664  1.00  0.00     0.010 A 
ATOM      4  C   UNL     1      34.139 170.417 155.261  1.00  0.00     0.010 A 
ATOM      5  C   UNL     1      34.890 169.365 157.301  1.00  0.00     0.001 A 
ATOM      6  C   UNL     1      35.177 170.002 156.097  1.00  0.00     0.001 A 
ENDROOT
BRANCH   1   7
ATOM      7  C   UNL     1      31.132 169.112 157.219  1.00  0.00     0.072 C 
ATOM      8  O   UNL     1      30.679 167.975 156.925  1.00  0.00    -0.545 OA
ATOM      9  O   UNL     1      30.349 169.973 157.980  1.00  0.00    -0.545 OA
ENDBRANCH   1   7
BRANCH   2  10
ATOM     10  C   UNL     1      31.747 170.768 154.739  1.00  0.00     0.072 C 
ATOM     11  O   UNL     1      31.526 172.009 154.716  1.00  0.00    -0.545 OA
ATOM     12  O   UNL     1      31.038 169.942 153.875  1.00  0.00    -0.545 OA
ENDBRANCH   2  10
TORSDOF 2
ENDMDL
MODEL 9
REMARK VINA RESULT:    -3.476     22.654     23.713
REMARK INTER + INTRA:          -4.051
REMARK INTER:                  -3.872
REMARK INTRA:                  -0.179
REMARK UNBOUND:                -0.169
REMARK SMILES O=C([O-])c1ccccc1C(=O)[O-]
REMARK SMILES IDX 4 1 9 2 5 3 8 4 6 5 7 6 2 7 1 8 3 9 10 10 11 11 12 12
REMARK H PARENT
REMARK Flexibility Score: inf
ROOT
ATOM      1  C   UNL     1      32.782 170.236 155.615  1.00  0.00     0.006 A 
ATOM      2  C   UNL     1      32.489 169.514 156.806  1.00  0.00     0.006 A 
ATOM      3  C   UNL     1      34.125 170.491 155.283  1.00  0.00     0.010 A 
ATOM      4  C   UNL     1      33.547 169.133 157.652  1.00  0.00     0.010 A 
ATOM      5  C   UNL     1      35.159 170.084 156.126  1.00  0.00     0.001 A 
ATOM      6  C   UNL     1      34.871 169.417 157.314  1.00  0.00     0.001 A 
ENDROOT
BRANCH   1   7
ATOM      7  C   UNL     1      31.733 170.798 154.733  1.00  0.00     0.072 C 
ATOM      8  O   UNL     1      31.511 172.036 154.702  1.00  0.00    -0.545 OA
ATOM      9  O   UNL     1      31.024 169.964 153.875  1.00  0.00    -0.545 OA
ENDBRANCH   1   7
BRANCH   2  10
ATOM     10  C   UNL     1      31.121 169.080 157.172  1.00  0.00     0.072 C 
ATOM     11  O   UNL     1      30.632 168.019 156.699  1.00  0.00    -0.545 OA
ATOM     12  O   UNL     1      30.384 169.807 158.099  1.00  0.00    -0.545 OA
ENDBRANCH   2  10
TORSDOF 2
ENDMDL
