MODEL 1
REMARK VINA RESULT:    -4.171      0.000      0.000
REMARK INTER + INTRA:          -4.438
REMARK INTER:                  -4.414
REMARK INTRA:                  -0.023
REMARK UNBOUND:                -0.023
REMARK SMILES O=C([O-])c1cccnc1
REMARK SMILES IDX 4 1 5 2 9 3 6 4 8 5 7 6 2 7 1 8 3 9
REMARK H PARENT
REMARK Flexibility Score: inf
ROOT
ATOM      1  C   UNL     1      13.090  34.210  84.889  1.00  0.00     0.016 A 
ATOM      2  C   UNL     1      13.782  35.159  84.119  1.00  0.00     0.013 A 
ATOM      3  C   UNL     1      11.684  34.245  84.887  1.00  0.00     0.120 A 
ATOM      4  C   UNL     1      13.077  36.106  83.375  1.00  0.00     0.021 A 
ATOM      5  N   UNL     1      11.022  35.179  84.154  1.00  0.00    -0.264 NA
ATOM      6  C   UNL     1      11.682  36.101  83.405  1.00  0.00     0.111 A 
ENDROOT
BRANCH   1   7
ATOM      7  C   UNL     1      13.825  33.201  85.681  1.00  0.00     0.073 C 
ATOM      8  O   UNL     1      15.016  32.907  85.397  1.00  0.00    -0.545 OA
ATOM      9  O   UNL     1      13.210  32.561  86.752  1.00  0.00    -0.545 OA
ENDBRANCH   1   7
TORSDOF 1
ENDMDL
MODEL 2
REMARK VINA RESULT:    -4.147      0.919      1.601
REMARK INTER + INTRA:          -4.412
REMARK INTER:                  -4.390
REMARK INTRA:                  -0.023
REMARK UNBOUND:                -0.023
REMARK SMILES O=C([O-])c1cccnc1
REMARK SMILES IDX 4 1 5 2 9 3 6 4 8 5 7 6 2 7 1 8 3 9
REMARK H PARENT
REMARK Flexibility Score: inf
ROOT
ATOM      1  C   UNL     1      13.086  34.190  84.893  1.00  0.00     0.016 A 
ATOM      2  C   UNL     1      11.683  34.251  84.876  1.00  0.00     0.013 A 
ATOM      3  C   UNL     1      13.806  35.122  84.126  1.00  0.00     0.120 A 
ATOM      4  C   UNL     1      11.034  35.221  84.110  1.00  0.00     0.021 A 
ATOM      5  N   UNL     1      13.148  36.056  83.388  1.00  0.00    -0.264 NA
ATOM      6  C   UNL     1      11.791  36.125  83.364  1.00  0.00     0.111 A 
ENDROOT
BRANCH   1   7
ATOM      7  C   UNL     1      13.785  33.167  85.701  1.00  0.00     0.073 C 
ATOM      8  O   UNL     1      14.985  32.871  85.459  1.00  0.00    -0.545 OA
ATOM      9  O   UNL     1      13.126  32.518  86.739  1.00  0.00    -0.545 OA
ENDBRANCH   1   7
TORSDOF 1
ENDMDL
MODEL 3
REMARK VINA RESULT:    -4.008      2.576      3.563
REMARK INTER + INTRA:          -4.265
REMARK INTER:                  -4.243
REMARK INTRA:                  -0.022
REMARK UNBOUND:                -0.023
REMARK SMILES O=C([O-])c1cccnc1
REMARK SMILES IDX 4 1 5 2 9 3 6 4 8 5 7 6 2 7 1 8 3 9
REMARK H PARENT
REMARK Flexibility Score: inf
ROOT
ATOM      1  C   UNL     1      12.462  34.408  84.754  1.00  0.00     0.016 A 
ATOM      2  C   UNL     1      12.838  33.181  85.322  1.00  0.00     0.013 A 
ATOM      3  C   UNL     1      13.444  35.169  84.095  1.00  0.00     0.120 A 
ATOM      4  C   UNL     1      14.159  32.739  85.226  1.00  0.00     0.021 A 
ATOM      5  N   UNL     1      14.724  34.716  84.016  1.00  0.00    -0.264 NA
ATOM      6  C   UNL     1      15.099  33.530  84.562  1.00  0.00     0.111 A 
ENDROOT
BRANCH   1   7
ATOM      7  C   UNL     1      11.066  34.887  84.848  1.00  0.00     0.073 C 
ATOM      8  O   UNL     1      10.608  35.698  84.001  1.00  0.00    -0.545 OA
ATOM      9  O   UNL     1      10.239  34.447  85.876  1.00  0.00    -0.545 OA
ENDBRANCH   1   7
TORSDOF 1
ENDMDL
MODEL 4
REMARK VINA RESULT:    -3.727      2.847      3.603
REMARK INTER + INTRA:          -3.968
REMARK INTER:                  -3.949
REMARK INTRA:                  -0.018
REMARK UNBOUND:                -0.023
REMARK SMILES O=C([O-])c1cccnc1
REMARK SMILES IDX 4 1 5 2 9 3 6 4 8 5 7 6 2 7 1 8 3 9
REMARK H PARENT
REMARK Flexibility Score: inf
ROOT
ATOM      1  C   UNL     1      12.208  34.885  84.432  1.00  0.00     0.016 A 
ATOM      2  C   UNL     1      13.383  35.449  83.911  1.00  0.00     0.013 A 
ATOM      3  C   UNL     1      12.298  33.652  85.102  1.00  0.00     0.120 A 
ATOM      4  C   UNL     1      14.605  34.792  84.066  1.00  0.00     0.021 A 
ATOM      5  N   UNL     1      13.500  33.031  85.238  1.00  0.00    -0.264 NA
ATOM      6  C   UNL     1      14.644  33.569  84.739  1.00  0.00     0.111 A 
ENDROOT
BRANCH   1   7
ATOM      7  C   UNL     1      10.908  35.572  84.275  1.00  0.00     0.073 C 
ATOM      8  O   UNL     1      10.199  35.839  85.282  1.00  0.00    -0.545 OA
ATOM      9  O   UNL     1      10.450  35.933  83.013  1.00  0.00    -0.545 OA
ENDBRANCH   1   7
TORSDOF 1
ENDMDL
MODEL 5
REMARK VINA RESULT:    -2.695      3.523      4.192
REMARK INTER + INTRA:          -2.876
REMARK INTER:                  -2.854
REMARK INTRA:                  -0.022
REMARK UNBOUND:                -0.023
REMARK SMILES O=C([O-])c1cccnc1
REMARK SMILES IDX 4 1 5 2 9 3 6 4 8 5 7 6 2 7 1 8 3 9
REMARK H PARENT
REMARK Flexibility Score: inf
ROOT
ATOM      1  C   UNL     1      11.371  35.621  82.906  1.00  0.00     0.016 A 
ATOM      2  C   UNL     1      12.687  36.074  82.723  1.00  0.00     0.013 A 
ATOM      3  C   UNL     1      11.079  34.860  84.052  1.00  0.00     0.120 A 
ATOM      4  C   UNL     1      13.670  35.770  83.666  1.00  0.00     0.021 A 
ATOM      5  N   UNL     1      12.055  34.577  84.955  1.00  0.00    -0.264 NA
ATOM      6  C   UNL     1      13.332  35.011  84.788  1.00  0.00     0.111 A 
ENDROOT
BRANCH   1   7
ATOM      7  C   UNL     1      10.321  35.937  81.914  1.00  0.00     0.073 C 
ATOM      8  O   UNL     1      10.604  36.041  80.691  1.00  0.00    -0.545 OA
ATOM      9  O   UNL     1       9.004  36.125  82.319  1.00  0.00    -0.545 OA
ENDBRANCH   1   7
TORSDOF 1
ENDMDL
MODEL 6
REMARK VINA RESULT:    -2.607      4.419      5.287
REMARK INTER + INTRA:          -2.782
REMARK INTER:                  -2.762
REMARK INTRA:                  -0.020
REMARK UNBOUND:                -0.023
REMARK SMILES O=C([O-])c1cccnc1
REMARK SMILES IDX 4 1 5 2 9 3 6 4 8 5 7 6 2 7 1 8 3 9
REMARK H PARENT
REMARK Flexibility Score: inf
ROOT
ATOM      1  C   UNL     1       9.868  35.542  81.384  1.00  0.00     0.016 A 
ATOM      2  C   UNL     1      10.137  34.647  80.337  1.00  0.00     0.013 A 
ATOM      3  C   UNL     1       8.579  36.096  81.476  1.00  0.00     0.120 A 
ATOM      4  C   UNL     1       9.137  34.324  79.417  1.00  0.00     0.021 A 
ATOM      5  N   UNL     1       7.624  35.766  80.567  1.00  0.00    -0.264 NA
ATOM      6  C   UNL     1       7.873  34.901  79.549  1.00  0.00     0.111 A 
ENDROOT
BRANCH   1   7
ATOM      7  C   UNL     1      10.918  35.891  82.365  1.00  0.00     0.073 C 
ATOM      8  O   UNL     1      12.096  36.125  81.986  1.00  0.00    -0.545 OA
ATOM      9  O   UNL     1      10.618  35.966  83.721  1.00  0.00    -0.545 OA
ENDBRANCH   1   7
TORSDOF 1
ENDMDL
MODEL 7
REMARK VINA RESULT:    -2.562      4.916      5.939
REMARK INTER + INTRA:          -2.735
REMARK INTER:                  -2.712
REMARK INTRA:                  -0.023
REMARK UNBOUND:                -0.023
REMARK SMILES O=C([O-])c1cccnc1
REMARK SMILES IDX 4 1 5 2 9 3 6 4 8 5 7 6 2 7 1 8 3 9
REMARK H PARENT
REMARK Flexibility Score: inf
ROOT
ATOM      1  C   UNL     1       9.947  35.211  80.750  1.00  0.00     0.016 A 
ATOM      2  C   UNL     1       8.543  35.208  80.739  1.00  0.00     0.013 A 
ATOM      3  C   UNL     1      10.626  34.663  79.647  1.00  0.00     0.120 A 
ATOM      4  C   UNL     1       7.852  34.672  79.652  1.00  0.00     0.021 A 
ATOM      5  N   UNL     1       9.928  34.146  78.600  1.00  0.00    -0.264 NA
ATOM      6  C   UNL     1       8.570  34.138  78.580  1.00  0.00     0.111 A 
ENDROOT
BRANCH   1   7
ATOM      7  C   UNL     1      10.691  35.777  81.896  1.00  0.00     0.073 C 
ATOM      8  O   UNL     1      10.120  35.955  83.005  1.00  0.00    -0.545 OA
ATOM      9  O   UNL     1      12.031  36.122  81.765  1.00  0.00    -0.545 OA
ENDBRANCH   1   7
TORSDOF 1
ENDMDL
MODEL 8
REMARK VINA RESULT:    -2.561      6.401      7.069
REMARK INTER + INTRA:          -2.734
REMARK INTER:                  -2.718
REMARK INTRA:                  -0.016
REMARK UNBOUND:                -0.023
REMARK SMILES O=C([O-])c1cccnc1
REMARK SMILES IDX 4 1 5 2 9 3 6 4 8 5 7 6 2 7 1 8 3 9
REMARK H PARENT
REMARK Flexibility Score: inf
ROOT
ATOM      1  C   UNL     1       9.350  34.946  79.201  1.00  0.00     0.016 A 
ATOM      2  C   UNL     1       9.151  35.143  80.577  1.00  0.00     0.013 A 
ATOM      3  C   UNL     1       8.338  35.357  78.314  1.00  0.00     0.120 A 
ATOM      4  C   UNL     1       7.974  35.734  81.038  1.00  0.00     0.021 A 
ATOM      5  N   UNL     1       7.200  35.929  78.789  1.00  0.00    -0.264 NA
ATOM      6  C   UNL     1       6.998  36.124  80.119  1.00  0.00     0.111 A 
ENDROOT
BRANCH   1   7
ATOM      7  C   UNL     1      10.593  34.322  78.700  1.00  0.00     0.073 C 
ATOM      8  O   UNL     1      10.662  33.075  78.533  1.00  0.00    -0.545 OA
ATOM      9  O   UNL     1      11.705  35.104  78.408  1.00  0.00    -0.545 OA
ENDBRANCH   1   7
TORSDOF 1
ENDMDL
MODEL 9
REMARK VINA RESULT:    -2.554      5.846      6.781
REMARK INTER + INTRA:          -2.726
REMARK INTER:                  -2.709
REMARK INTRA:                  -0.017
REMARK UNBOUND:                -0.023
REMARK SMILES O=C([O-])c1cccnc1
REMARK SMILES IDX 4 1 5 2 9 3 6 4 8 5 7 6 2 7 1 8 3 9
REMARK H PARENT
REMARK Flexibility Score: inf
ROOT
ATOM      1  C   UNL     1       9.832  35.100  79.579  1.00  0.00     0.016 A 
ATOM      2  C   UNL     1       9.447  35.142  80.929  1.00  0.00     0.013 A 
ATOM      3  C   UNL     1      11.105  35.586  79.232  1.00  0.00     0.120 A 
ATOM      4  C   UNL     1      10.320  35.654  81.891  1.00  0.00     0.021 A 
ATOM      5  N   UNL     1      11.936  36.080  80.188  1.00  0.00    -0.264 NA
ATOM      6  C   UNL     1      11.573  36.125  81.497  1.00  0.00     0.111 A 
ENDROOT
BRANCH   1   7
ATOM      7  C   UNL     1       8.917  34.560  78.551  1.00  0.00     0.073 C 
ATOM      8  O   UNL     1       8.668  33.326  78.501  1.00  0.00    -0.545 OA
ATOM      9  O   UNL     1       8.320  35.407  77.625  1.00  0.00    -0.545 OA
ENDBRANCH   1   7
TORSDOF 1
ENDMDL
