MODEL 1
REMARK VINA RESULT:    -6.553      0.000      0.000
REMARK INTER + INTRA:          -7.984
REMARK INTER:                  -7.702
REMARK INTRA:                  -0.282
REMARK UNBOUND:                -0.282
REMARK SMILES O=c1cc(-c2ccc(O)c(O)c2)oc2cc(O)cc(O)c12
REMARK SMILES IDX 4 1 3 2 2 3 1 4 21 5 19 6 18 7 16 8 15 9 14 10 13 11 5 12
REMARK SMILES IDX 6 13 7 14 8 15 12 16 10 17 9 18 11 20 20 22 17 24
REMARK H PARENT 9 19 11 21 20 23 17 25
REMARK Flexibility Score: inf
ROOT
ATOM      1  C   UNL     1      43.779  12.830 -22.604  1.00  0.00     0.138 A 
ATOM      2  C   UNL     1      44.027  12.401 -21.294  1.00  0.00     0.100 A 
ATOM      3  C   UNL     1      44.321  13.339 -20.302  1.00  0.00     0.197 A 
ATOM      4  O   UNL     1      44.485  12.926 -19.125  1.00  0.00    -0.289 OA
ATOM      5  C   UNL     1      44.403  14.712 -20.635  1.00  0.00     0.107 A 
ATOM      6  C   UNL     1      44.729  15.755 -19.717  1.00  0.00     0.134 A 
ATOM      7  C   UNL     1      44.681  17.088 -20.142  1.00  0.00     0.093 A 
ATOM      8  C   UNL     1      44.377  17.414 -21.465  1.00  0.00     0.123 A 
ATOM      9  C   UNL     1      44.106  16.400 -22.382  1.00  0.00     0.094 A 
ATOM     10  C   UNL     1      44.112  15.062 -21.981  1.00  0.00     0.146 A 
ATOM     11  O   UNL     1      43.830  14.128 -22.884  1.00  0.00    -0.456 OA
ENDROOT
BRANCH   1  12
ATOM     12  C   UNL     1      43.465  11.876 -23.697  1.00  0.00     0.021 A 
ATOM     13  C   UNL     1      42.382  10.980 -23.610  1.00  0.00     0.016 A 
ATOM     14  C   UNL     1      42.105  10.100 -24.659  1.00  0.00     0.051 A 
ATOM     15  C   UNL     1      42.895  10.106 -25.815  1.00  0.00     0.157 A 
ATOM     16  C   UNL     1      44.245  11.884 -24.867  1.00  0.00     0.062 A 
ATOM     17  C   UNL     1      43.969  11.003 -25.919  1.00  0.00     0.158 A 
BRANCH  15  18
ATOM     18  O   UNL     1      42.614   9.225 -26.860  1.00  0.00    -0.504 OA
ATOM     19  H   UNL     1      42.857   8.243 -26.806  1.00  0.00     0.293 HD
ENDBRANCH  15  18
BRANCH  17  20
ATOM     20  O   UNL     1      44.772  11.036 -27.059  1.00  0.00    -0.504 OA
ATOM     21  H   UNL     1      45.660  10.551 -27.106  1.00  0.00     0.293 HD
ENDBRANCH  17  20
ENDBRANCH   1  12
BRANCH   6  22
ATOM     22  O   UNL     1      45.125  15.538 -18.393  1.00  0.00    -0.507 OA
ATOM     23  H   UNL     1      44.497  15.426 -17.612  1.00  0.00     0.293 HD
ENDBRANCH   6  22
BRANCH   8  24
ATOM     24  O   UNL     1      44.347  18.743 -21.882  1.00  0.00    -0.508 OA
ATOM     25  H   UNL     1      45.191  19.230 -22.157  1.00  0.00     0.293 HD
ENDBRANCH   8  24
TORSDOF 5
ENDMDL
MODEL 2
REMARK VINA RESULT:    -6.352     12.662     14.041
REMARK INTER + INTRA:          -7.749
REMARK INTER:                  -7.479
REMARK INTRA:                  -0.270
REMARK UNBOUND:                -0.282
REMARK SMILES O=c1cc(-c2ccc(O)c(O)c2)oc2cc(O)cc(O)c12
REMARK SMILES IDX 4 1 3 2 2 3 1 4 21 5 19 6 18 7 16 8 15 9 14 10 13 11 5 12
REMARK SMILES IDX 6 13 7 14 8 15 12 16 10 17 9 18 11 20 20 22 17 24
REMARK H PARENT 9 19 11 21 20 23 17 25
REMARK Flexibility Score: inf
ROOT
ATOM      1  C   UNL     1      30.972  11.976 -22.769  1.00  0.00     0.138 A 
ATOM      2  C   UNL     1      30.996  13.039 -23.682  1.00  0.00     0.100 A 
ATOM      3  C   UNL     1      30.137  14.124 -23.501  1.00  0.00     0.197 A 
ATOM      4  O   UNL     1      30.221  15.088 -24.306  1.00  0.00    -0.289 OA
ATOM      5  C   UNL     1      29.223  14.127 -22.421  1.00  0.00     0.107 A 
ATOM      6  C   UNL     1      28.276  15.161 -22.156  1.00  0.00     0.134 A 
ATOM      7  C   UNL     1      27.492  15.099 -20.998  1.00  0.00     0.093 A 
ATOM      8  C   UNL     1      27.577  14.012 -20.125  1.00  0.00     0.123 A 
ATOM      9  C   UNL     1      28.462  12.972 -20.401  1.00  0.00     0.094 A 
ATOM     10  C   UNL     1      29.284  13.021 -21.530  1.00  0.00     0.146 A 
ATOM     11  O   UNL     1      30.127  12.017 -21.744  1.00  0.00    -0.456 OA
ENDROOT
BRANCH   1  12
ATOM     12  C   UNL     1      31.861  10.796 -22.915  1.00  0.00     0.021 A 
ATOM     13  C   UNL     1      31.649   9.828 -23.916  1.00  0.00     0.016 A 
ATOM     14  C   UNL     1      32.508   8.733 -24.035  1.00  0.00     0.051 A 
ATOM     15  C   UNL     1      33.596   8.589 -23.165  1.00  0.00     0.157 A 
ATOM     16  C   UNL     1      32.965  10.651 -22.055  1.00  0.00     0.062 A 
ATOM     17  C   UNL     1      33.826   9.554 -22.173  1.00  0.00     0.158 A 
BRANCH  15  18
ATOM     18  O   UNL     1      34.450   7.493 -23.288  1.00  0.00    -0.504 OA
ATOM     19  H   UNL     1      34.831   7.214 -24.184  1.00  0.00     0.293 HD
ENDBRANCH  15  18
BRANCH  17  20
ATOM     20  O   UNL     1      34.903   9.441 -21.294  1.00  0.00    -0.504 OA
ATOM     21  H   UNL     1      35.741   8.924 -21.532  1.00  0.00     0.293 HD
ENDBRANCH  17  20
ENDBRANCH   1  12
BRANCH   6  22
ATOM     22  O   UNL     1      28.051  16.252 -23.002  1.00  0.00    -0.507 OA
ATOM     23  H   UNL     1      28.704  16.598 -23.688  1.00  0.00     0.293 HD
ENDBRANCH   6  22
BRANCH   8  24
ATOM     24  O   UNL     1      26.781  13.952 -18.984  1.00  0.00    -0.508 OA
ATOM     25  H   UNL     1      26.266  13.115 -18.741  1.00  0.00     0.293 HD
ENDBRANCH   8  24
TORSDOF 5
ENDMDL
MODEL 3
REMARK VINA RESULT:    -6.348      2.541      7.796
REMARK INTER + INTRA:          -7.744
REMARK INTER:                  -7.464
REMARK INTRA:                  -0.280
REMARK UNBOUND:                -0.282
REMARK SMILES O=c1cc(-c2ccc(O)c(O)c2)oc2cc(O)cc(O)c12
REMARK SMILES IDX 4 1 3 2 2 3 1 4 21 5 19 6 18 7 16 8 15 9 14 10 13 11 5 12
REMARK SMILES IDX 6 13 7 14 8 15 12 16 10 17 9 18 11 20 20 22 17 24
REMARK H PARENT 9 19 11 21 20 23 17 25
REMARK Flexibility Score: inf
ROOT
ATOM      1  C   UNL     1      44.381  15.947 -19.468  1.00  0.00     0.138 A 
ATOM      2  C   UNL     1      44.648  14.659 -18.986  1.00  0.00     0.100 A 
ATOM      3  C   UNL     1      44.500  13.560 -19.834  1.00  0.00     0.197 A 
ATOM      4  O   UNL     1      44.800  12.422 -19.387  1.00  0.00    -0.289 OA
ATOM      5  C   UNL     1      44.047  13.751 -21.161  1.00  0.00     0.107 A 
ATOM      6  C   UNL     1      43.827  12.703 -22.105  1.00  0.00     0.134 A 
ATOM      7  C   UNL     1      43.473  13.023 -23.421  1.00  0.00     0.093 A 
ATOM      8  C   UNL     1      43.275  14.349 -23.813  1.00  0.00     0.123 A 
ATOM      9  C   UNL     1      43.438  15.377 -22.886  1.00  0.00     0.094 A 
ATOM     10  C   UNL     1      43.825  15.092 -21.575  1.00  0.00     0.146 A 
ATOM     11  O   UNL     1      43.988  16.103 -20.728  1.00  0.00    -0.456 OA
ENDROOT
BRANCH   1  12
ATOM     12  C   UNL     1      44.517  17.151 -18.609  1.00  0.00     0.021 A 
ATOM     13  C   UNL     1      45.016  18.367 -19.114  1.00  0.00     0.016 A 
ATOM     14  C   UNL     1      45.125  19.487 -18.285  1.00  0.00     0.051 A 
ATOM     15  C   UNL     1      44.729  19.415 -16.943  1.00  0.00     0.157 A 
ATOM     16  C   UNL     1      44.110  17.092 -17.264  1.00  0.00     0.062 A 
ATOM     17  C   UNL     1      44.217  18.212 -16.432  1.00  0.00     0.158 A 
BRANCH  15  18
ATOM     18  O   UNL     1      44.839  20.535 -16.120  1.00  0.00    -0.504 OA
ATOM     19  H   UNL     1      45.544  20.594 -15.395  1.00  0.00     0.293 HD
ENDBRANCH  15  18
BRANCH  17  20
ATOM     20  O   UNL     1      43.811  18.109 -15.102  1.00  0.00    -0.504 OA
ATOM     21  H   UNL     1      43.045  17.511 -14.818  1.00  0.00     0.293 HD
ENDBRANCH  17  20
ENDBRANCH   1  12
BRANCH   6  22
ATOM     22  O   UNL     1      43.918  11.341 -21.800  1.00  0.00    -0.507 OA
ATOM     23  H   UNL     1      44.362  10.646 -22.381  1.00  0.00     0.293 HD
ENDBRANCH   6  22
BRANCH   8  24
ATOM     24  O   UNL     1      42.908  14.657 -25.122  1.00  0.00    -0.508 OA
ATOM     25  H   UNL     1      41.982  14.449 -25.474  1.00  0.00     0.293 HD
ENDBRANCH   8  24
TORSDOF 5
ENDMDL
MODEL 4
REMARK VINA RESULT:    -6.342     14.634     16.370
REMARK INTER + INTRA:          -7.737
REMARK INTER:                  -7.443
REMARK INTRA:                  -0.294
REMARK UNBOUND:                -0.282
REMARK SMILES O=c1cc(-c2ccc(O)c(O)c2)oc2cc(O)cc(O)c12
REMARK SMILES IDX 4 1 3 2 2 3 1 4 21 5 19 6 18 7 16 8 15 9 14 10 13 11 5 12
REMARK SMILES IDX 6 13 7 14 8 15 12 16 10 17 9 18 11 20 20 22 17 24
REMARK H PARENT 9 19 11 21 20 23 17 25
REMARK Flexibility Score: inf
ROOT
ATOM      1  C   UNL     1      31.557  20.284 -16.013  1.00  0.00     0.138 A 
ATOM      2  C   UNL     1      31.636  21.361 -15.121  1.00  0.00     0.100 A 
ATOM      3  C   UNL     1      31.432  21.145 -13.756  1.00  0.00     0.197 A 
ATOM      4  O   UNL     1      31.565  22.123 -12.975  1.00  0.00    -0.289 OA
ATOM      5  C   UNL     1      31.113  19.848 -13.289  1.00  0.00     0.107 A 
ATOM      6  C   UNL     1      30.851  19.515 -11.927  1.00  0.00     0.134 A 
ATOM      7  C   UNL     1      30.643  18.176 -11.571  1.00  0.00     0.093 A 
ATOM      8  C   UNL     1      30.629  17.167 -12.537  1.00  0.00     0.123 A 
ATOM      9  C   UNL     1      30.833  17.488 -13.877  1.00  0.00     0.094 A 
ATOM     10  C   UNL     1      31.078  18.810 -14.258  1.00  0.00     0.146 A 
ATOM     11  O   UNL     1      31.287  19.069 -15.545  1.00  0.00    -0.456 OA
ENDROOT
BRANCH   1  12
ATOM     12  C   UNL     1      31.760  20.457 -17.473  1.00  0.00     0.021 A 
ATOM     13  C   UNL     1      31.785  19.357 -18.353  1.00  0.00     0.016 A 
ATOM     14  C   UNL     1      31.968  19.551 -19.724  1.00  0.00     0.051 A 
ATOM     15  C   UNL     1      32.121  20.844 -20.242  1.00  0.00     0.157 A 
ATOM     16  C   UNL     1      31.901  21.752 -18.004  1.00  0.00     0.062 A 
ATOM     17  C   UNL     1      32.085  21.948 -19.377  1.00  0.00     0.158 A 
BRANCH  15  18
ATOM     18  O   UNL     1      32.304  21.032 -21.612  1.00  0.00    -0.504 OA
ATOM     19  H   UNL     1      33.180  21.372 -21.988  1.00  0.00     0.293 HD
ENDBRANCH  15  18
BRANCH  17  20
ATOM     20  O   UNL     1      32.229  23.248 -19.862  1.00  0.00    -0.504 OA
ATOM     21  H   UNL     1      31.440  23.792 -20.189  1.00  0.00     0.293 HD
ENDBRANCH  17  20
ENDBRANCH   1  12
BRANCH   6  22
ATOM     22  O   UNL     1      30.762  20.452 -10.893  1.00  0.00    -0.507 OA
ATOM     23  H   UNL     1      31.486  21.107 -10.641  1.00  0.00     0.293 HD
ENDBRANCH   6  22
BRANCH   8  24
ATOM     24  O   UNL     1      30.406  15.840 -12.175  1.00  0.00    -0.508 OA
ATOM     25  H   UNL     1      30.685  15.073 -12.775  1.00  0.00     0.293 HD
ENDBRANCH   8  24
TORSDOF 5
ENDMDL
MODEL 5
REMARK VINA RESULT:    -6.308     14.253     15.005
REMARK INTER + INTRA:          -7.696
REMARK INTER:                  -7.401
REMARK INTRA:                  -0.295
REMARK UNBOUND:                -0.282
REMARK SMILES O=c1cc(-c2ccc(O)c(O)c2)oc2cc(O)cc(O)c12
REMARK SMILES IDX 4 1 3 2 2 3 1 4 21 5 19 6 18 7 16 8 15 9 14 10 13 11 5 12
REMARK SMILES IDX 6 13 7 14 8 15 12 16 10 17 9 18 11 20 20 22 17 24
REMARK H PARENT 9 19 11 21 20 23 17 25
REMARK Flexibility Score: inf
ROOT
ATOM      1  C   UNL     1      30.150  17.428 -18.501  1.00  0.00     0.138 A 
ATOM      2  C   UNL     1      29.966  17.868 -17.184  1.00  0.00     0.100 A 
ATOM      3  C   UNL     1      30.521  19.083 -16.777  1.00  0.00     0.197 A 
ATOM      4  O   UNL     1      30.291  19.477 -15.604  1.00  0.00    -0.289 OA
ATOM      5  C   UNL     1      31.294  19.843 -17.686  1.00  0.00     0.107 A 
ATOM      6  C   UNL     1      31.937  21.079 -17.375  1.00  0.00     0.134 A 
ATOM      7  C   UNL     1      32.593  21.790 -18.387  1.00  0.00     0.093 A 
ATOM      8  C   UNL     1      32.680  21.283 -19.685  1.00  0.00     0.123 A 
ATOM      9  C   UNL     1      32.100  20.053 -19.988  1.00  0.00     0.094 A 
ATOM     10  C   UNL     1      31.408  19.336 -19.008  1.00  0.00     0.146 A 
ATOM     11  O   UNL     1      30.854  18.176 -19.345  1.00  0.00    -0.456 OA
ENDROOT
BRANCH   1  12
ATOM     12  C   UNL     1      29.586  16.144 -18.986  1.00  0.00     0.021 A 
ATOM     13  C   UNL     1      29.777  15.705 -20.310  1.00  0.00     0.016 A 
ATOM     14  C   UNL     1      29.242  14.485 -20.736  1.00  0.00     0.051 A 
ATOM     15  C   UNL     1      28.519  13.680 -19.847  1.00  0.00     0.157 A 
ATOM     16  C   UNL     1      28.870  15.323 -18.096  1.00  0.00     0.062 A 
ATOM     17  C   UNL     1      28.334  14.101 -18.521  1.00  0.00     0.158 A 
BRANCH  15  18
ATOM     18  O   UNL     1      27.988  12.465 -20.277  1.00  0.00    -0.504 OA
ATOM     19  H   UNL     1      26.999  12.260 -20.198  1.00  0.00     0.293 HD
ENDBRANCH  15  18
BRANCH  17  20
ATOM     20  O   UNL     1      27.622  13.321 -17.610  1.00  0.00    -0.504 OA
ATOM     21  H   UNL     1      28.076  12.641 -17.013  1.00  0.00     0.293 HD
ENDBRANCH  17  20
ENDBRANCH   1  12
BRANCH   6  22
ATOM     22  O   UNL     1      31.980  21.639 -16.094  1.00  0.00    -0.507 OA
ATOM     23  H   UNL     1      31.593  22.535 -15.840  1.00  0.00     0.293 HD
ENDBRANCH   6  22
BRANCH   8  24
ATOM     24  O   UNL     1      33.349  21.990 -20.682  1.00  0.00    -0.508 OA
ATOM     25  H   UNL     1      32.847  22.523 -21.381  1.00  0.00     0.293 HD
ENDBRANCH   8  24
TORSDOF 5
ENDMDL
MODEL 6
REMARK VINA RESULT:    -6.271     12.718     13.981
REMARK INTER + INTRA:          -7.653
REMARK INTER:                  -7.359
REMARK INTRA:                  -0.294
REMARK UNBOUND:                -0.282
REMARK SMILES O=c1cc(-c2ccc(O)c(O)c2)oc2cc(O)cc(O)c12
REMARK SMILES IDX 4 1 3 2 2 3 1 4 21 5 19 6 18 7 16 8 15 9 14 10 13 11 5 12
REMARK SMILES IDX 6 13 7 14 8 15 12 16 10 17 9 18 11 20 20 22 17 24
REMARK H PARENT 9 19 11 21 20 23 17 25
REMARK Flexibility Score: inf
ROOT
ATOM      1  C   UNL     1      30.741  12.549 -23.038  1.00  0.00     0.138 A 
ATOM      2  C   UNL     1      30.060  12.870 -24.219  1.00  0.00     0.100 A 
ATOM      3  C   UNL     1      29.279  14.027 -24.275  1.00  0.00     0.197 A 
ATOM      4  O   UNL     1      28.725  14.317 -25.367  1.00  0.00    -0.289 OA
ATOM      5  C   UNL     1      29.153  14.846 -23.127  1.00  0.00     0.107 A 
ATOM      6  C   UNL     1      28.358  16.029 -23.055  1.00  0.00     0.134 A 
ATOM      7  C   UNL     1      28.391  16.812 -21.894  1.00  0.00     0.093 A 
ATOM      8  C   UNL     1      29.142  16.424 -20.783  1.00  0.00     0.123 A 
ATOM      9  C   UNL     1      29.882  15.244 -20.825  1.00  0.00     0.094 A 
ATOM     10  C   UNL     1      29.898  14.460 -21.980  1.00  0.00     0.146 A 
ATOM     11  O   UNL     1      30.632  13.351 -21.984  1.00  0.00    -0.456 OA
ENDROOT
BRANCH   1  12
ATOM     12  C   UNL     1      31.581  11.331 -22.922  1.00  0.00     0.021 A 
ATOM     13  C   UNL     1      32.407  11.105 -21.804  1.00  0.00     0.016 A 
ATOM     14  C   UNL     1      33.180   9.943 -21.718  1.00  0.00     0.051 A 
ATOM     15  C   UNL     1      33.134   8.985 -22.739  1.00  0.00     0.157 A 
ATOM     16  C   UNL     1      31.532  10.357 -23.936  1.00  0.00     0.062 A 
ATOM     17  C   UNL     1      32.305   9.193 -23.852  1.00  0.00     0.158 A 
BRANCH  15  18
ATOM     18  O   UNL     1      33.908   7.828 -22.648  1.00  0.00    -0.504 OA
ATOM     19  H   UNL     1      33.572   7.002 -22.169  1.00  0.00     0.293 HD
ENDBRANCH  15  18
BRANCH  17  20
ATOM     20  O   UNL     1      32.234   8.257 -24.883  1.00  0.00    -0.504 OA
ATOM     21  H   UNL     1      33.061   7.910 -25.353  1.00  0.00     0.293 HD
ENDBRANCH  17  20
ENDBRANCH   1  12
BRANCH   6  22
ATOM     22  O   UNL     1      27.509  16.467 -24.076  1.00  0.00    -0.507 OA
ATOM     23  H   UNL     1      27.642  17.305 -24.621  1.00  0.00     0.293 HD
ENDBRANCH   6  22
BRANCH   8  24
ATOM     24  O   UNL     1      29.155  17.202 -19.627  1.00  0.00    -0.508 OA
ATOM     25  H   UNL     1      29.335  18.198 -19.660  1.00  0.00     0.293 HD
ENDBRANCH   8  24
TORSDOF 5
ENDMDL
MODEL 7
REMARK VINA RESULT:    -6.236     14.370     16.023
REMARK INTER + INTRA:          -7.612
REMARK INTER:                  -7.318
REMARK INTRA:                  -0.294
REMARK UNBOUND:                -0.282
REMARK SMILES O=c1cc(-c2ccc(O)c(O)c2)oc2cc(O)cc(O)c12
REMARK SMILES IDX 4 1 3 2 2 3 1 4 21 5 19 6 18 7 16 8 15 9 14 10 13 11 5 12
REMARK SMILES IDX 6 13 7 14 8 15 12 16 10 17 9 18 11 20 20 22 17 24
REMARK H PARENT 9 19 11 21 20 23 17 25
REMARK Flexibility Score: inf
ROOT
ATOM      1  C   UNL     1      30.892  18.053 -18.587  1.00  0.00     0.138 A 
ATOM      2  C   UNL     1      30.966  17.064 -19.577  1.00  0.00     0.100 A 
ATOM      3  C   UNL     1      30.074  15.990 -19.549  1.00  0.00     0.197 A 
ATOM      4  O   UNL     1      30.130  15.149 -20.483  1.00  0.00    -0.289 OA
ATOM      5  C   UNL     1      29.127  15.889 -18.503  1.00  0.00     0.107 A 
ATOM      6  C   UNL     1      28.190  14.822 -18.352  1.00  0.00     0.134 A 
ATOM      7  C   UNL     1      27.235  14.882 -17.331  1.00  0.00     0.093 A 
ATOM      8  C   UNL     1      27.218  15.941 -16.419  1.00  0.00     0.123 A 
ATOM      9  C   UNL     1      28.159  16.962 -16.527  1.00  0.00     0.094 A 
ATOM     10  C   UNL     1      29.104  16.948 -17.556  1.00  0.00     0.146 A 
ATOM     11  O   UNL     1      29.972  17.952 -17.633  1.00  0.00    -0.456 OA
ENDROOT
BRANCH   1  12
ATOM     12  C   UNL     1      31.817  19.214 -18.566  1.00  0.00     0.021 A 
ATOM     13  C   UNL     1      31.645  20.281 -17.662  1.00  0.00     0.016 A 
ATOM     14  C   UNL     1      32.538  21.356 -17.658  1.00  0.00     0.051 A 
ATOM     15  C   UNL     1      33.620  21.381 -18.547  1.00  0.00     0.157 A 
ATOM     16  C   UNL     1      32.914  19.241 -19.445  1.00  0.00     0.062 A 
ATOM     17  C   UNL     1      33.809  20.317 -19.443  1.00  0.00     0.158 A 
BRANCH  15  18
ATOM     18  O   UNL     1      34.508  22.456 -18.539  1.00  0.00    -0.504 OA
ATOM     19  H   UNL     1      34.293  23.318 -18.052  1.00  0.00     0.293 HD
ENDBRANCH  15  18
BRANCH  17  20
ATOM     20  O   UNL     1      34.879  20.310 -20.337  1.00  0.00    -0.504 OA
ATOM     21  H   UNL     1      35.731  19.795 -20.153  1.00  0.00     0.293 HD
ENDBRANCH  17  20
ENDBRANCH   1  12
BRANCH   6  22
ATOM     22  O   UNL     1      28.169  13.679 -19.157  1.00  0.00    -0.507 OA
ATOM     23  H   UNL     1      27.359  13.101 -19.320  1.00  0.00     0.293 HD
ENDBRANCH   6  22
BRANCH   8  24
ATOM     24  O   UNL     1      26.273  15.983 -15.396  1.00  0.00    -0.508 OA
ATOM     25  H   UNL     1      25.840  16.853 -15.111  1.00  0.00     0.293 HD
ENDBRANCH   8  24
TORSDOF 5
ENDMDL
MODEL 8
REMARK VINA RESULT:    -6.209     12.510     14.062
REMARK INTER + INTRA:          -7.580
REMARK INTER:                  -7.286
REMARK INTRA:                  -0.294
REMARK UNBOUND:                -0.282
REMARK SMILES O=c1cc(-c2ccc(O)c(O)c2)oc2cc(O)cc(O)c12
REMARK SMILES IDX 4 1 3 2 2 3 1 4 21 5 19 6 18 7 16 8 15 9 14 10 13 11 5 12
REMARK SMILES IDX 6 13 7 14 8 15 12 16 10 17 9 18 11 20 20 22 17 24
REMARK H PARENT 9 19 11 21 20 23 17 25
REMARK Flexibility Score: inf
ROOT
ATOM      1  C   UNL     1      30.979  12.063 -23.132  1.00  0.00     0.138 A 
ATOM      2  C   UNL     1      31.063  13.056 -22.148  1.00  0.00     0.100 A 
ATOM      3  C   UNL     1      30.224  14.170 -22.216  1.00  0.00     0.197 A 
ATOM      4  O   UNL     1      30.286  15.016 -21.286  1.00  0.00    -0.289 OA
ATOM      5  C   UNL     1      29.321  14.306 -23.297  1.00  0.00     0.107 A 
ATOM      6  C   UNL     1      28.442  15.414 -23.489  1.00  0.00     0.134 A 
ATOM      7  C   UNL     1      27.522  15.389 -24.545  1.00  0.00     0.093 A 
ATOM      8  C   UNL     1      27.489  14.325 -25.449  1.00  0.00     0.123 A 
ATOM      9  C   UNL     1      28.377  13.262 -25.300  1.00  0.00     0.094 A 
ATOM     10  C   UNL     1      29.283  13.241 -24.236  1.00  0.00     0.146 A 
ATOM     11  O   UNL     1      30.101  12.199 -24.121  1.00  0.00    -0.456 OA
ENDROOT
BRANCH   1  12
ATOM     12  C   UNL     1      31.849  10.861 -23.112  1.00  0.00     0.021 A 
ATOM     13  C   UNL     1      31.641   9.781 -23.992  1.00  0.00     0.016 A 
ATOM     14  C   UNL     1      32.482   8.666 -23.956  1.00  0.00     0.051 A 
ATOM     15  C   UNL     1      33.550   8.613 -23.051  1.00  0.00     0.157 A 
ATOM     16  C   UNL     1      32.932  10.805 -22.215  1.00  0.00     0.062 A 
ATOM     17  C   UNL     1      33.776   9.689 -22.179  1.00  0.00     0.158 A 
BRANCH  15  18
ATOM     18  O   UNL     1      34.386   7.498 -23.019  1.00  0.00    -0.504 OA
ATOM     19  H   UNL     1      34.193   6.673 -23.574  1.00  0.00     0.293 HD
ENDBRANCH  15  18
BRANCH  17  20
ATOM     20  O   UNL     1      34.832   9.669 -21.269  1.00  0.00    -0.504 OA
ATOM     21  H   UNL     1      35.740   9.289 -21.506  1.00  0.00     0.293 HD
ENDBRANCH  17  20
ENDBRANCH   1  12
BRANCH   6  22
ATOM     22  O   UNL     1      28.444  16.564 -22.694  1.00  0.00    -0.507 OA
ATOM     23  H   UNL     1      27.624  17.091 -22.436  1.00  0.00     0.293 HD
ENDBRANCH   6  22
BRANCH   8  24
ATOM     24  O   UNL     1      26.580  14.317 -26.505  1.00  0.00    -0.508 OA
ATOM     25  H   UNL     1      25.800  13.672 -26.528  1.00  0.00     0.293 HD
ENDBRANCH   8  24
TORSDOF 5
ENDMDL
MODEL 9
REMARK VINA RESULT:    -6.142     13.951     15.888
REMARK INTER + INTRA:          -7.501
REMARK INTER:                  -7.207
REMARK INTRA:                  -0.294
REMARK UNBOUND:                -0.282
REMARK SMILES O=c1cc(-c2ccc(O)c(O)c2)oc2cc(O)cc(O)c12
REMARK SMILES IDX 4 1 3 2 2 3 1 4 21 5 19 6 18 7 16 8 15 9 14 10 13 11 5 12
REMARK SMILES IDX 6 13 7 14 8 15 12 16 10 17 9 18 11 20 20 22 17 24
REMARK H PARENT 9 19 11 21 20 23 17 25
REMARK Flexibility Score: inf
ROOT
ATOM      1  C   UNL     1      30.661  17.516 -18.854  1.00  0.00     0.138 A 
ATOM      2  C   UNL     1      29.711  17.197 -17.875  1.00  0.00     0.100 A 
ATOM      3  C   UNL     1      28.915  16.060 -18.028  1.00  0.00     0.197 A 
ATOM      4  O   UNL     1      28.111  15.771 -17.104  1.00  0.00    -0.289 OA
ATOM      5  C   UNL     1      29.047  15.260 -19.187  1.00  0.00     0.107 A 
ATOM      6  C   UNL     1      28.267  14.098 -19.469  1.00  0.00     0.134 A 
ATOM      7  C   UNL     1      28.557  13.330 -20.603  1.00  0.00     0.093 A 
ATOM      8  C   UNL     1      29.560  13.712 -21.497  1.00  0.00     0.123 A 
ATOM      9  C   UNL     1      30.294  14.872 -21.258  1.00  0.00     0.094 A 
ATOM     10  C   UNL     1      30.051  15.641 -20.117  1.00  0.00     0.146 A 
ATOM     11  O   UNL     1      30.787  16.730 -19.919  1.00  0.00    -0.456 OA
ENDROOT
BRANCH   1  12
ATOM     12  C   UNL     1      31.531  18.714 -18.744  1.00  0.00     0.021 A 
ATOM     13  C   UNL     1      32.602  18.934 -19.631  1.00  0.00     0.016 A 
ATOM     14  C   UNL     1      33.399  20.076 -19.509  1.00  0.00     0.051 A 
ATOM     15  C   UNL     1      33.134  21.021 -18.510  1.00  0.00     0.157 A 
ATOM     16  C   UNL     1      31.264  19.674 -17.752  1.00  0.00     0.062 A 
ATOM     17  C   UNL     1      32.060  20.818 -17.629  1.00  0.00     0.158 A 
BRANCH  15  18
ATOM     18  O   UNL     1      33.931  22.158 -18.392  1.00  0.00    -0.504 OA
ATOM     19  H   UNL     1      34.829  22.131 -17.924  1.00  0.00     0.293 HD
ENDBRANCH  15  18
BRANCH  17  20
ATOM     20  O   UNL     1      31.768  21.742 -16.625  1.00  0.00    -0.504 OA
ATOM     21  H   UNL     1      32.237  22.638 -16.565  1.00  0.00     0.293 HD
ENDBRANCH  17  20
ENDBRANCH   1  12
BRANCH   6  22
ATOM     22  O   UNL     1      27.190  13.669 -18.687  1.00  0.00    -0.507 OA
ATOM     23  H   UNL     1      26.357  13.225 -19.042  1.00  0.00     0.293 HD
ENDBRANCH   6  22
BRANCH   8  24
ATOM     24  O   UNL     1      29.831  12.949 -22.631  1.00  0.00    -0.508 OA
ATOM     25  H   UNL     1      30.759  12.591 -22.819  1.00  0.00     0.293 HD
ENDBRANCH   8  24
TORSDOF 5
ENDMDL
