MODEL 1
REMARK VINA RESULT:    -7.300      0.000      0.000
REMARK INTER + INTRA:          -9.678
REMARK INTER:                  -9.220
REMARK INTRA:                  -0.457
REMARK UNBOUND:                -0.457
REMARK SMILES O=C(C=Cc1ccc(O)cc1)c1ccc(O)cc1O
REMARK SMILES IDX 4 1 3 2 5 3 6 4 7 5 8 6 11 7 10 8 9 9 2 11 1 12 12 13 18 14
REMARK SMILES IDX 13 15 17 16 14 17 15 18 19 19 16 21
REMARK H PARENT 9 10 19 20 16 22
REMARK Flexibility Score: inf
ROOT
ATOM      1  C   UNL     1      -9.999  -1.730 -10.399  1.00  0.00     0.012 C 
ATOM      2  C   UNL     1     -10.878  -0.752 -10.670  1.00  0.00     0.053 C 
ENDROOT
BRANCH   1   3
ATOM      3  C   UNL     1     -10.199  -2.815  -9.418  1.00  0.00    -0.025 A 
ATOM      4  C   UNL     1     -10.170  -4.149  -9.852  1.00  0.00     0.012 A 
ATOM      5  C   UNL     1     -10.306  -5.193  -8.932  1.00  0.00     0.047 A 
ATOM      6  C   UNL     1     -10.449  -4.914  -7.566  1.00  0.00     0.115 A 
ATOM      7  C   UNL     1     -10.311  -2.540  -8.044  1.00  0.00     0.012 A 
ATOM      8  C   UNL     1     -10.448  -3.586  -7.126  1.00  0.00     0.047 A 
BRANCH   6   9
ATOM      9  O   UNL     1     -10.586  -5.945  -6.640  1.00  0.00    -0.508 OA
ATOM     10  H   UNL     1     -11.351  -5.960  -5.975  1.00  0.00     0.293 HD
ENDBRANCH   6   9
ENDBRANCH   1   3
BRANCH   2  11
ATOM     11  C   UNL     1     -12.274  -0.681 -10.169  1.00  0.00     0.189 C 
ATOM     12  O   UNL     1     -12.995  -1.713 -10.121  1.00  0.00    -0.289 OA
BRANCH  11  13
ATOM     13  C   UNL     1     -12.851   0.605  -9.724  1.00  0.00     0.064 A 
ATOM     14  C   UNL     1     -14.239   0.853  -9.765  1.00  0.00     0.130 A 
ATOM     15  C   UNL     1     -11.992   1.596  -9.218  1.00  0.00     0.020 A 
ATOM     16  C   UNL     1     -14.739   2.094  -9.344  1.00  0.00     0.093 A 
ATOM     17  C   UNL     1     -12.499   2.827  -8.795  1.00  0.00     0.047 A 
ATOM     18  C   UNL     1     -13.874   3.081  -8.862  1.00  0.00     0.119 A 
BRANCH  14  19
ATOM     19  O   UNL     1     -15.123  -0.138 -10.193  1.00  0.00    -0.507 OA
ATOM     20  H   UNL     1     -15.052  -1.093  -9.863  1.00  0.00     0.293 HD
ENDBRANCH  14  19
BRANCH  18  21
ATOM     21  O   UNL     1     -14.391   4.306  -8.446  1.00  0.00    -0.508 OA
ATOM     22  H   UNL     1     -14.247   4.649  -7.504  1.00  0.00     0.293 HD
ENDBRANCH  18  21
ENDBRANCH  11  13
ENDBRANCH   2  11
TORSDOF 6
ENDMDL
MODEL 2
REMARK VINA RESULT:    -6.420     17.100     19.352
REMARK INTER + INTRA:          -8.567
REMARK INTER:                  -8.492
REMARK INTRA:                  -0.075
REMARK UNBOUND:                -0.457
REMARK SMILES O=C(C=Cc1ccc(O)cc1)c1ccc(O)cc1O
REMARK SMILES IDX 4 1 3 2 5 3 6 4 7 5 8 6 11 7 10 8 9 9 2 11 1 12 12 13 18 14
REMARK SMILES IDX 13 15 17 16 14 17 15 18 19 19 16 21
REMARK H PARENT 9 10 19 20 16 22
REMARK Flexibility Score: inf
ROOT
ATOM      1  C   UNL     1      -8.293   9.349   4.968  1.00  0.00     0.012 C 
ATOM      2  C   UNL     1      -8.963   8.195   5.117  1.00  0.00     0.053 C 
ENDROOT
BRANCH   1   3
ATOM      3  C   UNL     1      -7.499  10.020   6.016  1.00  0.00    -0.025 A 
ATOM      4  C   UNL     1      -6.100   9.904   6.001  1.00  0.00     0.012 A 
ATOM      5  C   UNL     1      -5.327  10.575   6.953  1.00  0.00     0.047 A 
ATOM      6  C   UNL     1      -5.943  11.386   7.916  1.00  0.00     0.115 A 
ATOM      7  C   UNL     1      -8.110  10.859   6.964  1.00  0.00     0.012 A 
ATOM      8  C   UNL     1      -7.335  11.528   7.916  1.00  0.00     0.047 A 
BRANCH   6   9
ATOM      9  O   UNL     1      -5.184  12.057   8.871  1.00  0.00    -0.508 OA
ATOM     10  H   UNL     1      -5.060  13.063   8.837  1.00  0.00     0.293 HD
ENDBRANCH   6   9
ENDBRANCH   1   3
BRANCH   2  11
ATOM     11  C   UNL     1      -8.887   7.297   6.296  1.00  0.00     0.189 C 
ATOM     12  O   UNL     1      -8.130   7.569   7.267  1.00  0.00    -0.289 OA
BRANCH  11  13
ATOM     13  C   UNL     1      -9.693   6.058   6.355  1.00  0.00     0.064 A 
ATOM     14  C   UNL     1     -10.059   5.466   7.581  1.00  0.00     0.130 A 
ATOM     15  C   UNL     1     -10.129   5.474   5.153  1.00  0.00     0.020 A 
ATOM     16  C   UNL     1     -10.813   4.282   7.587  1.00  0.00     0.093 A 
ATOM     17  C   UNL     1     -10.884   4.300   5.168  1.00  0.00     0.047 A 
ATOM     18  C   UNL     1     -11.225   3.698   6.385  1.00  0.00     0.119 A 
BRANCH  14  19
ATOM     19  O   UNL     1      -9.703   6.062   8.791  1.00  0.00    -0.507 OA
ATOM     20  H   UNL     1      -8.735   6.143   9.080  1.00  0.00     0.293 HD
ENDBRANCH  14  19
BRANCH  18  21
ATOM     21  O   UNL     1     -11.975   2.525   6.412  1.00  0.00    -0.508 OA
ATOM     22  H   UNL     1     -12.871   2.459   5.944  1.00  0.00     0.293 HD
ENDBRANCH  18  21
ENDBRANCH  11  13
ENDBRANCH   2  11
TORSDOF 6
ENDMDL
MODEL 3
REMARK VINA RESULT:    -6.355      1.288      2.004
REMARK INTER + INTRA:          -8.485
REMARK INTER:                  -8.836
REMARK INTRA:                   0.352
REMARK UNBOUND:                -0.457
REMARK SMILES O=C(C=Cc1ccc(O)cc1)c1ccc(O)cc1O
REMARK SMILES IDX 4 1 3 2 5 3 6 4 7 5 8 6 11 7 10 8 9 9 2 11 1 12 12 13 18 14
REMARK SMILES IDX 13 15 17 16 14 17 15 18 19 19 16 21
REMARK H PARENT 9 10 19 20 16 22
REMARK Flexibility Score: inf
ROOT
ATOM      1  C   UNL     1      -9.861  -2.821  -9.668  1.00  0.00     0.012 C 
ATOM      2  C   UNL     1     -10.692  -1.883 -10.151  1.00  0.00     0.053 C 
ENDROOT
BRANCH   1   3
ATOM      3  C   UNL     1     -10.246  -3.923  -8.763  1.00  0.00    -0.025 A 
ATOM      4  C   UNL     1     -10.237  -5.242  -9.242  1.00  0.00     0.012 A 
ATOM      5  C   UNL     1     -10.547  -6.304  -8.387  1.00  0.00     0.047 A 
ATOM      6  C   UNL     1     -10.847  -6.059  -7.040  1.00  0.00     0.115 A 
ATOM      7  C   UNL     1     -10.516  -3.684  -7.405  1.00  0.00     0.012 A 
ATOM      8  C   UNL     1     -10.827  -4.748  -6.552  1.00  0.00     0.047 A 
BRANCH   6   9
ATOM      9  O   UNL     1     -11.159  -7.108  -6.179  1.00  0.00    -0.508 OA
ATOM     10  H   UNL     1     -12.057  -7.577  -6.220  1.00  0.00     0.293 HD
ENDBRANCH   6   9
ENDBRANCH   1   3
BRANCH   2  11
ATOM     11  C   UNL     1     -12.169  -1.880 -10.010  1.00  0.00     0.189 C 
ATOM     12  O   UNL     1     -12.818  -2.961  -9.991  1.00  0.00    -0.289 OA
BRANCH  11  13
ATOM     13  C   UNL     1     -12.914  -0.608  -9.896  1.00  0.00     0.064 A 
ATOM     14  C   UNL     1     -12.328   0.551  -9.345  1.00  0.00     0.130 A 
ATOM     15  C   UNL     1     -14.233  -0.548 -10.377  1.00  0.00     0.020 A 
ATOM     16  C   UNL     1     -13.079   1.732  -9.245  1.00  0.00     0.093 A 
ATOM     17  C   UNL     1     -14.971   0.634 -10.279  1.00  0.00     0.047 A 
ATOM     18  C   UNL     1     -14.397   1.776  -9.708  1.00  0.00     0.119 A 
BRANCH  14  19
ATOM     19  O   UNL     1     -10.998   0.541  -8.926  1.00  0.00    -0.507 OA
ATOM     20  H   UNL     1     -10.420   1.372  -8.970  1.00  0.00     0.293 HD
ENDBRANCH  14  19
BRANCH  18  21
ATOM     21  O   UNL     1     -15.125   2.959  -9.601  1.00  0.00    -0.508 OA
ATOM     22  H   UNL     1     -15.066   3.681 -10.309  1.00  0.00     0.293 HD
ENDBRANCH  18  21
ENDBRANCH  11  13
ENDBRANCH   2  11
TORSDOF 6
ENDMDL
MODEL 4
REMARK VINA RESULT:    -6.340      1.979      3.345
REMARK INTER + INTRA:          -8.466
REMARK INTER:                  -7.430
REMARK INTRA:                  -1.036
REMARK UNBOUND:                -0.457
REMARK SMILES O=C(C=Cc1ccc(O)cc1)c1ccc(O)cc1O
REMARK SMILES IDX 4 1 3 2 5 3 6 4 7 5 8 6 11 7 10 8 9 9 2 11 1 12 12 13 18 14
REMARK SMILES IDX 13 15 17 16 14 17 15 18 19 19 16 21
REMARK H PARENT 9 10 19 20 16 22
REMARK Flexibility Score: inf
ROOT
ATOM      1  C   UNL     1     -10.340  -4.730  -9.766  1.00  0.00     0.012 C 
ATOM      2  C   UNL     1     -10.112  -3.421  -9.961  1.00  0.00     0.053 C 
ENDROOT
BRANCH   1   3
ATOM      3  C   UNL     1     -10.981  -5.319  -8.574  1.00  0.00    -0.025 A 
ATOM      4  C   UNL     1     -10.243  -5.450  -7.388  1.00  0.00     0.012 A 
ATOM      5  C   UNL     1     -10.847  -5.957  -6.234  1.00  0.00     0.047 A 
ATOM      6  C   UNL     1     -12.202  -6.316  -6.247  1.00  0.00     0.115 A 
ATOM      7  C   UNL     1     -12.347  -5.651  -8.575  1.00  0.00     0.012 A 
ATOM      8  C   UNL     1     -12.949  -6.158  -7.419  1.00  0.00     0.047 A 
BRANCH   6   9
ATOM      9  O   UNL     1     -12.814  -6.824  -5.104  1.00  0.00    -0.508 OA
ATOM     10  H   UNL     1     -12.485  -6.583  -4.176  1.00  0.00     0.293 HD
ENDBRANCH   6   9
ENDBRANCH   1   3
BRANCH   2  11
ATOM     11  C   UNL     1     -10.615  -2.318  -9.106  1.00  0.00     0.189 C 
ATOM     12  O   UNL     1     -10.070  -2.059  -7.999  1.00  0.00    -0.289 OA
BRANCH  11  13
ATOM     13  C   UNL     1     -11.773  -1.502  -9.530  1.00  0.00     0.064 A 
ATOM     14  C   UNL     1     -11.785  -0.098  -9.393  1.00  0.00     0.130 A 
ATOM     15  C   UNL     1     -12.880  -2.144 -10.111  1.00  0.00     0.020 A 
ATOM     16  C   UNL     1     -12.912   0.633  -9.797  1.00  0.00     0.093 A 
ATOM     17  C   UNL     1     -13.995  -1.408 -10.516  1.00  0.00     0.047 A 
ATOM     18  C   UNL     1     -14.016  -0.017 -10.356  1.00  0.00     0.119 A 
BRANCH  14  19
ATOM     19  O   UNL     1     -10.672   0.574  -8.886  1.00  0.00    -0.507 OA
ATOM     20  H   UNL     1     -10.659   0.947  -7.945  1.00  0.00     0.293 HD
ENDBRANCH  14  19
BRANCH  18  21
ATOM     21  O   UNL     1     -15.125   0.727 -10.752  1.00  0.00    -0.508 OA
ATOM     22  H   UNL     1     -15.925   0.290 -11.193  1.00  0.00     0.293 HD
ENDBRANCH  18  21
ENDBRANCH  11  13
ENDBRANCH   2  11
TORSDOF 6
ENDMDL
MODEL 5
REMARK VINA RESULT:    -5.912      1.718      2.870
REMARK INTER + INTRA:          -7.925
REMARK INTER:                  -7.552
REMARK INTRA:                  -0.373
REMARK UNBOUND:                -0.457
REMARK SMILES O=C(C=Cc1ccc(O)cc1)c1ccc(O)cc1O
REMARK SMILES IDX 4 1 3 2 5 3 6 4 7 5 8 6 11 7 10 8 9 9 2 11 1 12 12 13 18 14
REMARK SMILES IDX 13 15 17 16 14 17 15 18 19 19 16 21
REMARK H PARENT 9 10 19 20 16 22
REMARK Flexibility Score: inf
ROOT
ATOM      1  C   UNL     1      -9.544  -4.448  -8.930  1.00  0.00     0.012 C 
ATOM      2  C   UNL     1     -10.119  -3.441  -9.608  1.00  0.00     0.053 C 
ENDROOT
BRANCH   1   3
ATOM      3  C   UNL     1     -10.210  -5.285  -7.912  1.00  0.00    -0.025 A 
ATOM      4  C   UNL     1     -10.589  -4.713  -6.689  1.00  0.00     0.012 A 
ATOM      5  C   UNL     1     -11.268  -5.475  -5.734  1.00  0.00     0.047 A 
ATOM      6  C   UNL     1     -11.594  -6.811  -6.002  1.00  0.00     0.115 A 
ATOM      7  C   UNL     1     -10.567  -6.616  -8.190  1.00  0.00     0.012 A 
ATOM      8  C   UNL     1     -11.245  -7.377  -7.232  1.00  0.00     0.047 A 
BRANCH   6   9
ATOM      9  O   UNL     1     -12.268  -7.582  -5.057  1.00  0.00    -0.508 OA
ATOM     10  H   UNL     1     -12.375  -7.269  -4.098  1.00  0.00     0.293 HD
ENDBRANCH   6   9
ENDBRANCH   1   3
BRANCH   2  11
ATOM     11  C   UNL     1     -11.563  -3.099  -9.591  1.00  0.00     0.189 C 
ATOM     12  O   UNL     1     -12.439  -4.004  -9.553  1.00  0.00    -0.289 OA
BRANCH  11  13
ATOM     13  C   UNL     1     -12.005  -1.689  -9.626  1.00  0.00     0.064 A 
ATOM     14  C   UNL     1     -13.309  -1.327 -10.025  1.00  0.00     0.130 A 
ATOM     15  C   UNL     1     -11.108  -0.686  -9.222  1.00  0.00     0.020 A 
ATOM     16  C   UNL     1     -13.679   0.026 -10.056  1.00  0.00     0.093 A 
ATOM     17  C   UNL     1     -11.487   0.658  -9.249  1.00  0.00     0.047 A 
ATOM     18  C   UNL     1     -12.772   1.018  -9.671  1.00  0.00     0.119 A 
BRANCH  14  19
ATOM     19  O   UNL     1     -14.244  -2.306 -10.362  1.00  0.00    -0.507 OA
ATOM     20  H   UNL     1     -14.476  -3.061  -9.727  1.00  0.00     0.293 HD
ENDBRANCH  14  19
BRANCH  18  21
ATOM     21  O   UNL     1     -13.160   2.355  -9.706  1.00  0.00    -0.508 OA
ATOM     22  H   UNL     1     -12.598   3.057 -10.173  1.00  0.00     0.293 HD
ENDBRANCH  18  21
ENDBRANCH  11  13
ENDBRANCH   2  11
TORSDOF 6
ENDMDL
MODEL 6
REMARK VINA RESULT:    -5.860      4.588      7.533
REMARK INTER + INTRA:          -7.859
REMARK INTER:                  -6.552
REMARK INTRA:                  -1.308
REMARK UNBOUND:                -0.457
REMARK SMILES O=C(C=Cc1ccc(O)cc1)c1ccc(O)cc1O
REMARK SMILES IDX 4 1 3 2 5 3 6 4 7 5 8 6 11 7 10 8 9 9 2 11 1 12 12 13 18 14
REMARK SMILES IDX 13 15 17 16 14 17 15 18 19 19 16 21
REMARK H PARENT 9 10 19 20 16 22
REMARK Flexibility Score: inf
ROOT
ATOM      1  C   UNL     1     -11.048  -4.716  -5.843  1.00  0.00     0.012 C 
ATOM      2  C   UNL     1     -11.218  -5.956  -5.355  1.00  0.00     0.053 C 
ENDROOT
BRANCH   1   3
ATOM      3  C   UNL     1     -10.652  -4.387  -7.226  1.00  0.00    -0.025 A 
ATOM      4  C   UNL     1     -11.631  -3.972  -8.142  1.00  0.00     0.012 A 
ATOM      5  C   UNL     1     -11.269  -3.605  -9.442  1.00  0.00     0.047 A 
ATOM      6  C   UNL     1      -9.923  -3.628  -9.832  1.00  0.00     0.115 A 
ATOM      7  C   UNL     1      -9.300  -4.379  -7.611  1.00  0.00     0.012 A 
ATOM      8  C   UNL     1      -8.942  -4.013  -8.913  1.00  0.00     0.047 A 
BRANCH   6   9
ATOM      9  O   UNL     1      -9.551  -3.268 -11.125  1.00  0.00    -0.508 OA
ATOM     10  H   UNL     1      -8.611  -2.954 -11.336  1.00  0.00     0.293 HD
ENDBRANCH   6   9
ENDBRANCH   1   3
BRANCH   2  11
ATOM     11  C   UNL     1     -11.213  -7.207  -6.151  1.00  0.00     0.189 C 
ATOM     12  O   UNL     1     -10.382  -8.124  -5.908  1.00  0.00    -0.289 OA
BRANCH  11  13
ATOM     13  C   UNL     1     -12.177  -7.404  -7.254  1.00  0.00     0.064 A 
ATOM     14  C   UNL     1     -11.758  -7.548  -8.594  1.00  0.00     0.130 A 
ATOM     15  C   UNL     1     -13.548  -7.478  -6.953  1.00  0.00     0.020 A 
ATOM     16  C   UNL     1     -12.712  -7.719  -9.608  1.00  0.00     0.093 A 
ATOM     17  C   UNL     1     -14.490  -7.655  -7.968  1.00  0.00     0.047 A 
ATOM     18  C   UNL     1     -14.074  -7.771  -9.300  1.00  0.00     0.119 A 
BRANCH  14  19
ATOM     19  O   UNL     1     -10.401  -7.552  -8.914  1.00  0.00    -0.507 OA
ATOM     20  H   UNL     1      -9.902  -8.412  -9.110  1.00  0.00     0.293 HD
ENDBRANCH  14  19
BRANCH  18  21
ATOM     21  O   UNL     1     -15.005  -7.944 -10.322  1.00  0.00    -0.508 OA
ATOM     22  H   UNL     1     -14.719  -8.197 -11.261  1.00  0.00     0.293 HD
ENDBRANCH  18  21
ENDBRANCH  11  13
ENDBRANCH   2  11
TORSDOF 6
ENDMDL
MODEL 7
REMARK VINA RESULT:    -5.770      3.026      5.654
REMARK INTER + INTRA:          -7.746
REMARK INTER:                  -6.675
REMARK INTRA:                  -1.071
REMARK UNBOUND:                -0.457
REMARK SMILES O=C(C=Cc1ccc(O)cc1)c1ccc(O)cc1O
REMARK SMILES IDX 4 1 3 2 5 3 6 4 7 5 8 6 11 7 10 8 9 9 2 11 1 12 12 13 18 14
REMARK SMILES IDX 13 15 17 16 14 17 15 18 19 19 16 21
REMARK H PARENT 9 10 19 20 16 22
REMARK Flexibility Score: inf
ROOT
ATOM      1  C   UNL     1     -11.149  -7.525  -8.805  1.00  0.00     0.012 C 
ATOM      2  C   UNL     1     -10.241  -6.540  -8.892  1.00  0.00     0.053 C 
ENDROOT
BRANCH   1   3
ATOM      3  C   UNL     1     -12.201  -7.633  -7.774  1.00  0.00    -0.025 A 
ATOM      4  C   UNL     1     -11.858  -8.055  -6.481  1.00  0.00     0.012 A 
ATOM      5  C   UNL     1     -12.829  -8.113  -5.478  1.00  0.00     0.047 A 
ATOM      6  C   UNL     1     -14.148  -7.727  -5.751  1.00  0.00     0.115 A 
ATOM      7  C   UNL     1     -13.517  -7.216  -8.036  1.00  0.00     0.012 A 
ATOM      8  C   UNL     1     -14.487  -7.276  -7.031  1.00  0.00     0.047 A 
BRANCH   6   9
ATOM      9  O   UNL     1     -15.125  -7.782  -4.760  1.00  0.00    -0.508 OA
ATOM     10  H   UNL     1     -15.440  -8.666  -4.376  1.00  0.00     0.293 HD
ENDBRANCH   6   9
ENDBRANCH   1   3
BRANCH   2  11
ATOM     11  C   UNL     1     -10.235  -5.295  -8.084  1.00  0.00     0.189 C 
ATOM     12  O   UNL     1      -9.816  -5.300  -6.895  1.00  0.00    -0.289 OA
BRANCH  11  13
ATOM     13  C   UNL     1     -10.726  -4.023  -8.654  1.00  0.00     0.064 A 
ATOM     14  C   UNL     1      -9.941  -2.851  -8.647  1.00  0.00     0.130 A 
ATOM     15  C   UNL     1     -12.001  -3.991  -9.245  1.00  0.00     0.020 A 
ATOM     16  C   UNL     1     -10.456  -1.663  -9.187  1.00  0.00     0.093 A 
ATOM     17  C   UNL     1     -12.503  -2.806  -9.787  1.00  0.00     0.047 A 
ATOM     18  C   UNL     1     -11.733  -1.637  -9.755  1.00  0.00     0.119 A 
BRANCH  14  19
ATOM     19  O   UNL     1      -8.645  -2.870  -8.132  1.00  0.00    -0.507 OA
ATOM     20  H   UNL     1      -8.416  -3.376  -7.285  1.00  0.00     0.293 HD
ENDBRANCH  14  19
BRANCH  18  21
ATOM     21  O   UNL     1     -12.225  -0.448 -10.289  1.00  0.00    -0.508 OA
ATOM     22  H   UNL     1     -11.802  -0.019 -11.103  1.00  0.00     0.293 HD
ENDBRANCH  18  21
ENDBRANCH  11  13
ENDBRANCH   2  11
TORSDOF 6
ENDMDL
MODEL 8
REMARK VINA RESULT:    -5.717     15.882     18.407
REMARK INTER + INTRA:          -7.678
REMARK INTER:                  -7.026
REMARK INTRA:                  -0.652
REMARK UNBOUND:                -0.457
REMARK SMILES O=C(C=Cc1ccc(O)cc1)c1ccc(O)cc1O
REMARK SMILES IDX 4 1 3 2 5 3 6 4 7 5 8 6 11 7 10 8 9 9 2 11 1 12 12 13 18 14
REMARK SMILES IDX 13 15 17 16 14 17 15 18 19 19 16 21
REMARK H PARENT 9 10 19 20 16 22
REMARK Flexibility Score: inf
ROOT
ATOM      1  C   UNL     1     -13.413   9.621   6.473  1.00  0.00     0.012 C 
ATOM      2  C   UNL     1     -12.639   8.740   7.128  1.00  0.00     0.053 C 
ENDROOT
BRANCH   1   3
ATOM      3  C   UNL     1     -13.160  10.138   5.113  1.00  0.00    -0.025 A 
ATOM      4  C   UNL     1     -13.990   9.734   4.057  1.00  0.00     0.012 A 
ATOM      5  C   UNL     1     -13.800  10.253   2.773  1.00  0.00     0.047 A 
ATOM      6  C   UNL     1     -12.792  11.198   2.537  1.00  0.00     0.115 A 
ATOM      7  C   UNL     1     -12.171  11.110   4.880  1.00  0.00     0.012 A 
ATOM      8  C   UNL     1     -11.982  11.626   3.594  1.00  0.00     0.047 A 
BRANCH   6   9
ATOM      9  O   UNL     1     -12.592  11.721   1.262  1.00  0.00    -0.508 OA
ATOM     10  H   UNL     1     -11.690  11.662   0.802  1.00  0.00     0.293 HD
ENDBRANCH   6   9
ENDBRANCH   1   3
BRANCH   2  11
ATOM     11  C   UNL     1     -11.494   7.996   6.549  1.00  0.00     0.189 C 
ATOM     12  O   UNL     1     -10.496   8.609   6.083  1.00  0.00    -0.289 OA
BRANCH  11  13
ATOM     13  C   UNL     1     -11.502   6.519   6.498  1.00  0.00     0.064 A 
ATOM     14  C   UNL     1     -10.583   5.743   7.236  1.00  0.00     0.130 A 
ATOM     15  C   UNL     1     -12.471   5.871   5.713  1.00  0.00     0.020 A 
ATOM     16  C   UNL     1     -10.620   4.344   7.145  1.00  0.00     0.093 A 
ATOM     17  C   UNL     1     -12.505   4.477   5.634  1.00  0.00     0.047 A 
ATOM     18  C   UNL     1     -11.576   3.710   6.346  1.00  0.00     0.119 A 
BRANCH  14  19
ATOM     19  O   UNL     1      -9.656   6.356   8.080  1.00  0.00    -0.507 OA
ATOM     20  H   UNL     1      -9.835   7.261   8.499  1.00  0.00     0.293 HD
ENDBRANCH  14  19
BRANCH  18  21
ATOM     21  O   UNL     1     -11.598   2.319   6.272  1.00  0.00    -0.508 OA
ATOM     22  H   UNL     1     -11.496   1.743   7.099  1.00  0.00     0.293 HD
ENDBRANCH  18  21
ENDBRANCH  11  13
ENDBRANCH   2  11
TORSDOF 6
ENDMDL
MODEL 9
REMARK VINA RESULT:    -5.620     16.375     18.171
REMARK INTER + INTRA:          -7.556
REMARK INTER:                  -6.720
REMARK INTRA:                  -0.836
REMARK UNBOUND:                -0.457
REMARK SMILES O=C(C=Cc1ccc(O)cc1)c1ccc(O)cc1O
REMARK SMILES IDX 4 1 3 2 5 3 6 4 7 5 8 6 11 7 10 8 9 9 2 11 1 12 12 13 18 14
REMARK SMILES IDX 13 15 17 16 14 17 15 18 19 19 16 21
REMARK H PARENT 9 10 19 20 16 22
REMARK Flexibility Score: inf
ROOT
ATOM      1  C   UNL     1     -12.884   7.249   8.354  1.00  0.00     0.012 C 
ATOM      2  C   UNL     1     -12.964   8.430   7.719  1.00  0.00     0.053 C 
ENDROOT
BRANCH   1   3
ATOM      3  C   UNL     1     -12.448   5.977   7.745  1.00  0.00    -0.025 A 
ATOM      4  C   UNL     1     -11.469   5.205   8.389  1.00  0.00     0.012 A 
ATOM      5  C   UNL     1     -11.081   3.972   7.856  1.00  0.00     0.047 A 
ATOM      6  C   UNL     1     -11.683   3.489   6.687  1.00  0.00     0.115 A 
ATOM      7  C   UNL     1     -13.073   5.474   6.590  1.00  0.00     0.012 A 
ATOM      8  C   UNL     1     -12.681   4.242   6.059  1.00  0.00     0.047 A 
BRANCH   6   9
ATOM      9  O   UNL     1     -11.303   2.263   6.145  1.00  0.00    -0.508 OA
ATOM     10  H   UNL     1     -10.840   2.203   5.246  1.00  0.00     0.293 HD
ENDBRANCH   6   9
ENDBRANCH   1   3
BRANCH   2  11
ATOM     11  C   UNL     1     -12.467   8.711   6.349  1.00  0.00     0.189 C 
ATOM     12  O   UNL     1     -13.256   8.726   5.367  1.00  0.00    -0.289 OA
BRANCH  11  13
ATOM     13  C   UNL     1     -11.032   8.972   6.106  1.00  0.00     0.064 A 
ATOM     14  C   UNL     1     -10.537  10.278   5.900  1.00  0.00     0.130 A 
ATOM     15  C   UNL     1     -10.135   7.891   6.110  1.00  0.00     0.020 A 
ATOM     16  C   UNL     1      -9.169  10.475   5.660  1.00  0.00     0.093 A 
ATOM     17  C   UNL     1      -8.774   8.098   5.876  1.00  0.00     0.047 A 
ATOM     18  C   UNL     1      -8.288   9.390   5.645  1.00  0.00     0.119 A 
BRANCH  14  19
ATOM     19  O   UNL     1     -11.393  11.378   5.964  1.00  0.00    -0.507 OA
ATOM     20  H   UNL     1     -11.856  11.643   6.825  1.00  0.00     0.293 HD
ENDBRANCH  14  19
BRANCH  18  21
ATOM     21  O   UNL     1      -6.933   9.608   5.407  1.00  0.00    -0.508 OA
ATOM     22  H   UNL     1      -6.235   9.431   6.120  1.00  0.00     0.293 HD
ENDBRANCH  18  21
ENDBRANCH  11  13
ENDBRANCH   2  11
TORSDOF 6
ENDMDL
