MODEL 1
REMARK VINA RESULT:   168.184      0.000      0.000
REMARK INTER + INTRA:         219.202
REMARK INTER:                 217.344
REMARK INTRA:                   1.858
REMARK UNBOUND:                 1.858
REMARK SMILES C[C@@H]1O[C@H](O[C@H]2CC[C@]3(C)[C@@H](CC[C@]4(C)[C@@H]3C=C[C@]35OC[C@@]6(CCC(C)(C)C[C@H]63)[C@@H](O)C[C@]54C)[C@@]2(C)CO)[C@@H](O)[C@@H](O[C@@H]2O[C@@H](CO)[C@@H](O)[C@@H](O)[C@H]2O)[C@@H]1O
REMARK SMILES IDX 1 1 2 2 54 3 41 4 39 5 4 6 3 7 55 8 42 10 43 11 52 12 44 13
REMARK SMILES IDX 50 14 45 15 48 16 53 17 51 19 46 21 47 22 49 24 5 26 6 27
REMARK SMILES IDX 7 28 35 29 8 30 11 31 36 32 9 33 12 34 10 35 16 36 13 37
REMARK SMILES IDX 14 38 17 39 15 40 33 41 18 42 19 43 32 44 34 45 29 46 20 47
REMARK SMILES IDX 30 48 22 49 28 50 21 51 23 52 25 53 24 54 26 55 27 56 37 57
REMARK SMILES IDX 38 58 31 60 40 62
REMARK H PARENT 55 9 53 18 51 20 47 23 49 25 38 59 31 61 40 63
REMARK Flexibility Score: inf
ROOT
ATOM      1  C   UNL     1       8.283  72.651  -0.335  1.00  0.00     0.041 C 
ATOM      2  C   UNL     1       7.738  71.266   0.267  1.00  0.00     0.150 C 
ATOM      3  C   UNL     1       7.475  70.208  -0.856  1.00  0.00     0.175 C 
ATOM      4  C   UNL     1       8.713  69.604  -1.675  1.00  0.00     0.186 C 
ATOM      5  C   UNL     1       9.947  69.919  -0.328  1.00  0.00     0.202 C 
ATOM      6  C   UNL     1       9.447  70.000   1.355  1.00  0.00     0.282 C 
ATOM      7  O   UNL     1       8.406  70.922   1.501  1.00  0.00    -0.344 OA
ENDROOT
BRANCH   3   8
ATOM      8  O   UNL     1       6.484  70.517  -1.778  1.00  0.00    -0.388 OA
ATOM      9  H   UNL     1       5.927  71.247  -1.514  1.00  0.00     0.211 HD
ENDBRANCH   3   8
BRANCH   4  10
ATOM     10  O   UNL     1       8.260  68.031  -2.135  1.00  0.00    -0.341 OA
BRANCH  10  11
ATOM     11  C   UNL     1       8.272  67.144  -0.901  1.00  0.00     0.282 C 
ATOM     12  C   UNL     1       8.451  66.569   0.693  1.00  0.00     0.202 C 
ATOM     13  O   UNL     1       7.196  66.522  -1.530  1.00  0.00    -0.341 OA
ATOM     14  C   UNL     1       7.685  65.272   0.422  1.00  0.00     0.179 C 
ATOM     15  C   UNL     1       5.936  66.846  -1.024  1.00  0.00     0.178 C 
ATOM     16  C   UNL     1       6.137  65.712  -0.135  1.00  0.00     0.177 C 
BRANCH  12  17
ATOM     17  O   UNL     1       9.720  66.081   1.227  1.00  0.00    -0.385 OA
ATOM     18  H   UNL     1      10.633  66.144   0.601  1.00  0.00     0.211 HD
ENDBRANCH  12  17
BRANCH  14  19
ATOM     19  O   UNL     1       8.485  64.233  -0.114  1.00  0.00    -0.387 OA
ATOM     20  H   UNL     1       9.432  64.351   0.216  1.00  0.00     0.211 HD
ENDBRANCH  14  19
BRANCH  15  21
ATOM     21  C   UNL     1       4.337  67.043  -1.757  1.00  0.00     0.191 C 
BRANCH  21  22
ATOM     22  O   UNL     1       4.328  67.947  -2.927  1.00  0.00    -0.394 OA
ATOM     23  H   UNL     1       3.362  67.875  -2.748  1.00  0.00     0.210 HD
ENDBRANCH  21  22
ENDBRANCH  15  21
BRANCH  16  24
ATOM     24  O   UNL     1       5.115  64.761  -0.322  1.00  0.00    -0.387 OA
ATOM     25  H   UNL     1       4.494  64.751   0.510  1.00  0.00     0.211 HD
ENDBRANCH  16  24
ENDBRANCH  10  11
ENDBRANCH   4  10
BRANCH   6  26
ATOM     26  O   UNL     1      10.267  69.906   2.694  1.00  0.00    -0.346 OA
BRANCH  26  27
ATOM     27  C   UNL     1      10.304  69.063   4.042  1.00  0.00     0.130 C 
ATOM     28  C   UNL     1      11.418  69.861   4.742  1.00  0.00     0.033 C 
ATOM     29  C   UNL     1       9.153  68.834   5.473  1.00  0.00     0.020 C 
ATOM     30  C   UNL     1      11.136  70.628   6.035  1.00  0.00     0.010 C 
ATOM     31  C   UNL     1       8.658  70.518   5.594  1.00  0.00     0.006 C 
ATOM     32  C   UNL     1       8.937  68.813   7.118  1.00  0.00     0.017 C 
ATOM     33  C   UNL     1       9.792  71.423   6.302  1.00  0.00    -0.022 C 
ATOM     34  C   UNL     1       8.206  71.105   4.174  1.00  0.00     0.005 C 
ATOM     35  C   UNL     1       9.882  71.472   7.890  1.00  0.00     0.012 C 
ATOM     36  C   UNL     1       9.410  72.964   5.903  1.00  0.00     0.024 C 
ATOM     37  C   UNL     1       9.105  72.331   3.520  1.00  0.00     0.008 C 
ATOM     38  C   UNL     1       9.781  73.316   4.504  1.00  0.00    -0.017 C 
ATOM     39  C   UNL     1       9.575  74.182   6.869  1.00  0.00    -0.024 C 
ATOM     40  C   UNL     1      11.361  73.257   4.535  1.00  0.00     0.013 C 
ATOM     41  C   UNL     1       9.392  74.806   3.964  1.00  0.00     0.009 C 
ATOM     42  C   UNL     1       9.289  75.455   6.393  1.00  0.00     0.005 C 
ATOM     43  C   UNL     1       9.941  75.855   5.030  1.00  0.00     0.096 C 
ATOM     44  C   UNL     1      10.024  75.003   2.519  1.00  0.00     0.043 C 
ATOM     45  C   UNL     1       7.786  74.863   4.052  1.00  0.00     0.015 C 
ATOM     46  C   UNL     1       9.830  77.286   4.242  1.00  0.00     0.037 C 
ATOM     47  O   UNL     1      11.332  75.795   5.259  1.00  0.00    -0.369 OA
ATOM     48  C   UNL     1      11.147  76.101   2.377  1.00  0.00     0.124 C 
ATOM     49  C   UNL     1      11.181  77.236   3.468  1.00  0.00     0.026 C 
ATOM     50  C   UNL     1       8.682  77.795   3.262  1.00  0.00     0.014 C 
ATOM     51  C   UNL     1      12.046  76.826   4.627  1.00  0.00     0.171 C 
ATOM     52  C   UNL     1      11.622  78.612   2.845  1.00  0.00     0.013 C 
ATOM     53  C   UNL     1       9.157  78.874   2.138  1.00  0.00    -0.035 C 
ATOM     54  C   UNL     1      10.469  79.555   2.551  1.00  0.00     0.007 C 
ATOM     55  C   UNL     1       8.058  79.997   2.069  1.00  0.00     0.011 C 
ATOM     56  C   UNL     1       9.290  78.294   0.696  1.00  0.00     0.011 C 
BRANCH  29  57
ATOM     57  C   UNL     1       9.271  67.016   5.763  1.00  0.00     0.165 C 
BRANCH  57  58
ATOM     58  O   UNL     1       9.408  66.579   7.231  1.00  0.00    -0.396 OA
ATOM     59  H   UNL     1       9.848  67.336   7.808  1.00  0.00     0.210 HD
ENDBRANCH  57  58
ENDBRANCH  29  57
BRANCH  48  60
ATOM     60  O   UNL     1      12.438  75.689   1.989  1.00  0.00    -0.392 OA
ATOM     61  H   UNL     1      12.713  76.131   1.149  1.00  0.00     0.210 HD
ENDBRANCH  48  60
ENDBRANCH  26  27
ENDBRANCH   6  26
BRANCH   5  62
ATOM     62  O   UNL     1      11.325  69.693  -0.518  1.00  0.00    -0.385 OA
ATOM     63  H   UNL     1      11.732  70.529  -0.876  1.00  0.00     0.211 HD
ENDBRANCH   5  62
TORSDOF 14
ENDMDL
