MODEL 1
REMARK VINA RESULT:    -6.989      0.000      0.000
REMARK INTER + INTRA:          -6.989
REMARK INTER:                  -6.989
REMARK INTRA:                   0.000
REMARK UNBOUND:                 0.000
REMARK SMILES C[NH+]1CCN(C2=[NH+]c3ccccc3Oc3ccc(Cl)cc32)CC1
REMARK SMILES IDX 7 1 6 2 21 3 5 4 8 5 9 6 13 7 10 8 12 9 14 10 11 11 15 12
REMARK SMILES IDX 16 13 17 14 18 15 20 16 19 17 4 18 22 19 3 20 23 21 2 22
REMARK SMILES IDX 1 23
REMARK H PARENT 7 24 2 25
REMARK Flexibility Score: inf
ROOT
ATOM      1  N   UNL     1      22.118  10.411  34.308  1.00  0.00    -0.237 N 
ATOM      2  C   UNL     1      21.638  10.380  33.092  1.00  0.00     0.286 C 
ATOM      3  C   UNL     1      20.186  10.469  32.779  1.00  0.00     0.108 A 
ATOM      4  N   UNL     1      22.556  10.306  31.984  1.00  0.00    -0.250 N 
ATOM      5  C   UNL     1      21.383  10.524  35.539  1.00  0.00     0.168 A 
ATOM      6  C   UNL     1      21.992  11.191  36.616  1.00  0.00     0.056 A 
ATOM      7  C   UNL     1      20.176   9.831  35.763  1.00  0.00     0.173 A 
ATOM      8  C   UNL     1      21.410  11.181  37.885  1.00  0.00     0.005 A 
ATOM      9  C   UNL     1      19.618   9.798  37.047  1.00  0.00     0.052 A 
ATOM     10  O   UNL     1      19.497   9.172  34.742  1.00  0.00    -0.452 OA
ATOM     11  C   UNL     1      20.227  10.477  38.103  1.00  0.00     0.004 A 
ATOM     12  C   UNL     1      19.208   9.785  33.527  1.00  0.00     0.143 A 
ATOM     13  C   UNL     1      17.890   9.718  33.060  1.00  0.00     0.049 A 
ATOM     14  C   UNL     1      17.520  10.370  31.884  1.00  0.00     0.024 A 
ATOM     15  C   UNL     1      18.470  11.089  31.158  1.00  0.00     0.042 A 
ATOM     16  C   UNL     1      19.795  11.132  31.599  1.00  0.00     0.041 A 
ATOM     17  Cl  UNL     1      18.009  11.910  29.678  1.00  0.00    -0.084 Cl
ATOM     18  C   UNL     1      23.725  11.186  31.918  1.00  0.00     0.298 C 
ATOM     19  C   UNL     1      22.491   9.174  31.057  1.00  0.00     0.298 C 
ATOM     20  C   UNL     1      23.977  11.603  30.465  1.00  0.00     0.308 C 
ATOM     21  C   UNL     1      22.782   9.652  29.630  1.00  0.00     0.308 C 
ATOM     22  N   UNL     1      24.043  10.421  29.578  1.00  0.00    -0.331 N 
ATOM     23  C   UNL     1      24.319  10.844  28.195  1.00  0.00     0.332 C 
ATOM     24  H   UNL     1      23.159  10.388  34.412  1.00  0.00     0.312 HD
ATOM     25  H   UNL     1      24.834   9.806  29.887  1.00  0.00     0.348 HD
ENDROOT
TORSDOF 0
ENDMDL
MODEL 2
REMARK VINA RESULT:    -6.020      2.764      3.935
REMARK INTER + INTRA:          -6.020
REMARK INTER:                  -6.020
REMARK INTRA:                   0.000
REMARK UNBOUND:                 0.000
REMARK SMILES C[NH+]1CCN(C2=[NH+]c3ccccc3Oc3ccc(Cl)cc32)CC1
REMARK SMILES IDX 7 1 6 2 21 3 5 4 8 5 9 6 13 7 10 8 12 9 14 10 11 11 15 12
REMARK SMILES IDX 16 13 17 14 18 15 20 16 19 17 4 18 22 19 3 20 23 21 2 22
REMARK SMILES IDX 1 23
REMARK H PARENT 7 24 2 25
REMARK Flexibility Score: inf
ROOT
ATOM      1  N   UNL     1      22.880   8.883  32.165  1.00  0.00    -0.237 N 
ATOM      2  C   UNL     1      23.051   9.090  30.885  1.00  0.00     0.286 C 
ATOM      3  C   UNL     1      22.508  10.273  30.165  1.00  0.00     0.108 A 
ATOM      4  N   UNL     1      23.847   8.157  30.130  1.00  0.00    -0.250 N 
ATOM      5  C   UNL     1      22.162   9.706  33.100  1.00  0.00     0.168 A 
ATOM      6  C   UNL     1      22.608   9.741  34.433  1.00  0.00     0.056 A 
ATOM      7  C   UNL     1      20.933  10.316  32.778  1.00  0.00     0.173 A 
ATOM      8  C   UNL     1      21.856  10.376  35.423  1.00  0.00     0.005 A 
ATOM      9  C   UNL     1      20.169  10.921  33.785  1.00  0.00     0.052 A 
ATOM     10  O   UNL     1      20.438  10.350  31.478  1.00  0.00    -0.452 OA
ATOM     11  C   UNL     1      20.631  10.958  35.101  1.00  0.00     0.004 A 
ATOM     12  C   UNL     1      21.212  10.772  30.401  1.00  0.00     0.143 A 
ATOM     13  C   UNL     1      20.667  11.737  29.545  1.00  0.00     0.049 A 
ATOM     14  C   UNL     1      21.417  12.252  28.487  1.00  0.00     0.024 A 
ATOM     15  C   UNL     1      22.718  11.798  28.271  1.00  0.00     0.042 A 
ATOM     16  C   UNL     1      23.257  10.811  29.100  1.00  0.00     0.041 A 
ATOM     17  Cl  UNL     1      23.665  12.443  26.943  1.00  0.00    -0.084 Cl
ATOM     18  C   UNL     1      25.149   7.706  30.628  1.00  0.00     0.298 C 
ATOM     19  C   UNL     1      23.252   7.436  29.002  1.00  0.00     0.298 C 
ATOM     20  C   UNL     1      26.123   7.547  29.455  1.00  0.00     0.308 C 
ATOM     21  C   UNL     1      24.285   7.284  27.880  1.00  0.00     0.308 C 
ATOM     22  N   UNL     1      25.541   6.697  28.394  1.00  0.00    -0.331 N 
ATOM     23  C   UNL     1      26.507   6.531  27.295  1.00  0.00     0.332 C 
ATOM     24  H   UNL     1      23.345   8.042  32.580  1.00  0.00     0.312 HD
ATOM     25  H   UNL     1      25.340   5.747  28.788  1.00  0.00     0.348 HD
ENDROOT
TORSDOF 0
ENDMDL
MODEL 3
REMARK VINA RESULT:    -6.017      2.009      6.026
REMARK INTER + INTRA:          -6.017
REMARK INTER:                  -6.017
REMARK INTRA:                   0.000
REMARK UNBOUND:                 0.000
REMARK SMILES C[NH+]1CCN(C2=[NH+]c3ccccc3Oc3ccc(Cl)cc32)CC1
REMARK SMILES IDX 7 1 6 2 21 3 5 4 8 5 9 6 13 7 10 8 12 9 14 10 11 11 15 12
REMARK SMILES IDX 16 13 17 14 18 15 20 16 19 17 4 18 22 19 3 20 23 21 2 22
REMARK SMILES IDX 1 23
REMARK H PARENT 7 24 2 25
REMARK Flexibility Score: inf
ROOT
ATOM      1  N   UNL     1      22.819   9.031  32.378  1.00  0.00    -0.237 N 
ATOM      2  C   UNL     1      21.706   9.411  32.948  1.00  0.00     0.286 C 
ATOM      3  C   UNL     1      20.538   9.943  32.197  1.00  0.00     0.108 A 
ATOM      4  N   UNL     1      21.572   9.267  34.375  1.00  0.00    -0.250 N 
ATOM      5  C   UNL     1      23.139   9.051  30.976  1.00  0.00     0.168 A 
ATOM      6  C   UNL     1      24.002   8.059  30.477  1.00  0.00     0.056 A 
ATOM      7  C   UNL     1      22.780  10.125  30.137  1.00  0.00     0.173 A 
ATOM      8  C   UNL     1      24.490   8.126  29.171  1.00  0.00     0.005 A 
ATOM      9  C   UNL     1      23.303  10.201  28.839  1.00  0.00     0.052 A 
ATOM     10  O   UNL     1      21.908  11.129  30.546  1.00  0.00    -0.452 OA
ATOM     11  C   UNL     1      24.148   9.202  28.354  1.00  0.00     0.004 A 
ATOM     12  C   UNL     1      20.675  10.849  31.128  1.00  0.00     0.143 A 
ATOM     13  C   UNL     1      19.546  11.491  30.604  1.00  0.00     0.049 A 
ATOM     14  C   UNL     1      18.274  11.202  31.097  1.00  0.00     0.024 A 
ATOM     15  C   UNL     1      18.120  10.273  32.126  1.00  0.00     0.042 A 
ATOM     16  C   UNL     1      19.245   9.653  32.677  1.00  0.00     0.041 A 
ATOM     17  Cl  UNL     1      16.522   9.906  32.748  1.00  0.00    -0.084 Cl
ATOM     18  C   UNL     1      21.943   8.016  35.042  1.00  0.00     0.298 C 
ATOM     19  C   UNL     1      21.331  10.448  35.209  1.00  0.00     0.298 C 
ATOM     20  C   UNL     1      20.967   7.734  36.190  1.00  0.00     0.308 C 
ATOM     21  C   UNL     1      20.376  10.090  36.353  1.00  0.00     0.308 C 
ATOM     22  N   UNL     1      20.855   8.902  37.090  1.00  0.00    -0.331 N 
ATOM     23  C   UNL     1      19.941   8.595  38.203  1.00  0.00     0.332 C 
ATOM     24  H   UNL     1      23.561   8.628  32.996  1.00  0.00     0.312 HD
ATOM     25  H   UNL     1      21.798   9.109  37.500  1.00  0.00     0.348 HD
ENDROOT
TORSDOF 0
ENDMDL
MODEL 4
REMARK VINA RESULT:    -5.980      3.056      5.112
REMARK INTER + INTRA:          -5.980
REMARK INTER:                  -5.980
REMARK INTRA:                   0.000
REMARK UNBOUND:                 0.000
REMARK SMILES C[NH+]1CCN(C2=[NH+]c3ccccc3Oc3ccc(Cl)cc32)CC1
REMARK SMILES IDX 7 1 6 2 21 3 5 4 8 5 9 6 13 7 10 8 12 9 14 10 11 11 15 12
REMARK SMILES IDX 16 13 17 14 18 15 20 16 19 17 4 18 22 19 3 20 23 21 2 22
REMARK SMILES IDX 1 23
REMARK H PARENT 7 24 2 25
REMARK Flexibility Score: inf
ROOT
ATOM      1  N   UNL     1      21.216  11.167  30.471  1.00  0.00    -0.237 N 
ATOM      2  C   UNL     1      22.235  10.824  29.726  1.00  0.00     0.286 C 
ATOM      3  C   UNL     1      22.995   9.559  29.905  1.00  0.00     0.108 A 
ATOM      4  N   UNL     1      22.622  11.687  28.640  1.00  0.00    -0.250 N 
ATOM      5  C   UNL     1      20.647  10.435  31.570  1.00  0.00     0.168 A 
ATOM      6  C   UNL     1      19.266  10.556  31.804  1.00  0.00     0.056 A 
ATOM      7  C   UNL     1      21.442   9.767  32.523  1.00  0.00     0.173 A 
ATOM      8  C   UNL     1      18.685  10.017  32.953  1.00  0.00     0.005 A 
ATOM      9  C   UNL     1      20.855   9.259  33.690  1.00  0.00     0.052 A 
ATOM     10  O   UNL     1      22.810   9.579  32.350  1.00  0.00    -0.452 OA
ATOM     11  C   UNL     1      19.480   9.376  33.901  1.00  0.00     0.004 A 
ATOM     12  C   UNL     1      23.345   9.060  31.175  1.00  0.00     0.143 A 
ATOM     13  C   UNL     1      24.247   7.995  31.285  1.00  0.00     0.049 A 
ATOM     14  C   UNL     1      24.766   7.384  30.143  1.00  0.00     0.024 A 
ATOM     15  C   UNL     1      24.392   7.840  28.879  1.00  0.00     0.042 A 
ATOM     16  C   UNL     1      23.519   8.924  28.761  1.00  0.00     0.041 A 
ATOM     17  Cl  UNL     1      25.042   7.075  27.441  1.00  0.00    -0.084 Cl
ATOM     18  C   UNL     1      21.622  12.218  27.710  1.00  0.00     0.298 C 
ATOM     19  C   UNL     1      23.967  12.266  28.611  1.00  0.00     0.298 C 
ATOM     20  C   UNL     1      22.208  12.270  26.295  1.00  0.00     0.308 C 
ATOM     21  C   UNL     1      24.481  12.318  27.168  1.00  0.00     0.308 C 
ATOM     22  N   UNL     1      23.503  12.985  26.282  1.00  0.00    -0.331 N 
ATOM     23  C   UNL     1      24.029  13.052  24.909  1.00  0.00     0.332 C 
ATOM     24  H   UNL     1      20.724  12.058  30.229  1.00  0.00     0.312 HD
ATOM     25  H   UNL     1      23.353  13.968  26.614  1.00  0.00     0.348 HD
ENDROOT
TORSDOF 0
ENDMDL
MODEL 5
REMARK VINA RESULT:    -5.962      3.473      7.051
REMARK INTER + INTRA:          -5.962
REMARK INTER:                  -5.962
REMARK INTRA:                   0.000
REMARK UNBOUND:                 0.000
REMARK SMILES C[NH+]1CCN(C2=[NH+]c3ccccc3Oc3ccc(Cl)cc32)CC1
REMARK SMILES IDX 7 1 6 2 21 3 5 4 8 5 9 6 13 7 10 8 12 9 14 10 11 11 15 12
REMARK SMILES IDX 16 13 17 14 18 15 20 16 19 17 4 18 22 19 3 20 23 21 2 22
REMARK SMILES IDX 1 23
REMARK H PARENT 7 24 2 25
REMARK Flexibility Score: inf
ROOT
ATOM      1  N   UNL     1      19.942   9.109  35.152  1.00  0.00    -0.237 N 
ATOM      2  C   UNL     1      20.920   9.391  35.973  1.00  0.00     0.286 C 
ATOM      3  C   UNL     1      21.894  10.492  35.745  1.00  0.00     0.108 A 
ATOM      4  N   UNL     1      21.044   8.634  37.193  1.00  0.00    -0.250 N 
ATOM      5  C   UNL     1      19.620   9.764  33.913  1.00  0.00     0.168 A 
ATOM      6  C   UNL     1      18.270   9.823  33.525  1.00  0.00     0.056 A 
ATOM      7  C   UNL     1      20.610  10.171  32.996  1.00  0.00     0.173 A 
ATOM      8  C   UNL     1      17.909  10.284  32.258  1.00  0.00     0.005 A 
ATOM      9  C   UNL     1      20.240  10.600  31.714  1.00  0.00     0.052 A 
ATOM     10  O   UNL     1      21.964  10.171  33.315  1.00  0.00    -0.452 OA
ATOM     11  C   UNL     1      18.895  10.665  31.349  1.00  0.00     0.004 A 
ATOM     12  C   UNL     1      22.452  10.757  34.479  1.00  0.00     0.143 A 
ATOM     13  C   UNL     1      23.525  11.649  34.360  1.00  0.00     0.049 A 
ATOM     14  C   UNL     1      24.015  12.322  35.479  1.00  0.00     0.024 A 
ATOM     15  C   UNL     1      23.441  12.102  36.731  1.00  0.00     0.042 A 
ATOM     16  C   UNL     1      22.393  11.188  36.864  1.00  0.00     0.041 A 
ATOM     17  Cl  UNL     1      24.054  12.947  38.140  1.00  0.00    -0.084 Cl
ATOM     18  C   UNL     1      19.878   8.390  38.046  1.00  0.00     0.298 C 
ATOM     19  C   UNL     1      22.264   7.867  37.456  1.00  0.00     0.298 C 
ATOM     20  C   UNL     1      20.297   8.441  39.519  1.00  0.00     0.308 C 
ATOM     21  C   UNL     1      22.609   7.933  38.948  1.00  0.00     0.308 C 
ATOM     22  N   UNL     1      21.446   7.547  39.776  1.00  0.00    -0.331 N 
ATOM     23  C   UNL     1      21.808   7.586  41.203  1.00  0.00     0.332 C 
ATOM     24  H   UNL     1      19.287   8.343  35.433  1.00  0.00     0.312 HD
ATOM     25  H   UNL     1      21.171   6.561  39.544  1.00  0.00     0.348 HD
ENDROOT
TORSDOF 0
ENDMDL
MODEL 6
REMARK VINA RESULT:    -5.858      3.955      6.783
REMARK INTER + INTRA:          -5.858
REMARK INTER:                  -5.858
REMARK INTRA:                   0.000
REMARK UNBOUND:                 0.000
REMARK SMILES C[NH+]1CCN(C2=[NH+]c3ccccc3Oc3ccc(Cl)cc32)CC1
REMARK SMILES IDX 7 1 6 2 21 3 5 4 8 5 9 6 13 7 10 8 12 9 14 10 11 11 15 12
REMARK SMILES IDX 16 13 17 14 18 15 20 16 19 17 4 18 22 19 3 20 23 21 2 22
REMARK SMILES IDX 1 23
REMARK H PARENT 7 24 2 25
REMARK Flexibility Score: inf
ROOT
ATOM      1  N   UNL     1      20.963   8.368  34.746  1.00  0.00    -0.237 N 
ATOM      2  C   UNL     1      21.392   8.580  35.963  1.00  0.00     0.286 C 
ATOM      3  C   UNL     1      20.936   9.714  36.809  1.00  0.00     0.108 A 
ATOM      4  N   UNL     1      22.321   7.645  36.544  1.00  0.00    -0.250 N 
ATOM      5  C   UNL     1      20.012   9.149  34.002  1.00  0.00     0.168 A 
ATOM      6  C   UNL     1      19.189   8.486  33.075  1.00  0.00     0.056 A 
ATOM      7  C   UNL     1      20.010  10.558  34.027  1.00  0.00     0.173 A 
ATOM      8  C   UNL     1      18.374   9.205  32.199  1.00  0.00     0.005 A 
ATOM      9  C   UNL     1      19.215  11.272  33.121  1.00  0.00     0.052 A 
ATOM     10  O   UNL     1      20.774  11.287  34.934  1.00  0.00    -0.452 OA
ATOM     11  C   UNL     1      18.393  10.599  32.215  1.00  0.00     0.004 A 
ATOM     12  C   UNL     1      20.762  11.016  36.299  1.00  0.00     0.143 A 
ATOM     13  C   UNL     1      20.552  12.088  37.175  1.00  0.00     0.049 A 
ATOM     14  C   UNL     1      20.460  11.874  38.550  1.00  0.00     0.024 A 
ATOM     15  C   UNL     1      20.586  10.583  39.063  1.00  0.00     0.042 A 
ATOM     16  C   UNL     1      20.829   9.512  38.199  1.00  0.00     0.041 A 
ATOM     17  Cl  UNL     1      20.470  10.309  40.792  1.00  0.00    -0.084 Cl
ATOM     18  C   UNL     1      22.084   6.202  36.462  1.00  0.00     0.298 C 
ATOM     19  C   UNL     1      23.643   8.103  36.978  1.00  0.00     0.298 C 
ATOM     20  C   UNL     1      22.541   5.528  37.761  1.00  0.00     0.308 C 
ATOM     21  C   UNL     1      24.053   7.371  38.260  1.00  0.00     0.308 C 
ATOM     22  N   UNL     1      23.931   5.906  38.094  1.00  0.00    -0.331 N 
ATOM     23  C   UNL     1      24.360   5.221  39.325  1.00  0.00     0.332 C 
ATOM     24  H   UNL     1      21.315   7.513  34.256  1.00  0.00     0.312 HD
ATOM     25  H   UNL     1      24.565   5.595  37.319  1.00  0.00     0.348 HD
ENDROOT
TORSDOF 0
ENDMDL
MODEL 7
REMARK VINA RESULT:    -5.855      4.779      8.367
REMARK INTER + INTRA:          -5.855
REMARK INTER:                  -5.855
REMARK INTRA:                   0.000
REMARK UNBOUND:                 0.000
REMARK SMILES C[NH+]1CCN(C2=[NH+]c3ccccc3Oc3ccc(Cl)cc32)CC1
REMARK SMILES IDX 7 1 6 2 21 3 5 4 8 5 9 6 13 7 10 8 12 9 14 10 11 11 15 12
REMARK SMILES IDX 16 13 17 14 18 15 20 16 19 17 4 18 22 19 3 20 23 21 2 22
REMARK SMILES IDX 1 23
REMARK H PARENT 7 24 2 25
REMARK Flexibility Score: inf
ROOT
ATOM      1  N   UNL     1      21.605   7.990  37.306  1.00  0.00    -0.237 N 
ATOM      2  C   UNL     1      21.742   8.405  38.538  1.00  0.00     0.286 C 
ATOM      3  C   UNL     1      21.054   9.606  39.082  1.00  0.00     0.108 A 
ATOM      4  N   UNL     1      22.564   7.641  39.441  1.00  0.00    -0.250 N 
ATOM      5  C   UNL     1      20.806   8.579  36.265  1.00  0.00     0.168 A 
ATOM      6  C   UNL     1      20.243   7.727  35.298  1.00  0.00     0.056 A 
ATOM      7  C   UNL     1      20.729   9.973  36.071  1.00  0.00     0.173 A 
ATOM      8  C   UNL     1      19.609   8.247  34.169  1.00  0.00     0.005 A 
ATOM      9  C   UNL     1      20.121  10.484  34.917  1.00  0.00     0.052 A 
ATOM     10  O   UNL     1      21.235  10.881  36.996  1.00  0.00    -0.452 OA
ATOM     11  C   UNL     1      19.555   9.626  33.973  1.00  0.00     0.004 A 
ATOM     12  C   UNL     1      20.933  10.804  38.352  1.00  0.00     0.143 A 
ATOM     13  C   UNL     1      20.481  11.968  38.986  1.00  0.00     0.049 A 
ATOM     14  C   UNL     1      20.097  11.942  40.327  1.00  0.00     0.024 A 
ATOM     15  C   UNL     1      20.169  10.750  41.049  1.00  0.00     0.042 A 
ATOM     16  C   UNL     1      20.651   9.592  40.433  1.00  0.00     0.041 A 
ATOM     17  Cl  UNL     1      19.686  10.712  42.734  1.00  0.00    -0.084 Cl
ATOM     18  C   UNL     1      22.422   6.185  39.535  1.00  0.00     0.298 C 
ATOM     19  C   UNL     1      23.732   8.262  40.070  1.00  0.00     0.298 C 
ATOM     20  C   UNL     1      22.612   5.741  40.989  1.00  0.00     0.308 C 
ATOM     21  C   UNL     1      23.882   7.752  41.507  1.00  0.00     0.308 C 
ATOM     22  N   UNL     1      23.873   6.274  41.547  1.00  0.00    -0.331 N 
ATOM     23  C   UNL     1      24.050   5.806  42.932  1.00  0.00     0.332 C 
ATOM     24  H   UNL     1      22.099   7.106  37.040  1.00  0.00     0.312 HD
ATOM     25  H   UNL     1      24.678   5.910  40.982  1.00  0.00     0.348 HD
ENDROOT
TORSDOF 0
ENDMDL
MODEL 8
REMARK VINA RESULT:    -5.805      4.192      7.524
REMARK INTER + INTRA:          -5.805
REMARK INTER:                  -5.805
REMARK INTRA:                   0.000
REMARK UNBOUND:                 0.000
REMARK SMILES C[NH+]1CCN(C2=[NH+]c3ccccc3Oc3ccc(Cl)cc32)CC1
REMARK SMILES IDX 7 1 6 2 21 3 5 4 8 5 9 6 13 7 10 8 12 9 14 10 11 11 15 12
REMARK SMILES IDX 16 13 17 14 18 15 20 16 19 17 4 18 22 19 3 20 23 21 2 22
REMARK SMILES IDX 1 23
REMARK H PARENT 7 24 2 25
REMARK Flexibility Score: inf
ROOT
ATOM      1  N   UNL     1      20.308   9.972  36.409  1.00  0.00    -0.237 N 
ATOM      2  C   UNL     1      20.944   9.138  37.190  1.00  0.00     0.286 C 
ATOM      3  C   UNL     1      21.505   7.842  36.725  1.00  0.00     0.108 A 
ATOM      4  N   UNL     1      21.162   9.505  38.566  1.00  0.00    -0.250 N 
ATOM      5  C   UNL     1      20.023   9.819  35.007  1.00  0.00     0.168 A 
ATOM      6  C   UNL     1      19.968  10.976  34.211  1.00  0.00     0.056 A 
ATOM      7  C   UNL     1      19.612   8.590  34.452  1.00  0.00     0.173 A 
ATOM      8  C   UNL     1      19.524  10.914  32.889  1.00  0.00     0.005 A 
ATOM      9  C   UNL     1      19.136   8.544  33.135  1.00  0.00     0.052 A 
ATOM     10  O   UNL     1      19.666   7.397  35.165  1.00  0.00    -0.452 OA
ATOM     11  C   UNL     1      19.100   9.699  32.353  1.00  0.00     0.004 A 
ATOM     12  C   UNL     1      20.810   6.989  35.845  1.00  0.00     0.143 A 
ATOM     13  C   UNL     1      21.275   5.688  35.617  1.00  0.00     0.049 A 
ATOM     14  C   UNL     1      22.455   5.242  36.214  1.00  0.00     0.024 A 
ATOM     15  C   UNL     1      23.176   6.093  37.052  1.00  0.00     0.042 A 
ATOM     16  C   UNL     1      22.700   7.381  37.311  1.00  0.00     0.041 A 
ATOM     17  Cl  UNL     1      24.659   5.536  37.804  1.00  0.00    -0.084 Cl
ATOM     18  C   UNL     1      21.672  10.832  38.917  1.00  0.00     0.298 C 
ATOM     19  C   UNL     1      20.622   8.667  39.639  1.00  0.00     0.298 C 
ATOM     20  C   UNL     1      22.628  10.720  40.110  1.00  0.00     0.308 C 
ATOM     21  C   UNL     1      21.608   8.622  40.811  1.00  0.00     0.308 C 
ATOM     22  N   UNL     1      21.995   9.987  41.229  1.00  0.00    -0.331 N 
ATOM     23  C   UNL     1      22.918   9.921  42.375  1.00  0.00     0.332 C 
ATOM     24  H   UNL     1      19.995  10.878  36.829  1.00  0.00     0.312 HD
ATOM     25  H   UNL     1      21.139  10.507  41.538  1.00  0.00     0.348 HD
ENDROOT
TORSDOF 0
ENDMDL
MODEL 9
REMARK VINA RESULT:    -5.682      3.577      5.693
REMARK INTER + INTRA:          -5.682
REMARK INTER:                  -5.682
REMARK INTRA:                   0.000
REMARK UNBOUND:                 0.000
REMARK SMILES C[NH+]1CCN(C2=[NH+]c3ccccc3Oc3ccc(Cl)cc32)CC1
REMARK SMILES IDX 7 1 6 2 21 3 5 4 8 5 9 6 13 7 10 8 12 9 14 10 11 11 15 12
REMARK SMILES IDX 16 13 17 14 18 15 20 16 19 17 4 18 22 19 3 20 23 21 2 22
REMARK SMILES IDX 1 23
REMARK H PARENT 7 24 2 25
REMARK Flexibility Score: inf
ROOT
ATOM      1  N   UNL     1      21.553  10.561  34.174  1.00  0.00    -0.237 N 
ATOM      2  C   UNL     1      22.285   9.744  34.885  1.00  0.00     0.286 C 
ATOM      3  C   UNL     1      21.949   8.310  35.093  1.00  0.00     0.108 A 
ATOM      4  N   UNL     1      23.511  10.232  35.462  1.00  0.00    -0.250 N 
ATOM      5  C   UNL     1      20.326  10.267  33.484  1.00  0.00     0.168 A 
ATOM      6  C   UNL     1      20.045  10.970  32.300  1.00  0.00     0.056 A 
ATOM      7  C   UNL     1      19.322   9.454  34.047  1.00  0.00     0.173 A 
ATOM      8  C   UNL     1      18.798  10.861  31.681  1.00  0.00     0.005 A 
ATOM      9  C   UNL     1      18.062   9.377  33.437  1.00  0.00     0.052 A 
ATOM     10  O   UNL     1      19.531   8.703  35.200  1.00  0.00    -0.452 OA
ATOM     11  C   UNL     1      17.803  10.071  32.255  1.00  0.00     0.004 A 
ATOM     12  C   UNL     1      20.636   7.871  35.352  1.00  0.00     0.143 A 
ATOM     13  C   UNL     1      20.407   6.552  35.763  1.00  0.00     0.049 A 
ATOM     14  C   UNL     1      21.465   5.648  35.868  1.00  0.00     0.024 A 
ATOM     15  C   UNL     1      22.764   6.059  35.571  1.00  0.00     0.042 A 
ATOM     16  C   UNL     1      23.005   7.382  35.193  1.00  0.00     0.041 A 
ATOM     17  Cl  UNL     1      24.096   4.926  35.701  1.00  0.00    -0.084 Cl
ATOM     18  C   UNL     1      24.461  11.008  34.660  1.00  0.00     0.298 C 
ATOM     19  C   UNL     1      23.697  10.202  36.914  1.00  0.00     0.298 C 
ATOM     20  C   UNL     1      25.894  10.642  35.060  1.00  0.00     0.308 C 
ATOM     21  C   UNL     1      25.155   9.862  37.245  1.00  0.00     0.308 C 
ATOM     22  N   UNL     1      26.083  10.758  36.523  1.00  0.00    -0.331 N 
ATOM     23  C   UNL     1      27.475  10.435  36.879  1.00  0.00     0.332 C 
ATOM     24  H   UNL     1      21.906  11.539  34.054  1.00  0.00     0.312 HD
ATOM     25  H   UNL     1      25.901  11.749  36.814  1.00  0.00     0.348 HD
ENDROOT
TORSDOF 0
ENDMDL
