MODEL 1
REMARK VINA RESULT:    -5.055      0.000      0.000
REMARK INTER + INTRA:          -5.055
REMARK INTER:                  -5.055
REMARK INTRA:                   0.000
REMARK UNBOUND:                 0.000
REMARK SMILES CC(C)=C1CC[C@H](C)CC1=O
REMARK SMILES IDX 8 1 7 2 6 3 5 4 4 5 2 6 1 7 3 8 10 9 11 10 9 11
REMARK H PARENT
REMARK Flexibility Score: inf
ROOT
ATOM      1  C   UNL     1      -3.113  -1.894  15.442  1.00  0.00     0.008 C 
ATOM      2  C   UNL     1      -3.609  -3.321  15.182  1.00  0.00    -0.006 C 
ATOM      3  C   UNL     1      -5.099  -3.450  15.539  1.00  0.00     0.008 C 
ATOM      4  C   UNL     1      -5.587  -4.896  15.381  1.00  0.00     0.039 C 
ATOM      5  C   UNL     1      -5.262  -5.476  14.012  1.00  0.00    -0.006 C 
ATOM      6  C   UNL     1      -6.078  -6.396  13.419  1.00  0.00    -0.070 C 
ATOM      7  C   UNL     1      -7.330  -6.893  14.105  1.00  0.00     0.039 C 
ATOM      8  C   UNL     1      -5.795  -6.937  12.036  1.00  0.00     0.039 C 
ATOM      9  C   UNL     1      -3.952  -5.067  13.420  1.00  0.00     0.159 C 
ATOM     10  O   UNL     1      -3.298  -5.847  12.678  1.00  0.00    -0.295 OA
ATOM     11  C   UNL     1      -3.387  -3.708  13.712  1.00  0.00     0.084 C 
ENDROOT
TORSDOF 0
ENDMDL
MODEL 2
REMARK VINA RESULT:    -4.815     10.455     11.992
REMARK INTER + INTRA:          -4.815
REMARK INTER:                  -4.815
REMARK INTRA:                   0.000
REMARK UNBOUND:                 0.000
REMARK SMILES CC(C)=C1CC[C@H](C)CC1=O
REMARK SMILES IDX 8 1 7 2 6 3 5 4 4 5 2 6 1 7 3 8 10 9 11 10 9 11
REMARK H PARENT
REMARK Flexibility Score: inf
ROOT
ATOM      1  C   UNL     1      -4.000  -9.321   4.922  1.00  0.00     0.008 C 
ATOM      2  C   UNL     1      -3.617  -7.901   4.492  1.00  0.00    -0.006 C 
ATOM      3  C   UNL     1      -2.219  -7.888   3.851  1.00  0.00     0.008 C 
ATOM      4  C   UNL     1      -1.777  -6.460   3.508  1.00  0.00     0.039 C 
ATOM      5  C   UNL     1      -2.808  -5.714   2.673  1.00  0.00    -0.006 C 
ATOM      6  C   UNL     1      -2.434  -4.775   1.756  1.00  0.00    -0.070 C 
ATOM      7  C   UNL     1      -0.980  -4.422   1.542  1.00  0.00     0.039 C 
ATOM      8  C   UNL     1      -3.445  -4.068   0.882  1.00  0.00     0.039 C 
ATOM      9  C   UNL     1      -4.240  -5.987   3.002  1.00  0.00     0.159 C 
ATOM     10  O   UNL     1      -5.122  -5.096   2.874  1.00  0.00    -0.295 OA
ATOM     11  C   UNL     1      -4.651  -7.340   3.504  1.00  0.00     0.084 C 
ENDROOT
TORSDOF 0
ENDMDL
MODEL 3
REMARK VINA RESULT:    -4.790     10.569     11.267
REMARK INTER + INTRA:          -4.790
REMARK INTER:                  -4.790
REMARK INTRA:                   0.000
REMARK UNBOUND:                 0.000
REMARK SMILES CC(C)=C1CC[C@H](C)CC1=O
REMARK SMILES IDX 8 1 7 2 6 3 5 4 4 5 2 6 1 7 3 8 10 9 11 10 9 11
REMARK H PARENT
REMARK Flexibility Score: inf
ROOT
ATOM      1  C   UNL     1      -5.866  -2.347   2.698  1.00  0.00     0.008 C 
ATOM      2  C   UNL     1      -5.268  -3.750   2.547  1.00  0.00    -0.006 C 
ATOM      3  C   UNL     1      -3.774  -3.743   2.909  1.00  0.00     0.008 C 
ATOM      4  C   UNL     1      -3.135  -5.116   2.666  1.00  0.00     0.039 C 
ATOM      5  C   UNL     1      -3.896  -6.244   3.349  1.00  0.00    -0.006 C 
ATOM      6  C   UNL     1      -3.253  -7.354   3.815  1.00  0.00    -0.070 C 
ATOM      7  C   UNL     1      -1.759  -7.519   3.658  1.00  0.00     0.039 C 
ATOM      8  C   UNL     1      -3.990  -8.454   4.544  1.00  0.00     0.039 C 
ATOM      9  C   UNL     1      -5.384  -6.113   3.369  1.00  0.00     0.159 C 
ATOM     10  O   UNL     1      -6.131  -7.126   3.324  1.00  0.00    -0.295 OA
ATOM     11  C   UNL     1      -6.018  -4.754   3.435  1.00  0.00     0.084 C 
ENDROOT
TORSDOF 0
ENDMDL
MODEL 4
REMARK VINA RESULT:    -4.759     15.615     16.628
REMARK INTER + INTRA:          -4.759
REMARK INTER:                  -4.759
REMARK INTRA:                   0.000
REMARK UNBOUND:                 0.000
REMARK SMILES CC(C)=C1CC[C@H](C)CC1=O
REMARK SMILES IDX 8 1 7 2 6 3 5 4 4 5 2 6 1 7 3 8 10 9 11 10 9 11
REMARK H PARENT
REMARK Flexibility Score: inf
ROOT
ATOM      1  C   UNL     1      -2.613   6.993   3.414  1.00  0.00     0.008 C 
ATOM      2  C   UNL     1      -1.627   6.325   2.449  1.00  0.00    -0.006 C 
ATOM      3  C   UNL     1      -0.179   6.682   2.822  1.00  0.00     0.008 C 
ATOM      4  C   UNL     1       0.816   6.106   1.807  1.00  0.00     0.039 C 
ATOM      5  C   UNL     1       0.622   4.613   1.581  1.00  0.00    -0.006 C 
ATOM      6  C   UNL     1       1.676   3.797   1.282  1.00  0.00    -0.070 C 
ATOM      7  C   UNL     1       3.078   4.346   1.144  1.00  0.00     0.039 C 
ATOM      8  C   UNL     1       1.505   2.305   1.112  1.00  0.00     0.039 C 
ATOM      9  C   UNL     1      -0.790   4.126   1.592  1.00  0.00     0.159 C 
ATOM     10  O   UNL     1      -1.153   3.155   0.876  1.00  0.00    -0.295 OA
ATOM     11  C   UNL     1      -1.811   4.800   2.461  1.00  0.00     0.084 C 
ENDROOT
TORSDOF 0
ENDMDL
MODEL 5
REMARK VINA RESULT:    -4.756     15.371     16.565
REMARK INTER + INTRA:          -4.756
REMARK INTER:                  -4.756
REMARK INTRA:                   0.000
REMARK UNBOUND:                 0.000
REMARK SMILES CC(C)=C1CC[C@H](C)CC1=O
REMARK SMILES IDX 8 1 7 2 6 3 5 4 4 5 2 6 1 7 3 8 10 9 11 10 9 11
REMARK H PARENT
REMARK Flexibility Score: inf
ROOT
ATOM      1  C   UNL     1       1.256   1.392   1.384  1.00  0.00     0.008 C 
ATOM      2  C   UNL     1       0.715   2.826   1.344  1.00  0.00    -0.006 C 
ATOM      3  C   UNL     1      -0.623   2.922   2.093  1.00  0.00     0.008 C 
ATOM      4  C   UNL     1      -1.229   4.326   1.976  1.00  0.00     0.039 C 
ATOM      5  C   UNL     1      -0.252   5.419   2.384  1.00  0.00    -0.006 C 
ATOM      6  C   UNL     1      -0.685   6.578   2.961  1.00  0.00    -0.070 C 
ATOM      7  C   UNL     1      -2.155   6.833   3.203  1.00  0.00     0.039 C 
ATOM      8  C   UNL     1       0.280   7.647   3.421  1.00  0.00     0.039 C 
ATOM      9  C   UNL     1       1.177   5.196   2.009  1.00  0.00     0.159 C 
ATOM     10  O   UNL     1       1.938   6.159   1.726  1.00  0.00    -0.295 OA
ATOM     11  C   UNL     1       1.731   3.802   1.957  1.00  0.00     0.084 C 
ENDROOT
TORSDOF 0
ENDMDL
MODEL 6
REMARK VINA RESULT:    -4.754     11.957     13.403
REMARK INTER + INTRA:          -4.754
REMARK INTER:                  -4.754
REMARK INTRA:                   0.000
REMARK UNBOUND:                 0.000
REMARK SMILES CC(C)=C1CC[C@H](C)CC1=O
REMARK SMILES IDX 8 1 7 2 6 3 5 4 4 5 2 6 1 7 3 8 10 9 11 10 9 11
REMARK H PARENT
REMARK Flexibility Score: inf
ROOT
ATOM      1  C   UNL     1       3.127   6.747  18.124  1.00  0.00     0.008 C 
ATOM      2  C   UNL     1       1.963   6.649  19.118  1.00  0.00    -0.006 C 
ATOM      3  C   UNL     1       0.747   7.438  18.607  1.00  0.00     0.008 C 
ATOM      4  C   UNL     1      -0.391   7.435  19.635  1.00  0.00     0.039 C 
ATOM      5  C   UNL     1      -0.758   6.032  20.098  1.00  0.00    -0.006 C 
ATOM      6  C   UNL     1      -2.037   5.713  20.453  1.00  0.00    -0.070 C 
ATOM      7  C   UNL     1      -3.141   6.745  20.420  1.00  0.00     0.039 C 
ATOM      8  C   UNL     1      -2.424   4.310  20.860  1.00  0.00     0.039 C 
ATOM      9  C   UNL     1       0.378   5.073  20.248  1.00  0.00     0.159 C 
ATOM     10  O   UNL     1       0.360   4.169  21.125  1.00  0.00    -0.295 OA
ATOM     11  C   UNL     1       1.576   5.181  19.350  1.00  0.00     0.084 C 
ENDROOT
TORSDOF 0
ENDMDL
MODEL 7
REMARK VINA RESULT:    -4.701     11.055     11.788
REMARK INTER + INTRA:          -4.701
REMARK INTER:                  -4.701
REMARK INTRA:                   0.000
REMARK UNBOUND:                 0.000
REMARK SMILES CC(C)=C1CC[C@H](C)CC1=O
REMARK SMILES IDX 8 1 7 2 6 3 5 4 4 5 2 6 1 7 3 8 10 9 11 10 9 11
REMARK H PARENT
REMARK Flexibility Score: inf
ROOT
ATOM      1  C   UNL     1      -8.039  -5.086   2.175  1.00  0.00     0.008 C 
ATOM      2  C   UNL     1      -6.682  -5.252   2.868  1.00  0.00    -0.006 C 
ATOM      3  C   UNL     1      -6.153  -6.683   2.688  1.00  0.00     0.008 C 
ATOM      4  C   UNL     1      -4.845  -6.896   3.461  1.00  0.00     0.039 C 
ATOM      5  C   UNL     1      -3.797  -5.840   3.136  1.00  0.00    -0.006 C 
ATOM      6  C   UNL     1      -2.464  -6.135   3.157  1.00  0.00    -0.070 C 
ATOM      7  C   UNL     1      -1.970  -7.516   3.521  1.00  0.00     0.039 C 
ATOM      8  C   UNL     1      -1.416  -5.111   2.782  1.00  0.00     0.039 C 
ATOM      9  C   UNL     1      -4.308  -4.455   2.912  1.00  0.00     0.159 C 
ATOM     10  O   UNL     1      -3.623  -3.445   3.227  1.00  0.00    -0.295 OA
ATOM     11  C   UNL     1      -5.666  -4.243   2.310  1.00  0.00     0.084 C 
ENDROOT
TORSDOF 0
ENDMDL
MODEL 8
REMARK VINA RESULT:    -4.689     11.123     11.953
REMARK INTER + INTRA:          -4.689
REMARK INTER:                  -4.689
REMARK INTRA:                   0.000
REMARK UNBOUND:                 0.000
REMARK SMILES CC(C)=C1CC[C@H](C)CC1=O
REMARK SMILES IDX 8 1 7 2 6 3 5 4 4 5 2 6 1 7 3 8 10 9 11 10 9 11
REMARK H PARENT
REMARK Flexibility Score: inf
ROOT
ATOM      1  C   UNL     1      -1.667  -7.399   3.862  1.00  0.00     0.008 C 
ATOM      2  C   UNL     1      -2.834  -6.891   3.007  1.00  0.00    -0.006 C 
ATOM      3  C   UNL     1      -4.176  -7.164   3.705  1.00  0.00     0.008 C 
ATOM      4  C   UNL     1      -5.359  -6.756   2.818  1.00  0.00     0.039 C 
ATOM      5  C   UNL     1      -5.243  -5.324   2.314  1.00  0.00    -0.006 C 
ATOM      6  C   UNL     1      -6.352  -4.559   2.090  1.00  0.00    -0.070 C 
ATOM      7  C   UNL     1      -7.742  -5.107   2.317  1.00  0.00     0.039 C 
ATOM      8  C   UNL     1      -6.248  -3.118   1.643  1.00  0.00     0.039 C 
ATOM      9  C   UNL     1      -3.866  -4.858   1.972  1.00  0.00     0.159 C 
ATOM     10  O   UNL     1      -3.667  -4.025   1.047  1.00  0.00    -0.295 OA
ATOM     11  C   UNL     1      -2.683  -5.388   2.729  1.00  0.00     0.084 C 
ENDROOT
TORSDOF 0
ENDMDL
MODEL 9
REMARK VINA RESULT:    -4.663     15.109     16.416
REMARK INTER + INTRA:          -4.663
REMARK INTER:                  -4.663
REMARK INTRA:                   0.000
REMARK UNBOUND:                 0.000
REMARK SMILES CC(C)=C1CC[C@H](C)CC1=O
REMARK SMILES IDX 8 1 7 2 6 3 5 4 4 5 2 6 1 7 3 8 10 9 11 10 9 11
REMARK H PARENT
REMARK Flexibility Score: inf
ROOT
ATOM      1  C   UNL     1       3.559   4.493   0.875  1.00  0.00     0.008 C 
ATOM      2  C   UNL     1       2.297   4.612   1.737  1.00  0.00    -0.006 C 
ATOM      3  C   UNL     1       1.688   6.018   1.614  1.00  0.00     0.008 C 
ATOM      4  C   UNL     1       0.483   6.186   2.548  1.00  0.00     0.039 C 
ATOM      5  C   UNL     1      -0.552   5.084   2.372  1.00  0.00    -0.006 C 
ATOM      6  C   UNL     1      -1.883   5.323   2.562  1.00  0.00    -0.070 C 
ATOM      7  C   UNL     1      -2.384   6.688   2.975  1.00  0.00     0.039 C 
ATOM      8  C   UNL     1      -2.925   4.251   2.335  1.00  0.00     0.039 C 
ATOM      9  C   UNL     1      -0.015   3.718   2.095  1.00  0.00     0.159 C 
ATOM     10  O   UNL     1      -0.610   2.685   2.505  1.00  0.00    -0.295 OA
ATOM     11  C   UNL     1       1.262   3.554   1.324  1.00  0.00     0.084 C 
ENDROOT
TORSDOF 0
ENDMDL
