MODEL 1
REMARK VINA RESULT:    -3.233      0.000      0.000
REMARK INTER + INTRA:          -4.969
REMARK INTER:                  -4.935
REMARK INTRA:                  -0.035
REMARK UNBOUND:                -0.035
REMARK SMILES CC1=CCC[C@@H](C)C(=O)C[C@H](C(C)C)C(=O)C1
REMARK SMILES IDX 8 1 9 2 6 3 7 4 5 5 4 6 3 7 2 8 1 9 10 11 11 12 15 13 16 14
REMARK SMILES IDX 17 15 12 17 13 18 14 19
REMARK H PARENT
REMARK Flexibility Score: 70.00
ROOT
ATOM      1  C   UNL     1      22.963  48.719  -1.026  1.00  0.00     0.136 C 
ATOM      2  O   UNL     1      24.146  48.559  -1.280  1.00  0.00    -0.299 OA
ENDROOT
BRANCH   1   3
ATOM      3  C   UNL     1      22.180  49.755  -1.813  1.00  0.00     0.053 C 
ATOM      4  C   UNL     1      21.497  49.118  -3.031  1.00  0.00     0.016 C 
BRANCH   3   5
ATOM      5  C   UNL     1      23.077  50.938  -2.230  1.00  0.00     0.015 C 
BRANCH   5   6
ATOM      6  C   UNL     1      22.941  52.131  -1.264  1.00  0.00     0.028 C 
BRANCH   6   7
ATOM      7  C   UNL     1      24.161  52.277  -0.391  1.00  0.00    -0.028 C 
ATOM      8  C   UNL     1      24.246  51.854   0.891  1.00  0.00    -0.070 CG0
ATOM      9  C   UNL     1      25.549  52.054   1.621  1.00  0.00     0.039 C 
ATOM     10  G   UNL     1      23.097  51.181   1.627  1.00  0.00     0.000 G0
ENDBRANCH   6   7
ENDBRANCH   5   6
ENDBRANCH   3   5
ENDBRANCH   1   3
BRANCH   1  11
ATOM     11  C   UNL     1      22.331  47.937   0.109  1.00  0.00     0.087 C 
BRANCH  11  12
ATOM     12  C   UNL     1      22.064  48.742   1.407  1.00  0.00     0.066 C 
BRANCH  12  13
ATOM     13  C   UNL     1      23.229  49.677   1.709  1.00  0.00     0.140 C 
ATOM     14  O   UNL     1      24.295  49.185   2.054  1.00  0.00    -0.299 OA
BRANCH  13  15
ATOM     15  C   UNL     1      23.102  51.184   1.640  1.00  0.00     0.106 CG0
ATOM     16  G   UNL     1      24.260  51.834   0.899  1.00  0.00     0.000 G0
ENDBRANCH  13  15
ENDBRANCH  12  13
BRANCH  12  17
ATOM     17  C   UNL     1      20.666  49.442   1.495  1.00  0.00    -0.006 C 
ATOM     18  C   UNL     1      19.583  48.686   0.705  1.00  0.00     0.008 C 
ATOM     19  C   UNL     1      20.207  49.563   2.959  1.00  0.00     0.008 C 
ENDBRANCH  12  17
ENDBRANCH  11  12
ENDBRANCH   1  11
TORSDOF 1
ENDMDL
MODEL 2
REMARK VINA RESULT:    -3.135      2.014      4.924
REMARK INTER + INTRA:          -4.819
REMARK INTER:                  -5.202
REMARK INTRA:                   0.383
REMARK UNBOUND:                -0.035
REMARK SMILES CC1=CCC[C@@H](C)C(=O)C[C@H](C(C)C)C(=O)C1
REMARK SMILES IDX 8 1 9 2 6 3 7 4 5 5 4 6 3 7 2 8 1 9 10 11 11 12 15 13 16 14
REMARK SMILES IDX 17 15 12 17 13 18 14 19
REMARK H PARENT
REMARK Flexibility Score: 70.00
ROOT
ATOM      1  C   UNL     1      22.964  50.893   1.803  1.00  0.00     0.136 C 
ATOM      2  O   UNL     1      22.328  51.914   2.015  1.00  0.00    -0.299 OA
ENDROOT
BRANCH   1   3
ATOM      3  C   UNL     1      22.254  49.555   1.902  1.00  0.00     0.053 C 
ATOM      4  C   UNL     1      23.265  48.401   1.960  1.00  0.00     0.016 C 
BRANCH   3   5
ATOM      5  C   UNL     1      21.254  49.364   0.744  1.00  0.00     0.015 C 
BRANCH   5   6
ATOM      6  C   UNL     1      21.846  48.509  -0.393  1.00  0.00     0.028 C 
BRANCH   6   7
ATOM      7  C   UNL     1      21.666  49.170  -1.734  1.00  0.00    -0.028 C 
ATOM      8  C   UNL     1      22.579  49.974  -2.325  1.00  0.00    -0.070 CG0
ATOM      9  C   UNL     1      22.255  50.540  -3.684  1.00  0.00     0.039 C 
ATOM     10  G   UNL     1      23.915  50.329  -1.692  1.00  0.00     0.000 G0
ENDBRANCH   6   7
ENDBRANCH   5   6
ENDBRANCH   3   5
ENDBRANCH   1   3
BRANCH   1  11
ATOM     11  C   UNL     1      24.451  50.987   1.524  1.00  0.00     0.087 C 
BRANCH  11  12
ATOM     12  C   UNL     1      24.849  51.858   0.305  1.00  0.00     0.066 C 
BRANCH  12  13
ATOM     13  C   UNL     1      23.902  51.611  -0.864  1.00  0.00     0.140 C 
ATOM     14  O   UNL     1      23.051  52.455  -1.111  1.00  0.00    -0.299 OA
BRANCH  13  15
ATOM     15  C   UNL     1      23.949  50.347  -1.695  1.00  0.00     0.106 CG0
ATOM     16  G   UNL     1      22.599  49.998  -2.302  1.00  0.00     0.000 G0
ENDBRANCH  13  15
ENDBRANCH  12  13
BRANCH  12  17
ATOM     17  C   UNL     1      25.084  53.377   0.605  1.00  0.00    -0.006 C 
ATOM     18  C   UNL     1      26.000  53.597   1.823  1.00  0.00     0.008 C 
ATOM     19  C   UNL     1      25.713  54.083  -0.611  1.00  0.00     0.008 C 
ENDBRANCH  12  17
ENDBRANCH  11  12
ENDBRANCH   1  11
TORSDOF 1
ENDMDL
MODEL 3
REMARK VINA RESULT:    -3.119      1.949      4.774
REMARK INTER + INTRA:          -4.794
REMARK INTER:                  -4.890
REMARK INTRA:                   0.095
REMARK UNBOUND:                -0.035
REMARK SMILES CC1=CCC[C@@H](C)C(=O)C[C@H](C(C)C)C(=O)C1
REMARK SMILES IDX 8 1 9 2 6 3 7 4 5 5 4 6 3 7 2 8 1 9 10 11 11 12 15 13 16 14
REMARK SMILES IDX 17 15 12 17 13 18 14 19
REMARK H PARENT
REMARK Flexibility Score: 70.00
ROOT
ATOM      1  C   UNL     1      23.821  51.550  -0.137  1.00  0.00     0.136 C 
ATOM      2  O   UNL     1      24.886  51.861  -0.648  1.00  0.00    -0.299 OA
ENDROOT
BRANCH   1   3
ATOM      3  C   UNL     1      23.691  51.606   1.375  1.00  0.00     0.053 C 
ATOM      4  C   UNL     1      24.429  50.430   2.031  1.00  0.00     0.016 C 
BRANCH   3   5
ATOM      5  C   UNL     1      22.213  51.651   1.810  1.00  0.00     0.015 C 
BRANCH   5   6
ATOM      6  C   UNL     1      21.859  50.496   2.766  1.00  0.00     0.028 C 
BRANCH   6   7
ATOM      7  C   UNL     1      20.622  49.764   2.315  1.00  0.00    -0.028 C 
ATOM      8  C   UNL     1      20.601  48.793   1.374  1.00  0.00    -0.070 CG0
ATOM      9  C   UNL     1      19.281  48.141   1.053  1.00  0.00     0.039 C 
ATOM     10  G   UNL     1      21.842  48.323   0.631  1.00  0.00     0.000 G0
ENDBRANCH   6   7
ENDBRANCH   5   6
ENDBRANCH   3   5
ENDBRANCH   1   3
BRANCH   1  11
ATOM     11  C   UNL     1      22.691  51.049  -1.015  1.00  0.00     0.087 C 
BRANCH  11  12
ATOM     12  C   UNL     1      22.831  49.589  -1.518  1.00  0.00     0.066 C 
BRANCH  12  13
ATOM     13  C   UNL     1      21.785  48.693  -0.866  1.00  0.00     0.140 C 
ATOM     14  O   UNL     1      20.858  48.287  -1.553  1.00  0.00    -0.299 OA
BRANCH  13  15
ATOM     15  C   UNL     1      21.830  48.327   0.603  1.00  0.00     0.106 CG0
ATOM     16  G   UNL     1      20.606  48.814   1.362  1.00  0.00     0.000 G0
ENDBRANCH  13  15
ENDBRANCH  12  13
BRANCH  12  17
ATOM     17  C   UNL     1      22.922  49.413  -3.071  1.00  0.00    -0.006 C 
ATOM     18  C   UNL     1      22.414  50.652  -3.831  1.00  0.00     0.008 C 
ATOM     19  C   UNL     1      24.372  49.135  -3.506  1.00  0.00     0.008 C 
ENDBRANCH  12  17
ENDBRANCH  11  12
ENDBRANCH   1  11
TORSDOF 1
ENDMDL
MODEL 4
REMARK VINA RESULT:    -2.882      1.198      3.551
REMARK INTER + INTRA:          -4.433
REMARK INTER:                  -4.553
REMARK INTRA:                   0.120
REMARK UNBOUND:                -0.035
REMARK SMILES CC1=CCC[C@@H](C)C(=O)C[C@H](C(C)C)C(=O)C1
REMARK SMILES IDX 8 1 9 2 6 3 7 4 5 5 4 6 3 7 2 8 1 9 10 11 11 12 15 13 16 14
REMARK SMILES IDX 17 15 12 17 13 18 14 19
REMARK H PARENT
REMARK Flexibility Score: 70.00
ROOT
ATOM      1  C   UNL     1      22.891  48.419   0.331  1.00  0.00     0.136 C 
ATOM      2  O   UNL     1      24.022  48.471   0.790  1.00  0.00    -0.299 OA
ENDROOT
BRANCH   1   3
ATOM      3  C   UNL     1      21.712  48.578   1.275  1.00  0.00     0.053 C 
ATOM      4  C   UNL     1      20.390  48.630   0.496  1.00  0.00     0.016 C 
BRANCH   3   5
ATOM      5  C   UNL     1      21.879  49.818   2.177  1.00  0.00     0.015 C 
BRANCH   5   6
ATOM      6  C   UNL     1      21.835  51.128   1.367  1.00  0.00     0.028 C 
BRANCH   6   7
ATOM      7  C   UNL     1      23.213  51.711   1.183  1.00  0.00    -0.028 C 
ATOM      8  C   UNL     1      23.765  52.019  -0.012  1.00  0.00    -0.070 CG0
ATOM      9  C   UNL     1      25.148  52.619  -0.023  1.00  0.00     0.039 C 
ATOM     10  G   UNL     1      23.060  51.798  -1.341  1.00  0.00     0.000 G0
ENDBRANCH   6   7
ENDBRANCH   5   6
ENDBRANCH   3   5
ENDBRANCH   1   3
BRANCH   1  11
ATOM     11  C   UNL     1      22.697  48.125  -1.143  1.00  0.00     0.087 C 
BRANCH  11  12
ATOM     12  C   UNL     1      22.298  49.340  -2.020  1.00  0.00     0.066 C 
BRANCH  12  13
ATOM     13  C   UNL     1      23.355  50.433  -1.937  1.00  0.00     0.140 C 
ATOM     14  O   UNL     1      24.488  50.179  -2.325  1.00  0.00    -0.299 OA
BRANCH  13  15
ATOM     15  C   UNL     1      23.067  51.801  -1.353  1.00  0.00     0.106 CG0
ATOM     16  G   UNL     1      23.768  52.027  -0.023  1.00  0.00     0.000 G0
ENDBRANCH  13  15
ENDBRANCH  12  13
BRANCH  12  17
ATOM     17  C   UNL     1      21.864  49.004  -3.487  1.00  0.00    -0.006 C 
ATOM     18  C   UNL     1      20.530  48.238  -3.541  1.00  0.00     0.008 C 
ATOM     19  C   UNL     1      21.722  50.289  -4.323  1.00  0.00     0.008 C 
ENDBRANCH  12  17
ENDBRANCH  11  12
ENDBRANCH   1  11
TORSDOF 1
ENDMDL
MODEL 5
REMARK VINA RESULT:    -2.849      1.843      4.037
REMARK INTER + INTRA:          -4.383
REMARK INTER:                  -4.750
REMARK INTRA:                   0.367
REMARK UNBOUND:                -0.035
REMARK SMILES CC1=CCC[C@@H](C)C(=O)C[C@H](C(C)C)C(=O)C1
REMARK SMILES IDX 8 1 9 2 6 3 7 4 5 5 4 6 3 7 2 8 1 9 10 11 11 12 15 13 16 14
REMARK SMILES IDX 17 15 12 17 13 18 14 19
REMARK H PARENT
REMARK Flexibility Score: 70.00
ROOT
ATOM      1  C   UNL     1      22.860  51.155  -0.995  1.00  0.00     0.136 C 
ATOM      2  O   UNL     1      23.285  52.155  -1.552  1.00  0.00    -0.299 OA
ENDROOT
BRANCH   1   3
ATOM      3  C   UNL     1      23.047  49.808  -1.669  1.00  0.00     0.053 C 
ATOM      4  C   UNL     1      23.733  49.968  -3.033  1.00  0.00     0.016 C 
BRANCH   3   5
ATOM      5  C   UNL     1      21.707  49.057  -1.802  1.00  0.00     0.015 C 
BRANCH   5   6
ATOM      6  C   UNL     1      21.596  47.895  -0.796  1.00  0.00     0.028 C 
BRANCH   6   7
ATOM      7  C   UNL     1      20.503  48.139   0.212  1.00  0.00    -0.028 C 
ATOM      8  C   UNL     1      20.709  48.508   1.497  1.00  0.00    -0.070 CG0
ATOM      9  C   UNL     1      19.504  48.735   2.373  1.00  0.00     0.039 C 
ATOM     10  G   UNL     1      22.091  48.711   2.097  1.00  0.00     0.000 G0
ENDBRANCH   6   7
ENDBRANCH   5   6
ENDBRANCH   3   5
ENDBRANCH   1   3
BRANCH   1  11
ATOM     11  C   UNL     1      22.098  51.295   0.309  1.00  0.00     0.087 C 
BRANCH  11  12
ATOM     12  C   UNL     1      22.952  51.177   1.597  1.00  0.00     0.066 C 
BRANCH  12  13
ATOM     13  C   UNL     1      22.363  50.134   2.539  1.00  0.00     0.140 C 
ATOM     14  O   UNL     1      22.127  50.461   3.695  1.00  0.00    -0.299 OA
BRANCH  13  15
ATOM     15  C   UNL     1      22.101  48.706   2.109  1.00  0.00     0.106 CG0
ATOM     16  G   UNL     1      20.721  48.526   1.496  1.00  0.00     0.000 G0
ENDBRANCH  13  15
ENDBRANCH  12  13
BRANCH  12  17
ATOM     17  C   UNL     1      24.494  51.016   1.377  1.00  0.00    -0.006 C 
ATOM     18  C   UNL     1      25.196  52.367   1.148  1.00  0.00     0.008 C 
ATOM     19  C   UNL     1      25.150  50.326   2.587  1.00  0.00     0.008 C 
ENDBRANCH  12  17
ENDBRANCH  11  12
ENDBRANCH   1  11
TORSDOF 1
ENDMDL
MODEL 6
REMARK VINA RESULT:    -2.841      2.711      4.892
REMARK INTER + INTRA:          -4.370
REMARK INTER:                  -4.444
REMARK INTRA:                   0.073
REMARK UNBOUND:                -0.035
REMARK SMILES CC1=CCC[C@@H](C)C(=O)C[C@H](C(C)C)C(=O)C1
REMARK SMILES IDX 8 1 9 2 6 3 7 4 5 5 4 6 3 7 2 8 1 9 10 11 11 12 15 13 16 14
REMARK SMILES IDX 17 15 12 17 13 18 14 19
REMARK H PARENT
REMARK Flexibility Score: 70.00
ROOT
ATOM      1  C   UNL     1      24.730  50.903   1.890  1.00  0.00     0.136 C 
ATOM      2  O   UNL     1      25.585  51.749   2.099  1.00  0.00    -0.299 OA
ENDROOT
BRANCH   1   3
ATOM      3  C   UNL     1      23.709  51.151   0.794  1.00  0.00     0.053 C 
ATOM      4  C   UNL     1      24.131  52.333  -0.090  1.00  0.00     0.016 C 
BRANCH   3   5
ATOM      5  C   UNL     1      22.299  51.365   1.379  1.00  0.00     0.015 C 
BRANCH   5   6
ATOM      6  C   UNL     1      21.366  50.175   1.082  1.00  0.00     0.028 C 
BRANCH   6   7
ATOM      7  C   UNL     1      20.432  49.904   2.233  1.00  0.00    -0.028 C 
ATOM      8  C   UNL     1      20.758  49.196   3.339  1.00  0.00    -0.070 CG0
ATOM      9  C   UNL     1      19.713  49.035   4.413  1.00  0.00     0.039 C 
ATOM     10  G   UNL     1      22.123  48.561   3.553  1.00  0.00     0.000 G0
ENDBRANCH   6   7
ENDBRANCH   5   6
ENDBRANCH   3   5
ENDBRANCH   1   3
BRANCH   1  11
ATOM     11  C   UNL     1      24.666  49.673   2.774  1.00  0.00     0.087 C 
BRANCH  11  12
ATOM     12  C   UNL     1      24.301  49.935   4.258  1.00  0.00     0.066 C 
BRANCH  12  13
ATOM     13  C   UNL     1      22.955  49.308   4.599  1.00  0.00     0.140 C 
ATOM     14  O   UNL     1      22.553  49.385   5.753  1.00  0.00    -0.299 OA
BRANCH  13  15
ATOM     15  C   UNL     1      22.124  48.561   3.577  1.00  0.00     0.106 CG0
ATOM     16  G   UNL     1      20.767  49.207   3.346  1.00  0.00     0.000 G0
ENDBRANCH  13  15
ENDBRANCH  12  13
BRANCH  12  17
ATOM     17  C   UNL     1      25.423  49.607   5.300  1.00  0.00    -0.006 C 
ATOM     18  C   UNL     1      26.520  48.701   4.713  1.00  0.00     0.008 C 
ATOM     19  C   UNL     1      26.082  50.898   5.819  1.00  0.00     0.008 C 
ENDBRANCH  12  17
ENDBRANCH  11  12
ENDBRANCH   1  11
TORSDOF 1
ENDMDL
MODEL 7
REMARK VINA RESULT:    -2.820      2.287      3.428
REMARK INTER + INTRA:          -4.339
REMARK INTER:                  -4.077
REMARK INTRA:                  -0.262
REMARK UNBOUND:                -0.035
REMARK SMILES CC1=CCC[C@@H](C)C(=O)C[C@H](C(C)C)C(=O)C1
REMARK SMILES IDX 8 1 9 2 6 3 7 4 5 5 4 6 3 7 2 8 1 9 10 11 11 12 15 13 16 14
REMARK SMILES IDX 17 15 12 17 13 18 14 19
REMARK H PARENT
REMARK Flexibility Score: 70.00
ROOT
ATOM      1  C   UNL     1      22.383  50.953   0.548  1.00  0.00     0.136 C 
ATOM      2  O   UNL     1      22.217  50.231  -0.422  1.00  0.00    -0.299 OA
ENDROOT
BRANCH   1   3
ATOM      3  C   UNL     1      23.573  51.896   0.563  1.00  0.00     0.053 C 
ATOM      4  C   UNL     1      23.730  52.601  -0.792  1.00  0.00     0.016 C 
BRANCH   3   5
ATOM      5  C   UNL     1      24.867  51.160   0.963  1.00  0.00     0.015 C 
BRANCH   5   6
ATOM      6  C   UNL     1      25.158  51.285   2.471  1.00  0.00     0.028 C 
BRANCH   6   7
ATOM      7  C   UNL     1      25.244  49.934   3.132  1.00  0.00    -0.028 C 
ATOM      8  C   UNL     1      24.285  49.401   3.923  1.00  0.00    -0.070 CG0
ATOM      9  C   UNL     1      24.516  48.023   4.490  1.00  0.00     0.039 C 
ATOM     10  G   UNL     1      22.987  50.117   4.261  1.00  0.00     0.000 G0
ENDBRANCH   6   7
ENDBRANCH   5   6
ENDBRANCH   3   5
ENDBRANCH   1   3
BRANCH   1  11
ATOM     11  C   UNL     1      21.446  50.835   1.734  1.00  0.00     0.087 C 
BRANCH  11  12
ATOM     12  C   UNL     1      21.300  49.412   2.331  1.00  0.00     0.066 C 
BRANCH  12  13
ATOM     13  C   UNL     1      21.748  49.391   3.787  1.00  0.00     0.140 C 
ATOM     14  O   UNL     1      21.059  48.787   4.599  1.00  0.00    -0.299 OA
BRANCH  13  15
ATOM     15  C   UNL     1      22.983  50.124   4.269  1.00  0.00     0.106 CG0
ATOM     16  G   UNL     1      24.269  49.401   3.900  1.00  0.00     0.000 G0
ENDBRANCH  13  15
ENDBRANCH  12  13
BRANCH  12  17
ATOM     17  C   UNL     1      19.917  48.716   2.095  1.00  0.00    -0.006 C 
ATOM     18  C   UNL     1      18.757  49.727   2.033  1.00  0.00     0.008 C 
ATOM     19  C   UNL     1      19.927  47.907   0.785  1.00  0.00     0.008 C 
ENDBRANCH  12  17
ENDBRANCH  11  12
ENDBRANCH   1  11
TORSDOF 1
ENDMDL
MODEL 8
REMARK VINA RESULT:    -2.817      1.680      3.574
REMARK INTER + INTRA:          -4.333
REMARK INTER:                  -5.209
REMARK INTRA:                   0.876
REMARK UNBOUND:                -0.035
REMARK SMILES CC1=CCC[C@@H](C)C(=O)C[C@H](C(C)C)C(=O)C1
REMARK SMILES IDX 8 1 9 2 6 3 7 4 5 5 4 6 3 7 2 8 1 9 10 11 11 12 15 13 16 14
REMARK SMILES IDX 17 15 12 17 13 18 14 19
REMARK H PARENT
REMARK Flexibility Score: 70.00
ROOT
ATOM      1  C   UNL     1      24.110  51.247   1.330  1.00  0.00     0.136 C 
ATOM      2  O   UNL     1      24.986  51.000   2.144  1.00  0.00    -0.299 OA
ENDROOT
BRANCH   1   3
ATOM      3  C   UNL     1      24.505  51.830  -0.015  1.00  0.00     0.053 C 
ATOM      4  C   UNL     1      25.285  53.141   0.164  1.00  0.00     0.016 C 
BRANCH   3   5
ATOM      5  C   UNL     1      23.275  52.032  -0.922  1.00  0.00     0.015 C 
BRANCH   5   6
ATOM      6  C   UNL     1      23.299  51.089  -2.141  1.00  0.00     0.028 C 
BRANCH   6   7
ATOM      7  C   UNL     1      22.177  50.085  -2.086  1.00  0.00    -0.028 C 
ATOM      8  C   UNL     1      22.209  48.934  -1.375  1.00  0.00    -0.070 CG0
ATOM      9  C   UNL     1      20.991  48.046  -1.406  1.00  0.00     0.039 C 
ATOM     10  G   UNL     1      23.405  48.497  -0.544  1.00  0.00     0.000 G0
ENDBRANCH   6   7
ENDBRANCH   5   6
ENDBRANCH   3   5
ENDBRANCH   1   3
BRANCH   1  11
ATOM     11  C   UNL     1      22.658  51.036   1.711  1.00  0.00     0.087 C 
BRANCH  11  12
ATOM     12  C   UNL     1      22.112  49.602   1.494  1.00  0.00     0.066 C 
BRANCH  12  13
ATOM     13  C   UNL     1      23.200  48.690   0.941  1.00  0.00     0.140 C 
ATOM     14  O   UNL     1      23.954  48.138   1.732  1.00  0.00    -0.299 OA
BRANCH  13  15
ATOM     15  C   UNL     1      23.408  48.479  -0.544  1.00  0.00     0.106 CG0
ATOM     16  G   UNL     1      22.210  48.924  -1.368  1.00  0.00     0.000 G0
ENDBRANCH  13  15
ENDBRANCH  12  13
BRANCH  12  17
ATOM     17  C   UNL     1      21.335  48.981   2.704  1.00  0.00    -0.006 C 
ATOM     18  C   UNL     1      21.625  49.718   4.024  1.00  0.00     0.008 C 
ATOM     19  C   UNL     1      19.816  49.012   2.453  1.00  0.00     0.008 C 
ENDBRANCH  12  17
ENDBRANCH  11  12
ENDBRANCH   1  11
TORSDOF 1
ENDMDL
MODEL 9
REMARK VINA RESULT:    -2.619      7.226      9.489
REMARK INTER + INTRA:          -4.032
REMARK INTER:                  -4.187
REMARK INTRA:                   0.155
REMARK UNBOUND:                -0.035
REMARK SMILES CC1=CCC[C@@H](C)C(=O)C[C@H](C(C)C)C(=O)C1
REMARK SMILES IDX 8 1 9 2 6 3 7 4 5 5 4 6 3 7 2 8 1 9 10 11 11 12 15 13 16 14
REMARK SMILES IDX 17 15 12 17 13 18 14 19
REMARK H PARENT
REMARK Flexibility Score: 70.00
ROOT
ATOM      1  C   UNL     1      21.343  54.390  -6.817  1.00  0.00     0.136 C 
ATOM      2  O   UNL     1      20.828  54.649  -5.741  1.00  0.00    -0.299 OA
ENDROOT
BRANCH   1   3
ATOM      3  C   UNL     1      21.516  55.506  -7.832  1.00  0.00     0.053 C 
ATOM      4  C   UNL     1      22.662  56.444  -7.425  1.00  0.00     0.016 C 
BRANCH   3   5
ATOM      5  C   UNL     1      20.202  56.286  -8.038  1.00  0.00     0.015 C 
BRANCH   5   6
ATOM      6  C   UNL     1      19.200  55.503  -8.909  1.00  0.00     0.028 C 
BRANCH   6   7
ATOM      7  C   UNL     1      18.166  54.802  -8.067  1.00  0.00    -0.028 C 
ATOM      8  C   UNL     1      18.128  53.468  -7.847  1.00  0.00    -0.070 CG0
ATOM      9  C   UNL     1      17.038  52.924  -6.959  1.00  0.00     0.039 C 
ATOM     10  G   UNL     1      19.132  52.493  -8.444  1.00  0.00     0.000 G0
ENDBRANCH   6   7
ENDBRANCH   5   6
ENDBRANCH   3   5
ENDBRANCH   1   3
BRANCH   1  11
ATOM     11  C   UNL     1      21.725  52.958  -7.136  1.00  0.00     0.087 C 
BRANCH  11  12
ATOM     12  C   UNL     1      20.833  51.869  -6.486  1.00  0.00     0.066 C 
BRANCH  12  13
ATOM     13  C   UNL     1      19.666  51.514  -7.399  1.00  0.00     0.140 C 
ATOM     14  O   UNL     1      19.174  50.397  -7.307  1.00  0.00    -0.299 OA
BRANCH  13  15
ATOM     15  C   UNL     1      19.128  52.473  -8.441  1.00  0.00     0.106 CG0
ATOM     16  G   UNL     1      18.144  53.474  -7.856  1.00  0.00     0.000 G0
ENDBRANCH  13  15
ENDBRANCH  12  13
BRANCH  12  17
ATOM     17  C   UNL     1      21.590  50.616  -5.928  1.00  0.00    -0.006 C 
ATOM     18  C   UNL     1      22.612  50.055  -6.934  1.00  0.00     0.008 C 
ATOM     19  C   UNL     1      22.330  50.962  -4.623  1.00  0.00     0.008 C 
ENDBRANCH  12  17
ENDBRANCH  11  12
ENDBRANCH   1  11
TORSDOF 1
ENDMDL
