MODEL 1
REMARK VINA RESULT:    -4.230      0.000      0.000
REMARK INTER + INTRA:          -4.354
REMARK INTER:                  -4.354
REMARK INTRA:                   0.000
REMARK UNBOUND:                 0.000
REMARK SMILES Oc1ccc2[nH]ccc2c1
REMARK SMILES IDX 3 1 4 2 5 3 9 4 8 5 7 6 6 7 10 8 2 9 1 11
REMARK H PARENT 6 10 1 12
REMARK Flexibility Score: inf
ROOT
ATOM      1  C   UNL     1     157.970 162.791 148.751  1.00  0.00     0.048 A 
ATOM      2  C   UNL     1     156.896 163.123 149.598  1.00  0.00     0.030 A 
ATOM      3  C   UNL     1     157.047 162.885 150.963  1.00  0.00     0.046 A 
ATOM      4  C   UNL     1     158.197 162.349 151.477  1.00  0.00     0.003 A 
ATOM      5  C   UNL     1     158.028 162.242 152.841  1.00  0.00     0.028 A 
ATOM      6  C   UNL     1     156.750 162.733 153.088  1.00  0.00     0.083 A 
ATOM      7  N   UNL     1     156.155 163.125 151.938  1.00  0.00    -0.361 N 
ATOM      8  C   UNL     1     159.278 162.010 150.667  1.00  0.00     0.056 A 
ATOM      9  C   UNL     1     159.160 162.236 149.282  1.00  0.00     0.116 A 
ATOM     10  H   UNL     1     155.198 163.530 151.834  1.00  0.00     0.166 HD
ENDROOT
BRANCH   9  11
ATOM     11  O   UNL     1     160.223 161.910 148.443  1.00  0.00    -0.508 OA
ATOM     12  H   UNL     1     160.301 160.992 148.022  1.00  0.00     0.293 HD
ENDBRANCH   9  11
TORSDOF 1
ENDMDL
MODEL 2
REMARK VINA RESULT:    -4.059     15.469     16.111
REMARK INTER + INTRA:          -4.178
REMARK INTER:                  -4.178
REMARK INTRA:                   0.000
REMARK UNBOUND:                 0.000
REMARK SMILES Oc1ccc2[nH]ccc2c1
REMARK SMILES IDX 3 1 4 2 5 3 9 4 8 5 7 6 6 7 10 8 2 9 1 11
REMARK H PARENT 6 10 1 12
REMARK Flexibility Score: inf
ROOT
ATOM      1  C   UNL     1     162.470 147.327 148.879  1.00  0.00     0.048 A 
ATOM      2  C   UNL     1     162.870 148.347 149.763  1.00  0.00     0.030 A 
ATOM      3  C   UNL     1     162.794 148.088 151.131  1.00  0.00     0.046 A 
ATOM      4  C   UNL     1     162.348 146.887 151.613  1.00  0.00     0.003 A 
ATOM      5  C   UNL     1     162.394 146.952 152.988  1.00  0.00     0.028 A 
ATOM      6  C   UNL     1     162.880 148.224 153.276  1.00  0.00     0.083 A 
ATOM      7  N   UNL     1     163.123 148.914 152.138  1.00  0.00    -0.361 N 
ATOM      8  C   UNL     1     161.944 145.858 150.765  1.00  0.00     0.056 A 
ATOM      9  C   UNL     1     162.007 146.084 149.376  1.00  0.00     0.116 A 
ATOM     10  H   UNL     1     163.491 149.888 152.062  1.00  0.00     0.166 HD
ENDROOT
BRANCH   9  11
ATOM     11  O   UNL     1     161.612 145.076 148.501  1.00  0.00    -0.508 OA
ATOM     12  H   UNL     1     161.104 144.262 148.827  1.00  0.00     0.293 HD
ENDBRANCH   9  11
TORSDOF 1
ENDMDL
MODEL 3
REMARK VINA RESULT:    -4.048      2.631      3.586
REMARK INTER + INTRA:          -4.167
REMARK INTER:                  -4.167
REMARK INTRA:                   0.000
REMARK UNBOUND:                 0.000
REMARK SMILES Oc1ccc2[nH]ccc2c1
REMARK SMILES IDX 3 1 4 2 5 3 9 4 8 5 7 6 6 7 10 8 2 9 1 11
REMARK H PARENT 6 10 1 12
REMARK Flexibility Score: inf
ROOT
ATOM      1  C   UNL     1     156.673 163.125 150.919  1.00  0.00     0.048 A 
ATOM      2  C   UNL     1     157.353 162.767 149.739  1.00  0.00     0.030 A 
ATOM      3  C   UNL     1     158.546 162.058 149.866  1.00  0.00     0.046 A 
ATOM      4  C   UNL     1     159.052 161.714 151.091  1.00  0.00     0.003 A 
ATOM      5  C   UNL     1     160.227 161.029 150.874  1.00  0.00     0.028 A 
ATOM      6  C   UNL     1     160.377 160.992 149.490  1.00  0.00     0.083 A 
ATOM      7  N   UNL     1     159.347 161.623 148.880  1.00  0.00    -0.361 N 
ATOM      8  C   UNL     1     158.404 162.052 152.277  1.00  0.00     0.056 A 
ATOM      9  C   UNL     1     157.195 162.770 152.186  1.00  0.00     0.116 A 
ATOM     10  H   UNL     1     159.207 161.743 147.852  1.00  0.00     0.166 HD
ENDROOT
BRANCH   9  11
ATOM     11  O   UNL     1     156.521 163.123 153.353  1.00  0.00    -0.508 OA
ATOM     12  H   UNL     1     157.021 163.361 154.201  1.00  0.00     0.293 HD
ENDBRANCH   9  11
TORSDOF 1
ENDMDL
MODEL 4
REMARK VINA RESULT:    -3.986      2.098      2.817
REMARK INTER + INTRA:          -4.102
REMARK INTER:                  -4.102
REMARK INTRA:                   0.000
REMARK UNBOUND:                 0.000
REMARK SMILES Oc1ccc2[nH]ccc2c1
REMARK SMILES IDX 3 1 4 2 5 3 9 4 8 5 7 6 6 7 10 8 2 9 1 11
REMARK H PARENT 6 10 1 12
REMARK Flexibility Score: inf
ROOT
ATOM      1  C   UNL     1     160.855 161.193 150.813  1.00  0.00     0.048 A 
ATOM      2  C   UNL     1     159.742 161.784 150.186  1.00  0.00     0.030 A 
ATOM      3  C   UNL     1     158.668 162.163 150.990  1.00  0.00     0.046 A 
ATOM      4  C   UNL     1     158.682 161.974 152.346  1.00  0.00     0.003 A 
ATOM      5  C   UNL     1     157.487 162.449 152.841  1.00  0.00     0.028 A 
ATOM      6  C   UNL     1     156.792 162.915 151.728  1.00  0.00     0.083 A 
ATOM      7  N   UNL     1     157.518 162.738 150.600  1.00  0.00    -0.361 N 
ATOM      8  C   UNL     1     159.767 161.392 152.997  1.00  0.00     0.056 A 
ATOM      9  C   UNL     1     160.870 160.996 152.216  1.00  0.00     0.116 A 
ATOM     10  H   UNL     1     157.239 162.997 149.628  1.00  0.00     0.166 HD
ENDROOT
BRANCH   9  11
ATOM     11  O   UNL     1     161.973 160.413 152.836  1.00  0.00    -0.508 OA
ATOM     12  H   UNL     1     162.892 160.438 152.411  1.00  0.00     0.293 HD
ENDBRANCH   9  11
TORSDOF 1
ENDMDL
MODEL 5
REMARK VINA RESULT:    -3.972     16.301     16.984
REMARK INTER + INTRA:          -4.088
REMARK INTER:                  -4.088
REMARK INTRA:                   0.000
REMARK UNBOUND:                 0.000
REMARK SMILES Oc1ccc2[nH]ccc2c1
REMARK SMILES IDX 3 1 4 2 5 3 9 4 8 5 7 6 6 7 10 8 2 9 1 11
REMARK H PARENT 6 10 1 12
REMARK Flexibility Score: inf
ROOT
ATOM      1  C   UNL     1     161.173 144.751 150.906  1.00  0.00     0.048 A 
ATOM      2  C   UNL     1     161.753 145.853 150.250  1.00  0.00     0.030 A 
ATOM      3  C   UNL     1     162.229 146.901 151.036  1.00  0.00     0.046 A 
ATOM      4  C   UNL     1     162.143 146.872 152.402  1.00  0.00     0.003 A 
ATOM      5  C   UNL     1     162.696 148.043 152.874  1.00  0.00     0.028 A 
ATOM      6  C   UNL     1     163.101 148.738 151.738  1.00  0.00     0.083 A 
ATOM      7  N   UNL     1     162.813 148.036 150.618  1.00  0.00    -0.361 N 
ATOM      8  C   UNL     1     161.576 145.798 153.082  1.00  0.00     0.056 A 
ATOM      9  C   UNL     1     161.083 144.721 152.319  1.00  0.00     0.116 A 
ATOM     10  H   UNL     1     163.006 148.322 149.632  1.00  0.00     0.166 HD
ENDROOT
BRANCH   9  11
ATOM     11  O   UNL     1     160.510 143.629 152.967  1.00  0.00    -0.508 OA
ATOM     12  H   UNL     1     159.763 143.094 152.541  1.00  0.00     0.293 HD
ENDBRANCH   9  11
TORSDOF 1
ENDMDL
MODEL 6
REMARK VINA RESULT:    -3.970     15.150     16.029
REMARK INTER + INTRA:          -4.086
REMARK INTER:                  -4.086
REMARK INTRA:                   0.000
REMARK UNBOUND:                 0.000
REMARK SMILES Oc1ccc2[nH]ccc2c1
REMARK SMILES IDX 3 1 4 2 5 3 9 4 8 5 7 6 6 7 10 8 2 9 1 11
REMARK H PARENT 6 10 1 12
REMARK Flexibility Score: inf
ROOT
ATOM      1  C   UNL     1     162.178 147.130 153.137  1.00  0.00     0.048 A 
ATOM      2  C   UNL     1     161.919 146.336 152.003  1.00  0.00     0.030 A 
ATOM      3  C   UNL     1     162.273 146.849 150.757  1.00  0.00     0.046 A 
ATOM      4  C   UNL     1     162.855 148.081 150.624  1.00  0.00     0.003 A 
ATOM      5  C   UNL     1     163.077 148.290 149.280  1.00  0.00     0.028 A 
ATOM      6  C   UNL     1     162.605 147.141 148.651  1.00  0.00     0.083 A 
ATOM      7  N   UNL     1     162.115 146.264 149.558  1.00  0.00    -0.361 N 
ATOM      8  C   UNL     1     163.125 148.891 151.725  1.00  0.00     0.056 A 
ATOM      9  C   UNL     1     162.780 148.405 153.001  1.00  0.00     0.116 A 
ATOM     10  H   UNL     1     161.701 145.326 149.362  1.00  0.00     0.166 HD
ENDROOT
BRANCH   9  11
ATOM     11  O   UNL     1     163.037 149.188 154.124  1.00  0.00    -0.508 OA
ATOM     12  H   UNL     1     162.288 149.634 154.640  1.00  0.00     0.293 HD
ENDBRANCH   9  11
TORSDOF 1
ENDMDL
MODEL 7
REMARK VINA RESULT:    -3.919     15.934     16.630
REMARK INTER + INTRA:          -4.033
REMARK INTER:                  -4.033
REMARK INTRA:                   0.000
REMARK UNBOUND:                 0.000
REMARK SMILES Oc1ccc2[nH]ccc2c1
REMARK SMILES IDX 3 1 4 2 5 3 9 4 8 5 7 6 6 7 10 8 2 9 1 11
REMARK H PARENT 6 10 1 12
REMARK Flexibility Score: inf
ROOT
ATOM      1  C   UNL     1     161.205 144.873 150.513  1.00  0.00     0.048 A 
ATOM      2  C   UNL     1     161.298 145.568 151.734  1.00  0.00     0.030 A 
ATOM      3  C   UNL     1     161.976 146.786 151.739  1.00  0.00     0.046 A 
ATOM      4  C   UNL     1     162.537 147.302 150.601  1.00  0.00     0.003 A 
ATOM      5  C   UNL     1     163.125 148.501 150.939  1.00  0.00     0.028 A 
ATOM      6  C   UNL     1     162.883 148.653 152.302  1.00  0.00     0.083 A 
ATOM      7  N   UNL     1     162.181 147.603 152.785  1.00  0.00    -0.361 N 
ATOM      8  C   UNL     1     162.462 146.641 149.378  1.00  0.00     0.056 A 
ATOM      9  C   UNL     1     161.785 145.406 149.335  1.00  0.00     0.116 A 
ATOM     10  H   UNL     1     161.865 147.460 153.770  1.00  0.00     0.166 HD
ENDROOT
BRANCH   9  11
ATOM     11  O   UNL     1     161.690 144.719 148.128  1.00  0.00    -0.508 OA
ATOM     12  H   UNL     1     161.756 143.709 148.088  1.00  0.00     0.293 HD
ENDBRANCH   9  11
TORSDOF 1
ENDMDL
MODEL 8
REMARK VINA RESULT:    -3.912     15.929     16.696
REMARK INTER + INTRA:          -4.026
REMARK INTER:                  -4.026
REMARK INTRA:                   0.000
REMARK UNBOUND:                 0.000
REMARK SMILES Oc1ccc2[nH]ccc2c1
REMARK SMILES IDX 3 1 4 2 5 3 9 4 8 5 7 6 6 7 10 8 2 9 1 11
REMARK H PARENT 6 10 1 12
REMARK Flexibility Score: inf
ROOT
ATOM      1  C   UNL     1     160.896 145.077 150.975  1.00  0.00     0.048 A 
ATOM      2  C   UNL     1     161.155 145.602 149.695  1.00  0.00     0.030 A 
ATOM      3  C   UNL     1     161.924 146.762 149.611  1.00  0.00     0.046 A 
ATOM      4  C   UNL     1     162.417 147.381 150.728  1.00  0.00     0.003 A 
ATOM      5  C   UNL     1     163.125 148.486 150.309  1.00  0.00     0.028 A 
ATOM      6  C   UNL     1     163.021 148.479 148.921  1.00  0.00     0.083 A 
ATOM      7  N   UNL     1     162.286 147.424 148.500  1.00  0.00    -0.361 N 
ATOM      8  C   UNL     1     162.180 146.887 152.009  1.00  0.00     0.056 A 
ATOM      9  C   UNL     1     161.406 145.716 152.132  1.00  0.00     0.116 A 
ATOM     10  H   UNL     1     162.051 147.178 147.513  1.00  0.00     0.166 HD
ENDROOT
BRANCH   9  11
ATOM     11  O   UNL     1     161.150 145.195 153.398  1.00  0.00    -0.508 OA
ATOM     12  H   UNL     1     160.774 144.263 153.519  1.00  0.00     0.293 HD
ENDBRANCH   9  11
TORSDOF 1
ENDMDL
MODEL 9
REMARK VINA RESULT:    -3.878      1.159      2.187
REMARK INTER + INTRA:          -3.991
REMARK INTER:                  -3.991
REMARK INTRA:                   0.000
REMARK UNBOUND:                 0.000
REMARK SMILES Oc1ccc2[nH]ccc2c1
REMARK SMILES IDX 3 1 4 2 5 3 9 4 8 5 7 6 6 7 10 8 2 9 1 11
REMARK H PARENT 6 10 1 12
REMARK Flexibility Score: inf
ROOT
ATOM      1  C   UNL     1     160.427 161.098 150.701  1.00  0.00     0.048 A 
ATOM      2  C   UNL     1     159.824 161.310 151.955  1.00  0.00     0.030 A 
ATOM      3  C   UNL     1     158.599 161.974 151.984  1.00  0.00     0.046 A 
ATOM      4  C   UNL     1     157.990 162.410 150.838  1.00  0.00     0.003 A 
ATOM      5  C   UNL     1     156.809 163.019 151.204  1.00  0.00     0.028 A 
ATOM      6  C   UNL     1     156.763 162.916 152.592  1.00  0.00     0.083 A 
ATOM      7  N   UNL     1     157.858 162.277 153.063  1.00  0.00    -0.361 N 
ATOM      8  C   UNL     1     158.559 162.216 149.582  1.00  0.00     0.056 A 
ATOM      9  C   UNL     1     159.799 161.549 149.515  1.00  0.00     0.116 A 
ATOM     10  H   UNL     1     158.079 162.065 154.061  1.00  0.00     0.166 HD
ENDROOT
BRANCH   9  11
ATOM     11  O   UNL     1     160.395 161.338 148.274  1.00  0.00    -0.508 OA
ATOM     12  H   UNL     1     160.030 161.766 147.432  1.00  0.00     0.293 HD
ENDBRANCH   9  11
TORSDOF 1
ENDMDL
