MODEL 1
REMARK VINA RESULT:    -4.648      0.000      0.000
REMARK INTER + INTRA:          -6.405
REMARK INTER:                  -6.142
REMARK INTRA:                  -0.263
REMARK UNBOUND:                -0.263
REMARK SMILES CCCCC=CC=CCO
REMARK SMILES IDX 5 1 6 2 4 3 3 4 2 5 1 6 7 7 8 8 9 9 10 10
REMARK H PARENT 10 11
REMARK Flexibility Score: inf
ROOT
ATOM      1  C   UNL     1      25.360  50.170  36.874  1.00  0.00    -0.027 C 
ATOM      2  C   UNL     1      24.670  51.257  37.229  1.00  0.00    -0.005 C 
ENDROOT
BRANCH   1   3
ATOM      3  C   UNL     1      24.701  49.012  36.180  1.00  0.00     0.027 C 
BRANCH   3   4
ATOM      4  C   UNL     1      23.221  49.306  35.896  1.00  0.00     0.004 C 
BRANCH   4   5
ATOM      5  C   UNL     1      22.584  48.270  34.959  1.00  0.00    -0.003 C 
ATOM      6  C   UNL     1      23.503  47.081  34.682  1.00  0.00     0.004 C 
ENDBRANCH   4   5
ENDBRANCH   3   4
ENDBRANCH   1   3
BRANCH   2   7
ATOM      7  C   UNL     1      25.326  52.379  37.920  1.00  0.00    -0.002 C 
ATOM      8  C   UNL     1      26.190  53.169  37.281  1.00  0.00     0.001 C 
BRANCH   8   9
ATOM      9  C   UNL     1      26.853  54.318  37.978  1.00  0.00     0.183 C 
BRANCH   9  10
ATOM     10  O   UNL     1      27.997  53.866  38.648  1.00  0.00    -0.392 OA
ATOM     11  H   UNL     1      28.770  54.263  38.168  1.00  0.00     0.210 HD
ENDBRANCH   9  10
ENDBRANCH   8   9
ENDBRANCH   2   7
TORSDOF 6
ENDMDL
MODEL 2
REMARK VINA RESULT:    -4.472     11.957     12.910
REMARK INTER + INTRA:          -6.173
REMARK INTER:                  -5.902
REMARK INTRA:                  -0.271
REMARK UNBOUND:                -0.263
REMARK SMILES CCCCC=CC=CCO
REMARK SMILES IDX 5 1 6 2 4 3 3 4 2 5 1 6 7 7 8 8 9 9 10 10
REMARK H PARENT 10 11
REMARK Flexibility Score: inf
ROOT
ATOM      1  C   UNL     1      34.618  44.212  41.250  1.00  0.00    -0.027 C 
ATOM      2  C   UNL     1      34.581  43.037  40.617  1.00  0.00    -0.005 C 
ENDROOT
BRANCH   1   3
ATOM      3  C   UNL     1      33.681  44.527  42.380  1.00  0.00     0.027 C 
BRANCH   3   4
ATOM      4  C   UNL     1      32.784  43.324  42.707  1.00  0.00     0.004 C 
BRANCH   4   5
ATOM      5  C   UNL     1      31.318  43.558  42.313  1.00  0.00    -0.003 C 
ATOM      6  C   UNL     1      31.131  43.725  40.806  1.00  0.00     0.004 C 
ENDBRANCH   4   5
ENDBRANCH   3   4
ENDBRANCH   1   3
BRANCH   2   7
ATOM      7  C   UNL     1      35.497  42.746  39.502  1.00  0.00    -0.002 C 
ATOM      8  C   UNL     1      35.985  43.726  38.740  1.00  0.00     0.001 C 
BRANCH   8   9
ATOM      9  C   UNL     1      36.924  43.436  37.609  1.00  0.00     0.183 C 
BRANCH   9  10
ATOM     10  O   UNL     1      36.813  44.436  36.635  1.00  0.00    -0.392 OA
ATOM     11  H   UNL     1      37.250  45.241  37.018  1.00  0.00     0.210 HD
ENDBRANCH   9  10
ENDBRANCH   8   9
ENDBRANCH   2   7
TORSDOF 6
ENDMDL
MODEL 3
REMARK VINA RESULT:    -4.372      1.708      2.659
REMARK INTER + INTRA:          -6.041
REMARK INTER:                  -5.730
REMARK INTRA:                  -0.311
REMARK UNBOUND:                -0.263
REMARK SMILES CCCCC=CC=CCO
REMARK SMILES IDX 5 1 6 2 4 3 3 4 2 5 1 6 7 7 8 8 9 9 10 10
REMARK H PARENT 10 11
REMARK Flexibility Score: inf
ROOT
ATOM      1  C   UNL     1      25.573  50.448  36.903  1.00  0.00    -0.027 C 
ATOM      2  C   UNL     1      24.703  51.407  37.227  1.00  0.00    -0.005 C 
ENDROOT
BRANCH   1   3
ATOM      3  C   UNL     1      25.116  49.092  36.448  1.00  0.00     0.027 C 
BRANCH   3   4
ATOM      4  C   UNL     1      26.313  48.186  36.118  1.00  0.00     0.004 C 
BRANCH   4   5
ATOM      5  C   UNL     1      27.650  48.940  36.161  1.00  0.00    -0.003 C 
ATOM      6  C   UNL     1      28.856  48.012  36.013  1.00  0.00     0.004 C 
ENDBRANCH   4   5
ENDBRANCH   3   4
ENDBRANCH   1   3
BRANCH   2   7
ATOM      7  C   UNL     1      25.164  52.728  37.684  1.00  0.00    -0.002 C 
ATOM      8  C   UNL     1      26.448  53.080  37.584  1.00  0.00     0.001 C 
BRANCH   8   9
ATOM      9  C   UNL     1      26.921  54.426  38.040  1.00  0.00     0.183 C 
BRANCH   9  10
ATOM     10  O   UNL     1      28.166  54.300  38.669  1.00  0.00    -0.392 OA
ATOM     11  H   UNL     1      28.313  55.152  39.158  1.00  0.00     0.210 HD
ENDBRANCH   9  10
ENDBRANCH   8   9
ENDBRANCH   2   7
TORSDOF 6
ENDMDL
MODEL 4
REMARK VINA RESULT:    -4.361      3.309      6.273
REMARK INTER + INTRA:          -6.027
REMARK INTER:                  -5.714
REMARK INTRA:                  -0.313
REMARK UNBOUND:                -0.263
REMARK SMILES CCCCC=CC=CCO
REMARK SMILES IDX 5 1 6 2 4 3 3 4 2 5 1 6 7 7 8 8 9 9 10 10
REMARK H PARENT 10 11
REMARK Flexibility Score: inf
ROOT
ATOM      1  C   UNL     1      28.323  53.554  38.512  1.00  0.00    -0.027 C 
ATOM      2  C   UNL     1      27.338  54.317  38.032  1.00  0.00    -0.005 C 
ENDROOT
BRANCH   1   3
ATOM      3  C   UNL     1      29.667  54.128  38.859  1.00  0.00     0.027 C 
BRANCH   3   4
ATOM      4  C   UNL     1      30.678  53.016  39.176  1.00  0.00     0.004 C 
BRANCH   4   5
ATOM      5  C   UNL     1      30.032  51.623  39.205  1.00  0.00    -0.003 C 
ATOM      6  C   UNL     1      31.062  50.495  39.245  1.00  0.00     0.004 C 
ENDBRANCH   4   5
ENDBRANCH   3   4
ENDBRANCH   1   3
BRANCH   2   7
ATOM      7  C   UNL     1      26.030  53.739  37.685  1.00  0.00    -0.002 C 
ATOM      8  C   UNL     1      25.873  52.420  37.559  1.00  0.00     0.001 C 
BRANCH   8   9
ATOM      9  C   UNL     1      24.542  51.826  37.214  1.00  0.00     0.183 C 
BRANCH   9  10
ATOM     10  O   UNL     1      24.725  50.576  36.611  1.00  0.00    -0.392 OA
ATOM     11  H   UNL     1      24.393  49.906  37.265  1.00  0.00     0.210 HD
ENDBRANCH   9  10
ENDBRANCH   8   9
ENDBRANCH   2   7
TORSDOF 6
ENDMDL
MODEL 5
REMARK VINA RESULT:    -4.304      2.978      6.288
REMARK INTER + INTRA:          -5.951
REMARK INTER:                  -5.746
REMARK INTRA:                  -0.205
REMARK UNBOUND:                -0.263
REMARK SMILES CCCCC=CC=CCO
REMARK SMILES IDX 5 1 6 2 4 3 3 4 2 5 1 6 7 7 8 8 9 9 10 10
REMARK H PARENT 10 11
REMARK Flexibility Score: inf
ROOT
ATOM      1  C   UNL     1      24.758  51.655  37.141  1.00  0.00    -0.027 C 
ATOM      2  C   UNL     1      25.406  50.488  37.171  1.00  0.00    -0.005 C 
ENDROOT
BRANCH   1   3
ATOM      3  C   UNL     1      25.253  52.850  37.905  1.00  0.00     0.027 C 
BRANCH   3   4
ATOM      4  C   UNL     1      26.785  52.949  37.846  1.00  0.00     0.004 C 
BRANCH   4   5
ATOM      5  C   UNL     1      27.292  54.380  38.074  1.00  0.00    -0.003 C 
ATOM      6  C   UNL     1      28.711  54.421  38.640  1.00  0.00     0.004 C 
ENDBRANCH   4   5
ENDBRANCH   3   4
ENDBRANCH   1   3
BRANCH   2   7
ATOM      7  C   UNL     1      24.902  49.322  36.428  1.00  0.00    -0.002 C 
ATOM      8  C   UNL     1      23.628  49.252  36.038  1.00  0.00     0.001 C 
BRANCH   8   9
ATOM      9  C   UNL     1      23.113  48.072  35.274  1.00  0.00     0.183 C 
BRANCH   9  10
ATOM     10  O   UNL     1      21.982  48.444  34.537  1.00  0.00    -0.392 OA
ATOM     11  H   UNL     1      21.774  49.376  34.806  1.00  0.00     0.210 HD
ENDBRANCH   9  10
ENDBRANCH   8   9
ENDBRANCH   2   7
TORSDOF 6
ENDMDL
MODEL 6
REMARK VINA RESULT:    -4.301     12.254     13.314
REMARK INTER + INTRA:          -5.947
REMARK INTER:                  -5.671
REMARK INTRA:                  -0.276
REMARK UNBOUND:                -0.263
REMARK SMILES CCCCC=CC=CCO
REMARK SMILES IDX 5 1 6 2 4 3 3 4 2 5 1 6 7 7 8 8 9 9 10 10
REMARK H PARENT 10 11
REMARK Flexibility Score: inf
ROOT
ATOM      1  C   UNL     1      36.730  45.227  34.083  1.00  0.00    -0.027 C 
ATOM      2  C   UNL     1      36.365  45.322  35.364  1.00  0.00    -0.005 C 
ENDROOT
BRANCH   1   3
ATOM      3  C   UNL     1      37.097  46.440  33.277  1.00  0.00     0.027 C 
BRANCH   3   4
ATOM      4  C   UNL     1      35.847  47.114  32.691  1.00  0.00     0.004 C 
BRANCH   4   5
ATOM      5  C   UNL     1      35.714  48.582  33.121  1.00  0.00    -0.003 C 
ATOM      6  C   UNL     1      35.678  48.752  34.640  1.00  0.00     0.004 C 
ENDBRANCH   4   5
ENDBRANCH   3   4
ENDBRANCH   1   3
BRANCH   2   7
ATOM      7  C   UNL     1      35.995  44.127  36.139  1.00  0.00    -0.002 C 
ATOM      8  C   UNL     1      36.488  43.920  37.362  1.00  0.00     0.001 C 
BRANCH   8   9
ATOM      9  C   UNL     1      36.108  42.710  38.157  1.00  0.00     0.183 C 
BRANCH   9  10
ATOM     10  O   UNL     1      35.173  43.063  39.138  1.00  0.00    -0.392 OA
ATOM     11  H   UNL     1      35.556  42.764  40.003  1.00  0.00     0.210 HD
ENDBRANCH   9  10
ENDBRANCH   8   9
ENDBRANCH   2   7
TORSDOF 6
ENDMDL
MODEL 7
REMARK VINA RESULT:    -4.275      2.850      7.235
REMARK INTER + INTRA:          -5.913
REMARK INTER:                  -5.742
REMARK INTRA:                  -0.170
REMARK UNBOUND:                -0.263
REMARK SMILES CCCCC=CC=CCO
REMARK SMILES IDX 5 1 6 2 4 3 3 4 2 5 1 6 7 7 8 8 9 9 10 10
REMARK H PARENT 10 11
REMARK Flexibility Score: inf
ROOT
ATOM      1  C   UNL     1      27.455  54.054  37.913  1.00  0.00    -0.027 C 
ATOM      2  C   UNL     1      26.134  53.887  38.008  1.00  0.00    -0.005 C 
ENDROOT
BRANCH   1   3
ATOM      3  C   UNL     1      28.179  55.085  38.731  1.00  0.00     0.027 C 
BRANCH   3   4
ATOM      4  C   UNL     1      29.601  54.617  39.078  1.00  0.00     0.004 C 
BRANCH   4   5
ATOM      5  C   UNL     1      30.399  55.680  39.848  1.00  0.00    -0.003 C 
ATOM      6  C   UNL     1      29.667  57.019  39.934  1.00  0.00     0.004 C 
ENDBRANCH   4   5
ENDBRANCH   3   4
ENDBRANCH   1   3
BRANCH   2   7
ATOM      7  C   UNL     1      25.436  52.882  37.190  1.00  0.00    -0.002 C 
ATOM      8  C   UNL     1      25.114  51.689  37.694  1.00  0.00     0.001 C 
BRANCH   8   9
ATOM      9  C   UNL     1      24.396  50.666  36.869  1.00  0.00     0.183 C 
BRANCH   9  10
ATOM     10  O   UNL     1      25.305  49.704  36.413  1.00  0.00    -0.392 OA
ATOM     11  H   UNL     1      25.993  49.619  37.124  1.00  0.00     0.210 HD
ENDBRANCH   9  10
ENDBRANCH   8   9
ENDBRANCH   2   7
TORSDOF 6
ENDMDL
MODEL 8
REMARK VINA RESULT:    -4.255      1.927      2.829
REMARK INTER + INTRA:          -5.886
REMARK INTER:                  -5.578
REMARK INTRA:                  -0.307
REMARK UNBOUND:                -0.263
REMARK SMILES CCCCC=CC=CCO
REMARK SMILES IDX 5 1 6 2 4 3 3 4 2 5 1 6 7 7 8 8 9 9 10 10
REMARK H PARENT 10 11
REMARK Flexibility Score: inf
ROOT
ATOM      1  C   UNL     1      25.792  52.251  37.500  1.00  0.00    -0.027 C 
ATOM      2  C   UNL     1      25.877  53.578  37.621  1.00  0.00    -0.005 C 
ENDROOT
BRANCH   1   3
ATOM      3  C   UNL     1      24.504  51.576  37.123  1.00  0.00     0.027 C 
BRANCH   3   4
ATOM      4  C   UNL     1      24.739  50.104  36.752  1.00  0.00     0.004 C 
BRANCH   4   5
ATOM      5  C   UNL     1      26.223  49.786  36.516  1.00  0.00    -0.003 C 
ATOM      6  C   UNL     1      26.467  48.311  36.198  1.00  0.00     0.004 C 
ENDBRANCH   4   5
ENDBRANCH   3   4
ENDBRANCH   1   3
BRANCH   2   7
ATOM      7  C   UNL     1      27.142  54.225  38.003  1.00  0.00    -0.002 C 
ATOM      8  C   UNL     1      28.177  53.506  38.442  1.00  0.00     0.001 C 
BRANCH   8   9
ATOM      9  C   UNL     1      29.470  54.159  38.824  1.00  0.00     0.183 C 
BRANCH   9  10
ATOM     10  O   UNL     1      30.482  53.194  38.897  1.00  0.00    -0.392 OA
ATOM     11  H   UNL     1      31.331  53.696  39.018  1.00  0.00     0.210 HD
ENDBRANCH   9  10
ENDBRANCH   8   9
ENDBRANCH   2   7
TORSDOF 6
ENDMDL
MODEL 9
REMARK VINA RESULT:    -4.243      3.529      5.141
REMARK INTER + INTRA:          -5.871
REMARK INTER:                  -5.724
REMARK INTRA:                  -0.147
REMARK UNBOUND:                -0.263
REMARK SMILES CCCCC=CC=CCO
REMARK SMILES IDX 5 1 6 2 4 3 3 4 2 5 1 6 7 7 8 8 9 9 10 10
REMARK H PARENT 10 11
REMARK Flexibility Score: inf
ROOT
ATOM      1  C   UNL     1      21.215  48.588  36.189  1.00  0.00    -0.027 C 
ATOM      2  C   UNL     1      22.131  48.688  35.223  1.00  0.00    -0.005 C 
ENDROOT
BRANCH   1   3
ATOM      3  C   UNL     1      19.783  48.979  35.960  1.00  0.00     0.027 C 
BRANCH   3   4
ATOM      4  C   UNL     1      18.915  48.642  37.182  1.00  0.00     0.004 C 
BRANCH   4   5
ATOM      5  C   UNL     1      17.425  48.521  36.830  1.00  0.00    -0.003 C 
ATOM      6  C   UNL     1      16.980  47.072  36.635  1.00  0.00     0.004 C 
ENDBRANCH   4   5
ENDBRANCH   3   4
ENDBRANCH   1   3
BRANCH   2   7
ATOM      7  C   UNL     1      23.534  48.313  35.466  1.00  0.00    -0.002 C 
ATOM      8  C   UNL     1      24.366  49.138  36.105  1.00  0.00     0.001 C 
BRANCH   8   9
ATOM      9  C   UNL     1      25.791  48.757  36.361  1.00  0.00     0.183 C 
BRANCH   9  10
ATOM     10  O   UNL     1      26.623  49.859  36.130  1.00  0.00    -0.392 OA
ATOM     11  H   UNL     1      27.545  49.555  36.336  1.00  0.00     0.210 HD
ENDBRANCH   9  10
ENDBRANCH   8   9
ENDBRANCH   2   7
TORSDOF 6
ENDMDL
