MODEL 1
REMARK VINA RESULT:    -4.688      0.000      0.000
REMARK INTER + INTRA:          -6.202
REMARK INTER:                  -5.511
REMARK INTRA:                  -0.691
REMARK UNBOUND:                -0.691
REMARK SMILES C=C(C)[C@H]1CC[C@@]2(CO)CC[C@]3(C)[C@@H](CC[C@@H]4[C@]5(C)CC[C@@H](O)C(C)(C)[C@H]5CC[C@]43C)[C@H]12
REMARK SMILES IDX 4 1 5 2 6 3 7 4 32 5 14 6 15 7 16 8 17 9 18 10 20 11 21 12
REMARK SMILES IDX 22 13 24 14 27 15 28 16 29 17 30 18 12 19 11 20 10 21 13 22
REMARK SMILES IDX 31 23 25 24 26 25 19 26 2 27 3 28 1 29 8 30 9 31 23 33
REMARK H PARENT 9 32 23 34
REMARK Flexibility Score: inf
ROOT
ATOM      1  C   UNL     1       8.398  -4.439  -5.719  1.00  0.00     0.018 C 
ATOM      2  C   UNL     1       7.613  -5.765  -5.894  1.00  0.00     0.009 C 
ATOM      3  C   UNL     1       6.710  -5.579  -7.120  1.00  0.00     0.010 C 
ATOM      4  C   UNL     1       7.348  -4.424  -7.911  1.00  0.00    -0.003 C 
ATOM      5  C   UNL     1       7.776  -3.488  -6.764  1.00  0.00     0.008 C 
ATOM      6  C   UNL     1       8.560  -2.253  -7.290  1.00  0.00    -0.000 C 
ATOM      7  C   UNL     1       9.190  -1.370  -6.189  1.00  0.00     0.005 C 
ATOM      8  C   UNL     1       8.221  -0.375  -5.556  1.00  0.00     0.005 C 
ATOM      9  C   UNL     1       7.641   0.576  -6.635  1.00  0.00     0.002 C 
ATOM     10  C   UNL     1       7.027   1.936  -6.051  1.00  0.00    -0.026 C 
ATOM     11  C   UNL     1       6.300   1.746  -4.681  1.00  0.00     0.010 C 
ATOM     12  C   UNL     1       5.136   2.738  -4.401  1.00  0.00     0.033 C 
ATOM     13  C   UNL     1       5.214   4.106  -5.129  1.00  0.00     0.120 C 
ATOM     14  C   UNL     1       5.429   3.978  -6.698  1.00  0.00    -0.006 C 
ATOM     15  C   UNL     1       5.988   2.546  -7.056  1.00  0.00     0.003 C 
ATOM     16  C   UNL     1       6.433   2.299  -8.508  1.00  0.00     0.005 C 
ATOM     17  C   UNL     1       6.302   0.797  -8.848  1.00  0.00     0.008 C 
ATOM     18  C   UNL     1       6.816  -0.217  -7.729  1.00  0.00    -0.024 C 
ATOM     19  C   UNL     1       7.752  -1.398  -8.383  1.00  0.00    -0.024 C 
ATOM     20  C   UNL     1       6.894  -2.328  -9.351  1.00  0.00     0.008 C 
ATOM     21  C   UNL     1       6.337  -3.666  -8.792  1.00  0.00     0.010 C 
ATOM     22  C   UNL     1       8.868  -0.780  -9.308  1.00  0.00     0.012 C 
ATOM     23  C   UNL     1       5.526  -0.822  -7.069  1.00  0.00     0.012 C 
ATOM     24  C   UNL     1       4.024   4.142  -7.361  1.00  0.00     0.014 C 
ATOM     25  C   UNL     1       6.304   5.128  -7.271  1.00  0.00     0.014 C 
ATOM     26  C   UNL     1       8.248   2.888  -5.820  1.00  0.00     0.012 C 
ENDROOT
BRANCH   1  27
ATOM     27  C   UNL     1       8.324  -3.951  -4.271  1.00  0.00    -0.077 C 
ATOM     28  C   UNL     1       9.562  -3.831  -3.411  1.00  0.00     0.039 C 
ATOM     29  C   UNL     1       7.151  -3.531  -3.766  1.00  0.00     0.008 C 
ENDBRANCH   1  27
BRANCH   4  30
ATOM     30  C   UNL     1       8.499  -5.062  -8.775  1.00  0.00     0.163 C 
BRANCH  30  31
ATOM     31  O   UNL     1       8.160  -5.215 -10.125  1.00  0.00    -0.396 OA
ATOM     32  H   UNL     1       7.352  -4.657 -10.281  1.00  0.00     0.210 HD
ENDBRANCH  30  31
ENDBRANCH   4  30
BRANCH  13  33
ATOM     33  O   UNL     1       6.183   4.906  -4.497  1.00  0.00    -0.393 OA
ATOM     34  H   UNL     1       5.974   4.924  -3.526  1.00  0.00     0.210 HD
ENDBRANCH  13  33
TORSDOF 4
ENDMDL
MODEL 2
REMARK VINA RESULT:    -4.681      1.713      7.469
REMARK INTER + INTRA:          -6.193
REMARK INTER:                  -5.518
REMARK INTRA:                  -0.675
REMARK UNBOUND:                -0.691
REMARK SMILES C=C(C)[C@H]1CC[C@@]2(CO)CC[C@]3(C)[C@@H](CC[C@@H]4[C@]5(C)CC[C@@H](O)C(C)(C)[C@H]5CC[C@]43C)[C@H]12
REMARK SMILES IDX 4 1 5 2 6 3 7 4 32 5 14 6 15 7 16 8 17 9 18 10 20 11 21 12
REMARK SMILES IDX 22 13 24 14 27 15 28 16 29 17 30 18 12 19 11 20 10 21 13 22
REMARK SMILES IDX 31 23 25 24 26 25 19 26 2 27 3 28 1 29 8 30 9 31 23 33
REMARK H PARENT 9 32 23 34
REMARK Flexibility Score: inf
ROOT
ATOM      1  C   UNL     1       5.206   3.958  -5.410  1.00  0.00     0.018 C 
ATOM      2  C   UNL     1       5.922   5.036  -4.557  1.00  0.00     0.009 C 
ATOM      3  C   UNL     1       7.327   5.202  -5.151  1.00  0.00     0.010 C 
ATOM      4  C   UNL     1       7.218   4.652  -6.584  1.00  0.00    -0.003 C 
ATOM      5  C   UNL     1       6.305   3.431  -6.359  1.00  0.00     0.008 C 
ATOM      6  C   UNL     1       5.940   2.730  -7.697  1.00  0.00    -0.000 C 
ATOM      7  C   UNL     1       4.873   1.617  -7.573  1.00  0.00     0.005 C 
ATOM      8  C   UNL     1       5.427   0.269  -7.119  1.00  0.00     0.005 C 
ATOM      9  C   UNL     1       6.507  -0.233  -8.112  1.00  0.00     0.002 C 
ATOM     10  C   UNL     1       6.792  -1.808  -8.030  1.00  0.00    -0.026 C 
ATOM     11  C   UNL     1       6.722  -2.373  -6.576  1.00  0.00     0.010 C 
ATOM     12  C   UNL     1       7.621  -3.610  -6.297  1.00  0.00     0.033 C 
ATOM     13  C   UNL     1       7.972  -4.491  -7.524  1.00  0.00     0.120 C 
ATOM     14  C   UNL     1       8.572  -3.669  -8.744  1.00  0.00    -0.006 C 
ATOM     15  C   UNL     1       8.218  -2.139  -8.596  1.00  0.00     0.003 C 
ATOM     16  C   UNL     1       8.557  -1.213  -9.777  1.00  0.00     0.005 C 
ATOM     17  C   UNL     1       8.786   0.227  -9.266  1.00  0.00     0.008 C 
ATOM     18  C   UNL     1       7.741   0.755  -8.183  1.00  0.00    -0.024 C 
ATOM     19  C   UNL     1       7.220   2.269  -8.550  1.00  0.00    -0.024 C 
ATOM     20  C   UNL     1       8.413   3.319  -8.446  1.00  0.00     0.008 C 
ATOM     21  C   UNL     1       8.563   4.145  -7.139  1.00  0.00     0.010 C 
ATOM     22  C   UNL     1       6.745   2.349 -10.051  1.00  0.00     0.012 C 
ATOM     23  C   UNL     1       8.498   0.739  -6.808  1.00  0.00     0.012 C 
ATOM     24  C   UNL     1      10.125  -3.828  -8.674  1.00  0.00     0.014 C 
ATOM     25  C   UNL     1       8.149  -4.257 -10.118  1.00  0.00     0.014 C 
ATOM     26  C   UNL     1       5.658  -2.489  -8.866  1.00  0.00     0.012 C 
ENDROOT
BRANCH   1  27
ATOM     27  C   UNL     1       4.558   2.900  -4.516  1.00  0.00    -0.077 C 
ATOM     28  C   UNL     1       5.346   1.729  -3.974  1.00  0.00     0.039 C 
ATOM     29  C   UNL     1       3.281   3.048  -4.123  1.00  0.00     0.008 C 
ENDBRANCH   1  27
BRANCH   4  30
ATOM     30  C   UNL     1       6.637   5.822  -7.464  1.00  0.00     0.163 C 
BRANCH  30  31
ATOM     31  O   UNL     1       7.603   6.758  -7.852  1.00  0.00    -0.396 OA
ATOM     32  H   UNL     1       7.725   6.652  -8.834  1.00  0.00     0.210 HD
ENDBRANCH  30  31
ENDBRANCH   4  30
BRANCH  13  33
ATOM     33  O   UNL     1       6.847  -5.261  -7.870  1.00  0.00    -0.393 OA
ATOM     34  H   UNL     1       6.167  -4.648  -8.258  1.00  0.00     0.210 HD
ENDBRANCH  13  33
TORSDOF 4
ENDMDL
MODEL 3
REMARK VINA RESULT:    -4.292      1.310      7.810
REMARK INTER + INTRA:          -5.736
REMARK INTER:                  -4.950
REMARK INTRA:                  -0.786
REMARK UNBOUND:                -0.691
REMARK SMILES C=C(C)[C@H]1CC[C@@]2(CO)CC[C@]3(C)[C@@H](CC[C@@H]4[C@]5(C)CC[C@@H](O)C(C)(C)[C@H]5CC[C@]43C)[C@H]12
REMARK SMILES IDX 4 1 5 2 6 3 7 4 32 5 14 6 15 7 16 8 17 9 18 10 20 11 21 12
REMARK SMILES IDX 22 13 24 14 27 15 28 16 29 17 30 18 12 19 11 20 10 21 13 22
REMARK SMILES IDX 31 23 25 24 26 25 19 26 2 27 3 28 1 29 8 30 9 31 23 33
REMARK H PARENT 9 32 23 34
REMARK Flexibility Score: inf
ROOT
ATOM      1  C   UNL     1       5.735   3.893  -7.849  1.00  0.00     0.018 C 
ATOM      2  C   UNL     1       4.357   4.531  -7.538  1.00  0.00     0.009 C 
ATOM      3  C   UNL     1       3.792   3.782  -6.325  1.00  0.00     0.010 C 
ATOM      4  C   UNL     1       5.016   3.132  -5.656  1.00  0.00    -0.003 C 
ATOM      5  C   UNL     1       5.819   2.684  -6.892  1.00  0.00     0.008 C 
ATOM      6  C   UNL     1       7.191   2.070  -6.496  1.00  0.00    -0.000 C 
ATOM      7  C   UNL     1       8.135   1.776  -7.685  1.00  0.00     0.005 C 
ATOM      8  C   UNL     1       7.850   0.458  -8.399  1.00  0.00     0.005 C 
ATOM      9  C   UNL     1       7.970  -0.730  -7.408  1.00  0.00     0.002 C 
ATOM     10  C   UNL     1       8.185  -2.153  -8.113  1.00  0.00    -0.026 C 
ATOM     11  C   UNL     1       7.390  -2.306  -9.448  1.00  0.00     0.010 C 
ATOM     12  C   UNL     1       6.965  -3.758  -9.807  1.00  0.00     0.033 C 
ATOM     13  C   UNL     1       7.840  -4.894  -9.215  1.00  0.00     0.120 C 
ATOM     14  C   UNL     1       8.047  -4.780  -7.644  1.00  0.00    -0.006 C 
ATOM     15  C   UNL     1       7.732  -3.313  -7.157  1.00  0.00     0.003 C 
ATOM     16  C   UNL     1       8.054  -2.964  -5.694  1.00  0.00     0.005 C 
ATOM     17  C   UNL     1       7.129  -1.825  -5.211  1.00  0.00     0.008 C 
ATOM     18  C   UNL     1       6.915  -0.620  -6.233  1.00  0.00    -0.024 C 
ATOM     19  C   UNL     1       7.071   0.832  -5.481  1.00  0.00    -0.024 C 
ATOM     20  C   UNL     1       5.904   1.046  -4.418  1.00  0.00     0.008 C 
ATOM     21  C   UNL     1       4.660   1.875  -4.839  1.00  0.00     0.010 C 
ATOM     22  C   UNL     1       8.399   0.884  -4.634  1.00  0.00     0.012 C 
ATOM     23  C   UNL     1       5.468  -0.798  -6.816  1.00  0.00     0.012 C 
ATOM     24  C   UNL     1       7.019  -5.754  -6.982  1.00  0.00     0.014 C 
ATOM     25  C   UNL     1       9.449  -5.277  -7.195  1.00  0.00     0.014 C 
ATOM     26  C   UNL     1       9.712  -2.234  -8.448  1.00  0.00     0.012 C 
ENDROOT
BRANCH   1  27
ATOM     27  C   UNL     1       5.854   3.554  -9.336  1.00  0.00    -0.077 C 
ATOM     28  C   UNL     1       5.006   2.478  -9.974  1.00  0.00     0.039 C 
ATOM     29  C   UNL     1       6.665   4.282 -10.125  1.00  0.00     0.008 C 
ENDBRANCH   1  27
BRANCH   4  30
ATOM     30  C   UNL     1       5.666   4.242  -4.749  1.00  0.00     0.163 C 
BRANCH  30  31
ATOM     31  O   UNL     1       4.842   4.651  -3.694  1.00  0.00    -0.396 OA
ATOM     32  H   UNL     1       4.813   5.645  -3.723  1.00  0.00     0.210 HD
ENDBRANCH  30  31
ENDBRANCH   4  30
BRANCH  13  33
ATOM     33  O   UNL     1       9.047  -4.962  -9.933  1.00  0.00    -0.393 OA
ATOM     34  H   UNL     1       8.945  -4.410 -10.752  1.00  0.00     0.210 HD
ENDBRANCH  13  33
TORSDOF 4
ENDMDL
MODEL 4
REMARK VINA RESULT:    -4.122      2.420      7.217
REMARK INTER + INTRA:          -5.536
REMARK INTER:                  -4.921
REMARK INTRA:                  -0.615
REMARK UNBOUND:                -0.691
REMARK SMILES C=C(C)[C@H]1CC[C@@]2(CO)CC[C@]3(C)[C@@H](CC[C@@H]4[C@]5(C)CC[C@@H](O)C(C)(C)[C@H]5CC[C@]43C)[C@H]12
REMARK SMILES IDX 4 1 5 2 6 3 7 4 32 5 14 6 15 7 16 8 17 9 18 10 20 11 21 12
REMARK SMILES IDX 22 13 24 14 27 15 28 16 29 17 30 18 12 19 11 20 10 21 13 22
REMARK SMILES IDX 31 23 25 24 26 25 19 26 2 27 3 28 1 29 8 30 9 31 23 33
REMARK H PARENT 9 32 23 34
REMARK Flexibility Score: inf
ROOT
ATOM      1  C   UNL     1       5.552   4.536  -6.652  1.00  0.00     0.018 C 
ATOM      2  C   UNL     1       5.977   5.533  -7.760  1.00  0.00     0.009 C 
ATOM      3  C   UNL     1       6.299   4.693  -9.004  1.00  0.00     0.010 C 
ATOM      4  C   UNL     1       5.574   3.355  -8.777  1.00  0.00    -0.003 C 
ATOM      5  C   UNL     1       5.816   3.145  -7.270  1.00  0.00     0.008 C 
ATOM      6  C   UNL     1       5.083   1.882  -6.739  1.00  0.00    -0.000 C 
ATOM      7  C   UNL     1       5.118   1.711  -5.202  1.00  0.00     0.005 C 
ATOM      8  C   UNL     1       6.403   1.082  -4.672  1.00  0.00     0.005 C 
ATOM      9  C   UNL     1       6.615  -0.321  -5.297  1.00  0.00     0.002 C 
ATOM     10  C   UNL     1       7.618  -1.262  -4.475  1.00  0.00    -0.026 C 
ATOM     11  C   UNL     1       8.814  -0.483  -3.841  1.00  0.00     0.010 C 
ATOM     12  C   UNL     1      10.125  -1.301  -3.667  1.00  0.00     0.033 C 
ATOM     13  C   UNL     1       9.959  -2.838  -3.537  1.00  0.00     0.120 C 
ATOM     14  C   UNL     1       9.089  -3.482  -4.699  1.00  0.00    -0.006 C 
ATOM     15  C   UNL     1       8.219  -2.373  -5.407  1.00  0.00     0.003 C 
ATOM     16  C   UNL     1       7.174  -2.837  -6.436  1.00  0.00     0.005 C 
ATOM     17  C   UNL     1       6.918  -1.715  -7.466  1.00  0.00     0.008 C 
ATOM     18  C   UNL     1       6.772  -0.243  -6.871  1.00  0.00    -0.024 C 
ATOM     19  C   UNL     1       5.479   0.535  -7.520  1.00  0.00    -0.024 C 
ATOM     20  C   UNL     1       5.697   0.793  -9.076  1.00  0.00     0.008 C 
ATOM     21  C   UNL     1       6.224   2.181  -9.532  1.00  0.00     0.010 C 
ATOM     22  C   UNL     1       4.187  -0.363  -7.440  1.00  0.00     0.012 C 
ATOM     23  C   UNL     1       8.110   0.501  -7.222  1.00  0.00     0.012 C 
ATOM     24  C   UNL     1      10.093  -4.067  -5.743  1.00  0.00     0.014 C 
ATOM     25  C   UNL     1       8.243  -4.688  -4.204  1.00  0.00     0.014 C 
ATOM     26  C   UNL     1       6.769  -1.872  -3.310  1.00  0.00     0.012 C 
ENDROOT
BRANCH   1  27
ATOM     27  C   UNL     1       6.301   4.821  -5.349  1.00  0.00    -0.077 C 
ATOM     28  C   UNL     1       7.809   4.758  -5.271  1.00  0.00     0.039 C 
ATOM     29  C   UNL     1       5.621   5.223  -4.261  1.00  0.00     0.008 C 
ENDBRANCH   1  27
BRANCH   4  30
ATOM     30  C   UNL     1       4.083   3.577  -9.233  1.00  0.00     0.163 C 
BRANCH  30  31
ATOM     31  O   UNL     1       3.920   4.681 -10.078  1.00  0.00    -0.396 OA
ATOM     32  H   UNL     1       3.116   5.171  -9.756  1.00  0.00     0.210 HD
ENDBRANCH  30  31
ENDBRANCH   4  30
BRANCH  13  33
ATOM     33  O   UNL     1       9.481  -3.139  -2.249  1.00  0.00    -0.393 OA
ATOM     34  H   UNL     1       9.974  -3.937  -1.921  1.00  0.00     0.210 HD
ENDBRANCH  13  33
TORSDOF 4
ENDMDL
MODEL 5
REMARK VINA RESULT:    -3.851      1.754      2.610
REMARK INTER + INTRA:          -5.217
REMARK INTER:                  -4.685
REMARK INTRA:                  -0.532
REMARK UNBOUND:                -0.691
REMARK SMILES C=C(C)[C@H]1CC[C@@]2(CO)CC[C@]3(C)[C@@H](CC[C@@H]4[C@]5(C)CC[C@@H](O)C(C)(C)[C@H]5CC[C@]43C)[C@H]12
REMARK SMILES IDX 4 1 5 2 6 3 7 4 32 5 14 6 15 7 16 8 17 9 18 10 20 11 21 12
REMARK SMILES IDX 22 13 24 14 27 15 28 16 29 17 30 18 12 19 11 20 10 21 13 22
REMARK SMILES IDX 31 23 25 24 26 25 19 26 2 27 3 28 1 29 8 30 9 31 23 33
REMARK H PARENT 9 32 23 34
REMARK Flexibility Score: inf
ROOT
ATOM      1  C   UNL     1       7.200  -3.845  -2.850  1.00  0.00     0.018 C 
ATOM      2  C   UNL     1       6.563  -5.248  -3.022  1.00  0.00     0.009 C 
ATOM      3  C   UNL     1       6.625  -5.576  -4.519  1.00  0.00     0.010 C 
ATOM      4  C   UNL     1       7.723  -4.655  -5.081  1.00  0.00    -0.003 C 
ATOM      5  C   UNL     1       7.446  -3.359  -4.295  1.00  0.00     0.008 C 
ATOM      6  C   UNL     1       8.503  -2.262  -4.601  1.00  0.00    -0.000 C 
ATOM      7  C   UNL     1       8.407  -1.003  -3.708  1.00  0.00     0.005 C 
ATOM      8  C   UNL     1       7.356   0.006  -4.161  1.00  0.00     0.005 C 
ATOM      9  C   UNL     1       7.656   0.486  -5.605  1.00  0.00     0.002 C 
ATOM     10  C   UNL     1       6.948   1.870  -5.997  1.00  0.00    -0.026 C 
ATOM     11  C   UNL     1       5.520   2.027  -5.384  1.00  0.00     0.010 C 
ATOM     12  C   UNL     1       4.533   2.899  -6.211  1.00  0.00     0.033 C 
ATOM     13  C   UNL     1       5.174   3.967  -7.136  1.00  0.00     0.120 C 
ATOM     14  C   UNL     1       6.292   3.381  -8.100  1.00  0.00    -0.006 C 
ATOM     15  C   UNL     1       6.810   1.994  -7.555  1.00  0.00     0.003 C 
ATOM     16  C   UNL     1       8.025   1.363  -8.257  1.00  0.00     0.005 C 
ATOM     17  C   UNL     1       7.985  -0.173  -8.094  1.00  0.00     0.008 C 
ATOM     18  C   UNL     1       7.603  -0.709  -6.642  1.00  0.00    -0.024 C 
ATOM     19  C   UNL     1       8.623  -1.905  -6.162  1.00  0.00    -0.024 C 
ATOM     20  C   UNL     1       8.454  -3.194  -7.082  1.00  0.00     0.008 C 
ATOM     21  C   UNL     1       7.544  -4.349  -6.580  1.00  0.00     0.010 C 
ATOM     22  C   UNL     1      10.125  -1.470  -6.355  1.00  0.00     0.012 C 
ATOM     23  C   UNL     1       6.128  -1.238  -6.749  1.00  0.00     0.012 C 
ATOM     24  C   UNL     1       5.613   3.146  -9.488  1.00  0.00     0.014 C 
ATOM     25  C   UNL     1       7.440   4.396  -8.358  1.00  0.00     0.014 C 
ATOM     26  C   UNL     1       7.856   2.995  -5.398  1.00  0.00     0.012 C 
ENDROOT
BRANCH   1  27
ATOM     27  C   UNL     1       6.302  -2.941  -2.004  1.00  0.00    -0.077 C 
ATOM     28  C   UNL     1       5.242  -2.065  -2.632  1.00  0.00     0.039 C 
ATOM     29  C   UNL     1       6.385  -2.981  -0.662  1.00  0.00     0.008 C 
ENDBRANCH   1  27
BRANCH   4  30
ATOM     30  C   UNL     1       9.093  -5.378  -4.801  1.00  0.00     0.163 C 
BRANCH  30  31
ATOM     31  O   UNL     1       9.055  -6.755  -5.048  1.00  0.00    -0.396 OA
ATOM     32  H   UNL     1       9.948  -7.115  -4.797  1.00  0.00     0.210 HD
ENDBRANCH  30  31
ENDBRANCH   4  30
BRANCH  13  33
ATOM     33  O   UNL     1       5.623   5.043  -6.350  1.00  0.00    -0.393 OA
ATOM     34  H   UNL     1       5.013   5.123  -5.569  1.00  0.00     0.210 HD
ENDBRANCH  13  33
TORSDOF 4
ENDMDL
MODEL 6
REMARK VINA RESULT:    -3.381      2.559      6.869
REMARK INTER + INTRA:          -4.665
REMARK INTER:                  -3.910
REMARK INTRA:                  -0.755
REMARK UNBOUND:                -0.691
REMARK SMILES C=C(C)[C@H]1CC[C@@]2(CO)CC[C@]3(C)[C@@H](CC[C@@H]4[C@]5(C)CC[C@@H](O)C(C)(C)[C@H]5CC[C@]43C)[C@H]12
REMARK SMILES IDX 4 1 5 2 6 3 7 4 32 5 14 6 15 7 16 8 17 9 18 10 20 11 21 12
REMARK SMILES IDX 22 13 24 14 27 15 28 16 29 17 30 18 12 19 11 20 10 21 13 22
REMARK SMILES IDX 31 23 25 24 26 25 19 26 2 27 3 28 1 29 8 30 9 31 23 33
REMARK H PARENT 9 32 23 34
REMARK Flexibility Score: inf
ROOT
ATOM      1  C   UNL     1       7.999   1.400  -8.806  1.00  0.00     0.018 C 
ATOM      2  C   UNL     1       7.241   1.699 -10.125  1.00  0.00     0.009 C 
ATOM      3  C   UNL     1       5.788   1.999  -9.736  1.00  0.00     0.010 C 
ATOM      4  C   UNL     1       5.847   2.383  -8.247  1.00  0.00    -0.003 C 
ATOM      5  C   UNL     1       6.892   1.377  -7.729  1.00  0.00     0.008 C 
ATOM      6  C   UNL     1       7.229   1.616  -6.230  1.00  0.00    -0.000 C 
ATOM      7  C   UNL     1       8.408   0.775  -5.690  1.00  0.00     0.005 C 
ATOM      8  C   UNL     1       8.028  -0.647  -5.287  1.00  0.00     0.005 C 
ATOM      9  C   UNL     1       6.935  -0.623  -4.187  1.00  0.00     0.002 C 
ATOM     10  C   UNL     1       6.816  -1.984  -3.349  1.00  0.00    -0.026 C 
ATOM     11  C   UNL     1       7.049  -3.263  -4.214  1.00  0.00     0.010 C 
ATOM     12  C   UNL     1       6.301  -4.538  -3.732  1.00  0.00     0.033 C 
ATOM     13  C   UNL     1       5.953  -4.597  -2.222  1.00  0.00     0.120 C 
ATOM     14  C   UNL     1       5.186  -3.309  -1.698  1.00  0.00    -0.006 C 
ATOM     15  C   UNL     1       5.393  -2.106  -2.697  1.00  0.00     0.003 C 
ATOM     16  C   UNL     1       4.878  -0.723  -2.264  1.00  0.00     0.005 C 
ATOM     17  C   UNL     1       4.543   0.126  -3.511  1.00  0.00     0.008 C 
ATOM     18  C   UNL     1       5.605   0.067  -4.699  1.00  0.00    -0.024 C 
ATOM     19  C   UNL     1       5.943   1.570  -5.269  1.00  0.00    -0.024 C 
ATOM     20  C   UNL     1       4.661   2.215  -5.959  1.00  0.00     0.008 C 
ATOM     21  C   UNL     1       4.524   2.121  -7.504  1.00  0.00     0.010 C 
ATOM     22  C   UNL     1       6.297   2.550  -4.087  1.00  0.00     0.012 C 
ATOM     23  C   UNL     1       4.955  -0.825  -5.817  1.00  0.00     0.012 C 
ATOM     24  C   UNL     1       3.666  -3.670  -1.666  1.00  0.00     0.014 C 
ATOM     25  C   UNL     1       5.565  -2.949  -0.234  1.00  0.00     0.014 C 
ATOM     26  C   UNL     1       7.950  -1.919  -2.271  1.00  0.00     0.012 C 
ENDROOT
BRANCH   1  27
ATOM     27  C   UNL     1       8.814   0.111  -8.928  1.00  0.00    -0.077 C 
ATOM     28  C   UNL     1       8.164  -1.250  -8.828  1.00  0.00     0.039 C 
ATOM     29  C   UNL     1      10.125   0.174  -9.219  1.00  0.00     0.008 C 
ENDBRANCH   1  27
BRANCH   4  30
ATOM     30  C   UNL     1       6.242   3.907  -8.199  1.00  0.00     0.163 C 
BRANCH  30  31
ATOM     31  O   UNL     1       5.151   4.769  -8.360  1.00  0.00    -0.396 OA
ATOM     32  H   UNL     1       5.026   5.236  -7.490  1.00  0.00     0.210 HD
ENDBRANCH  30  31
ENDBRANCH   4  30
BRANCH  13  33
ATOM     33  O   UNL     1       7.121  -4.885  -1.494  1.00  0.00    -0.393 OA
ATOM     34  H   UNL     1       6.882  -5.531  -0.778  1.00  0.00     0.210 HD
ENDBRANCH  13  33
TORSDOF 4
ENDMDL
MODEL 7
REMARK VINA RESULT:    -3.378      2.507      8.601
REMARK INTER + INTRA:          -4.661
REMARK INTER:                  -3.870
REMARK INTRA:                  -0.791
REMARK UNBOUND:                -0.691
REMARK SMILES C=C(C)[C@H]1CC[C@@]2(CO)CC[C@]3(C)[C@@H](CC[C@@H]4[C@]5(C)CC[C@@H](O)C(C)(C)[C@H]5CC[C@]43C)[C@H]12
REMARK SMILES IDX 4 1 5 2 6 3 7 4 32 5 14 6 15 7 16 8 17 9 18 10 20 11 21 12
REMARK SMILES IDX 22 13 24 14 27 15 28 16 29 17 30 18 12 19 11 20 10 21 13 22
REMARK SMILES IDX 31 23 25 24 26 25 19 26 2 27 3 28 1 29 8 30 9 31 23 33
REMARK H PARENT 9 32 23 34
REMARK Flexibility Score: inf
ROOT
ATOM      1  C   UNL     1       6.788  -0.687  -7.322  1.00  0.00     0.018 C 
ATOM      2  C   UNL     1       5.487   0.154  -7.284  1.00  0.00     0.009 C 
ATOM      3  C   UNL     1       4.875  -0.049  -5.892  1.00  0.00     0.010 C 
ATOM      4  C   UNL     1       6.042  -0.534  -5.014  1.00  0.00    -0.003 C 
ATOM      5  C   UNL     1       6.772  -1.474  -5.993  1.00  0.00     0.008 C 
ATOM      6  C   UNL     1       8.084  -2.038  -5.380  1.00  0.00    -0.000 C 
ATOM      7  C   UNL     1       8.969  -2.832  -6.368  1.00  0.00     0.005 C 
ATOM      8  C   UNL     1       8.540  -4.283  -6.564  1.00  0.00     0.005 C 
ATOM      9  C   UNL     1       8.562  -5.041  -5.212  1.00  0.00     0.002 C 
ATOM     10  C   UNL     1       8.621  -6.637  -5.353  1.00  0.00    -0.026 C 
ATOM     11  C   UNL     1       7.788  -7.179  -6.557  1.00  0.00     0.010 C 
ATOM     12  C   UNL     1       7.213  -8.613  -6.378  1.00  0.00     0.033 C 
ATOM     13  C   UNL     1       7.984  -9.541  -5.402  1.00  0.00     0.120 C 
ATOM     14  C   UNL     1       8.232  -8.892  -3.974  1.00  0.00    -0.006 C 
ATOM     15  C   UNL     1       8.074  -7.324  -4.052  1.00  0.00     0.003 C 
ATOM     16  C   UNL     1       8.459  -6.507  -2.808  1.00  0.00     0.005 C 
ATOM     17  C   UNL     1       7.662  -5.184  -2.781  1.00  0.00     0.008 C 
ATOM     18  C   UNL     1       7.548  -4.412  -4.172  1.00  0.00    -0.024 C 
ATOM     19  C   UNL     1       7.862  -2.810  -3.989  1.00  0.00    -0.024 C 
ATOM     20  C   UNL     1       6.744  -2.113  -3.094  1.00  0.00     0.008 C 
ATOM     21  C   UNL     1       5.580  -1.371  -3.806  1.00  0.00     0.010 C 
ATOM     22  C   UNL     1       9.205  -2.590  -3.196  1.00  0.00     0.012 C 
ATOM     23  C   UNL     1       6.079  -4.643  -4.676  1.00  0.00     0.012 C 
ATOM     24  C   UNL     1       7.127  -9.455  -3.024  1.00  0.00     0.014 C 
ATOM     25  C   UNL     1       9.587  -9.332  -3.353  1.00  0.00     0.014 C 
ATOM     26  C   UNL     1      10.125  -6.985  -5.612  1.00  0.00     0.012 C 
ENDROOT
BRANCH   1  27
ATOM     27  C   UNL     1       6.843  -1.548  -8.585  1.00  0.00    -0.077 C 
ATOM     28  C   UNL     1       7.908  -1.344  -9.638  1.00  0.00     0.039 C 
ATOM     29  C   UNL     1       5.983  -2.571  -8.735  1.00  0.00     0.008 C 
ENDBRANCH   1  27
BRANCH   4  30
ATOM     30  C   UNL     1       6.817   0.758  -4.556  1.00  0.00     0.163 C 
BRANCH  30  31
ATOM     31  O   UNL     1       5.979   1.850  -4.306  1.00  0.00    -0.396 OA
ATOM     32  H   UNL     1       6.514   2.668  -4.487  1.00  0.00     0.210 HD
ENDBRANCH  30  31
ENDBRANCH   4  30
BRANCH  13  33
ATOM     33  O   UNL     1       9.163  -9.983  -6.027  1.00  0.00    -0.393 OA
ATOM     34  H   UNL     1       9.524  -9.228  -6.563  1.00  0.00     0.210 HD
ENDBRANCH  13  33
TORSDOF 4
ENDMDL
MODEL 8
REMARK VINA RESULT:    -3.337      1.489      7.708
REMARK INTER + INTRA:          -4.613
REMARK INTER:                  -4.131
REMARK INTRA:                  -0.483
REMARK UNBOUND:                -0.691
REMARK SMILES C=C(C)[C@H]1CC[C@@]2(CO)CC[C@]3(C)[C@@H](CC[C@@H]4[C@]5(C)CC[C@@H](O)C(C)(C)[C@H]5CC[C@]43C)[C@H]12
REMARK SMILES IDX 4 1 5 2 6 3 7 4 32 5 14 6 15 7 16 8 17 9 18 10 20 11 21 12
REMARK SMILES IDX 22 13 24 14 27 15 28 16 29 17 30 18 12 19 11 20 10 21 13 22
REMARK SMILES IDX 31 23 25 24 26 25 19 26 2 27 3 28 1 29 8 30 9 31 23 33
REMARK H PARENT 9 32 23 34
REMARK Flexibility Score: inf
ROOT
ATOM      1  C   UNL     1       5.472   2.186  -8.060  1.00  0.00     0.018 C 
ATOM      2  C   UNL     1       4.543   3.147  -7.274  1.00  0.00     0.009 C 
ATOM      3  C   UNL     1       5.026   3.128  -5.818  1.00  0.00     0.010 C 
ATOM      4  C   UNL     1       6.475   2.615  -5.887  1.00  0.00    -0.003 C 
ATOM      5  C   UNL     1       6.346   1.526  -6.971  1.00  0.00     0.008 C 
ATOM      6  C   UNL     1       7.723   0.897  -7.322  1.00  0.00    -0.000 C 
ATOM      7  C   UNL     1       7.705  -0.063  -8.535  1.00  0.00     0.005 C 
ATOM      8  C   UNL     1       7.240  -1.478  -8.204  1.00  0.00     0.005 C 
ATOM      9  C   UNL     1       8.160  -2.111  -7.128  1.00  0.00     0.002 C 
ATOM     10  C   UNL     1       8.091  -3.711  -7.064  1.00  0.00    -0.026 C 
ATOM     11  C   UNL     1       6.659  -4.278  -7.322  1.00  0.00     0.010 C 
ATOM     12  C   UNL     1       6.341  -5.628  -6.621  1.00  0.00     0.033 C 
ATOM     13  C   UNL     1       7.558  -6.534  -6.298  1.00  0.00     0.120 C 
ATOM     14  C   UNL     1       8.710  -5.787  -5.499  1.00  0.00    -0.006 C 
ATOM     15  C   UNL     1       8.556  -4.225  -5.655  1.00  0.00     0.003 C 
ATOM     16  C   UNL     1       9.687  -3.340  -5.104  1.00  0.00     0.005 C 
ATOM     17  C   UNL     1       9.128  -1.951  -4.725  1.00  0.00     0.008 C 
ATOM     18  C   UNL     1       8.116  -1.298  -5.770  1.00  0.00    -0.024 C 
ATOM     19  C   UNL     1       8.487   0.277  -6.053  1.00  0.00    -0.024 C 
ATOM     20  C   UNL     1       8.271   1.154  -4.741  1.00  0.00     0.008 C 
ATOM     21  C   UNL     1       6.938   1.937  -4.584  1.00  0.00     0.010 C 
ATOM     22  C   UNL     1      10.017   0.438  -6.394  1.00  0.00     0.012 C 
ATOM     23  C   UNL     1       6.688  -1.433  -5.131  1.00  0.00     0.012 C 
ATOM     24  C   UNL     1       8.526  -6.156  -3.992  1.00  0.00     0.014 C 
ATOM     25  C   UNL     1      10.125  -6.297  -5.889  1.00  0.00     0.014 C 
ATOM     26  C   UNL     1       9.026  -4.222  -8.211  1.00  0.00     0.012 C 
ENDROOT
BRANCH   1  27
ATOM     27  C   UNL     1       4.653   1.215  -8.912  1.00  0.00    -0.077 C 
ATOM     28  C   UNL     1       4.235  -0.140  -8.388  1.00  0.00     0.039 C 
ATOM     29  C   UNL     1       4.212   1.596 -10.124  1.00  0.00     0.008 C 
ENDBRANCH   1  27
BRANCH   4  30
ATOM     30  C   UNL     1       7.370   3.862  -6.236  1.00  0.00     0.163 C 
BRANCH  30  31
ATOM     31  O   UNL     1       7.556   4.732  -5.155  1.00  0.00    -0.396 OA
ATOM     32  H   UNL     1       8.282   4.343  -4.597  1.00  0.00     0.210 HD
ENDBRANCH  30  31
ENDBRANCH   4  30
BRANCH  13  33
ATOM     33  O   UNL     1       8.004  -7.141  -7.485  1.00  0.00    -0.393 OA
ATOM     34  H   UNL     1       8.344  -8.045  -7.255  1.00  0.00     0.210 HD
ENDBRANCH  13  33
TORSDOF 4
ENDMDL
MODEL 9
REMARK VINA RESULT:    -3.282      2.183      4.113
REMARK INTER + INTRA:          -4.549
REMARK INTER:                  -3.766
REMARK INTRA:                  -0.783
REMARK UNBOUND:                -0.691
REMARK SMILES C=C(C)[C@H]1CC[C@@]2(CO)CC[C@]3(C)[C@@H](CC[C@@H]4[C@]5(C)CC[C@@H](O)C(C)(C)[C@H]5CC[C@]43C)[C@H]12
REMARK SMILES IDX 4 1 5 2 6 3 7 4 32 5 14 6 15 7 16 8 17 9 18 10 20 11 21 12
REMARK SMILES IDX 22 13 24 14 27 15 28 16 29 17 30 18 12 19 11 20 10 21 13 22
REMARK SMILES IDX 31 23 25 24 26 25 19 26 2 27 3 28 1 29 8 30 9 31 23 33
REMARK H PARENT 9 32 23 34
REMARK Flexibility Score: inf
ROOT
ATOM      1  C   UNL     1       8.499  -4.172  -6.655  1.00  0.00     0.018 C 
ATOM      2  C   UNL     1       9.672  -4.869  -5.921  1.00  0.00     0.009 C 
ATOM      3  C   UNL     1       9.929  -4.062  -4.641  1.00  0.00     0.010 C 
ATOM      4  C   UNL     1       8.624  -3.284  -4.396  1.00  0.00    -0.003 C 
ATOM      5  C   UNL     1       8.247  -2.887  -5.836  1.00  0.00     0.008 C 
ATOM      6  C   UNL     1       6.876  -2.157  -5.892  1.00  0.00    -0.000 C 
ATOM      7  C   UNL     1       6.338  -1.900  -7.319  1.00  0.00     0.005 C 
ATOM      8  C   UNL     1       6.925  -0.664  -7.995  1.00  0.00     0.005 C 
ATOM      9  C   UNL     1       6.628   0.604  -7.153  1.00  0.00     0.002 C 
ATOM     10  C   UNL     1       6.743   1.978  -7.972  1.00  0.00    -0.026 C 
ATOM     11  C   UNL     1       7.895   1.972  -9.026  1.00  0.00     0.010 C 
ATOM     12  C   UNL     1       8.526   3.361  -9.330  1.00  0.00     0.033 C 
ATOM     13  C   UNL     1       7.617   4.593  -9.084  1.00  0.00     0.120 C 
ATOM     14  C   UNL     1       6.962   4.620  -7.637  1.00  0.00    -0.006 C 
ATOM     15  C   UNL     1       7.001   3.179  -6.995  1.00  0.00     0.003 C 
ATOM     16  C   UNL     1       6.247   2.970  -5.671  1.00  0.00     0.005 C 
ATOM     17  C   UNL     1       6.896   1.817  -4.874  1.00  0.00     0.008 C 
ATOM     18  C   UNL     1       7.290   0.523  -5.718  1.00  0.00    -0.024 C 
ATOM     19  C   UNL     1       6.805  -0.852  -4.960  1.00  0.00    -0.024 C 
ATOM     20  C   UNL     1       7.598  -1.053  -3.593  1.00  0.00     0.008 C 
ATOM     21  C   UNL     1       8.837  -1.991  -3.586  1.00  0.00     0.010 C 
ATOM     22  C   UNL     1       5.292  -0.751  -4.533  1.00  0.00     0.012 C 
ATOM     23  C   UNL     1       8.853   0.561  -5.866  1.00  0.00     0.012 C 
ATOM     24  C   UNL     1       7.836   5.576  -6.764  1.00  0.00     0.014 C 
ATOM     25  C   UNL     1       5.537   5.239  -7.645  1.00  0.00     0.014 C 
ATOM     26  C   UNL     1       5.388   2.129  -8.740  1.00  0.00     0.012 C 
ENDROOT
BRANCH   1  27
ATOM     27  C   UNL     1       8.837  -3.946  -8.130  1.00  0.00    -0.077 C 
ATOM     28  C   UNL     1       9.859  -2.919  -8.560  1.00  0.00     0.039 C 
ATOM     29  C   UNL     1       8.287  -4.734  -9.070  1.00  0.00     0.008 C 
ENDBRANCH   1  27
BRANCH   4  30
ATOM     30  C   UNL     1       7.651  -4.274  -3.653  1.00  0.00     0.163 C 
BRANCH  30  31
ATOM     31  O   UNL     1       8.291  -5.066  -2.692  1.00  0.00    -0.396 OA
ATOM     32  H   UNL     1       7.592  -5.347  -2.043  1.00  0.00     0.210 HD
ENDBRANCH  30  31
ENDBRANCH   4  30
BRANCH  13  33
ATOM     33  O   UNL     1       6.675   4.681 -10.125  1.00  0.00    -0.393 OA
ATOM     34  H   UNL     1       7.169   4.862 -10.967  1.00  0.00     0.210 HD
ENDBRANCH  13  33
TORSDOF 4
ENDMDL
