MODEL 1
REMARK VINA RESULT:    -4.236      0.000      0.000
REMARK INTER + INTRA:          -6.931
REMARK INTER:                  -6.464
REMARK INTRA:                  -0.467
REMARK UNBOUND:                -0.467
REMARK SMILES O=C([O-])CCCCCCCCC(=O)[O-]
REMARK SMILES IDX 7 1 6 2 5 3 4 4 2 5 1 6 3 7 8 8 9 9 10 10 11 11 12 12 13 13
REMARK SMILES IDX 14 14
REMARK H PARENT
REMARK Flexibility Score: inf
ROOT
ATOM      1  C   UNL     1      -4.601   2.200  14.979  1.00  0.00     0.000 C 
ENDROOT
BRANCH   1   2
ATOM      2  C   UNL     1      -5.194   3.180  16.005  1.00  0.00     0.000 C 
BRANCH   2   3
ATOM      3  C   UNL     1      -6.662   2.876  16.372  1.00  0.00     0.006 C 
BRANCH   3   4
ATOM      4  C   UNL     1      -7.534   4.139  16.379  1.00  0.00     0.053 C 
BRANCH   4   5
ATOM      5  C   UNL     1      -8.063   4.417  15.008  1.00  0.00     0.041 C 
ATOM      6  O   UNL     1      -9.200   3.995  14.669  1.00  0.00    -0.550 OA
ATOM      7  O   UNL     1      -7.320   5.184  14.119  1.00  0.00    -0.550 OA
ENDBRANCH   4   5
ENDBRANCH   3   4
ENDBRANCH   2   3
ENDBRANCH   1   2
BRANCH   1   8
ATOM      8  C   UNL     1      -5.492   2.023  13.738  1.00  0.00     0.000 C 
BRANCH   8   9
ATOM      9  C   UNL     1      -5.165   0.742  12.955  1.00  0.00     0.000 C 
BRANCH   9  10
ATOM     10  C   UNL     1      -3.804   0.818  12.241  1.00  0.00     0.006 C 
BRANCH  10  11
ATOM     11  C   UNL     1      -3.949   0.786  10.714  1.00  0.00     0.053 C 
BRANCH  11  12
ATOM     12  C   UNL     1      -3.911  -0.616  10.183  1.00  0.00     0.041 C 
ATOM     13  O   UNL     1      -4.375  -0.874   9.042  1.00  0.00    -0.550 OA
ATOM     14  O   UNL     1      -3.395  -1.641  10.966  1.00  0.00    -0.550 OA
ENDBRANCH  11  12
ENDBRANCH  10  11
ENDBRANCH   9  10
ENDBRANCH   8   9
ENDBRANCH   1   8
TORSDOF 9
ENDMDL
MODEL 2
REMARK VINA RESULT:    -4.220      2.482      7.718
REMARK INTER + INTRA:          -6.907
REMARK INTER:                  -6.574
REMARK INTRA:                  -0.332
REMARK UNBOUND:                -0.467
REMARK SMILES O=C([O-])CCCCCCCCC(=O)[O-]
REMARK SMILES IDX 7 1 6 2 5 3 4 4 2 5 1 6 3 7 8 8 9 9 10 10 11 11 12 12 13 13
REMARK SMILES IDX 14 14
REMARK H PARENT
REMARK Flexibility Score: inf
ROOT
ATOM      1  C   UNL     1      -3.440   0.045   9.812  1.00  0.00     0.000 C 
ENDROOT
BRANCH   1   2
ATOM      2  C   UNL     1      -3.593  -1.416  10.267  1.00  0.00     0.000 C 
BRANCH   2   3
ATOM      3  C   UNL     1      -4.297  -2.316   9.229  1.00  0.00     0.006 C 
BRANCH   3   4
ATOM      4  C   UNL     1      -3.767  -3.756   9.252  1.00  0.00     0.053 C 
BRANCH   4   5
ATOM      5  C   UNL     1      -4.673  -4.636  10.051  1.00  0.00     0.041 C 
ATOM      6  O   UNL     1      -4.432  -4.857  11.267  1.00  0.00    -0.550 OA
ATOM      7  O   UNL     1      -5.814  -5.173   9.466  1.00  0.00    -0.550 OA
ENDBRANCH   4   5
ENDBRANCH   3   4
ENDBRANCH   2   3
ENDBRANCH   1   2
BRANCH   1   8
ATOM      8  C   UNL     1      -4.017   1.049  10.824  1.00  0.00     0.000 C 
BRANCH   8   9
ATOM      9  C   UNL     1      -4.345   0.399  12.177  1.00  0.00     0.000 C 
BRANCH   9  10
ATOM     10  C   UNL     1      -5.416   1.176  12.961  1.00  0.00     0.006 C 
BRANCH  10  11
ATOM     11  C   UNL     1      -4.836   1.877  14.196  1.00  0.00     0.053 C 
BRANCH  11  12
ATOM     12  C   UNL     1      -5.894   2.607  14.967  1.00  0.00     0.041 C 
ATOM     13  O   UNL     1      -6.754   3.300  14.364  1.00  0.00    -0.550 OA
ATOM     14  O   UNL     1      -5.906   2.549  16.355  1.00  0.00    -0.550 OA
ENDBRANCH  11  12
ENDBRANCH  10  11
ENDBRANCH   9  10
ENDBRANCH   8   9
ENDBRANCH   1   8
TORSDOF 9
ENDMDL
MODEL 3
REMARK VINA RESULT:    -4.216      5.274      7.413
REMARK INTER + INTRA:          -6.900
REMARK INTER:                  -6.607
REMARK INTRA:                  -0.293
REMARK UNBOUND:                -0.467
REMARK SMILES O=C([O-])CCCCCCCCC(=O)[O-]
REMARK SMILES IDX 7 1 6 2 5 3 4 4 2 5 1 6 3 7 8 8 9 9 10 10 11 11 12 12 13 13
REMARK SMILES IDX 14 14
REMARK H PARENT
REMARK Flexibility Score: inf
ROOT
ATOM      1  C   UNL     1      -1.410   1.199  15.723  1.00  0.00     0.000 C 
ENDROOT
BRANCH   1   2
ATOM      2  C   UNL     1      -0.650   1.752  16.940  1.00  0.00     0.000 C 
BRANCH   2   3
ATOM      3  C   UNL     1       0.348   0.748  17.555  1.00  0.00     0.006 C 
BRANCH   3   4
ATOM      4  C   UNL     1      -0.318  -0.182  18.578  1.00  0.00     0.053 C 
BRANCH   4   5
ATOM      5  C   UNL     1      -0.036   0.284  19.971  1.00  0.00     0.041 C 
ATOM      6  O   UNL     1      -0.979   0.654  20.719  1.00  0.00    -0.550 OA
ATOM      7  O   UNL     1       1.265   0.265  20.460  1.00  0.00    -0.550 OA
ENDBRANCH   4   5
ENDBRANCH   3   4
ENDBRANCH   2   3
ENDBRANCH   1   2
BRANCH   1   8
ATOM      8  C   UNL     1      -2.576   2.101  15.286  1.00  0.00     0.000 C 
BRANCH   8   9
ATOM      9  C   UNL     1      -3.608   1.354  14.427  1.00  0.00     0.000 C 
BRANCH   9  10
ATOM     10  C   UNL     1      -4.957   2.091  14.352  1.00  0.00     0.006 C 
BRANCH  10  11
ATOM     11  C   UNL     1      -5.371   2.681  15.706  1.00  0.00     0.053 C 
BRANCH  11  12
ATOM     12  C   UNL     1      -6.715   3.340  15.636  1.00  0.00     0.041 C 
ATOM     13  O   UNL     1      -7.245   3.583  14.521  1.00  0.00    -0.550 OA
ATOM     14  O   UNL     1      -7.365   3.717  16.804  1.00  0.00    -0.550 OA
ENDBRANCH  11  12
ENDBRANCH  10  11
ENDBRANCH   9  10
ENDBRANCH   8   9
ENDBRANCH   1   8
TORSDOF 9
ENDMDL
MODEL 4
REMARK VINA RESULT:    -4.204      5.232      6.414
REMARK INTER + INTRA:          -6.882
REMARK INTER:                  -6.670
REMARK INTRA:                  -0.212
REMARK UNBOUND:                -0.467
REMARK SMILES O=C([O-])CCCCCCCCC(=O)[O-]
REMARK SMILES IDX 7 1 6 2 5 3 4 4 2 5 1 6 3 7 8 8 9 9 10 10 11 11 12 12 13 13
REMARK SMILES IDX 14 14
REMARK H PARENT
REMARK Flexibility Score: inf
ROOT
ATOM      1  C   UNL     1      -2.901   2.172  15.164  1.00  0.00     0.000 C 
ENDROOT
BRANCH   1   2
ATOM      2  C   UNL     1      -4.019   3.106  15.656  1.00  0.00     0.000 C 
BRANCH   2   3
ATOM      3  C   UNL     1      -5.435   2.636  15.263  1.00  0.00     0.006 C 
BRANCH   3   4
ATOM      4  C   UNL     1      -6.464   2.897  16.371  1.00  0.00     0.053 C 
BRANCH   4   5
ATOM      5  C   UNL     1      -7.482   3.893  15.916  1.00  0.00     0.041 C 
ATOM      6  O   UNL     1      -7.945   3.838  14.746  1.00  0.00    -0.550 OA
ATOM      7  O   UNL     1      -7.959   4.853  16.801  1.00  0.00    -0.550 OA
ENDBRANCH   4   5
ENDBRANCH   3   4
ENDBRANCH   2   3
ENDBRANCH   1   2
BRANCH   1   8
ATOM      8  C   UNL     1      -1.590   2.344  15.948  1.00  0.00     0.000 C 
BRANCH   8   9
ATOM      9  C   UNL     1      -1.070   1.019  16.526  1.00  0.00     0.000 C 
BRANCH   9  10
ATOM     10  C   UNL     1      -0.036   1.228  17.646  1.00  0.00     0.006 C 
BRANCH  10  11
ATOM     11  C   UNL     1       0.171  -0.038  18.487  1.00  0.00     0.053 C 
BRANCH  11  12
ATOM     12  C   UNL     1       0.213   0.271  19.953  1.00  0.00     0.041 C 
ATOM     13  O   UNL     1       1.315   0.333  20.557  1.00  0.00    -0.550 OA
ATOM     14  O   UNL     1      -0.970   0.457  20.658  1.00  0.00    -0.550 OA
ENDBRANCH  11  12
ENDBRANCH  10  11
ENDBRANCH   9  10
ENDBRANCH   8   9
ENDBRANCH   1   8
TORSDOF 9
ENDMDL
MODEL 5
REMARK VINA RESULT:    -4.152      2.010      2.146
REMARK INTER + INTRA:          -6.803
REMARK INTER:                  -6.208
REMARK INTRA:                  -0.596
REMARK UNBOUND:                -0.467
REMARK SMILES O=C([O-])CCCCCCCCC(=O)[O-]
REMARK SMILES IDX 7 1 6 2 5 3 4 4 2 5 1 6 3 7 8 8 9 9 10 10 11 11 12 12 13 13
REMARK SMILES IDX 14 14
REMARK H PARENT
REMARK Flexibility Score: inf
ROOT
ATOM      1  C   UNL     1      -4.601   2.274  14.974  1.00  0.00     0.000 C 
ENDROOT
BRANCH   1   2
ATOM      2  C   UNL     1      -5.229   3.211  16.020  1.00  0.00     0.000 C 
BRANCH   2   3
ATOM      3  C   UNL     1      -6.686   2.847  16.379  1.00  0.00     0.006 C 
BRANCH   3   4
ATOM      4  C   UNL     1      -7.605   4.075  16.397  1.00  0.00     0.053 C 
BRANCH   4   5
ATOM      5  C   UNL     1      -8.103   4.376  15.019  1.00  0.00     0.041 C 
ATOM      6  O   UNL     1      -9.236   3.965  14.651  1.00  0.00    -0.550 OA
ATOM      7  O   UNL     1      -7.338   5.152  14.157  1.00  0.00    -0.550 OA
ENDBRANCH   4   5
ENDBRANCH   3   4
ENDBRANCH   2   3
ENDBRANCH   1   2
BRANCH   1   8
ATOM      8  C   UNL     1      -5.497   2.067  13.742  1.00  0.00     0.000 C 
BRANCH   8   9
ATOM      9  C   UNL     1      -5.160   0.778  12.977  1.00  0.00     0.000 C 
BRANCH   9  10
ATOM     10  C   UNL     1      -3.966   0.953  12.022  1.00  0.00     0.006 C 
BRANCH  10  11
ATOM     11  C   UNL     1      -4.353   1.708  10.744  1.00  0.00     0.053 C 
BRANCH  11  12
ATOM     12  C   UNL     1      -3.705   3.058  10.680  1.00  0.00     0.041 C 
ATOM     13  O   UNL     1      -3.893   3.806   9.685  1.00  0.00    -0.550 OA
ATOM     14  O   UNL     1      -2.865   3.474  11.705  1.00  0.00    -0.550 OA
ENDBRANCH  11  12
ENDBRANCH  10  11
ENDBRANCH   9  10
ENDBRANCH   8   9
ENDBRANCH   1   8
TORSDOF 9
ENDMDL
MODEL 6
REMARK VINA RESULT:    -4.146      1.135      7.288
REMARK INTER + INTRA:          -6.794
REMARK INTER:                  -6.435
REMARK INTRA:                  -0.359
REMARK UNBOUND:                -0.467
REMARK SMILES O=C([O-])CCCCCCCCC(=O)[O-]
REMARK SMILES IDX 7 1 6 2 5 3 4 4 2 5 1 6 3 7 8 8 9 9 10 10 11 11 12 12 13 13
REMARK SMILES IDX 14 14
REMARK H PARENT
REMARK Flexibility Score: inf
ROOT
ATOM      1  C   UNL     1      -4.557   0.876  12.451  1.00  0.00     0.000 C 
ENDROOT
BRANCH   1   2
ATOM      2  C   UNL     1      -4.403   1.463  11.038  1.00  0.00     0.000 C 
BRANCH   2   3
ATOM      3  C   UNL     1      -3.504   0.617  10.112  1.00  0.00     0.006 C 
BRANCH   3   4
ATOM      4  C   UNL     1      -3.489  -0.865  10.509  1.00  0.00     0.053 C 
BRANCH   4   5
ATOM      5  C   UNL     1      -4.056  -1.707   9.412  1.00  0.00     0.041 C 
ATOM      6  O   UNL     1      -4.739  -1.178   8.495  1.00  0.00    -0.550 OA
ATOM      7  O   UNL     1      -3.790  -3.071   9.374  1.00  0.00    -0.550 OA
ENDBRANCH   4   5
ENDBRANCH   3   4
ENDBRANCH   2   3
ENDBRANCH   1   2
BRANCH   1   8
ATOM      8  C   UNL     1      -5.363   1.787  13.391  1.00  0.00     0.000 C 
BRANCH   8   9
ATOM      9  C   UNL     1      -4.780   1.830  14.812  1.00  0.00     0.000 C 
BRANCH   9  10
ATOM     10  C   UNL     1      -5.241   3.068  15.602  1.00  0.00     0.006 C 
BRANCH  10  11
ATOM     11  C   UNL     1      -6.598   2.847  16.283  1.00  0.00     0.053 C 
BRANCH  11  12
ATOM     12  C   UNL     1      -7.580   3.920  15.921  1.00  0.00     0.041 C 
ATOM     13  O   UNL     1      -7.959   4.752  16.786  1.00  0.00    -0.550 OA
ATOM     14  O   UNL     1      -8.104   3.977  14.636  1.00  0.00    -0.550 OA
ENDBRANCH  11  12
ENDBRANCH  10  11
ENDBRANCH   9  10
ENDBRANCH   8   9
ENDBRANCH   1   8
TORSDOF 9
ENDMDL
MODEL 7
REMARK VINA RESULT:    -4.123      2.049      3.371
REMARK INTER + INTRA:          -6.758
REMARK INTER:                  -6.417
REMARK INTRA:                  -0.342
REMARK UNBOUND:                -0.467
REMARK SMILES O=C([O-])CCCCCCCCC(=O)[O-]
REMARK SMILES IDX 7 1 6 2 5 3 4 4 2 5 1 6 3 7 8 8 9 9 10 10 11 11 12 12 13 13
REMARK SMILES IDX 14 14
REMARK H PARENT
REMARK Flexibility Score: inf
ROOT
ATOM      1  C   UNL     1      -4.127   0.448  11.872  1.00  0.00     0.000 C 
ENDROOT
BRANCH   1   2
ATOM      2  C   UNL     1      -5.294   0.992  12.712  1.00  0.00     0.000 C 
BRANCH   2   3
ATOM      3  C   UNL     1      -4.843   1.781  13.960  1.00  0.00     0.006 C 
BRANCH   3   4
ATOM      4  C   UNL     1      -5.899   2.792  14.423  1.00  0.00     0.053 C 
BRANCH   4   5
ATOM      5  C   UNL     1      -5.774   3.045  15.891  1.00  0.00     0.041 C 
ATOM      6  O   UNL     1      -6.571   2.499  16.699  1.00  0.00    -0.550 OA
ATOM      7  O   UNL     1      -4.745   3.846  16.373  1.00  0.00    -0.550 OA
ENDBRANCH   4   5
ENDBRANCH   3   4
ENDBRANCH   2   3
ENDBRANCH   1   2
BRANCH   1   8
ATOM      8  C   UNL     1      -3.997   1.146  10.508  1.00  0.00     0.000 C 
BRANCH   8   9
ATOM      9  C   UNL     1      -3.432   0.217   9.422  1.00  0.00     0.000 C 
BRANCH   9  10
ATOM     10  C   UNL     1      -4.346  -0.990   9.143  1.00  0.00     0.006 C 
BRANCH  10  11
ATOM     11  C   UNL     1      -3.548  -2.282   8.925  1.00  0.00     0.053 C 
BRANCH  11  12
ATOM     12  C   UNL     1      -3.916  -3.336   9.925  1.00  0.00     0.041 C 
ATOM     13  O   UNL     1      -4.755  -4.226   9.629  1.00  0.00    -0.550 OA
ATOM     14  O   UNL     1      -3.356  -3.312  11.196  1.00  0.00    -0.550 OA
ENDBRANCH  11  12
ENDBRANCH  10  11
ENDBRANCH   9  10
ENDBRANCH   8   9
ENDBRANCH   1   8
TORSDOF 9
ENDMDL
MODEL 8
REMARK VINA RESULT:    -4.075      2.421      3.480
REMARK INTER + INTRA:          -6.687
REMARK INTER:                  -6.383
REMARK INTRA:                  -0.303
REMARK UNBOUND:                -0.467
REMARK SMILES O=C([O-])CCCCCCCCC(=O)[O-]
REMARK SMILES IDX 7 1 6 2 5 3 4 4 2 5 1 6 3 7 8 8 9 9 10 10 11 11 12 12 13 13
REMARK SMILES IDX 14 14
REMARK H PARENT
REMARK Flexibility Score: inf
ROOT
ATOM      1  C   UNL     1      -4.333   0.976  11.845  1.00  0.00     0.000 C 
ENDROOT
BRANCH   1   2
ATOM      2  C   UNL     1      -5.188   0.954  13.122  1.00  0.00     0.000 C 
BRANCH   2   3
ATOM      3  C   UNL     1      -4.516   1.646  14.328  1.00  0.00     0.006 C 
BRANCH   3   4
ATOM      4  C   UNL     1      -5.050   3.066  14.556  1.00  0.00     0.053 C 
BRANCH   4   5
ATOM      5  C   UNL     1      -6.351   3.024  15.292  1.00  0.00     0.041 C 
ATOM      6  O   UNL     1      -6.411   2.528  16.448  1.00  0.00    -0.550 OA
ATOM      7  O   UNL     1      -7.490   3.579  14.721  1.00  0.00    -0.550 OA
ENDBRANCH   4   5
ENDBRANCH   3   4
ENDBRANCH   2   3
ENDBRANCH   1   2
BRANCH   1   8
ATOM      8  C   UNL     1      -3.269  -0.135  11.820  1.00  0.00     0.000 C 
BRANCH   8   9
ATOM      9  C   UNL     1      -3.675  -1.319  10.929  1.00  0.00     0.000 C 
BRANCH   9  10
ATOM     10  C   UNL     1      -2.837  -2.580  11.204  1.00  0.00     0.006 C 
BRANCH  10  11
ATOM     11  C   UNL     1      -3.712  -3.810  11.476  1.00  0.00     0.053 C 
BRANCH  11  12
ATOM     12  C   UNL     1      -4.205  -4.431  10.204  1.00  0.00     0.041 C 
ATOM     13  O   UNL     1      -3.563  -4.276   9.132  1.00  0.00    -0.550 OA
ATOM     14  O   UNL     1      -5.393  -5.151  10.197  1.00  0.00    -0.550 OA
ENDBRANCH  11  12
ENDBRANCH  10  11
ENDBRANCH   9  10
ENDBRANCH   8   9
ENDBRANCH   1   8
TORSDOF 9
ENDMDL
MODEL 9
REMARK VINA RESULT:    -4.013      1.950      6.042
REMARK INTER + INTRA:          -6.592
REMARK INTER:                  -5.608
REMARK INTRA:                  -0.984
REMARK UNBOUND:                -0.467
REMARK SMILES O=C([O-])CCCCCCCCC(=O)[O-]
REMARK SMILES IDX 7 1 6 2 5 3 4 4 2 5 1 6 3 7 8 8 9 9 10 10 11 11 12 12 13 13
REMARK SMILES IDX 14 14
REMARK H PARENT
REMARK Flexibility Score: inf
ROOT
ATOM      1  C   UNL     1      -3.763   3.499  15.577  1.00  0.00     0.000 C 
ENDROOT
BRANCH   1   2
ATOM      2  C   UNL     1      -3.636   2.600  14.336  1.00  0.00     0.000 C 
BRANCH   2   3
ATOM      3  C   UNL     1      -4.594   1.391  14.347  1.00  0.00     0.006 C 
BRANCH   3   4
ATOM      4  C   UNL     1      -5.431   1.299  13.064  1.00  0.00     0.053 C 
BRANCH   4   5
ATOM      5  C   UNL     1      -4.565   0.952  11.897  1.00  0.00     0.041 C 
ATOM      6  O   UNL     1      -4.425   1.766  10.946  1.00  0.00    -0.550 OA
ATOM      7  O   UNL     1      -3.870  -0.252  11.880  1.00  0.00    -0.550 OA
ENDBRANCH   4   5
ENDBRANCH   3   4
ENDBRANCH   2   3
ENDBRANCH   1   2
BRANCH   1   8
ATOM      8  C   UNL     1      -4.162   4.943  15.230  1.00  0.00     0.000 C 
BRANCH   8   9
ATOM      9  C   UNL     1      -5.078   5.022  13.999  1.00  0.00     0.000 C 
BRANCH   9  10
ATOM     10  C   UNL     1      -6.541   5.320  14.369  1.00  0.00     0.006 C 
BRANCH  10  11
ATOM     11  C   UNL     1      -7.336   4.042  14.664  1.00  0.00     0.053 C 
BRANCH  11  12
ATOM     12  C   UNL     1      -7.487   3.811  16.137  1.00  0.00     0.041 C 
ATOM     13  O   UNL     1      -7.188   2.696  16.638  1.00  0.00    -0.550 OA
ATOM     14  O   UNL     1      -7.991   4.818  16.950  1.00  0.00    -0.550 OA
ENDBRANCH  11  12
ENDBRANCH  10  11
ENDBRANCH   9  10
ENDBRANCH   8   9
ENDBRANCH   1   8
TORSDOF 9
ENDMDL
