MODEL 1
REMARK VINA RESULT:    -4.654      0.000      0.000
REMARK INTER + INTRA:          -5.062
REMARK INTER:                  -5.062
REMARK INTRA:                   0.000
REMARK UNBOUND:                 0.000
REMARK SMILES Cc1cc(O)c2c(c1)C(=O)c1cc(O)cc(O)c1C2=O
REMARK SMILES IDX 1 1 2 2 8 3 7 4 6 5 4 6 3 7 19 8 20 9 18 10 11 11 9 12 10 13
REMARK SMILES IDX 12 14 13 15 15 16 16 17 5 18 17 20 14 22
REMARK H PARENT 5 19 17 21 14 23
REMARK Flexibility Score: inf
ROOT
ATOM      1  C   UNL     1      58.132  18.892 144.843  1.00  0.00     0.044 C 
ATOM      2  C   UNL     1      56.685  19.216 144.612  1.00  0.00    -0.047 A 
ATOM      3  C   UNL     1      56.165  19.224 143.314  1.00  0.00     0.016 A 
ATOM      4  C   UNL     1      54.805  19.499 143.088  1.00  0.00     0.038 A 
ATOM      5  C   UNL     1      53.952  19.769 144.182  1.00  0.00     0.076 A 
ATOM      6  C   UNL     1      54.467  19.675 145.501  1.00  0.00     0.127 A 
ATOM      7  C   UNL     1      55.828  19.420 145.698  1.00  0.00     0.050 A 
ATOM      8  C   UNL     1      52.559  20.199 143.897  1.00  0.00     0.201 C 
ATOM      9  O   UNL     1      51.964  20.967 144.700  1.00  0.00    -0.288 OA
ATOM     10  C   UNL     1      51.942  19.880 142.584  1.00  0.00     0.076 A 
ATOM     11  C   UNL     1      52.798  19.608 141.493  1.00  0.00     0.041 A 
ATOM     12  C   UNL     1      54.260  19.500 141.710  1.00  0.00     0.194 C 
ATOM     13  O   UNL     1      55.039  19.382 140.724  1.00  0.00    -0.289 OA
ATOM     14  C   UNL     1      52.259  19.437 140.206  1.00  0.00     0.059 A 
ATOM     15  C   UNL     1      50.882  19.518 139.998  1.00  0.00     0.120 A 
ATOM     16  C   UNL     1      50.028  19.747 141.081  1.00  0.00     0.093 A 
ATOM     17  C   UNL     1      50.539  19.900 142.373  1.00  0.00     0.131 A 
ENDROOT
BRANCH   6  18
ATOM     18  O   UNL     1      53.662  19.790 146.636  1.00  0.00    -0.507 OA
ATOM     19  H   UNL     1      54.029  19.896 147.572  1.00  0.00     0.293 HD
ENDBRANCH   6  18
BRANCH  17  20
ATOM     20  O   UNL     1      49.619  20.034 143.418  1.00  0.00    -0.507 OA
ATOM     21  H   UNL     1      49.864  20.377 144.336  1.00  0.00     0.293 HD
ENDBRANCH  17  20
BRANCH  15  22
ATOM     22  O   UNL     1      50.371  19.358 138.713  1.00  0.00    -0.508 OA
ATOM     23  H   UNL     1      50.818  18.752 138.036  1.00  0.00     0.293 HD
ENDBRANCH  15  22
TORSDOF 3
ENDMDL
MODEL 2
REMARK VINA RESULT:    -4.436     13.724     14.720
REMARK INTER + INTRA:          -4.825
REMARK INTER:                  -4.825
REMARK INTRA:                   0.000
REMARK UNBOUND:                 0.000
REMARK SMILES Cc1cc(O)c2c(c1)C(=O)c1cc(O)cc(O)c1C2=O
REMARK SMILES IDX 1 1 2 2 8 3 7 4 6 5 4 6 3 7 19 8 20 9 18 10 11 11 9 12 10 13
REMARK SMILES IDX 12 14 13 15 15 16 16 17 5 18 17 20 14 22
REMARK H PARENT 5 19 17 21 14 23
REMARK Flexibility Score: inf
ROOT
ATOM      1  C   UNL     1      47.158  19.093 129.407  1.00  0.00     0.044 C 
ATOM      2  C   UNL     1      48.267  20.096 129.539  1.00  0.00    -0.047 A 
ATOM      3  C   UNL     1      49.600  19.692 129.404  1.00  0.00     0.016 A 
ATOM      4  C   UNL     1      50.645  20.627 129.498  1.00  0.00     0.038 A 
ATOM      5  C   UNL     1      50.349  21.990 129.730  1.00  0.00     0.076 A 
ATOM      6  C   UNL     1      48.994  22.405 129.781  1.00  0.00     0.127 A 
ATOM      7  C   UNL     1      47.973  21.453 129.705  1.00  0.00     0.050 A 
ATOM      8  C   UNL     1      51.481  22.923 129.970  1.00  0.00     0.201 C 
ATOM      9  O   UNL     1      51.316  23.930 130.709  1.00  0.00    -0.288 OA
ATOM     10  C   UNL     1      52.843  22.567 129.497  1.00  0.00     0.076 A 
ATOM     11  C   UNL     1      53.134  21.204 129.263  1.00  0.00     0.041 A 
ATOM     12  C   UNL     1      52.054  20.193 129.346  1.00  0.00     0.194 C 
ATOM     13  O   UNL     1      52.330  18.965 129.262  1.00  0.00    -0.289 OA
ATOM     14  C   UNL     1      54.447  20.813 128.948  1.00  0.00     0.059 A 
ATOM     15  C   UNL     1      55.465  21.762 128.850  1.00  0.00     0.120 A 
ATOM     16  C   UNL     1      55.174  23.115 129.041  1.00  0.00     0.093 A 
ATOM     17  C   UNL     1      53.872  23.531 129.334  1.00  0.00     0.131 A 
ENDROOT
BRANCH   6  18
ATOM     18  O   UNL     1      48.618  23.748 129.869  1.00  0.00    -0.507 OA
ATOM     19  H   UNL     1      48.913  24.453 129.209  1.00  0.00     0.293 HD
ENDBRANCH   6  18
BRANCH  17  20
ATOM     20  O   UNL     1      53.639  24.907 129.421  1.00  0.00    -0.507 OA
ATOM     21  H   UNL     1      53.555  25.510 128.615  1.00  0.00     0.293 HD
ENDBRANCH  17  20
BRANCH  15  22
ATOM     22  O   UNL     1      56.761  21.350 128.549  1.00  0.00    -0.508 OA
ATOM     23  H   UNL     1      57.045  20.382 128.645  1.00  0.00     0.293 HD
ENDBRANCH  15  22
TORSDOF 3
ENDMDL
MODEL 3
REMARK VINA RESULT:    -4.340      8.535     12.051
REMARK INTER + INTRA:          -4.721
REMARK INTER:                  -4.721
REMARK INTRA:                   0.000
REMARK UNBOUND:                 0.000
REMARK SMILES Cc1cc(O)c2c(c1)C(=O)c1cc(O)cc(O)c1C2=O
REMARK SMILES IDX 1 1 2 2 8 3 7 4 6 5 4 6 3 7 19 8 20 9 18 10 11 11 9 12 10 13
REMARK SMILES IDX 12 14 13 15 15 16 16 17 5 18 17 20 14 22
REMARK H PARENT 5 19 17 21 14 23
REMARK Flexibility Score: inf
ROOT
ATOM      1  C   UNL     1      50.269  18.878 128.308  1.00  0.00     0.044 C 
ATOM      2  C   UNL     1      49.559  19.291 129.564  1.00  0.00    -0.047 A 
ATOM      3  C   UNL     1      50.287  19.773 130.657  1.00  0.00     0.016 A 
ATOM      4  C   UNL     1      49.631  20.188 131.828  1.00  0.00     0.038 A 
ATOM      5  C   UNL     1      48.221  20.119 131.906  1.00  0.00     0.076 A 
ATOM      6  C   UNL     1      47.485  19.710 130.765  1.00  0.00     0.127 A 
ATOM      7  C   UNL     1      48.162  19.283 129.618  1.00  0.00     0.050 A 
ATOM      8  C   UNL     1      47.574  20.426 133.208  1.00  0.00     0.201 C 
ATOM      9  O   UNL     1      46.488  19.865 133.514  1.00  0.00    -0.288 OA
ATOM     10  C   UNL     1      48.296  21.241 134.218  1.00  0.00     0.076 A 
ATOM     11  C   UNL     1      49.706  21.309 134.136  1.00  0.00     0.041 A 
ATOM     12  C   UNL     1      50.409  20.705 132.980  1.00  0.00     0.194 C 
ATOM     13  O   UNL     1      51.670  20.653 132.963  1.00  0.00    -0.289 OA
ATOM     14  C   UNL     1      50.435  21.954 135.149  1.00  0.00     0.059 A 
ATOM     15  C   UNL     1      49.778  22.542 136.231  1.00  0.00     0.120 A 
ATOM     16  C   UNL     1      48.383  22.512 136.295  1.00  0.00     0.093 A 
ATOM     17  C   UNL     1      47.634  21.894 135.289  1.00  0.00     0.131 A 
ENDROOT
BRANCH   6  18
ATOM     18  O   UNL     1      46.089  19.747 130.713  1.00  0.00    -0.507 OA
ATOM     19  H   UNL     1      45.517  20.193 131.416  1.00  0.00     0.293 HD
ENDBRANCH   6  18
BRANCH  17  20
ATOM     20  O   UNL     1      46.242  21.984 135.375  1.00  0.00    -0.507 OA
ATOM     21  H   UNL     1      45.616  21.659 134.651  1.00  0.00     0.293 HD
ENDBRANCH  17  20
BRANCH  15  22
ATOM     22  O   UNL     1      50.522  23.165 137.230  1.00  0.00    -0.508 OA
ATOM     23  H   UNL     1      50.285  23.062 138.209  1.00  0.00     0.293 HD
ENDBRANCH  15  22
TORSDOF 3
ENDMDL
MODEL 4
REMARK VINA RESULT:    -4.326     15.574     16.515
REMARK INTER + INTRA:          -4.706
REMARK INTER:                  -4.706
REMARK INTRA:                   0.000
REMARK UNBOUND:                 0.000
REMARK SMILES Cc1cc(O)c2c(c1)C(=O)c1cc(O)cc(O)c1C2=O
REMARK SMILES IDX 1 1 2 2 8 3 7 4 6 5 4 6 3 7 19 8 20 9 18 10 11 11 9 12 10 13
REMARK SMILES IDX 12 14 13 15 15 16 16 17 5 18 17 20 14 22
REMARK H PARENT 5 19 17 21 14 23
REMARK Flexibility Score: inf
ROOT
ATOM      1  C   UNL     1      58.125  37.086 147.385  1.00  0.00     0.044 C 
ATOM      2  C   UNL     1      56.773  36.839 146.784  1.00  0.00    -0.047 A 
ATOM      3  C   UNL     1      55.976  35.788 147.252  1.00  0.00     0.016 A 
ATOM      4  C   UNL     1      54.697  35.564 146.715  1.00  0.00     0.038 A 
ATOM      5  C   UNL     1      54.207  36.408 145.693  1.00  0.00     0.076 A 
ATOM      6  C   UNL     1      54.984  37.521 145.283  1.00  0.00     0.127 A 
ATOM      7  C   UNL     1      56.262  37.711 145.817  1.00  0.00     0.050 A 
ATOM      8  C   UNL     1      52.916  36.052 145.048  1.00  0.00     0.201 C 
ATOM      9  O   UNL     1      52.711  36.362 143.844  1.00  0.00    -0.288 OA
ATOM     10  C   UNL     1      51.953  35.175 145.760  1.00  0.00     0.076 A 
ATOM     11  C   UNL     1      52.446  34.334 146.784  1.00  0.00     0.041 A 
ATOM     12  C   UNL     1      53.857  34.453 147.221  1.00  0.00     0.194 C 
ATOM     13  O   UNL     1      54.336  33.624 148.044  1.00  0.00    -0.289 OA
ATOM     14  C   UNL     1      51.595  33.392 147.387  1.00  0.00     0.059 A 
ATOM     15  C   UNL     1      50.261  33.288 146.993  1.00  0.00     0.120 A 
ATOM     16  C   UNL     1      49.758  34.144 146.010  1.00  0.00     0.093 A 
ATOM     17  C   UNL     1      50.579  35.104 145.410  1.00  0.00     0.131 A 
ENDROOT
BRANCH   6  18
ATOM     18  O   UNL     1      54.514  38.479 144.380  1.00  0.00    -0.507 OA
ATOM     19  H   UNL     1      53.534  38.673 144.233  1.00  0.00     0.293 HD
ENDBRANCH   6  18
BRANCH  17  20
ATOM     20  O   UNL     1      49.984  35.984 144.502  1.00  0.00    -0.507 OA
ATOM     21  H   UNL     1      48.995  35.987 144.294  1.00  0.00     0.293 HD
ENDBRANCH  17  20
BRANCH  15  22
ATOM     22  O   UNL     1      49.439  32.338 147.595  1.00  0.00    -0.508 OA
ATOM     23  H   UNL     1      48.890  32.557 148.418  1.00  0.00     0.293 HD
ENDBRANCH  15  22
TORSDOF 3
ENDMDL
MODEL 5
REMARK VINA RESULT:    -4.307     13.801     14.464
REMARK INTER + INTRA:          -4.685
REMARK INTER:                  -4.685
REMARK INTRA:                   0.000
REMARK UNBOUND:                 0.000
REMARK SMILES Cc1cc(O)c2c(c1)C(=O)c1cc(O)cc(O)c1C2=O
REMARK SMILES IDX 1 1 2 2 8 3 7 4 6 5 4 6 3 7 19 8 20 9 18 10 11 11 9 12 10 13
REMARK SMILES IDX 12 14 13 15 15 16 16 17 5 18 17 20 14 22
REMARK H PARENT 5 19 17 21 14 23
REMARK Flexibility Score: inf
ROOT
ATOM      1  C   UNL     1      56.779  26.194 129.577  1.00  0.00     0.044 C 
ATOM      2  C   UNL     1      56.066  24.884 129.413  1.00  0.00    -0.047 A 
ATOM      3  C   UNL     1      54.713  24.773 129.750  1.00  0.00     0.016 A 
ATOM      4  C   UNL     1      54.028  23.559 129.575  1.00  0.00     0.038 A 
ATOM      5  C   UNL     1      54.709  22.437 129.052  1.00  0.00     0.076 A 
ATOM      6  C   UNL     1      56.057  22.580 128.632  1.00  0.00     0.127 A 
ATOM      7  C   UNL     1      56.723  23.792 128.836  1.00  0.00     0.050 A 
ATOM      8  C   UNL     1      53.995  21.134 129.019  1.00  0.00     0.201 C 
ATOM      9  O   UNL     1      54.647  20.060 129.125  1.00  0.00    -0.288 OA
ATOM     10  C   UNL     1      52.511  21.105 129.051  1.00  0.00     0.076 A 
ATOM     11  C   UNL     1      51.832  22.230 129.573  1.00  0.00     0.041 A 
ATOM     12  C   UNL     1      52.592  23.451 129.929  1.00  0.00     0.194 C 
ATOM     13  O   UNL     1      52.012  24.410 130.510  1.00  0.00    -0.289 OA
ATOM     14  C   UNL     1      50.438  22.187 129.748  1.00  0.00     0.059 A 
ATOM     15  C   UNL     1      49.715  21.047 129.396  1.00  0.00     0.120 A 
ATOM     16  C   UNL     1      50.376  19.948 128.843  1.00  0.00     0.093 A 
ATOM     17  C   UNL     1      51.759  19.974 128.640  1.00  0.00     0.131 A 
ENDROOT
BRANCH   6  18
ATOM     18  O   UNL     1      56.757  21.562 127.979  1.00  0.00    -0.507 OA
ATOM     19  H   UNL     1      56.325  20.909 127.341  1.00  0.00     0.293 HD
ENDBRANCH   6  18
BRANCH  17  20
ATOM     20  O   UNL     1      52.336  18.875 127.998  1.00  0.00    -0.507 OA
ATOM     21  H   UNL     1      52.484  17.981 128.446  1.00  0.00     0.293 HD
ENDBRANCH  17  20
BRANCH  15  22
ATOM     22  O   UNL     1      48.336  21.023 129.591  1.00  0.00    -0.508 OA
ATOM     23  H   UNL     1      47.751  21.812 129.342  1.00  0.00     0.293 HD
ENDBRANCH  15  22
TORSDOF 3
ENDMDL
MODEL 6
REMARK VINA RESULT:    -4.302     14.065     15.838
REMARK INTER + INTRA:          -4.680
REMARK INTER:                  -4.680
REMARK INTRA:                   0.000
REMARK UNBOUND:                 0.000
REMARK SMILES Cc1cc(O)c2c(c1)C(=O)c1cc(O)cc(O)c1C2=O
REMARK SMILES IDX 1 1 2 2 8 3 7 4 6 5 4 6 3 7 19 8 20 9 18 10 11 11 9 12 10 13
REMARK SMILES IDX 12 14 13 15 15 16 16 17 5 18 17 20 14 22
REMARK H PARENT 5 19 17 21 14 23
REMARK Flexibility Score: inf
ROOT
ATOM      1  C   UNL     1      51.852  29.246 127.890  1.00  0.00     0.044 C 
ATOM      2  C   UNL     1      52.763  28.089 128.179  1.00  0.00    -0.047 A 
ATOM      3  C   UNL     1      52.229  26.825 128.456  1.00  0.00     0.016 A 
ATOM      4  C   UNL     1      53.073  25.729 128.700  1.00  0.00     0.038 A 
ATOM      5  C   UNL     1      54.476  25.901 128.666  1.00  0.00     0.076 A 
ATOM      6  C   UNL     1      55.009  27.163 128.301  1.00  0.00     0.127 A 
ATOM      7  C   UNL     1      54.149  28.244 128.082  1.00  0.00     0.050 A 
ATOM      8  C   UNL     1      55.333  24.758 129.074  1.00  0.00     0.201 C 
ATOM      9  O   UNL     1      56.455  24.975 129.604  1.00  0.00    -0.288 OA
ATOM     10  C   UNL     1      54.791  23.376 129.029  1.00  0.00     0.076 A 
ATOM     11  C   UNL     1      53.388  23.208 129.062  1.00  0.00     0.041 A 
ATOM     12  C   UNL     1      52.500  24.392 128.986  1.00  0.00     0.194 C 
ATOM     13  O   UNL     1      51.254  24.260 129.140  1.00  0.00    -0.289 OA
ATOM     14  C   UNL     1      52.839  21.917 129.160  1.00  0.00     0.059 A 
ATOM     15  C   UNL     1      53.669  20.797 129.212  1.00  0.00     0.120 A 
ATOM     16  C   UNL     1      55.055  20.955 129.140  1.00  0.00     0.093 A 
ATOM     17  C   UNL     1      55.624  22.227 129.020  1.00  0.00     0.131 A 
ENDROOT
BRANCH   6  18
ATOM     18  O   UNL     1      56.376  27.379 128.109  1.00  0.00    -0.507 OA
ATOM     19  H   UNL     1      56.946  26.825 127.485  1.00  0.00     0.293 HD
ENDBRANCH   6  18
BRANCH  17  20
ATOM     20  O   UNL     1      57.011  22.300 128.862  1.00  0.00    -0.507 OA
ATOM     21  H   UNL     1      57.577  23.047 129.240  1.00  0.00     0.293 HD
ENDBRANCH  17  20
BRANCH  15  22
ATOM     22  O   UNL     1      53.104  19.529 129.322  1.00  0.00    -0.508 OA
ATOM     23  H   UNL     1      52.688  19.207 130.188  1.00  0.00     0.293 HD
ENDBRANCH  15  22
TORSDOF 3
ENDMDL
MODEL 7
REMARK VINA RESULT:    -4.179      4.243      5.759
REMARK INTER + INTRA:          -4.545
REMARK INTER:                  -4.545
REMARK INTRA:                   0.000
REMARK UNBOUND:                 0.000
REMARK SMILES Cc1cc(O)c2c(c1)C(=O)c1cc(O)cc(O)c1C2=O
REMARK SMILES IDX 1 1 2 2 8 3 7 4 6 5 4 6 3 7 19 8 20 9 18 10 11 11 9 12 10 13
REMARK SMILES IDX 12 14 13 15 15 16 16 17 5 18 17 20 14 22
REMARK H PARENT 5 19 17 21 14 23
REMARK Flexibility Score: inf
ROOT
ATOM      1  C   UNL     1      57.178  27.549 145.540  1.00  0.00     0.044 C 
ATOM      2  C   UNL     1      56.988  26.061 145.588  1.00  0.00    -0.047 A 
ATOM      3  C   UNL     1      55.725  25.505 145.361  1.00  0.00     0.016 A 
ATOM      4  C   UNL     1      55.542  24.112 145.376  1.00  0.00     0.038 A 
ATOM      5  C   UNL     1      56.643  23.262 145.622  1.00  0.00     0.076 A 
ATOM      6  C   UNL     1      57.936  23.828 145.767  1.00  0.00     0.127 A 
ATOM      7  C   UNL     1      58.089  25.217 145.768  1.00  0.00     0.050 A 
ATOM      8  C   UNL     1      56.386  21.806 145.778  1.00  0.00     0.201 C 
ATOM      9  O   UNL     1      57.131  21.114 146.522  1.00  0.00    -0.288 OA
ATOM     10  C   UNL     1      55.148  21.211 145.211  1.00  0.00     0.076 A 
ATOM     11  C   UNL     1      54.049  22.065 144.964  1.00  0.00     0.041 A 
ATOM     12  C   UNL     1      54.201  23.530 145.128  1.00  0.00     0.194 C 
ATOM     13  O   UNL     1      53.194  24.285 145.030  1.00  0.00    -0.289 OA
ATOM     14  C   UNL     1      52.818  21.522 144.559  1.00  0.00     0.059 A 
ATOM     15  C   UNL     1      52.674  20.145 144.384  1.00  0.00     0.120 A 
ATOM     16  C   UNL     1      53.768  19.301 144.589  1.00  0.00     0.093 A 
ATOM     17  C   UNL     1      55.009  19.820 144.971  1.00  0.00     0.131 A 
ENDROOT
BRANCH   6  18
ATOM     18  O   UNL     1      59.093  23.052 145.875  1.00  0.00    -0.507 OA
ATOM     19  H   UNL     1      59.295  22.459 146.668  1.00  0.00     0.293 HD
ENDBRANCH   6  18
BRANCH  17  20
ATOM     20  O   UNL     1      56.079  18.925 145.068  1.00  0.00    -0.507 OA
ATOM     21  H   UNL     1      56.343  18.461 145.926  1.00  0.00     0.293 HD
ENDBRANCH  17  20
BRANCH  15  22
ATOM     22  O   UNL     1      51.441  19.628 143.995  1.00  0.00    -0.508 OA
ATOM     23  H   UNL     1      51.173  19.574 143.020  1.00  0.00     0.293 HD
ENDBRANCH  15  22
TORSDOF 3
ENDMDL
MODEL 8
REMARK VINA RESULT:    -4.128     19.762     21.705
REMARK INTER + INTRA:          -4.490
REMARK INTER:                  -4.490
REMARK INTRA:                   0.000
REMARK UNBOUND:                 0.000
REMARK SMILES Cc1cc(O)c2c(c1)C(=O)c1cc(O)cc(O)c1C2=O
REMARK SMILES IDX 1 1 2 2 8 3 7 4 6 5 4 6 3 7 19 8 20 9 18 10 11 11 9 12 10 13
REMARK SMILES IDX 12 14 13 15 15 16 16 17 5 18 17 20 14 22
REMARK H PARENT 5 19 17 21 14 23
REMARK Flexibility Score: inf
ROOT
ATOM      1  C   UNL     1      57.070  31.567 128.855  1.00  0.00     0.044 C 
ATOM      2  C   UNL     1      58.557  31.772 128.856  1.00  0.00    -0.047 A 
ATOM      3  C   UNL     1      59.112  32.898 129.472  1.00  0.00     0.016 A 
ATOM      4  C   UNL     1      60.504  33.085 129.502  1.00  0.00     0.038 A 
ATOM      5  C   UNL     1      61.355  32.127 128.906  1.00  0.00     0.076 A 
ATOM      6  C   UNL     1      60.791  30.947 128.358  1.00  0.00     0.127 A 
ATOM      7  C   UNL     1      59.402  30.793 128.322  1.00  0.00     0.050 A 
ATOM      8  C   UNL     1      62.808  32.430 128.827  1.00  0.00     0.201 C 
ATOM      9  O   UNL     1      63.493  31.968 127.875  1.00  0.00    -0.288 OA
ATOM     10  C   UNL     1      63.406  33.423 129.756  1.00  0.00     0.076 A 
ATOM     11  C   UNL     1      62.552  34.378 130.352  1.00  0.00     0.041 A 
ATOM     12  C   UNL     1      61.086  34.278 130.163  1.00  0.00     0.194 C 
ATOM     13  O   UNL     1      60.329  35.195 130.588  1.00  0.00    -0.289 OA
ATOM     14  C   UNL     1      63.097  35.417 131.127  1.00  0.00     0.059 A 
ATOM     15  C   UNL     1      64.475  35.505 131.325  1.00  0.00     0.120 A 
ATOM     16  C   UNL     1      65.319  34.541 130.770  1.00  0.00     0.093 A 
ATOM     17  C   UNL     1      64.800  33.486 130.013  1.00  0.00     0.131 A 
ENDROOT
BRANCH   6  18
ATOM     18  O   UNL     1      61.568  29.891 127.875  1.00  0.00    -0.507 OA
ATOM     19  H   UNL     1      62.503  30.008 127.512  1.00  0.00     0.293 HD
ENDBRANCH   6  18
BRANCH  17  20
ATOM     20  O   UNL     1      65.696  32.510 129.568  1.00  0.00    -0.507 OA
ATOM     21  H   UNL     1      66.700  32.601 129.638  1.00  0.00     0.293 HD
ENDBRANCH  17  20
BRANCH  15  22
ATOM     22  O   UNL     1      64.993  36.551 132.086  1.00  0.00    -0.508 OA
ATOM     23  H   UNL     1      64.522  37.445 132.148  1.00  0.00     0.293 HD
ENDBRANCH  15  22
TORSDOF 3
ENDMDL
MODEL 9
REMARK VINA RESULT:    -4.081     18.974     20.775
REMARK INTER + INTRA:          -4.439
REMARK INTER:                  -4.439
REMARK INTRA:                   0.000
REMARK UNBOUND:                 0.000
REMARK SMILES Cc1cc(O)c2c(c1)C(=O)c1cc(O)cc(O)c1C2=O
REMARK SMILES IDX 1 1 2 2 8 3 7 4 6 5 4 6 3 7 19 8 20 9 18 10 11 11 9 12 10 13
REMARK SMILES IDX 12 14 13 15 15 16 16 17 5 18 17 20 14 22
REMARK H PARENT 5 19 17 21 14 23
REMARK Flexibility Score: inf
ROOT
ATOM      1  C   UNL     1      58.013  28.910 130.874  1.00  0.00     0.044 C 
ATOM      2  C   UNL     1      58.765  30.155 130.504  1.00  0.00    -0.047 A 
ATOM      3  C   UNL     1      59.948  30.487 131.172  1.00  0.00     0.016 A 
ATOM      4  C   UNL     1      60.675  31.636 130.814  1.00  0.00     0.038 A 
ATOM      5  C   UNL     1      60.208  32.465 129.770  1.00  0.00     0.076 A 
ATOM      6  C   UNL     1      59.055  32.077 129.041  1.00  0.00     0.127 A 
ATOM      7  C   UNL     1      58.337  30.941 129.429  1.00  0.00     0.050 A 
ATOM      8  C   UNL     1      60.919  33.746 129.519  1.00  0.00     0.201 C 
ATOM      9  O   UNL     1      60.286  34.735 129.063  1.00  0.00    -0.288 OA
ATOM     10  C   UNL     1      62.321  33.914 129.980  1.00  0.00     0.076 A 
ATOM     11  C   UNL     1      62.785  33.080 131.023  1.00  0.00     0.041 A 
ATOM     12  C   UNL     1      61.932  31.977 131.522  1.00  0.00     0.194 C 
ATOM     13  O   UNL     1      62.287  31.310 132.533  1.00  0.00    -0.289 OA
ATOM     14  C   UNL     1      64.057  33.299 131.580  1.00  0.00     0.059 A 
ATOM     15  C   UNL     1      64.874  34.324 131.102  1.00  0.00     0.120 A 
ATOM     16  C   UNL     1      64.435  35.125 130.044  1.00  0.00     0.093 A 
ATOM     17  C   UNL     1      63.183  34.914 129.459  1.00  0.00     0.131 A 
ENDROOT
BRANCH   6  18
ATOM     18  O   UNL     1      58.608  32.766 127.910  1.00  0.00    -0.507 OA
ATOM     19  H   UNL     1      58.055  32.339 127.180  1.00  0.00     0.293 HD
ENDBRANCH   6  18
BRANCH  17  20
ATOM     20  O   UNL     1      62.852  35.693 128.347  1.00  0.00    -0.507 OA
ATOM     21  H   UNL     1      62.030  35.535 127.780  1.00  0.00     0.293 HD
ENDBRANCH  17  20
BRANCH  15  22
ATOM     22  O   UNL     1      66.125  34.531 131.678  1.00  0.00    -0.508 OA
ATOM     23  H   UNL     1      66.722  35.295 131.387  1.00  0.00     0.293 HD
ENDBRANCH  15  22
TORSDOF 3
ENDMDL
