MODEL 1
REMARK VINA RESULT:    -5.757      0.000      0.000
REMARK INTER + INTRA:          -7.055
REMARK INTER:                  -6.767
REMARK INTRA:                  -0.288
REMARK UNBOUND:                -0.288
REMARK SMILES O=c1cc(-c2ccc(O)c(O)c2)oc2cc(O)cc(O)c12
REMARK SMILES IDX 4 1 3 2 2 3 1 4 21 5 19 6 18 7 16 8 15 9 14 10 13 11 5 12
REMARK SMILES IDX 6 13 7 14 8 15 12 16 10 17 9 18 11 20 20 22 17 24
REMARK H PARENT 9 19 11 21 20 23 17 25
REMARK Flexibility Score: inf
ROOT
ATOM      1  C   UNL     1       6.887   9.986  12.194  1.00  0.00     0.138 A 
ATOM      2  C   UNL     1       6.639  11.231  12.789  1.00  0.00     0.100 A 
ATOM      3  C   UNL     1       7.377  12.346  12.387  1.00  0.00     0.197 A 
ATOM      4  O   UNL     1       7.089  13.462  12.895  1.00  0.00    -0.289 OA
ATOM      5  C   UNL     1       8.388  12.206  11.408  1.00  0.00     0.107 A 
ATOM      6  C   UNL     1       9.230  13.264  10.952  1.00  0.00     0.134 A 
ATOM      7  C   UNL     1      10.118  13.031   9.894  1.00  0.00     0.093 A 
ATOM      8  C   UNL     1      10.238  11.765   9.318  1.00  0.00     0.123 A 
ATOM      9  C   UNL     1       9.459  10.712   9.793  1.00  0.00     0.094 A 
ATOM     10  C   UNL     1       8.538  10.920  10.824  1.00  0.00     0.146 A 
ATOM     11  O   UNL     1       7.805   9.892  11.237  1.00  0.00    -0.456 OA
ENDROOT
BRANCH   1  12
ATOM     12  C   UNL     1       6.133   8.767  12.583  1.00  0.00     0.021 A 
ATOM     13  C   UNL     1       4.728   8.762  12.666  1.00  0.00     0.016 A 
ATOM     14  C   UNL     1       4.045   7.603  13.044  1.00  0.00     0.051 A 
ATOM     15  C   UNL     1       4.751   6.434  13.354  1.00  0.00     0.157 A 
ATOM     16  C   UNL     1       6.836   7.593  12.909  1.00  0.00     0.062 A 
ATOM     17  C   UNL     1       6.154   6.431  13.288  1.00  0.00     0.158 A 
BRANCH  15  18
ATOM     18  O   UNL     1       4.066   5.280  13.730  1.00  0.00    -0.504 OA
ATOM     19  H   UNL     1       3.066   5.287  13.897  1.00  0.00     0.293 HD
ENDBRANCH  15  18
BRANCH  17  20
ATOM     20  O   UNL     1       6.886   5.285  13.593  1.00  0.00    -0.504 OA
ATOM     21  H   UNL     1       6.659   4.379  13.201  1.00  0.00     0.293 HD
ENDBRANCH  17  20
ENDBRANCH   1  12
BRANCH   6  22
ATOM     22  O   UNL     1       9.251  14.543  11.515  1.00  0.00    -0.507 OA
ATOM     23  H   UNL     1       9.996  14.908  12.087  1.00  0.00     0.293 HD
ENDBRANCH   6  22
BRANCH   8  24
ATOM     24  O   UNL     1      11.135  11.539   8.277  1.00  0.00    -0.508 OA
ATOM     25  H   UNL     1      11.455  12.294   7.680  1.00  0.00     0.293 HD
ENDBRANCH   8  24
TORSDOF 5
ENDMDL
MODEL 2
REMARK VINA RESULT:    -5.388      2.913      7.008
REMARK INTER + INTRA:          -6.620
REMARK INTER:                  -6.303
REMARK INTRA:                  -0.317
REMARK UNBOUND:                -0.288
REMARK SMILES O=c1cc(-c2ccc(O)c(O)c2)oc2cc(O)cc(O)c12
REMARK SMILES IDX 4 1 3 2 2 3 1 4 21 5 19 6 18 7 16 8 15 9 14 10 13 11 5 12
REMARK SMILES IDX 6 13 7 14 8 15 12 16 10 17 9 18 11 20 20 22 17 24
REMARK H PARENT 9 19 11 21 20 23 17 25
REMARK Flexibility Score: inf
ROOT
ATOM      1  C   UNL     1      10.408  11.150   8.489  1.00  0.00     0.138 A 
ATOM      2  C   UNL     1      10.473  12.517   8.790  1.00  0.00     0.100 A 
ATOM      3  C   UNL     1       9.845  13.002   9.938  1.00  0.00     0.197 A 
ATOM      4  O   UNL     1       9.974  14.224  10.215  1.00  0.00    -0.289 OA
ATOM      5  C   UNL     1       9.122  12.117  10.772  1.00  0.00     0.107 A 
ATOM      6  C   UNL     1       8.408  12.505  11.944  1.00  0.00     0.134 A 
ATOM      7  C   UNL     1       7.826  11.522  12.755  1.00  0.00     0.093 A 
ATOM      8  C   UNL     1       7.880  10.172  12.402  1.00  0.00     0.123 A 
ATOM      9  C   UNL     1       8.528   9.788  11.230  1.00  0.00     0.094 A 
ATOM     10  C   UNL     1       9.149  10.741  10.419  1.00  0.00     0.146 A 
ATOM     11  O   UNL     1       9.769  10.331   9.317  1.00  0.00    -0.456 OA
ENDROOT
BRANCH   1  12
ATOM     12  C   UNL     1      11.057  10.581   7.280  1.00  0.00     0.021 A 
ATOM     13  C   UNL     1      11.875  11.363   6.443  1.00  0.00     0.016 A 
ATOM     14  C   UNL     1      12.466  10.804   5.307  1.00  0.00     0.051 A 
ATOM     15  C   UNL     1      12.244   9.460   4.982  1.00  0.00     0.157 A 
ATOM     16  C   UNL     1      10.828   9.236   6.940  1.00  0.00     0.062 A 
ATOM     17  C   UNL     1      11.419   8.674   5.802  1.00  0.00     0.158 A 
BRANCH  15  18
ATOM     18  O   UNL     1      12.835   8.906   3.848  1.00  0.00    -0.504 OA
ATOM     19  H   UNL     1      13.771   9.164   3.558  1.00  0.00     0.293 HD
ENDBRANCH  15  18
BRANCH  17  20
ATOM     20  O   UNL     1      11.175   7.334   5.505  1.00  0.00    -0.504 OA
ATOM     21  H   UNL     1      11.871   6.613   5.654  1.00  0.00     0.293 HD
ENDBRANCH  17  20
ENDBRANCH   1  12
BRANCH   6  22
ATOM     22  O   UNL     1       8.222  13.832  12.342  1.00  0.00    -0.507 OA
ATOM     23  H   UNL     1       8.411  14.638  11.766  1.00  0.00     0.293 HD
ENDBRANCH   6  22
BRANCH   8  24
ATOM     24  O   UNL     1       7.284   9.202  13.206  1.00  0.00    -0.508 OA
ATOM     25  H   UNL     1       6.332   8.892  13.044  1.00  0.00     0.293 HD
ENDBRANCH   8  24
TORSDOF 5
ENDMDL
MODEL 3
REMARK VINA RESULT:    -5.302      1.451      3.062
REMARK INTER + INTRA:          -6.519
REMARK INTER:                  -6.227
REMARK INTRA:                  -0.291
REMARK UNBOUND:                -0.288
REMARK SMILES O=c1cc(-c2ccc(O)c(O)c2)oc2cc(O)cc(O)c12
REMARK SMILES IDX 4 1 3 2 2 3 1 4 21 5 19 6 18 7 16 8 15 9 14 10 13 11 5 12
REMARK SMILES IDX 6 13 7 14 8 15 12 16 10 17 9 18 11 20 20 22 17 24
REMARK H PARENT 9 19 11 21 20 23 17 25
REMARK Flexibility Score: inf
ROOT
ATOM      1  C   UNL     1       8.154   9.533  10.972  1.00  0.00     0.138 A 
ATOM      2  C   UNL     1       9.104   9.402   9.950  1.00  0.00     0.100 A 
ATOM      3  C   UNL     1       9.815  10.525   9.521  1.00  0.00     0.197 A 
ATOM      4  O   UNL     1      10.705  10.364   8.645  1.00  0.00    -0.289 OA
ATOM      5  C   UNL     1       9.549  11.789  10.097  1.00  0.00     0.107 A 
ATOM      6  C   UNL     1      10.182  13.007   9.711  1.00  0.00     0.134 A 
ATOM      7  C   UNL     1       9.922  14.179  10.434  1.00  0.00     0.093 A 
ATOM      8  C   UNL     1       9.006  14.188  11.488  1.00  0.00     0.123 A 
ATOM      9  C   UNL     1       8.343  13.014  11.838  1.00  0.00     0.094 A 
ATOM     10  C   UNL     1       8.606  11.821  11.160  1.00  0.00     0.146 A 
ATOM     11  O   UNL     1       7.962  10.721  11.534  1.00  0.00    -0.456 OA
ENDROOT
BRANCH   1  12
ATOM     12  C   UNL     1       7.369   8.372  11.466  1.00  0.00     0.021 A 
ATOM     13  C   UNL     1       6.714   8.400  12.711  1.00  0.00     0.016 A 
ATOM     14  C   UNL     1       5.990   7.290  13.155  1.00  0.00     0.051 A 
ATOM     15  C   UNL     1       5.915   6.134  12.370  1.00  0.00     0.157 A 
ATOM     16  C   UNL     1       7.300   7.202  10.689  1.00  0.00     0.062 A 
ATOM     17  C   UNL     1       6.576   6.090  11.131  1.00  0.00     0.158 A 
BRANCH  15  18
ATOM     18  O   UNL     1       5.191   5.029  12.815  1.00  0.00    -0.504 OA
ATOM     19  H   UNL     1       5.655   4.194  13.157  1.00  0.00     0.293 HD
ENDBRANCH  15  18
BRANCH  17  20
ATOM     20  O   UNL     1       6.523   4.952  10.327  1.00  0.00    -0.504 OA
ATOM     21  H   UNL     1       5.709   4.350  10.298  1.00  0.00     0.293 HD
ENDBRANCH  17  20
ENDBRANCH   1  12
BRANCH   6  22
ATOM     22  O   UNL     1      11.048  13.127   8.620  1.00  0.00    -0.507 OA
ATOM     23  H   UNL     1      10.913  12.679   7.727  1.00  0.00     0.293 HD
ENDBRANCH   6  22
BRANCH   8  24
ATOM     24  O   UNL     1       8.742  15.361  12.191  1.00  0.00    -0.508 OA
ATOM     25  H   UNL     1       9.460  15.825  12.737  1.00  0.00     0.293 HD
ENDBRANCH   8  24
TORSDOF 5
ENDMDL
MODEL 4
REMARK VINA RESULT:    -5.213     13.558     15.230
REMARK INTER + INTRA:          -6.415
REMARK INTER:                  -6.133
REMARK INTRA:                  -0.283
REMARK UNBOUND:                -0.288
REMARK SMILES O=c1cc(-c2ccc(O)c(O)c2)oc2cc(O)cc(O)c12
REMARK SMILES IDX 4 1 3 2 2 3 1 4 21 5 19 6 18 7 16 8 15 9 14 10 13 11 5 12
REMARK SMILES IDX 6 13 7 14 8 15 12 16 10 17 9 18 11 20 20 22 17 24
REMARK H PARENT 9 19 11 21 20 23 17 25
REMARK Flexibility Score: inf
ROOT
ATOM      1  C   UNL     1      14.207  21.138   6.637  1.00  0.00     0.138 A 
ATOM      2  C   UNL     1      12.897  21.342   7.090  1.00  0.00     0.100 A 
ATOM      3  C   UNL     1      12.675  22.096   8.244  1.00  0.00     0.197 A 
ATOM      4  O   UNL     1      11.485  22.314   8.591  1.00  0.00    -0.289 OA
ATOM      5  C   UNL     1      13.774  22.621   8.963  1.00  0.00     0.107 A 
ATOM      6  C   UNL     1      13.670  23.369  10.173  1.00  0.00     0.134 A 
ATOM      7  C   UNL     1      14.821  23.938  10.733  1.00  0.00     0.093 A 
ATOM      8  C   UNL     1      16.078  23.735  10.161  1.00  0.00     0.123 A 
ATOM      9  C   UNL     1      16.196  22.961   9.009  1.00  0.00     0.094 A 
ATOM     10  C   UNL     1      15.063  22.408   8.406  1.00  0.00     0.146 A 
ATOM     11  O   UNL     1      15.218  21.688   7.300  1.00  0.00    -0.456 OA
ENDROOT
BRANCH   1  12
ATOM     12  C   UNL     1      14.500  20.343   5.417  1.00  0.00     0.021 A 
ATOM     13  C   UNL     1      14.079  19.007   5.286  1.00  0.00     0.016 A 
ATOM     14  C   UNL     1      14.377  18.279   4.131  1.00  0.00     0.051 A 
ATOM     15  C   UNL     1      15.106  18.869   3.092  1.00  0.00     0.157 A 
ATOM     16  C   UNL     1      15.244  20.924   4.374  1.00  0.00     0.062 A 
ATOM     17  C   UNL     1      15.544  20.198   3.216  1.00  0.00     0.158 A 
BRANCH  15  18
ATOM     18  O   UNL     1      15.402  18.141   1.940  1.00  0.00    -0.504 OA
ATOM     19  H   UNL     1      15.549  18.598   1.048  1.00  0.00     0.293 HD
ENDBRANCH  15  18
BRANCH  17  20
ATOM     20  O   UNL     1      16.275  20.814   2.201  1.00  0.00    -0.504 OA
ATOM     21  H   UNL     1      17.227  21.132   2.340  1.00  0.00     0.293 HD
ENDBRANCH  17  20
ENDBRANCH   1  12
BRANCH   6  22
ATOM     22  O   UNL     1      12.476  23.561  10.873  1.00  0.00    -0.507 OA
ATOM     23  H   UNL     1      11.829  22.828  11.121  1.00  0.00     0.293 HD
ENDBRANCH   6  22
BRANCH   8  24
ATOM     24  O   UNL     1      17.220  24.291  10.733  1.00  0.00    -0.508 OA
ATOM     25  H   UNL     1      18.107  23.801  10.730  1.00  0.00     0.293 HD
ENDBRANCH   8  24
TORSDOF 5
ENDMDL
MODEL 5
REMARK VINA RESULT:    -5.181      3.299      7.152
REMARK INTER + INTRA:          -6.377
REMARK INTER:                  -6.094
REMARK INTRA:                  -0.283
REMARK UNBOUND:                -0.288
REMARK SMILES O=c1cc(-c2ccc(O)c(O)c2)oc2cc(O)cc(O)c12
REMARK SMILES IDX 4 1 3 2 2 3 1 4 21 5 19 6 18 7 16 8 15 9 14 10 13 11 5 12
REMARK SMILES IDX 6 13 7 14 8 15 12 16 10 17 9 18 11 20 20 22 17 24
REMARK H PARENT 9 19 11 21 20 23 17 25
REMARK Flexibility Score: inf
ROOT
ATOM      1  C   UNL     1       8.101  14.083  11.994  1.00  0.00     0.138 A 
ATOM      2  C   UNL     1       7.562  12.998  12.697  1.00  0.00     0.100 A 
ATOM      3  C   UNL     1       7.852  11.696  12.285  1.00  0.00     0.197 A 
ATOM      4  O   UNL     1       7.404  10.742  12.973  1.00  0.00    -0.289 OA
ATOM      5  C   UNL     1       8.661  11.483  11.144  1.00  0.00     0.107 A 
ATOM      6  C   UNL     1       8.989  10.202  10.608  1.00  0.00     0.134 A 
ATOM      7  C   UNL     1       9.895  10.111   9.543  1.00  0.00     0.093 A 
ATOM      8  C   UNL     1      10.435  11.257   8.956  1.00  0.00     0.123 A 
ATOM      9  C   UNL     1      10.079  12.515   9.438  1.00  0.00     0.094 A 
ATOM     10  C   UNL     1       9.206  12.638  10.522  1.00  0.00     0.146 A 
ATOM     11  O   UNL     1       8.903  13.856  10.959  1.00  0.00    -0.456 OA
ENDROOT
BRANCH   1  12
ATOM     12  C   UNL     1       7.824  15.489  12.388  1.00  0.00     0.021 A 
ATOM     13  C   UNL     1       8.050  15.947  13.700  1.00  0.00     0.016 A 
ATOM     14  C   UNL     1       7.771  17.272  14.045  1.00  0.00     0.051 A 
ATOM     15  C   UNL     1       7.256  18.158  13.092  1.00  0.00     0.157 A 
ATOM     16  C   UNL     1       7.293  16.382  11.440  1.00  0.00     0.062 A 
ATOM     17  C   UNL     1       7.014  17.709  11.783  1.00  0.00     0.158 A 
BRANCH  15  18
ATOM     18  O   UNL     1       6.979  19.479  13.440  1.00  0.00    -0.504 OA
ATOM     19  H   UNL     1       7.719  20.130  13.679  1.00  0.00     0.293 HD
ENDBRANCH  15  18
BRANCH  17  20
ATOM     20  O   UNL     1       6.498  18.566  10.812  1.00  0.00    -0.504 OA
ATOM     21  H   UNL     1       5.843  18.249  10.107  1.00  0.00     0.293 HD
ENDBRANCH  17  20
ENDBRANCH   1  12
BRANCH   6  22
ATOM     22  O   UNL     1       8.441   9.000  11.065  1.00  0.00    -0.507 OA
ATOM     23  H   UNL     1       8.971   8.234  11.450  1.00  0.00     0.293 HD
ENDBRANCH   6  22
BRANCH   8  24
ATOM     24  O   UNL     1      11.323  11.158   7.887  1.00  0.00    -0.508 OA
ATOM     25  H   UNL     1      12.317  11.318   8.007  1.00  0.00     0.293 HD
ENDBRANCH   8  24
TORSDOF 5
ENDMDL
MODEL 6
REMARK VINA RESULT:    -5.108      3.291      6.608
REMARK INTER + INTRA:          -6.292
REMARK INTER:                  -6.012
REMARK INTRA:                  -0.279
REMARK UNBOUND:                -0.288
REMARK SMILES O=c1cc(-c2ccc(O)c(O)c2)oc2cc(O)cc(O)c12
REMARK SMILES IDX 4 1 3 2 2 3 1 4 21 5 19 6 18 7 16 8 15 9 14 10 13 11 5 12
REMARK SMILES IDX 6 13 7 14 8 15 12 16 10 17 9 18 11 20 20 22 17 24
REMARK H PARENT 9 19 11 21 20 23 17 25
REMARK Flexibility Score: inf
ROOT
ATOM      1  C   UNL     1       8.339  14.161  11.624  1.00  0.00     0.138 A 
ATOM      2  C   UNL     1       9.162  14.629  10.590  1.00  0.00     0.100 A 
ATOM      3  C   UNL     1       9.791  13.715   9.742  1.00  0.00     0.197 A 
ATOM      4  O   UNL     1      10.473  14.166   8.785  1.00  0.00    -0.289 OA
ATOM      5  C   UNL     1       9.620  12.326   9.953  1.00  0.00     0.107 A 
ATOM      6  C   UNL     1      10.244  11.305   9.177  1.00  0.00     0.134 A 
ATOM      7  C   UNL     1       9.907   9.964   9.405  1.00  0.00     0.093 A 
ATOM      8  C   UNL     1       9.016   9.606  10.419  1.00  0.00     0.123 A 
ATOM      9  C   UNL     1       8.442  10.594  11.216  1.00  0.00     0.094 A 
ATOM     10  C   UNL     1       8.731  11.942  10.992  1.00  0.00     0.146 A 
ATOM     11  O   UNL     1       8.151  12.854  11.766  1.00  0.00    -0.456 OA
ENDROOT
BRANCH   1  12
ATOM     12  C   UNL     1       7.647  15.088  12.556  1.00  0.00     0.021 A 
ATOM     13  C   UNL     1       8.362  15.977  13.381  1.00  0.00     0.016 A 
ATOM     14  C   UNL     1       7.685  16.832  14.255  1.00  0.00     0.051 A 
ATOM     15  C   UNL     1       6.287  16.809  14.327  1.00  0.00     0.157 A 
ATOM     16  C   UNL     1       6.244  15.061  12.643  1.00  0.00     0.062 A 
ATOM     17  C   UNL     1       5.564  15.916  13.518  1.00  0.00     0.158 A 
BRANCH  15  18
ATOM     18  O   UNL     1       5.615  17.663  15.199  1.00  0.00    -0.504 OA
ATOM     19  H   UNL     1       4.897  17.320  15.828  1.00  0.00     0.293 HD
ENDBRANCH  15  18
BRANCH  17  20
ATOM     20  O   UNL     1       4.171  15.866  13.568  1.00  0.00    -0.504 OA
ATOM     21  H   UNL     1       3.596  16.683  13.400  1.00  0.00     0.293 HD
ENDBRANCH  17  20
ENDBRANCH   1  12
BRANCH   6  22
ATOM     22  O   UNL     1      11.211  11.547   8.198  1.00  0.00    -0.507 OA
ATOM     23  H   UNL     1      11.810  12.358   8.168  1.00  0.00     0.293 HD
ENDBRANCH   6  22
BRANCH   8  24
ATOM     24  O   UNL     1       8.699   8.269  10.648  1.00  0.00    -0.508 OA
ATOM     25  H   UNL     1       8.181   7.981  11.471  1.00  0.00     0.293 HD
ENDBRANCH   8  24
TORSDOF 5
ENDMDL
MODEL 7
REMARK VINA RESULT:    -5.087      1.873      2.501
REMARK INTER + INTRA:          -6.267
REMARK INTER:                  -5.951
REMARK INTRA:                  -0.316
REMARK UNBOUND:                -0.288
REMARK SMILES O=c1cc(-c2ccc(O)c(O)c2)oc2cc(O)cc(O)c12
REMARK SMILES IDX 4 1 3 2 2 3 1 4 21 5 19 6 18 7 16 8 15 9 14 10 13 11 5 12
REMARK SMILES IDX 6 13 7 14 8 15 12 16 10 17 9 18 11 20 20 22 17 24
REMARK H PARENT 9 19 11 21 20 23 17 25
REMARK Flexibility Score: inf
ROOT
ATOM      1  C   UNL     1       8.406   9.656  10.673  1.00  0.00     0.138 A 
ATOM      2  C   UNL     1       8.719  10.832  11.368  1.00  0.00     0.100 A 
ATOM      3  C   UNL     1       9.451  11.835  10.731  1.00  0.00     0.197 A 
ATOM      4  O   UNL     1       9.663  12.905  11.360  1.00  0.00    -0.289 OA
ATOM      5  C   UNL     1       9.899  11.645   9.403  1.00  0.00     0.107 A 
ATOM      6  C   UNL     1      10.687  12.581   8.670  1.00  0.00     0.134 A 
ATOM      7  C   UNL     1      10.973  12.334   7.320  1.00  0.00     0.093 A 
ATOM      8  C   UNL     1      10.551  11.158   6.697  1.00  0.00     0.123 A 
ATOM      9  C   UNL     1       9.827  10.213   7.421  1.00  0.00     0.094 A 
ATOM     10  C   UNL     1       9.496  10.445   8.758  1.00  0.00     0.146 A 
ATOM     11  O   UNL     1       8.792   9.525   9.408  1.00  0.00    -0.456 OA
ENDROOT
BRANCH   1  12
ATOM     12  C   UNL     1       7.630   8.555  11.301  1.00  0.00     0.021 A 
ATOM     13  C   UNL     1       6.997   8.716  12.548  1.00  0.00     0.016 A 
ATOM     14  C   UNL     1       6.282   7.661  13.120  1.00  0.00     0.051 A 
ATOM     15  C   UNL     1       6.194   6.427  12.464  1.00  0.00     0.157 A 
ATOM     16  C   UNL     1       7.549   7.309  10.655  1.00  0.00     0.062 A 
ATOM     17  C   UNL     1       6.833   6.251  11.226  1.00  0.00     0.158 A 
BRANCH  15  18
ATOM     18  O   UNL     1       5.479   5.377  13.038  1.00  0.00    -0.504 OA
ATOM     19  H   UNL     1       5.857   4.838  13.809  1.00  0.00     0.293 HD
ENDBRANCH  15  18
BRANCH  17  20
ATOM     20  O   UNL     1       6.768   5.034  10.549  1.00  0.00    -0.504 OA
ATOM     21  H   UNL     1       7.592   4.472  10.371  1.00  0.00     0.293 HD
ENDBRANCH  17  20
ENDBRANCH   1  12
BRANCH   6  22
ATOM     22  O   UNL     1      11.230  13.746   9.219  1.00  0.00    -0.507 OA
ATOM     23  H   UNL     1      10.758  14.347   9.876  1.00  0.00     0.293 HD
ENDBRANCH   6  22
BRANCH   8  24
ATOM     24  O   UNL     1      10.853  10.914   5.359  1.00  0.00    -0.508 OA
ATOM     25  H   UNL     1      10.775   9.985   4.960  1.00  0.00     0.293 HD
ENDBRANCH   8  24
TORSDOF 5
ENDMDL
MODEL 8
REMARK VINA RESULT:    -5.086     12.905     14.880
REMARK INTER + INTRA:          -6.265
REMARK INTER:                  -5.991
REMARK INTRA:                  -0.274
REMARK UNBOUND:                -0.288
REMARK SMILES O=c1cc(-c2ccc(O)c(O)c2)oc2cc(O)cc(O)c12
REMARK SMILES IDX 4 1 3 2 2 3 1 4 21 5 19 6 18 7 16 8 15 9 14 10 13 11 5 12
REMARK SMILES IDX 6 13 7 14 8 15 12 16 10 17 9 18 11 20 20 22 17 24
REMARK H PARENT 9 19 11 21 20 23 17 25
REMARK Flexibility Score: inf
ROOT
ATOM      1  C   UNL     1      14.091  21.094   6.684  1.00  0.00     0.138 A 
ATOM      2  C   UNL     1      15.056  21.830   7.383  1.00  0.00     0.100 A 
ATOM      3  C   UNL     1      14.689  22.532   8.533  1.00  0.00     0.197 A 
ATOM      4  O   UNL     1      15.591  23.133   9.174  1.00  0.00    -0.289 OA
ATOM      5  C   UNL     1      13.342  22.521   8.965  1.00  0.00     0.107 A 
ATOM      6  C   UNL     1      12.846  23.232  10.097  1.00  0.00     0.134 A 
ATOM      7  C   UNL     1      11.515  23.051  10.496  1.00  0.00     0.093 A 
ATOM      8  C   UNL     1      10.648  22.234   9.768  1.00  0.00     0.123 A 
ATOM      9  C   UNL     1      11.110  21.578   8.629  1.00  0.00     0.094 A 
ATOM     10  C   UNL     1      12.441  21.709   8.225  1.00  0.00     0.146 A 
ATOM     11  O   UNL     1      12.844  21.055   7.141  1.00  0.00    -0.456 OA
ENDROOT
BRANCH   1  12
ATOM     12  C   UNL     1      14.426  20.330   5.455  1.00  0.00     0.021 A 
ATOM     13  C   UNL     1      14.023  18.992   5.283  1.00  0.00     0.016 A 
ATOM     14  C   UNL     1      14.360  18.294   4.120  1.00  0.00     0.051 A 
ATOM     15  C   UNL     1      15.110  18.915   3.114  1.00  0.00     0.157 A 
ATOM     16  C   UNL     1      15.190  20.942   4.446  1.00  0.00     0.062 A 
ATOM     17  C   UNL     1      15.529  20.246   3.280  1.00  0.00     0.158 A 
BRANCH  15  18
ATOM     18  O   UNL     1      15.445  18.217   1.956  1.00  0.00    -0.504 OA
ATOM     19  H   UNL     1      16.347  17.768   1.849  1.00  0.00     0.293 HD
ENDBRANCH  15  18
BRANCH  17  20
ATOM     20  O   UNL     1      16.280  20.892   2.299  1.00  0.00    -0.504 OA
ATOM     21  H   UNL     1      16.177  20.679   1.314  1.00  0.00     0.293 HD
ENDBRANCH  17  20
ENDBRANCH   1  12
BRANCH   6  22
ATOM     22  O   UNL     1      13.603  24.138  10.844  1.00  0.00    -0.507 OA
ATOM     23  H   UNL     1      13.611  24.191  11.851  1.00  0.00     0.293 HD
ENDBRANCH   6  22
BRANCH   8  24
ATOM     24  O   UNL     1       9.322  22.072  10.163  1.00  0.00    -0.508 OA
ATOM     25  H   UNL     1       8.748  22.866  10.426  1.00  0.00     0.293 HD
ENDBRANCH   8  24
TORSDOF 5
ENDMDL
MODEL 9
REMARK VINA RESULT:    -5.084     14.604     17.665
REMARK INTER + INTRA:          -6.263
REMARK INTER:                  -5.959
REMARK INTRA:                  -0.304
REMARK UNBOUND:                -0.288
REMARK SMILES O=c1cc(-c2ccc(O)c(O)c2)oc2cc(O)cc(O)c12
REMARK SMILES IDX 4 1 3 2 2 3 1 4 21 5 19 6 18 7 16 8 15 9 14 10 13 11 5 12
REMARK SMILES IDX 6 13 7 14 8 15 12 16 10 17 9 18 11 20 20 22 17 24
REMARK H PARENT 9 19 11 21 20 23 17 25
REMARK Flexibility Score: inf
ROOT
ATOM      1  C   UNL     1      21.862  15.541   6.217  1.00  0.00     0.138 A 
ATOM      2  C   UNL     1      21.566  14.216   5.866  1.00  0.00     0.100 A 
ATOM      3  C   UNL     1      21.323  13.275   6.868  1.00  0.00     0.197 A 
ATOM      4  O   UNL     1      20.999  12.109   6.521  1.00  0.00    -0.289 OA
ATOM      5  C   UNL     1      21.410  13.656   8.228  1.00  0.00     0.107 A 
ATOM      6  C   UNL     1      21.223  12.772   9.332  1.00  0.00     0.134 A 
ATOM      7  C   UNL     1      21.218  13.288  10.635  1.00  0.00     0.093 A 
ATOM      8  C   UNL     1      21.453  14.644  10.875  1.00  0.00     0.123 A 
ATOM      9  C   UNL     1      21.689  15.504   9.805  1.00  0.00     0.094 A 
ATOM     10  C   UNL     1      21.667  15.028   8.492  1.00  0.00     0.146 A 
ATOM     11  O   UNL     1      21.883  15.885   7.500  1.00  0.00    -0.456 OA
ENDROOT
BRANCH   1  12
ATOM     12  C   UNL     1      22.129  16.583   5.193  1.00  0.00     0.021 A 
ATOM     13  C   UNL     1      22.783  16.280   3.984  1.00  0.00     0.016 A 
ATOM     14  C   UNL     1      23.030  17.282   3.042  1.00  0.00     0.051 A 
ATOM     15  C   UNL     1      22.637  18.602   3.293  1.00  0.00     0.157 A 
ATOM     16  C   UNL     1      21.750  17.913   5.444  1.00  0.00     0.062 A 
ATOM     17  C   UNL     1      21.996  18.919   4.502  1.00  0.00     0.158 A 
BRANCH  15  18
ATOM     18  O   UNL     1      22.885  19.599   2.351  1.00  0.00    -0.504 OA
ATOM     19  H   UNL     1      23.826  19.919   2.153  1.00  0.00     0.293 HD
ENDBRANCH  15  18
BRANCH  17  20
ATOM     20  O   UNL     1      21.596  20.224   4.784  1.00  0.00    -0.504 OA
ATOM     21  H   UNL     1      20.620  20.495   4.810  1.00  0.00     0.293 HD
ENDBRANCH  17  20
ENDBRANCH   1  12
BRANCH   6  22
ATOM     22  O   UNL     1      21.066  11.389   9.209  1.00  0.00    -0.507 OA
ATOM     23  H   UNL     1      21.546  10.812   8.536  1.00  0.00     0.293 HD
ENDBRANCH   6  22
BRANCH   8  24
ATOM     24  O   UNL     1      21.461  15.145  12.174  1.00  0.00    -0.508 OA
ATOM     25  H   UNL     1      20.620  15.509  12.607  1.00  0.00     0.293 HD
ENDBRANCH   8  24
TORSDOF 5
ENDMDL
