MODEL 1
REMARK VINA RESULT:    -4.853      0.000      0.000
REMARK INTER + INTRA:          -5.313
REMARK INTER:                  -5.278
REMARK INTRA:                  -0.035
REMARK UNBOUND:                -0.035
REMARK SMILES O=C([O-])c1ccc(O)cc1
REMARK SMILES IDX 4 1 5 2 10 3 6 4 9 5 7 6 2 7 1 8 3 9 8 10
REMARK H PARENT 8 11
REMARK Flexibility Score: inf
ROOT
ATOM      1  C   UNL     1      61.025 152.369   2.767  1.00  0.00    -0.003 A 
ATOM      2  C   UNL     1      61.283 152.891   1.486  1.00  0.00     0.014 A 
ATOM      3  C   UNL     1      59.783 152.631   3.374  1.00  0.00     0.014 A 
ATOM      4  C   UNL     1      60.317 153.660   0.828  1.00  0.00     0.047 A 
ATOM      5  C   UNL     1      58.821 153.400   2.712  1.00  0.00     0.047 A 
ATOM      6  C   UNL     1      59.084 153.917   1.440  1.00  0.00     0.115 A 
ENDROOT
BRANCH   1   7
ATOM      7  C   UNL     1      62.042 151.555   3.468  1.00  0.00     0.071 C 
ATOM      8  O   UNL     1      63.258 151.633   3.148  1.00  0.00    -0.545 OA
ATOM      9  O   UNL     1      61.670 150.691   4.492  1.00  0.00    -0.545 OA
ENDBRANCH   1   7
BRANCH   6  10
ATOM     10  O   UNL     1      58.115 154.681   0.794  1.00  0.00    -0.508 OA
ATOM     11  H   UNL     1      57.351 154.248   0.286  1.00  0.00     0.293 HD
ENDBRANCH   6  10
TORSDOF 2
ENDMDL
MODEL 2
REMARK VINA RESULT:    -4.804      1.908      2.698
REMARK INTER + INTRA:          -5.260
REMARK INTER:                  -5.224
REMARK INTRA:                  -0.036
REMARK UNBOUND:                -0.035
REMARK SMILES O=C([O-])c1ccc(O)cc1
REMARK SMILES IDX 4 1 5 2 10 3 6 4 9 5 7 6 2 7 1 8 3 9 8 10
REMARK H PARENT 8 11
REMARK Flexibility Score: inf
ROOT
ATOM      1  C   UNL     1      59.648 153.359   2.761  1.00  0.00    -0.003 A 
ATOM      2  C   UNL     1      60.871 152.974   2.180  1.00  0.00     0.014 A 
ATOM      3  C   UNL     1      58.739 154.115   2.000  1.00  0.00     0.014 A 
ATOM      4  C   UNL     1      61.174 153.340   0.865  1.00  0.00     0.047 A 
ATOM      5  C   UNL     1      59.047 154.478   0.685  1.00  0.00     0.047 A 
ATOM      6  C   UNL     1      60.264 154.093   0.114  1.00  0.00     0.115 A 
ENDROOT
BRANCH   1   7
ATOM      7  C   UNL     1      59.320 152.975   4.152  1.00  0.00     0.071 C 
ATOM      8  O   UNL     1      58.274 153.405   4.707  1.00  0.00    -0.545 OA
ATOM      9  O   UNL     1      60.164 152.133   4.867  1.00  0.00    -0.545 OA
ENDBRANCH   1   7
BRANCH   6  10
ATOM     10  O   UNL     1      60.556 154.463  -1.196  1.00  0.00    -0.508 OA
ATOM     11  H   UNL     1      61.120 153.875  -1.799  1.00  0.00     0.293 HD
ENDBRANCH   6  10
TORSDOF 2
ENDMDL
MODEL 3
REMARK VINA RESULT:    -4.794      2.746      5.698
REMARK INTER + INTRA:          -5.249
REMARK INTER:                  -5.217
REMARK INTRA:                  -0.032
REMARK UNBOUND:                -0.035
REMARK SMILES O=C([O-])c1ccc(O)cc1
REMARK SMILES IDX 4 1 5 2 10 3 6 4 9 5 7 6 2 7 1 8 3 9 8 10
REMARK H PARENT 8 11
REMARK Flexibility Score: inf
ROOT
ATOM      1  C   UNL     1      62.575 151.056   4.142  1.00  0.00    -0.003 A 
ATOM      2  C   UNL     1      63.897 151.249   3.699  1.00  0.00     0.014 A 
ATOM      3  C   UNL     1      62.328 150.124   5.165  1.00  0.00     0.014 A 
ATOM      4  C   UNL     1      64.947 150.522   4.271  1.00  0.00     0.047 A 
ATOM      5  C   UNL     1      63.381 149.401   5.734  1.00  0.00     0.047 A 
ATOM      6  C   UNL     1      64.692 149.597   5.289  1.00  0.00     0.115 A 
ENDROOT
BRANCH   1   7
ATOM      7  C   UNL     1      61.460 151.821   3.542  1.00  0.00     0.071 C 
ATOM      8  O   UNL     1      60.533 152.278   4.264  1.00  0.00    -0.545 OA
ATOM      9  O   UNL     1      61.418 152.047   2.171  1.00  0.00    -0.545 OA
ENDBRANCH   1   7
BRANCH   6  10
ATOM     10  O   UNL     1      65.730 148.868   5.865  1.00  0.00    -0.508 OA
ATOM     11  H   UNL     1      65.751 147.856   5.825  1.00  0.00     0.293 HD
ENDBRANCH   6  10
TORSDOF 2
ENDMDL
MODEL 4
REMARK VINA RESULT:    -4.651      1.084      4.098
REMARK INTER + INTRA:          -5.093
REMARK INTER:                  -5.058
REMARK INTRA:                  -0.036
REMARK UNBOUND:                -0.035
REMARK SMILES O=C([O-])c1ccc(O)cc1
REMARK SMILES IDX 4 1 5 2 10 3 6 4 9 5 7 6 2 7 1 8 3 9 8 10
REMARK H PARENT 8 11
REMARK Flexibility Score: inf
ROOT
ATOM      1  C   UNL     1      59.936 153.353   1.952  1.00  0.00    -0.003 A 
ATOM      2  C   UNL     1      61.089 152.582   1.710  1.00  0.00     0.014 A 
ATOM      3  C   UNL     1      59.370 153.348   3.240  1.00  0.00     0.014 A 
ATOM      4  C   UNL     1      61.661 151.825   2.738  1.00  0.00     0.047 A 
ATOM      5  C   UNL     1      59.946 152.590   4.263  1.00  0.00     0.047 A 
ATOM      6  C   UNL     1      61.091 151.826   4.016  1.00  0.00     0.115 A 
ENDROOT
BRANCH   1   7
ATOM      7  C   UNL     1      59.325 154.156   0.870  1.00  0.00     0.071 C 
ATOM      8  O   UNL     1      59.789 154.114  -0.301  1.00  0.00    -0.545 OA
ATOM      9  O   UNL     1      58.230 154.971   1.131  1.00  0.00    -0.545 OA
ENDBRANCH   1   7
BRANCH   6  10
ATOM     10  O   UNL     1      61.653 151.076   5.046  1.00  0.00    -0.508 OA
ATOM     11  H   UNL     1      62.188 151.513   5.789  1.00  0.00     0.293 HD
ENDBRANCH   6  10
TORSDOF 2
ENDMDL
MODEL 5
REMARK VINA RESULT:    -4.638      5.175      5.892
REMARK INTER + INTRA:          -5.080
REMARK INTER:                  -5.045
REMARK INTRA:                  -0.035
REMARK UNBOUND:                -0.035
REMARK SMILES O=C([O-])c1ccc(O)cc1
REMARK SMILES IDX 4 1 5 2 10 3 6 4 9 5 7 6 2 7 1 8 3 9 8 10
REMARK H PARENT 8 11
REMARK Flexibility Score: inf
ROOT
ATOM      1  C   UNL     1      62.874 149.187   5.565  1.00  0.00    -0.003 A 
ATOM      2  C   UNL     1      64.238 149.028   5.258  1.00  0.00     0.014 A 
ATOM      3  C   UNL     1      62.371 150.481   5.787  1.00  0.00     0.014 A 
ATOM      4  C   UNL     1      65.079 150.143   5.177  1.00  0.00     0.047 A 
ATOM      5  C   UNL     1      63.215 151.593   5.704  1.00  0.00     0.047 A 
ATOM      6  C   UNL     1      64.570 151.428   5.400  1.00  0.00     0.115 A 
ENDROOT
BRANCH   1   7
ATOM      7  C   UNL     1      61.979 148.013   5.652  1.00  0.00     0.071 C 
ATOM      8  O   UNL     1      62.274 146.936   5.066  1.00  0.00    -0.545 OA
ATOM      9  O   UNL     1      60.799 148.079   6.384  1.00  0.00    -0.545 OA
ENDBRANCH   1   7
BRANCH   6  10
ATOM     10  O   UNL     1      65.398 152.545   5.321  1.00  0.00    -0.508 OA
ATOM     11  H   UNL     1      66.052 152.773   6.062  1.00  0.00     0.293 HD
ENDBRANCH   6  10
TORSDOF 2
ENDMDL
MODEL 6
REMARK VINA RESULT:    -4.615      5.005      6.284
REMARK INTER + INTRA:          -5.054
REMARK INTER:                  -5.027
REMARK INTRA:                  -0.027
REMARK UNBOUND:                -0.035
REMARK SMILES O=C([O-])c1ccc(O)cc1
REMARK SMILES IDX 4 1 5 2 10 3 6 4 9 5 7 6 2 7 1 8 3 9 8 10
REMARK H PARENT 8 11
REMARK Flexibility Score: inf
ROOT
ATOM      1  C   UNL     1      64.376 151.011   5.168  1.00  0.00    -0.003 A 
ATOM      2  C   UNL     1      63.039 150.869   5.585  1.00  0.00     0.014 A 
ATOM      3  C   UNL     1      65.142 149.857   4.927  1.00  0.00     0.014 A 
ATOM      4  C   UNL     1      62.484 149.596   5.755  1.00  0.00     0.047 A 
ATOM      5  C   UNL     1      64.582 148.587   5.098  1.00  0.00     0.047 A 
ATOM      6  C   UNL     1      63.254 148.453   5.512  1.00  0.00     0.115 A 
ENDROOT
BRANCH   1   7
ATOM      7  C   UNL     1      64.970 152.354   4.987  1.00  0.00     0.071 C 
ATOM      8  O   UNL     1      64.672 153.057   3.984  1.00  0.00    -0.545 OA
ATOM      9  O   UNL     1      65.865 152.860   5.922  1.00  0.00    -0.545 OA
ENDBRANCH   1   7
BRANCH   6  10
ATOM     10  O   UNL     1      62.711 147.181   5.678  1.00  0.00    -0.508 OA
ATOM     11  H   UNL     1      61.901 146.878   5.148  1.00  0.00     0.293 HD
ENDBRANCH   6  10
TORSDOF 2
ENDMDL
MODEL 7
REMARK VINA RESULT:    -4.600      1.067      2.076
REMARK INTER + INTRA:          -5.038
REMARK INTER:                  -5.004
REMARK INTRA:                  -0.034
REMARK UNBOUND:                -0.035
REMARK SMILES O=C([O-])c1ccc(O)cc1
REMARK SMILES IDX 4 1 5 2 10 3 6 4 9 5 7 6 2 7 1 8 3 9 8 10
REMARK H PARENT 8 11
REMARK Flexibility Score: inf
ROOT
ATOM      1  C   UNL     1      60.576 152.323   3.491  1.00  0.00    -0.003 A 
ATOM      2  C   UNL     1      59.326 152.969   3.477  1.00  0.00     0.014 A 
ATOM      3  C   UNL     1      61.383 152.374   2.341  1.00  0.00     0.014 A 
ATOM      4  C   UNL     1      58.896 153.652   2.335  1.00  0.00     0.047 A 
ATOM      5  C   UNL     1      60.949 153.058   1.201  1.00  0.00     0.047 A 
ATOM      6  C   UNL     1      59.706 153.698   1.194  1.00  0.00     0.115 A 
ENDROOT
BRANCH   1   7
ATOM      7  C   UNL     1      61.037 151.599   4.696  1.00  0.00     0.071 C 
ATOM      8  O   UNL     1      60.573 151.884   5.833  1.00  0.00    -0.545 OA
ATOM      9  O   UNL     1      61.991 150.593   4.592  1.00  0.00    -0.545 OA
ENDBRANCH   1   7
BRANCH   6  10
ATOM     10  O   UNL     1      59.288 154.375   0.051  1.00  0.00    -0.508 OA
ATOM     11  H   UNL     1      59.480 155.362  -0.080  1.00  0.00     0.293 HD
ENDBRANCH   6  10
TORSDOF 2
ENDMDL
MODEL 8
REMARK VINA RESULT:    -4.531      2.706      3.871
REMARK INTER + INTRA:          -4.963
REMARK INTER:                  -4.936
REMARK INTRA:                  -0.027
REMARK UNBOUND:                -0.035
REMARK SMILES O=C([O-])c1ccc(O)cc1
REMARK SMILES IDX 4 1 5 2 10 3 6 4 9 5 7 6 2 7 1 8 3 9 8 10
REMARK H PARENT 8 11
REMARK Flexibility Score: inf
ROOT
ATOM      1  C   UNL     1      63.610 151.357   4.724  1.00  0.00    -0.003 A 
ATOM      2  C   UNL     1      62.437 151.364   5.503  1.00  0.00     0.014 A 
ATOM      3  C   UNL     1      63.512 151.595   3.341  1.00  0.00     0.014 A 
ATOM      4  C   UNL     1      61.194 151.604   4.907  1.00  0.00     0.047 A 
ATOM      5  C   UNL     1      62.267 151.835   2.751  1.00  0.00     0.047 A 
ATOM      6  C   UNL     1      61.106 151.840   3.530  1.00  0.00     0.115 A 
ENDROOT
BRANCH   1   7
ATOM      7  C   UNL     1      64.927 151.104   5.347  1.00  0.00     0.071 C 
ATOM      8  O   UNL     1      65.642 152.062   5.748  1.00  0.00    -0.545 OA
ATOM      9  O   UNL     1      65.396 149.805   5.499  1.00  0.00    -0.545 OA
ENDBRANCH   1   7
BRANCH   6  10
ATOM     10  O   UNL     1      59.874 152.080   2.927  1.00  0.00    -0.508 OA
ATOM     11  H   UNL     1      59.730 152.876   2.316  1.00  0.00     0.293 HD
ENDBRANCH   6  10
TORSDOF 2
ENDMDL
MODEL 9
REMARK VINA RESULT:    -4.465     18.932     20.280
REMARK INTER + INTRA:          -4.892
REMARK INTER:                  -4.858
REMARK INTRA:                  -0.034
REMARK UNBOUND:                -0.035
REMARK SMILES O=C([O-])c1ccc(O)cc1
REMARK SMILES IDX 4 1 5 2 10 3 6 4 9 5 7 6 2 7 1 8 3 9 8 10
REMARK H PARENT 8 11
REMARK Flexibility Score: inf
ROOT
ATOM      1  C   UNL     1      70.621 138.715  -8.224  1.00  0.00    -0.003 A 
ATOM      2  C   UNL     1      71.092 137.573  -7.548  1.00  0.00     0.014 A 
ATOM      3  C   UNL     1      69.636 139.512  -7.612  1.00  0.00     0.014 A 
ATOM      4  C   UNL     1      70.586 137.239  -6.287  1.00  0.00     0.047 A 
ATOM      5  C   UNL     1      69.134 139.174  -6.352  1.00  0.00     0.047 A 
ATOM      6  C   UNL     1      69.606 138.038  -5.686  1.00  0.00     0.115 A 
ENDROOT
BRANCH   1   7
ATOM      7  C   UNL     1      71.151 139.074  -9.557  1.00  0.00     0.071 C 
ATOM      8  O   UNL     1      72.321 138.745  -9.892  1.00  0.00    -0.545 OA
ATOM      9  O   UNL     1      70.366 139.780 -10.460  1.00  0.00    -0.545 OA
ENDBRANCH   1   7
BRANCH   6  10
ATOM     10  O   UNL     1      69.096 137.715  -4.431  1.00  0.00    -0.508 OA
ATOM     11  H   UNL     1      69.672 137.277  -3.722  1.00  0.00     0.293 HD
ENDBRANCH   6  10
TORSDOF 2
ENDMDL
