MODEL 1
REMARK VINA RESULT:    -3.805      0.000      0.000
REMARK INTER + INTRA:          -6.987
REMARK INTER:                  -5.807
REMARK INTRA:                  -1.180
REMARK UNBOUND:                -1.180
REMARK SMILES OC[C@@H]1O[C@](CO)(O[C@H]2O[C@H](CO)[C@@H](O)[C@@H](O)[C@H]2O)[C@@H](O)[C@@H]1O
REMARK SMILES IDX 8 1 9 2 11 3 14 4 10 5 16 6 18 7 12 8 13 9 15 11 17 13 19 15
REMARK SMILES IDX 5 17 20 18 4 19 22 20 3 21 6 22 7 23 21 25 23 27 2 29 1 30
REMARK H PARENT 13 10 15 12 17 14 19 16 7 24 21 26 23 28 1 31
REMARK Flexibility Score: inf
ROOT
ATOM      1  O   UNL     1       8.151  -5.847  -1.519  1.00  0.00    -0.313 OA
ENDROOT
BRANCH   1   2
ATOM      2  C   UNL     1       8.419  -6.472  -2.770  1.00  0.00     0.285 C 
ATOM      3  C   UNL     1      10.653  -6.909  -2.162  1.00  0.00     0.178 C 
ATOM      4  C   UNL     1      10.429  -8.441  -2.088  1.00  0.00     0.177 C 
ATOM      5  O   UNL     1       9.786  -6.323  -3.124  1.00  0.00    -0.341 OA
ATOM      6  C   UNL     1       8.957  -8.748  -1.756  1.00  0.00     0.179 C 
ATOM      7  C   UNL     1       8.041  -7.969  -2.722  1.00  0.00     0.202 C 
BRANCH   3   8
ATOM      8  C   UNL     1      12.095  -6.573  -2.567  1.00  0.00     0.191 C 
BRANCH   8   9
ATOM      9  O   UNL     1      12.314  -5.191  -2.503  1.00  0.00    -0.394 OA
ATOM     10  H   UNL     1      12.098  -4.836  -3.404  1.00  0.00     0.210 HD
ENDBRANCH   8   9
ENDBRANCH   3   8
BRANCH   4  11
ATOM     11  O   UNL     1      11.263  -9.008  -1.112  1.00  0.00    -0.387 OA
ATOM     12  H   UNL     1      12.152  -8.577  -1.208  1.00  0.00     0.211 HD
ENDBRANCH   4  11
BRANCH   6  13
ATOM     13  O   UNL     1       8.693  -8.395  -0.420  1.00  0.00    -0.387 OA
ATOM     14  H   UNL     1       9.479  -7.884  -0.093  1.00  0.00     0.211 HD
ENDBRANCH   6  13
BRANCH   7  15
ATOM     15  O   UNL     1       6.681  -8.157  -2.418  1.00  0.00    -0.385 OA
ATOM     16  H   UNL     1       6.404  -7.447  -1.783  1.00  0.00     0.211 HD
ENDBRANCH   7  15
ENDBRANCH   1   2
BRANCH   1  17
ATOM     17  C   UNL     1       7.925  -4.442  -1.602  1.00  0.00     0.224 C 
ATOM     18  C   UNL     1       7.000  -4.066  -0.423  1.00  0.00     0.208 C 
ATOM     19  O   UNL     1       7.245  -4.124  -2.809  1.00  0.00    -0.337 OA
ATOM     20  C   UNL     1       6.045  -3.079  -1.033  1.00  0.00     0.180 C 
ATOM     21  C   UNL     1       6.004  -3.526  -2.494  1.00  0.00     0.179 C 
BRANCH  17  22
ATOM     22  C   UNL     1       9.268  -3.661  -1.565  1.00  0.00     0.225 C 
BRANCH  22  23
ATOM     23  O   UNL     1       9.775  -3.485  -2.860  1.00  0.00    -0.391 OA
ATOM     24  H   UNL     1       9.201  -2.799  -3.291  1.00  0.00     0.210 HD
ENDBRANCH  22  23
ENDBRANCH  17  22
BRANCH  18  25
ATOM     25  O   UNL     1       7.694  -3.512   0.667  1.00  0.00    -0.385 OA
ATOM     26  H   UNL     1       8.546  -4.014   0.746  1.00  0.00     0.211 HD
ENDBRANCH  18  25
BRANCH  20  27
ATOM     27  O   UNL     1       4.792  -3.131  -0.401  1.00  0.00    -0.387 OA
ATOM     28  H   UNL     1       4.929  -2.794   0.522  1.00  0.00     0.211 HD
ENDBRANCH  20  27
BRANCH  21  29
ATOM     29  C   UNL     1       4.873  -4.523  -2.802  1.00  0.00     0.191 C 
BRANCH  29  30
ATOM     30  O   UNL     1       3.638  -3.862  -2.758  1.00  0.00    -0.394 OA
ATOM     31  H   UNL     1       3.288  -3.872  -3.686  1.00  0.00     0.210 HD
ENDBRANCH  29  30
ENDBRANCH  21  29
ENDBRANCH   1  17
TORSDOF 13
ENDMDL
MODEL 2
REMARK VINA RESULT:    -3.437      1.231      5.996
REMARK INTER + INTRA:          -6.426
REMARK INTER:                  -5.131
REMARK INTRA:                  -1.294
REMARK UNBOUND:                -1.180
REMARK SMILES OC[C@@H]1O[C@](CO)(O[C@H]2O[C@H](CO)[C@@H](O)[C@@H](O)[C@H]2O)[C@@H](O)[C@@H]1O
REMARK SMILES IDX 8 1 9 2 11 3 14 4 10 5 16 6 18 7 12 8 13 9 15 11 17 13 19 15
REMARK SMILES IDX 5 17 20 18 4 19 22 20 3 21 6 22 7 23 21 25 23 27 2 29 1 30
REMARK H PARENT 13 10 15 12 17 14 19 16 7 24 21 26 23 28 1 31
REMARK Flexibility Score: inf
ROOT
ATOM      1  O   UNL     1       8.515  -5.426  -1.509  1.00  0.00    -0.313 OA
ENDROOT
BRANCH   1   2
ATOM      2  C   UNL     1       8.220  -4.510  -2.559  1.00  0.00     0.285 C 
ATOM      3  C   UNL     1       5.904  -4.680  -2.164  1.00  0.00     0.178 C 
ATOM      4  C   UNL     1       5.796  -3.227  -1.634  1.00  0.00     0.177 C 
ATOM      5  O   UNL     1       6.947  -4.785  -3.125  1.00  0.00    -0.341 OA
ATOM      6  C   UNL     1       7.140  -2.780  -1.031  1.00  0.00     0.179 C 
ATOM      7  C   UNL     1       8.271  -3.056  -2.042  1.00  0.00     0.202 C 
BRANCH   3   8
ATOM      8  C   UNL     1       4.601  -5.127  -2.841  1.00  0.00     0.191 C 
BRANCH   8   9
ATOM      9  O   UNL     1       3.777  -4.023  -3.099  1.00  0.00    -0.394 OA
ATOM     10  H   UNL     1       3.869  -3.422  -2.315  1.00  0.00     0.210 HD
ENDBRANCH   8   9
ENDBRANCH   3   8
BRANCH   4  11
ATOM     11  O   UNL     1       4.787  -3.139  -0.662  1.00  0.00    -0.387 OA
ATOM     12  H   UNL     1       4.125  -2.477  -0.993  1.00  0.00     0.211 HD
ENDBRANCH   4  11
BRANCH   6  13
ATOM     13  O   UNL     1       7.366  -3.467   0.176  1.00  0.00    -0.387 OA
ATOM     14  H   UNL     1       6.768  -4.260   0.176  1.00  0.00     0.211 HD
ENDBRANCH   6  13
BRANCH   7  15
ATOM     15  O   UNL     1       9.534  -2.730  -1.514  1.00  0.00    -0.385 OA
ATOM     16  H   UNL     1       9.929  -3.553  -1.127  1.00  0.00     0.211 HD
ENDBRANCH   7  15
ENDBRANCH   1   2
BRANCH   1  17
ATOM     17  C   UNL     1       9.512  -6.391  -1.836  1.00  0.00     0.224 C 
ATOM     18  C   UNL     1      10.582  -6.323  -0.724  1.00  0.00     0.208 C 
ATOM     19  O   UNL     1      10.138  -6.054  -3.066  1.00  0.00    -0.337 OA
ATOM     20  C   UNL     1      11.875  -6.445  -1.481  1.00  0.00     0.180 C 
ATOM     21  C   UNL     1      11.516  -5.842  -2.838  1.00  0.00     0.179 C 
BRANCH  17  22
ATOM     22  C   UNL     1       8.889  -7.809  -1.964  1.00  0.00     0.225 C 
BRANCH  22  23
ATOM     23  O   UNL     1       7.744  -7.922  -1.163  1.00  0.00    -0.391 OA
ATOM     24  H   UNL     1       8.028  -8.397  -0.339  1.00  0.00     0.210 HD
ENDBRANCH  22  23
ENDBRANCH  17  22
BRANCH  18  25
ATOM     25  O   UNL     1      10.445  -7.340   0.236  1.00  0.00    -0.385 OA
ATOM     26  H   UNL     1      10.173  -6.897   1.082  1.00  0.00     0.211 HD
ENDBRANCH  18  25
BRANCH  20  27
ATOM     27  O   UNL     1      12.911  -5.760  -0.825  1.00  0.00    -0.387 OA
ATOM     28  H   UNL     1      13.570  -5.512  -1.524  1.00  0.00     0.211 HD
ENDBRANCH  20  27
BRANCH  21  29
ATOM     29  C   UNL     1      11.817  -4.337  -2.943  1.00  0.00     0.191 C 
BRANCH  29  30
ATOM     30  O   UNL     1      13.193  -4.143  -3.119  1.00  0.00    -0.394 OA
ATOM     31  H   UNL     1      13.538  -3.813  -2.248  1.00  0.00     0.210 HD
ENDBRANCH  29  30
ENDBRANCH  21  29
ENDBRANCH   1  17
TORSDOF 13
ENDMDL
MODEL 3
REMARK VINA RESULT:    -3.225      1.403      2.783
REMARK INTER + INTRA:          -6.102
REMARK INTER:                  -4.587
REMARK INTRA:                  -1.515
REMARK UNBOUND:                -1.180
REMARK SMILES OC[C@@H]1O[C@](CO)(O[C@H]2O[C@H](CO)[C@@H](O)[C@@H](O)[C@H]2O)[C@@H](O)[C@@H]1O
REMARK SMILES IDX 8 1 9 2 11 3 14 4 10 5 16 6 18 7 12 8 13 9 15 11 17 13 19 15
REMARK SMILES IDX 5 17 20 18 4 19 22 20 3 21 6 22 7 23 21 25 23 27 2 29 1 30
REMARK H PARENT 13 10 15 12 17 14 19 16 7 24 21 26 23 28 1 31
REMARK Flexibility Score: inf
ROOT
ATOM      1  O   UNL     1       9.456  -5.154  -2.133  1.00  0.00    -0.313 OA
ENDROOT
BRANCH   1   2
ATOM      2  C   UNL     1       9.206  -6.081  -1.081  1.00  0.00     0.285 C 
ATOM      3  C   UNL     1       9.231  -7.903  -2.574  1.00  0.00     0.178 C 
ATOM      4  C   UNL     1      10.551  -8.475  -1.997  1.00  0.00     0.177 C 
ATOM      5  O   UNL     1       8.502  -7.215  -1.566  1.00  0.00    -0.341 OA
ATOM      6  C   UNL     1      11.399  -7.343  -1.387  1.00  0.00     0.179 C 
ATOM      7  C   UNL     1      10.529  -6.519  -0.416  1.00  0.00     0.202 C 
BRANCH   3   8
ATOM      8  C   UNL     1       8.330  -9.020  -3.121  1.00  0.00     0.191 C 
BRANCH   8   9
ATOM      9  O   UNL     1       7.001  -8.816  -2.726  1.00  0.00    -0.394 OA
ATOM     10  H   UNL     1       6.446  -9.383  -3.321  1.00  0.00     0.210 HD
ENDBRANCH   8   9
ENDBRANCH   3   8
BRANCH   4  11
ATOM     11  O   UNL     1      11.282  -9.123  -3.005  1.00  0.00    -0.387 OA
ATOM     12  H   UNL     1      10.649  -9.302  -3.749  1.00  0.00     0.211 HD
ENDBRANCH   4  11
BRANCH   6  13
ATOM     13  O   UNL     1      11.910  -6.531  -2.416  1.00  0.00    -0.387 OA
ATOM     14  H   UNL     1      12.888  -6.699  -2.460  1.00  0.00     0.211 HD
ENDBRANCH   6  13
BRANCH   7  15
ATOM     15  O   UNL     1      11.235  -5.426   0.118  1.00  0.00    -0.385 OA
ATOM     16  H   UNL     1      11.160  -4.669  -0.518  1.00  0.00     0.211 HD
ENDBRANCH   7  15
ENDBRANCH   1   2
BRANCH   1  17
ATOM     17  C   UNL     1       8.778  -3.909  -1.991  1.00  0.00     0.224 C 
ATOM     18  C   UNL     1       8.168  -3.891  -0.572  1.00  0.00     0.208 C 
ATOM     19  O   UNL     1       7.713  -3.818  -2.926  1.00  0.00    -0.337 OA
ATOM     20  C   UNL     1       6.813  -3.276  -0.786  1.00  0.00     0.180 C 
ATOM     21  C   UNL     1       6.494  -3.684  -2.224  1.00  0.00     0.179 C 
BRANCH  17  22
ATOM     22  C   UNL     1       9.750  -2.719  -2.224  1.00  0.00     0.225 C 
BRANCH  22  23
ATOM     23  O   UNL     1      10.898  -3.143  -2.909  1.00  0.00    -0.391 OA
ATOM     24  H   UNL     1      11.444  -3.646  -2.249  1.00  0.00     0.210 HD
ENDBRANCH  22  23
ENDBRANCH  17  22
BRANCH  18  25
ATOM     25  O   UNL     1       8.932  -3.154   0.349  1.00  0.00    -0.385 OA
ATOM     26  H   UNL     1       9.877  -3.426   0.215  1.00  0.00     0.211 HD
ENDBRANCH  18  25
BRANCH  20  27
ATOM     27  O   UNL     1       5.884  -3.763   0.148  1.00  0.00    -0.387 OA
ATOM     28  H   UNL     1       6.402  -4.289   0.811  1.00  0.00     0.211 HD
ENDBRANCH  20  27
BRANCH  21  29
ATOM     29  C   UNL     1       5.704  -4.999  -2.331  1.00  0.00     0.191 C 
BRANCH  29  30
ATOM     30  O   UNL     1       6.480  -5.963  -2.990  1.00  0.00    -0.394 OA
ATOM     31  H   UNL     1       6.580  -6.717  -2.354  1.00  0.00     0.210 HD
ENDBRANCH  29  30
ENDBRANCH  21  29
ENDBRANCH   1  17
TORSDOF 13
ENDMDL
MODEL 4
REMARK VINA RESULT:    -2.755      1.726      5.627
REMARK INTER + INTRA:          -5.385
REMARK INTER:                  -3.853
REMARK INTRA:                  -1.532
REMARK UNBOUND:                -1.180
REMARK SMILES OC[C@@H]1O[C@](CO)(O[C@H]2O[C@H](CO)[C@@H](O)[C@@H](O)[C@H]2O)[C@@H](O)[C@@H]1O
REMARK SMILES IDX 8 1 9 2 11 3 14 4 10 5 16 6 18 7 12 8 13 9 15 11 17 13 19 15
REMARK SMILES IDX 5 17 20 18 4 19 22 20 3 21 6 22 7 23 21 25 23 27 2 29 1 30
REMARK H PARENT 13 10 15 12 17 14 19 16 7 24 21 26 23 28 1 31
REMARK Flexibility Score: inf
ROOT
ATOM      1  O   UNL     1       9.013  -5.793  -2.476  1.00  0.00    -0.313 OA
ENDROOT
BRANCH   1   2
ATOM      2  C   UNL     1       8.628  -5.151  -1.265  1.00  0.00     0.285 C 
ATOM      3  C   UNL     1       7.869  -3.245  -2.425  1.00  0.00     0.178 C 
ATOM      4  C   UNL     1       6.381  -3.520  -2.087  1.00  0.00     0.177 C 
ATOM      5  O   UNL     1       8.715  -3.739  -1.394  1.00  0.00    -0.341 OA
ATOM      6  C   UNL     1       6.155  -5.028  -1.870  1.00  0.00     0.179 C 
ATOM      7  C   UNL     1       7.194  -5.562  -0.864  1.00  0.00     0.202 C 
BRANCH   3   8
ATOM      8  C   UNL     1       8.141  -1.741  -2.570  1.00  0.00     0.191 C 
BRANCH   8   9
ATOM      9  O   UNL     1       8.493  -1.184  -1.333  1.00  0.00    -0.394 OA
ATOM     10  H   UNL     1       9.339  -1.627  -1.063  1.00  0.00     0.210 HD
ENDBRANCH   8   9
ENDBRANCH   3   8
BRANCH   4  11
ATOM     11  O   UNL     1       5.555  -3.061  -3.125  1.00  0.00    -0.387 OA
ATOM     12  H   UNL     1       4.655  -3.451  -2.970  1.00  0.00     0.211 HD
ENDBRANCH   4  11
BRANCH   6  13
ATOM     13  O   UNL     1       6.257  -5.701  -3.102  1.00  0.00    -0.387 OA
ATOM     14  H   UNL     1       5.756  -6.554  -3.010  1.00  0.00     0.211 HD
ENDBRANCH   6  13
BRANCH   7  15
ATOM     15  O   UNL     1       7.078  -6.952  -0.682  1.00  0.00    -0.385 OA
ATOM     16  H   UNL     1       6.123  -7.198  -0.777  1.00  0.00     0.211 HD
ENDBRANCH   7  15
ENDBRANCH   1   2
BRANCH   1  17
ATOM     17  C   UNL     1      10.092  -6.713  -2.333  1.00  0.00     0.224 C 
ATOM     18  C   UNL     1      10.525  -6.669  -0.851  1.00  0.00     0.208 C 
ATOM     19  O   UNL     1      11.198  -6.302  -3.124  1.00  0.00    -0.337 OA
ATOM     20  C   UNL     1      12.025  -6.720  -0.927  1.00  0.00     0.180 C 
ATOM     21  C   UNL     1      12.304  -6.062  -2.278  1.00  0.00     0.179 C 
BRANCH  17  22
ATOM     22  C   UNL     1       9.665  -8.141  -2.776  1.00  0.00     0.225 C 
BRANCH  22  23
ATOM     23  O   UNL     1       8.271  -8.280  -2.722  1.00  0.00    -0.391 OA
ATOM     24  H   UNL     1       8.098  -9.216  -2.437  1.00  0.00     0.210 HD
ENDBRANCH  22  23
ENDBRANCH  17  22
BRANCH  18  25
ATOM     25  O   UNL     1      10.008  -7.734  -0.093  1.00  0.00    -0.385 OA
ATOM     26  H   UNL     1      10.739  -8.039   0.504  1.00  0.00     0.211 HD
ENDBRANCH  18  25
BRANCH  20  27
ATOM     27  O   UNL     1      12.609  -6.038   0.153  1.00  0.00    -0.387 OA
ATOM     28  H   UNL     1      13.352  -6.611   0.477  1.00  0.00     0.211 HD
ENDBRANCH  20  27
BRANCH  21  29
ATOM     29  C   UNL     1      12.549  -4.546  -2.187  1.00  0.00     0.191 C 
BRANCH  29  30
ATOM     30  O   UNL     1      13.802  -4.305  -1.607  1.00  0.00    -0.394 OA
ATOM     31  H   UNL     1      14.411  -4.073  -2.355  1.00  0.00     0.210 HD
ENDBRANCH  29  30
ENDBRANCH  21  29
ENDBRANCH   1  17
TORSDOF 13
ENDMDL
MODEL 5
REMARK VINA RESULT:    -2.384      1.551      5.672
REMARK INTER + INTRA:          -4.819
REMARK INTER:                  -4.200
REMARK INTRA:                  -0.619
REMARK UNBOUND:                -1.180
REMARK SMILES OC[C@@H]1O[C@](CO)(O[C@H]2O[C@H](CO)[C@@H](O)[C@@H](O)[C@H]2O)[C@@H](O)[C@@H]1O
REMARK SMILES IDX 8 1 9 2 11 3 14 4 10 5 16 6 18 7 12 8 13 9 15 11 17 13 19 15
REMARK SMILES IDX 5 17 20 18 4 19 22 20 3 21 6 22 7 23 21 25 23 27 2 29 1 30
REMARK H PARENT 13 10 15 12 17 14 19 16 7 24 21 26 23 28 1 31
REMARK Flexibility Score: inf
ROOT
ATOM      1  O   UNL     1       9.531  -5.366  -1.190  1.00  0.00    -0.313 OA
ENDROOT
BRANCH   1   2
ATOM      2  C   UNL     1       9.397  -5.256  -2.604  1.00  0.00     0.285 C 
ATOM      3  C   UNL     1       7.123  -4.668  -2.422  1.00  0.00     0.178 C 
ATOM      4  C   UNL     1       7.367  -3.214  -2.903  1.00  0.00     0.177 C 
ATOM      5  O   UNL     1       8.068  -5.553  -3.008  1.00  0.00    -0.341 OA
ATOM      6  C   UNL     1       8.805  -2.778  -2.567  1.00  0.00     0.179 C 
ATOM      7  C   UNL     1       9.795  -3.842  -3.079  1.00  0.00     0.202 C 
BRANCH   3   8
ATOM      8  C   UNL     1       5.721  -5.158  -2.812  1.00  0.00     0.191 C 
BRANCH   8   9
ATOM      9  O   UNL     1       4.788  -4.118  -2.699  1.00  0.00    -0.394 OA
ATOM     10  H   UNL     1       4.015  -4.379  -3.262  1.00  0.00     0.210 HD
ENDBRANCH   8   9
ENDBRANCH   3   8
BRANCH   4  11
ATOM     11  O   UNL     1       6.452  -2.341  -2.293  1.00  0.00    -0.387 OA
ATOM     12  H   UNL     1       6.737  -2.238  -1.348  1.00  0.00     0.211 HD
ENDBRANCH   4  11
BRANCH   6  13
ATOM     13  O   UNL     1       8.931  -2.603  -1.177  1.00  0.00    -0.387 OA
ATOM     14  H   UNL     1       8.625  -1.680  -0.971  1.00  0.00     0.211 HD
ENDBRANCH   6  13
BRANCH   7  15
ATOM     15  O   UNL     1      11.123  -3.529  -2.737  1.00  0.00    -0.385 OA
ATOM     16  H   UNL     1      11.250  -3.730  -1.774  1.00  0.00     0.211 HD
ENDBRANCH   7  15
ENDBRANCH   1   2
BRANCH   1  17
ATOM     17  C   UNL     1      10.319  -6.472  -0.760  1.00  0.00     0.224 C 
ATOM     18  C   UNL     1      11.075  -6.993  -2.003  1.00  0.00     0.208 C 
ATOM     19  O   UNL     1       9.483  -7.519  -0.288  1.00  0.00    -0.337 OA
ATOM     20  C   UNL     1      10.997  -8.487  -1.856  1.00  0.00     0.180 C 
ATOM     21  C   UNL     1       9.690  -8.668  -1.083  1.00  0.00     0.179 C 
BRANCH  17  22
ATOM     22  C   UNL     1      11.287  -6.053   0.381  1.00  0.00     0.225 C 
BRANCH  22  23
ATOM     23  O   UNL     1      12.404  -5.382  -0.138  1.00  0.00    -0.391 OA
ATOM     24  H   UNL     1      12.819  -6.002  -0.794  1.00  0.00     0.210 HD
ENDBRANCH  22  23
ENDBRANCH  17  22
BRANCH  18  25
ATOM     25  O   UNL     1      12.407  -6.547  -2.065  1.00  0.00    -0.385 OA
ATOM     26  H   UNL     1      12.958  -7.333  -2.319  1.00  0.00     0.211 HD
ENDBRANCH  18  25
BRANCH  20  27
ATOM     27  O   UNL     1      10.992  -9.119  -3.110  1.00  0.00    -0.387 OA
ATOM     28  H   UNL     1      11.943  -9.278  -3.347  1.00  0.00     0.211 HD
ENDBRANCH  20  27
BRANCH  21  29
ATOM     29  C   UNL     1       8.464  -8.883  -1.987  1.00  0.00     0.191 C 
BRANCH  29  30
ATOM     30  O   UNL     1       7.423  -8.040  -1.576  1.00  0.00    -0.394 OA
ATOM     31  H   UNL     1       7.714  -7.644  -0.714  1.00  0.00     0.210 HD
ENDBRANCH  29  30
ENDBRANCH  21  29
ENDBRANCH   1  17
TORSDOF 13
ENDMDL
MODEL 6
REMARK VINA RESULT:    -2.014      1.830      3.694
REMARK INTER + INTRA:          -4.253
REMARK INTER:                  -2.873
REMARK INTRA:                  -1.381
REMARK UNBOUND:                -1.180
REMARK SMILES OC[C@@H]1O[C@](CO)(O[C@H]2O[C@H](CO)[C@@H](O)[C@@H](O)[C@H]2O)[C@@H](O)[C@@H]1O
REMARK SMILES IDX 8 1 9 2 11 3 14 4 10 5 16 6 18 7 12 8 13 9 15 11 17 13 19 15
REMARK SMILES IDX 5 17 20 18 4 19 22 20 3 21 6 22 7 23 21 25 23 27 2 29 1 30
REMARK H PARENT 13 10 15 12 17 14 19 16 7 24 21 26 23 28 1 31
REMARK Flexibility Score: inf
ROOT
ATOM      1  O   UNL     1      10.470  -6.116  -1.338  1.00  0.00    -0.313 OA
ENDROOT
BRANCH   1   2
ATOM      2  C   UNL     1      10.818  -6.112  -2.719  1.00  0.00     0.285 C 
ATOM      3  C   UNL     1      12.920  -5.149  -2.269  1.00  0.00     0.178 C 
ATOM      4  C   UNL     1      13.694  -6.434  -2.662  1.00  0.00     0.177 C 
ATOM      5  O   UNL     1      11.712  -5.047  -3.011  1.00  0.00    -0.341 OA
ATOM      6  C   UNL     1      12.811  -7.675  -2.439  1.00  0.00     0.179 C 
ATOM      7  C   UNL     1      11.447  -7.463  -3.125  1.00  0.00     0.202 C 
BRANCH   3   8
ATOM      8  C   UNL     1      13.749  -3.888  -2.553  1.00  0.00     0.191 C 
BRANCH   8   9
ATOM      9  O   UNL     1      12.909  -2.794  -2.800  1.00  0.00    -0.394 OA
ATOM     10  H   UNL     1      13.048  -2.548  -3.751  1.00  0.00     0.210 HD
ENDBRANCH   8   9
ENDBRANCH   3   8
BRANCH   4  11
ATOM     11  O   UNL     1      14.869  -6.545  -1.901  1.00  0.00    -0.387 OA
ATOM     12  H   UNL     1      14.784  -5.907  -1.146  1.00  0.00     0.211 HD
ENDBRANCH   4  11
BRANCH   6  13
ATOM     13  O   UNL     1      12.649  -7.896  -1.058  1.00  0.00    -0.387 OA
ATOM     14  H   UNL     1      11.687  -7.759  -0.853  1.00  0.00     0.211 HD
ENDBRANCH   6  13
BRANCH   7  15
ATOM     15  O   UNL     1      10.572  -8.539  -2.893  1.00  0.00    -0.385 OA
ATOM     16  H   UNL     1      10.798  -8.939  -2.015  1.00  0.00     0.211 HD
ENDBRANCH   7  15
ENDBRANCH   1   2
BRANCH   1  17
ATOM     17  C   UNL     1       9.069  -6.053  -1.086  1.00  0.00     0.224 C 
ATOM     18  C   UNL     1       8.385  -5.745  -2.436  1.00  0.00     0.208 C 
ATOM     19  O   UNL     1       8.776  -4.986  -0.194  1.00  0.00    -0.337 OA
ATOM     20  C   UNL     1       7.315  -4.756  -2.064  1.00  0.00     0.180 C 
ATOM     21  C   UNL     1       7.921  -4.067  -0.842  1.00  0.00     0.179 C 
BRANCH  17  22
ATOM     22  C   UNL     1       8.559  -7.381  -0.461  1.00  0.00     0.225 C 
BRANCH  22  23
ATOM     23  O   UNL     1       9.598  -8.317  -0.368  1.00  0.00    -0.391 OA
ATOM     24  H   UNL     1       9.989  -8.208   0.538  1.00  0.00     0.210 HD
ENDBRANCH  22  23
ENDBRANCH  17  22
BRANCH  18  25
ATOM     25  O   UNL     1       7.844  -6.886  -3.054  1.00  0.00    -0.385 OA
ATOM     26  H   UNL     1       8.266  -6.950  -3.950  1.00  0.00     0.211 HD
ENDBRANCH  18  25
BRANCH  20  27
ATOM     27  O   UNL     1       7.052  -3.874  -3.125  1.00  0.00    -0.387 OA
ATOM     28  H   UNL     1       6.206  -3.407  -2.898  1.00  0.00     0.211 HD
ENDBRANCH  20  27
BRANCH  21  29
ATOM     29  C   UNL     1       8.714  -2.794  -1.181  1.00  0.00     0.191 C 
BRANCH  29  30
ATOM     30  O   UNL     1       9.780  -3.115  -2.032  1.00  0.00    -0.394 OA
ATOM     31  H   UNL     1      10.474  -3.533  -1.458  1.00  0.00     0.210 HD
ENDBRANCH  29  30
ENDBRANCH  21  29
ENDBRANCH   1  17
TORSDOF 13
ENDMDL
MODEL 7
REMARK VINA RESULT:    -1.800      1.542      5.255
REMARK INTER + INTRA:          -3.927
REMARK INTER:                  -2.715
REMARK INTRA:                  -1.212
REMARK UNBOUND:                -1.180
REMARK SMILES OC[C@@H]1O[C@](CO)(O[C@H]2O[C@H](CO)[C@@H](O)[C@@H](O)[C@H]2O)[C@@H](O)[C@@H]1O
REMARK SMILES IDX 8 1 9 2 11 3 14 4 10 5 16 6 18 7 12 8 13 9 15 11 17 13 19 15
REMARK SMILES IDX 5 17 20 18 4 19 22 20 3 21 6 22 7 23 21 25 23 27 2 29 1 30
REMARK H PARENT 13 10 15 12 17 14 19 16 7 24 21 26 23 28 1 31
REMARK Flexibility Score: inf
ROOT
ATOM      1  O   UNL     1       7.402  -5.745  -2.268  1.00  0.00    -0.313 OA
ENDROOT
BRANCH   1   2
ATOM      2  C   UNL     1       8.109  -5.148  -1.185  1.00  0.00     0.285 C 
ATOM      3  C   UNL     1       9.114  -3.565  -2.611  1.00  0.00     0.178 C 
ATOM      4  C   UNL     1       8.321  -2.380  -2.003  1.00  0.00     0.177 C 
ATOM      5  O   UNL     1       9.329  -4.576  -1.634  1.00  0.00    -0.341 OA
ATOM      6  C   UNL     1       6.982  -2.875  -1.428  1.00  0.00     0.179 C 
ATOM      7  C   UNL     1       7.239  -4.075  -0.495  1.00  0.00     0.202 C 
BRANCH   3   8
ATOM      8  C   UNL     1      10.489  -3.114  -3.124  1.00  0.00     0.191 C 
BRANCH   8   9
ATOM      9  O   UNL     1      11.498  -3.951  -2.627  1.00  0.00    -0.394 OA
ATOM     10  H   UNL     1      12.152  -3.357  -2.176  1.00  0.00     0.210 HD
ENDBRANCH   8   9
ENDBRANCH   3   8
BRANCH   4  11
ATOM     11  O   UNL     1       8.084  -1.401  -2.981  1.00  0.00    -0.387 OA
ATOM     12  H   UNL     1       8.606  -1.664  -3.784  1.00  0.00     0.211 HD
ENDBRANCH   4  11
BRANCH   6  13
ATOM     13  O   UNL     1       6.121  -3.234  -2.482  1.00  0.00    -0.387 OA
ATOM     14  H   UNL     1       6.695  -3.479  -3.255  1.00  0.00     0.211 HD
ENDBRANCH   6  13
BRANCH   7  15
ATOM     15  O   UNL     1       6.039  -4.615   0.005  1.00  0.00    -0.385 OA
ATOM     16  H   UNL     1       5.773  -4.091   0.804  1.00  0.00     0.211 HD
ENDBRANCH   7  15
ENDBRANCH   1   2
BRANCH   1  17
ATOM     17  C   UNL     1       7.600  -7.151  -2.392  1.00  0.00     0.224 C 
ATOM     18  C   UNL     1       7.789  -7.705  -0.962  1.00  0.00     0.208 C 
ATOM     19  O   UNL     1       8.787  -7.419  -3.125  1.00  0.00    -0.337 OA
ATOM     20  C   UNL     1       8.894  -8.712  -1.124  1.00  0.00     0.180 C 
ATOM     21  C   UNL     1       9.681  -8.143  -2.305  1.00  0.00     0.179 C 
BRANCH  17  22
ATOM     22  C   UNL     1       6.401  -7.817  -3.123  1.00  0.00     0.225 C 
BRANCH  22  23
ATOM     23  O   UNL     1       5.198  -7.184  -2.781  1.00  0.00    -0.391 OA
ATOM     24  H   UNL     1       4.926  -6.657  -3.577  1.00  0.00     0.210 HD
ENDBRANCH  22  23
ENDBRANCH  17  22
BRANCH  18  25
ATOM     25  O   UNL     1       6.624  -8.292  -0.439  1.00  0.00    -0.385 OA
ATOM     26  H   UNL     1       6.690  -8.221   0.548  1.00  0.00     0.211 HD
ENDBRANCH  18  25
BRANCH  20  27
ATOM     27  O   UNL     1       9.655  -8.820   0.050  1.00  0.00    -0.387 OA
ATOM     28  H   UNL     1       9.374  -9.664   0.490  1.00  0.00     0.211 HD
ENDBRANCH  20  27
BRANCH  21  29
ATOM     29  C   UNL     1      10.840  -7.222  -1.887  1.00  0.00     0.191 C 
BRANCH  29  30
ATOM     30  O   UNL     1      11.364  -6.582  -3.018  1.00  0.00    -0.394 OA
ATOM     31  H   UNL     1      11.047  -7.103  -3.800  1.00  0.00     0.210 HD
ENDBRANCH  29  30
ENDBRANCH  21  29
ENDBRANCH   1  17
TORSDOF 13
ENDMDL
