MODEL 1
REMARK VINA RESULT:    -5.102      0.000      0.000
REMARK INTER + INTRA:          -6.693
REMARK INTER:                  -6.593
REMARK INTRA:                  -0.100
REMARK UNBOUND:                -0.100
REMARK SMILES C=CC(=O)CCCCC
REMARK SMILES IDX 6 1 7 2 8 3 9 4 5 5 3 6 4 7 2 8 1 9
REMARK H PARENT
REMARK Flexibility Score: inf
ROOT
ATOM      1  C   UNL     1     -25.833 -28.620  25.994  1.00  0.00     0.008 C 
ENDROOT
BRANCH   1   2
ATOM      2  C   UNL     1     -26.178 -28.019  24.620  1.00  0.00     0.000 C 
BRANCH   2   3
ATOM      3  C   UNL     1     -25.757 -26.547  24.498  1.00  0.00    -0.003 C 
ATOM      4  C   UNL     1     -26.887 -25.650  23.991  1.00  0.00     0.004 C 
ENDBRANCH   2   3
ENDBRANCH   1   2
BRANCH   1   5
ATOM      5  C   UNL     1     -26.254 -30.095  26.102  1.00  0.00     0.080 C 
BRANCH   5   6
ATOM      6  C   UNL     1     -25.497 -30.868  27.160  1.00  0.00     0.155 C 
ATOM      7  O   UNL     1     -24.469 -31.525  26.841  1.00  0.00    -0.295 OA
BRANCH   6   8
ATOM      8  C   UNL     1     -25.954 -30.931  28.563  1.00  0.00     0.039 C 
ATOM      9  C   UNL     1     -25.198 -31.372  29.568  1.00  0.00     0.012 C 
ENDBRANCH   6   8
ENDBRANCH   5   6
ENDBRANCH   1   5
TORSDOF 5
ENDMDL
MODEL 2
REMARK VINA RESULT:    -5.045      1.343      5.089
REMARK INTER + INTRA:          -6.620
REMARK INTER:                  -6.399
REMARK INTRA:                  -0.221
REMARK UNBOUND:                -0.100
REMARK SMILES C=CC(=O)CCCCC
REMARK SMILES IDX 6 1 7 2 8 3 9 4 5 5 3 6 4 7 2 8 1 9
REMARK H PARENT
REMARK Flexibility Score: inf
ROOT
ATOM      1  C   UNL     1     -25.536 -31.039  25.850  1.00  0.00     0.008 C 
ENDROOT
BRANCH   1   2
ATOM      2  C   UNL     1     -24.865 -31.426  27.180  1.00  0.00     0.000 C 
BRANCH   2   3
ATOM      3  C   UNL     1     -25.802 -31.254  28.385  1.00  0.00    -0.003 C 
ATOM      4  C   UNL     1     -25.091 -31.470  29.721  1.00  0.00     0.004 C 
ENDBRANCH   2   3
ENDBRANCH   1   2
BRANCH   1   5
ATOM      5  C   UNL     1     -26.516 -29.865  26.017  1.00  0.00     0.080 C 
BRANCH   5   6
ATOM      6  C   UNL     1     -25.899 -28.513  25.734  1.00  0.00     0.155 C 
ATOM      7  O   UNL     1     -25.206 -27.943  26.620  1.00  0.00    -0.295 OA
BRANCH   6   8
ATOM      8  C   UNL     1     -26.126 -27.797  24.462  1.00  0.00     0.039 C 
ATOM      9  C   UNL     1     -26.062 -26.473  24.338  1.00  0.00     0.012 C 
ENDBRANCH   6   8
ENDBRANCH   5   6
ENDBRANCH   1   5
TORSDOF 5
ENDMDL
MODEL 3
REMARK VINA RESULT:    -5.041      8.781     10.107
REMARK INTER + INTRA:          -6.615
REMARK INTER:                  -6.155
REMARK INTRA:                  -0.460
REMARK UNBOUND:                -0.100
REMARK SMILES C=CC(=O)CCCCC
REMARK SMILES IDX 6 1 7 2 8 3 9 4 5 5 3 6 4 7 2 8 1 9
REMARK H PARENT
REMARK Flexibility Score: inf
ROOT
ATOM      1  C   UNL     1     -32.102 -22.742  23.354  1.00  0.00     0.008 C 
ENDROOT
BRANCH   1   2
ATOM      2  C   UNL     1     -32.955 -21.663  22.663  1.00  0.00     0.000 C 
BRANCH   2   3
ATOM      3  C   UNL     1     -32.645 -21.538  21.163  1.00  0.00    -0.003 C 
ATOM      4  C   UNL     1     -32.422 -20.090  20.726  1.00  0.00     0.004 C 
ENDBRANCH   2   3
ENDBRANCH   1   2
BRANCH   1   5
ATOM      5  C   UNL     1     -31.387 -23.650  22.339  1.00  0.00     0.080 C 
BRANCH   5   6
ATOM      6  C   UNL     1     -31.920 -25.065  22.308  1.00  0.00     0.155 C 
ATOM      7  O   UNL     1     -31.118 -26.038  22.320  1.00  0.00    -0.295 OA
BRANCH   6   8
ATOM      8  C   UNL     1     -33.365 -25.358  22.206  1.00  0.00     0.039 C 
ATOM      9  C   UNL     1     -34.125 -24.983  21.178  1.00  0.00     0.012 C 
ENDBRANCH   6   8
ENDBRANCH   5   6
ENDBRANCH   1   5
TORSDOF 5
ENDMDL
MODEL 4
REMARK VINA RESULT:    -4.998      7.834     10.094
REMARK INTER + INTRA:          -6.559
REMARK INTER:                  -6.245
REMARK INTRA:                  -0.314
REMARK UNBOUND:                -0.100
REMARK SMILES C=CC(=O)CCCCC
REMARK SMILES IDX 6 1 7 2 8 3 9 4 5 5 3 6 4 7 2 8 1 9
REMARK H PARENT
REMARK Flexibility Score: inf
ROOT
ATOM      1  C   UNL     1     -33.313 -22.406  23.005  1.00  0.00     0.008 C 
ENDROOT
BRANCH   1   2
ATOM      2  C   UNL     1     -32.552 -21.145  22.560  1.00  0.00     0.000 C 
BRANCH   2   3
ATOM      3  C   UNL     1     -32.010 -21.259  21.127  1.00  0.00    -0.003 C 
ATOM      4  C   UNL     1     -32.545 -20.163  20.205  1.00  0.00     0.004 C 
ENDBRANCH   2   3
ENDBRANCH   1   2
BRANCH   1   5
ATOM      5  C   UNL     1     -33.383 -23.463  21.889  1.00  0.00     0.080 C 
BRANCH   5   6
ATOM      6  C   UNL     1     -32.631 -24.736  22.210  1.00  0.00     0.155 C 
ATOM      7  O   UNL     1     -33.242 -25.838  22.227  1.00  0.00    -0.295 OA
BRANCH   6   8
ATOM      8  C   UNL     1     -31.197 -24.732  22.567  1.00  0.00     0.039 C 
ATOM      9  C   UNL     1     -30.411 -25.803  22.480  1.00  0.00     0.012 C 
ENDBRANCH   6   8
ENDBRANCH   5   6
ENDBRANCH   1   5
TORSDOF 5
ENDMDL
MODEL 5
REMARK VINA RESULT:    -4.918      7.702     10.470
REMARK INTER + INTRA:          -6.456
REMARK INTER:                  -6.042
REMARK INTRA:                  -0.413
REMARK UNBOUND:                -0.100
REMARK SMILES C=CC(=O)CCCCC
REMARK SMILES IDX 6 1 7 2 8 3 9 4 5 5 3 6 4 7 2 8 1 9
REMARK H PARENT
REMARK Flexibility Score: inf
ROOT
ATOM      1  C   UNL     1     -33.428 -24.821  21.724  1.00  0.00     0.008 C 
ENDROOT
BRANCH   1   2
ATOM      2  C   UNL     1     -32.573 -25.805  22.542  1.00  0.00     0.000 C 
BRANCH   2   3
ATOM      3  C   UNL     1     -31.211 -26.085  21.890  1.00  0.00    -0.003 C 
ATOM      4  C   UNL     1     -30.037 -25.595  22.738  1.00  0.00     0.004 C 
ENDBRANCH   2   3
ENDBRANCH   1   2
BRANCH   1   5
ATOM      5  C   UNL     1     -33.646 -23.491  22.465  1.00  0.00     0.080 C 
BRANCH   5   6
ATOM      6  C   UNL     1     -32.390 -22.660  22.605  1.00  0.00     0.155 C 
ATOM      7  O   UNL     1     -31.767 -22.645  23.701  1.00  0.00    -0.295 OA
BRANCH   6   8
ATOM      8  C   UNL     1     -31.887 -21.806  21.510  1.00  0.00     0.039 C 
ATOM      9  C   UNL     1     -32.655 -20.973  20.809  1.00  0.00     0.012 C 
ENDBRANCH   6   8
ENDBRANCH   5   6
ENDBRANCH   1   5
TORSDOF 5
ENDMDL
MODEL 6
REMARK VINA RESULT:    -4.607      9.279     10.694
REMARK INTER + INTRA:          -6.054
REMARK INTER:                  -5.849
REMARK INTRA:                  -0.205
REMARK UNBOUND:                -0.100
REMARK SMILES C=CC(=O)CCCCC
REMARK SMILES IDX 6 1 7 2 8 3 9 4 5 5 3 6 4 7 2 8 1 9
REMARK H PARENT
REMARK Flexibility Score: inf
ROOT
ATOM      1  C   UNL     1     -32.994 -21.793  21.697  1.00  0.00     0.008 C 
ENDROOT
BRANCH   1   2
ATOM      2  C   UNL     1     -32.273 -20.583  22.317  1.00  0.00     0.000 C 
BRANCH   2   3
ATOM      3  C   UNL     1     -32.280 -19.356  21.393  1.00  0.00    -0.003 C 
ATOM      4  C   UNL     1     -32.545 -19.719  19.932  1.00  0.00     0.004 C 
ENDBRANCH   2   3
ENDBRANCH   1   2
BRANCH   1   5
ATOM      5  C   UNL     1     -33.234 -22.911  22.725  1.00  0.00     0.080 C 
BRANCH   5   6
ATOM      6  C   UNL     1     -32.229 -24.039  22.642  1.00  0.00     0.155 C 
ATOM      7  O   UNL     1     -31.037 -23.844  23.002  1.00  0.00    -0.295 OA
BRANCH   6   8
ATOM      8  C   UNL     1     -32.581 -25.366  22.095  1.00  0.00     0.039 C 
ATOM      9  C   UNL     1     -33.773 -25.661  21.580  1.00  0.00     0.012 C 
ENDBRANCH   6   8
ENDBRANCH   5   6
ENDBRANCH   1   5
TORSDOF 5
ENDMDL
MODEL 7
REMARK VINA RESULT:    -4.561      8.454     11.566
REMARK INTER + INTRA:          -5.995
REMARK INTER:                  -5.709
REMARK INTRA:                  -0.286
REMARK UNBOUND:                -0.100
REMARK SMILES C=CC(=O)CCCCC
REMARK SMILES IDX 6 1 7 2 8 3 9 4 5 5 3 6 4 7 2 8 1 9
REMARK H PARENT
REMARK Flexibility Score: inf
ROOT
ATOM      1  C   UNL     1     -33.489 -23.184  22.410  1.00  0.00     0.008 C 
ENDROOT
BRANCH   1   2
ATOM      2  C   UNL     1     -32.643 -24.464  22.281  1.00  0.00     0.000 C 
BRANCH   2   3
ATOM      3  C   UNL     1     -31.172 -24.238  22.659  1.00  0.00    -0.003 C 
ATOM      4  C   UNL     1     -30.337 -25.516  22.570  1.00  0.00     0.004 C 
ENDBRANCH   2   3
ENDBRANCH   1   2
BRANCH   1   5
ATOM      5  C   UNL     1     -32.712 -22.045  23.092  1.00  0.00     0.080 C 
BRANCH   5   6
ATOM      6  C   UNL     1     -32.481 -20.847  22.199  1.00  0.00     0.155 C 
ATOM      7  O   UNL     1     -32.235 -19.721  22.711  1.00  0.00    -0.295 OA
BRANCH   6   8
ATOM      8  C   UNL     1     -32.590 -20.931  20.728  1.00  0.00     0.039 C 
ATOM      9  C   UNL     1     -32.557 -19.871  19.922  1.00  0.00     0.012 C 
ENDBRANCH   6   8
ENDBRANCH   5   6
ENDBRANCH   1   5
TORSDOF 5
ENDMDL
MODEL 8
REMARK VINA RESULT:    -4.383      9.261     11.845
REMARK INTER + INTRA:          -5.764
REMARK INTER:                  -5.611
REMARK INTRA:                  -0.153
REMARK UNBOUND:                -0.100
REMARK SMILES C=CC(=O)CCCCC
REMARK SMILES IDX 6 1 7 2 8 3 9 4 5 5 3 6 4 7 2 8 1 9
REMARK H PARENT
REMARK Flexibility Score: inf
ROOT
ATOM      1  C   UNL     1     -32.515 -23.203  22.481  1.00  0.00     0.008 C 
ENDROOT
BRANCH   1   2
ATOM      2  C   UNL     1     -33.720 -24.086  22.113  1.00  0.00     0.000 C 
BRANCH   2   3
ATOM      3  C   UNL     1     -33.329 -25.557  21.899  1.00  0.00    -0.003 C 
ATOM      4  C   UNL     1     -31.891 -25.852  22.325  1.00  0.00     0.004 C 
ENDBRANCH   2   3
ENDBRANCH   1   2
BRANCH   1   5
ATOM      5  C   UNL     1     -32.943 -21.779  22.877  1.00  0.00     0.080 C 
BRANCH   5   6
ATOM      6  C   UNL     1     -32.547 -20.723  21.869  1.00  0.00     0.155 C 
ATOM      7  O   UNL     1     -32.762 -20.916  20.642  1.00  0.00    -0.295 OA
BRANCH   6   8
ATOM      8  C   UNL     1     -31.858 -19.478  22.266  1.00  0.00     0.039 C 
ATOM      9  C   UNL     1     -32.477 -18.310  22.431  1.00  0.00     0.012 C 
ENDBRANCH   6   8
ENDBRANCH   5   6
ENDBRANCH   1   5
TORSDOF 5
ENDMDL
MODEL 9
REMARK VINA RESULT:    -4.270      7.198      9.778
REMARK INTER + INTRA:          -5.618
REMARK INTER:                  -5.383
REMARK INTRA:                  -0.235
REMARK UNBOUND:                -0.100
REMARK SMILES C=CC(=O)CCCCC
REMARK SMILES IDX 6 1 7 2 8 3 9 4 5 5 3 6 4 7 2 8 1 9
REMARK H PARENT
REMARK Flexibility Score: inf
ROOT
ATOM      1  C   UNL     1     -30.759 -24.201  23.077  1.00  0.00     0.008 C 
ENDROOT
BRANCH   1   2
ATOM      2  C   UNL     1     -30.589 -25.579  22.413  1.00  0.00     0.000 C 
BRANCH   2   3
ATOM      3  C   UNL     1     -29.155 -26.117  22.532  1.00  0.00    -0.003 C 
ATOM      4  C   UNL     1     -29.058 -27.612  22.228  1.00  0.00     0.004 C 
ENDBRANCH   2   3
ENDBRANCH   1   2
BRANCH   1   5
ATOM      5  C   UNL     1     -31.523 -23.216  22.175  1.00  0.00     0.080 C 
BRANCH   5   6
ATOM      6  C   UNL     1     -32.969 -23.021  22.575  1.00  0.00     0.155 C 
ATOM      7  O   UNL     1     -33.316 -21.969  23.177  1.00  0.00    -0.295 OA
BRANCH   6   8
ATOM      8  C   UNL     1     -33.996 -24.055  22.336  1.00  0.00     0.039 C 
ATOM      9  C   UNL     1     -33.987 -24.878  21.288  1.00  0.00     0.012 C 
ENDBRANCH   6   8
ENDBRANCH   5   6
ENDBRANCH   1   5
TORSDOF 5
ENDMDL
