MODEL 1
REMARK VINA RESULT:    -7.354      0.000      0.000
REMARK INTER + INTRA:          -9.169
REMARK INTER:                  -8.859
REMARK INTRA:                  -0.310
REMARK UNBOUND:                -0.310
REMARK SMILES O=c1c(O)c(-c2ccc(O)cc2O)oc2cc(O)cc(O)c12
REMARK SMILES IDX 5 1 3 2 2 3 1 4 22 5 20 6 19 7 17 8 16 9 15 10 14 11 6 12
REMARK SMILES IDX 8 13 7 14 9 15 11 16 12 17 10 18 13 20 4 22 21 24 18 26
REMARK H PARENT 10 19 13 21 4 23 21 25 18 27
REMARK Flexibility Score: inf
ROOT
ATOM      1  C   UNL     1     -30.390  91.150   7.652  1.00  0.00     0.184 A 
ATOM      2  C   UNL     1     -30.462  91.101   6.252  1.00  0.00     0.208 A 
ATOM      3  C   UNL     1     -31.588  91.643   5.610  1.00  0.00     0.238 A 
ATOM      4  O   UNL     1     -31.623  91.645   4.352  1.00  0.00    -0.285 OA
ATOM      5  C   UNL     1     -32.632  92.210   6.381  1.00  0.00     0.111 A 
ATOM      6  C   UNL     1     -33.837  92.750   5.839  1.00  0.00     0.134 A 
ATOM      7  C   UNL     1     -34.743  93.401   6.685  1.00  0.00     0.093 A 
ATOM      8  C   UNL     1     -34.521  93.474   8.059  1.00  0.00     0.123 A 
ATOM      9  C   UNL     1     -33.375  92.898   8.608  1.00  0.00     0.094 A 
ATOM     10  C   UNL     1     -32.435  92.273   7.785  1.00  0.00     0.146 A 
ATOM     11  O   UNL     1     -31.353  91.745   8.345  1.00  0.00    -0.451 OA
ENDROOT
BRANCH   1  12
ATOM     12  C   UNL     1     -29.241  90.583   8.390  1.00  0.00     0.063 A 
ATOM     13  C   UNL     1     -28.363  88.852   9.855  1.00  0.00     0.047 A 
ATOM     14  C   UNL     1     -29.429  89.416   9.149  1.00  0.00     0.020 A 
ATOM     15  C   UNL     1     -27.094  89.439   9.800  1.00  0.00     0.119 A 
ATOM     16  C   UNL     1     -26.893  90.588   9.029  1.00  0.00     0.093 A 
ATOM     17  C   UNL     1     -27.956  91.157   8.313  1.00  0.00     0.130 A 
BRANCH  15  18
ATOM     18  O   UNL     1     -26.025  88.887  10.504  1.00  0.00    -0.508 OA
ATOM     19  H   UNL     1     -25.143  88.679  10.048  1.00  0.00     0.293 HD
ENDBRANCH  15  18
BRANCH  17  20
ATOM     20  O   UNL     1     -27.729  92.275   7.509  1.00  0.00    -0.507 OA
ATOM     21  H   UNL     1     -27.729  92.212   6.498  1.00  0.00     0.293 HD
ENDBRANCH  17  20
ENDBRANCH   1  12
BRANCH   2  22
ATOM     22  O   UNL     1     -29.409  90.553   5.516  1.00  0.00    -0.502 OA
ATOM     23  H   UNL     1     -29.557  89.869   4.783  1.00  0.00     0.293 HD
ENDBRANCH   2  22
BRANCH   6  24
ATOM     24  O   UNL     1     -34.201  92.650   4.493  1.00  0.00    -0.507 OA
ATOM     25  H   UNL     1     -33.859  91.947   3.855  1.00  0.00     0.293 HD
ENDBRANCH   6  24
BRANCH   8  26
ATOM     26  O   UNL     1     -35.452  94.117   8.873  1.00  0.00    -0.508 OA
ATOM     27  H   UNL     1     -36.104  94.795   8.498  1.00  0.00     0.293 HD
ENDBRANCH   8  26
TORSDOF 6
ENDMDL
MODEL 2
REMARK VINA RESULT:    -7.217      3.823      7.209
REMARK INTER + INTRA:          -9.004
REMARK INTER:                  -8.588
REMARK INTRA:                  -0.416
REMARK UNBOUND:                -0.310
REMARK SMILES O=c1c(O)c(-c2ccc(O)cc2O)oc2cc(O)cc(O)c12
REMARK SMILES IDX 5 1 3 2 2 3 1 4 22 5 20 6 19 7 17 8 16 9 15 10 14 11 6 12
REMARK SMILES IDX 8 13 7 14 9 15 11 16 12 17 10 18 13 20 4 22 21 24 18 26
REMARK H PARENT 10 19 13 21 4 23 21 25 18 27
REMARK Flexibility Score: inf
ROOT
ATOM      1  C   UNL     1     -32.931  95.770   7.400  1.00  0.00     0.184 A 
ATOM      2  C   UNL     1     -34.167  95.144   7.176  1.00  0.00     0.208 A 
ATOM      3  C   UNL     1     -34.193  93.766   6.905  1.00  0.00     0.238 A 
ATOM      4  O   UNL     1     -35.307  93.201   6.758  1.00  0.00    -0.285 OA
ATOM      5  C   UNL     1     -32.979  93.039   6.845  1.00  0.00     0.111 A 
ATOM      6  C   UNL     1     -32.883  91.648   6.538  1.00  0.00     0.134 A 
ATOM      7  C   UNL     1     -31.644  91.004   6.634  1.00  0.00     0.093 A 
ATOM      8  C   UNL     1     -30.487  91.712   6.961  1.00  0.00     0.123 A 
ATOM      9  C   UNL     1     -30.560  93.083   7.205  1.00  0.00     0.094 A 
ATOM     10  C   UNL     1     -31.788  93.747   7.153  1.00  0.00     0.146 A 
ATOM     11  O   UNL     1     -31.815  95.051   7.402  1.00  0.00    -0.451 OA
ENDROOT
BRANCH   1  12
ATOM     12  C   UNL     1     -32.832  97.219   7.674  1.00  0.00     0.063 A 
ATOM     13  C   UNL     1     -33.016  99.504   6.862  1.00  0.00     0.047 A 
ATOM     14  C   UNL     1     -33.096  98.128   6.636  1.00  0.00     0.020 A 
ATOM     15  C   UNL     1     -32.686  99.990   8.133  1.00  0.00     0.119 A 
ATOM     16  C   UNL     1     -32.444  99.093   9.178  1.00  0.00     0.093 A 
ATOM     17  C   UNL     1     -32.528  97.710   8.961  1.00  0.00     0.130 A 
BRANCH  15  18
ATOM     18  O   UNL     1     -32.600 101.361   8.369  1.00  0.00    -0.508 OA
ATOM     19  H   UNL     1     -33.361 101.871   8.801  1.00  0.00     0.293 HD
ENDBRANCH  15  18
BRANCH  17  20
ATOM     20  O   UNL     1     -32.333  96.828  10.024  1.00  0.00    -0.507 OA
ATOM     21  H   UNL     1     -32.186  95.838   9.875  1.00  0.00     0.293 HD
ENDBRANCH  17  20
ENDBRANCH   1  12
BRANCH   2  22
ATOM     22  O   UNL     1     -35.350  95.883   7.260  1.00  0.00    -0.502 OA
ATOM     23  H   UNL     1     -36.096  95.792   6.581  1.00  0.00     0.293 HD
ENDBRANCH   2  22
BRANCH   6  24
ATOM     24  O   UNL     1     -33.961  90.868   6.110  1.00  0.00    -0.507 OA
ATOM     25  H   UNL     1     -34.297  90.042   6.582  1.00  0.00     0.293 HD
ENDBRANCH   6  24
BRANCH   8  26
ATOM     26  O   UNL     1     -29.268  91.040   7.031  1.00  0.00    -0.508 OA
ATOM     27  H   UNL     1     -28.392  91.514   6.850  1.00  0.00     0.293 HD
ENDBRANCH   8  26
TORSDOF 6
ENDMDL
MODEL 3
REMARK VINA RESULT:    -7.049     16.030     18.353
REMARK INTER + INTRA:          -8.801
REMARK INTER:                  -8.407
REMARK INTRA:                  -0.394
REMARK UNBOUND:                -0.310
REMARK SMILES O=c1c(O)c(-c2ccc(O)cc2O)oc2cc(O)cc(O)c12
REMARK SMILES IDX 5 1 3 2 2 3 1 4 22 5 20 6 19 7 17 8 16 9 15 10 14 11 6 12
REMARK SMILES IDX 8 13 7 14 9 15 11 16 12 17 10 18 13 20 4 22 21 24 18 26
REMARK H PARENT 10 19 13 21 4 23 21 25 18 27
REMARK Flexibility Score: inf
ROOT
ATOM      1  C   UNL     1     -21.000  97.509  -5.667  1.00  0.00     0.184 A 
ATOM      2  C   UNL     1     -19.648  97.711  -5.352  1.00  0.00     0.208 A 
ATOM      3  C   UNL     1     -18.943  96.689  -4.695  1.00  0.00     0.238 A 
ATOM      4  O   UNL     1     -17.717  96.854  -4.463  1.00  0.00    -0.285 OA
ATOM      5  C   UNL     1     -19.607  95.488  -4.347  1.00  0.00     0.111 A 
ATOM      6  C   UNL     1     -19.003  94.403  -3.643  1.00  0.00     0.134 A 
ATOM      7  C   UNL     1     -19.717  93.212  -3.467  1.00  0.00     0.093 A 
ATOM      8  C   UNL     1     -21.034  93.088  -3.910  1.00  0.00     0.123 A 
ATOM      9  C   UNL     1     -21.654  94.163  -4.546  1.00  0.00     0.094 A 
ATOM     10  C   UNL     1     -20.956  95.352  -4.769  1.00  0.00     0.146 A 
ATOM     11  O   UNL     1     -21.579  96.348  -5.388  1.00  0.00    -0.451 OA
ENDROOT
BRANCH   1  12
ATOM     12  C   UNL     1     -21.804  98.550  -6.343  1.00  0.00     0.063 A 
ATOM     13  C   UNL     1     -22.274  99.829  -8.357  1.00  0.00     0.047 A 
ATOM     14  C   UNL     1     -21.530  98.855  -7.687  1.00  0.00     0.020 A 
ATOM     15  C   UNL     1     -23.310 100.501  -7.697  1.00  0.00     0.119 A 
ATOM     16  C   UNL     1     -23.604 100.187  -6.366  1.00  0.00     0.093 A 
ATOM     17  C   UNL     1     -22.865  99.206  -5.688  1.00  0.00     0.130 A 
BRANCH  15  18
ATOM     18  O   UNL     1     -24.056 101.478  -8.354  1.00  0.00    -0.508 OA
ATOM     19  H   UNL     1     -24.049 101.557  -9.364  1.00  0.00     0.293 HD
ENDBRANCH  15  18
BRANCH  17  20
ATOM     20  O   UNL     1     -23.202  98.869  -4.377  1.00  0.00    -0.507 OA
ATOM     21  H   UNL     1     -22.538  98.955  -3.618  1.00  0.00     0.293 HD
ENDBRANCH  17  20
ENDBRANCH   1  12
BRANCH   2  22
ATOM     22  O   UNL     1     -19.013  98.899  -5.724  1.00  0.00    -0.502 OA
ATOM     23  H   UNL     1     -18.933  99.192  -6.690  1.00  0.00     0.293 HD
ENDBRANCH   2  22
BRANCH   6  24
ATOM     24  O   UNL     1     -17.726  94.454  -3.079  1.00  0.00    -0.507 OA
ATOM     25  H   UNL     1     -17.339  95.254  -2.601  1.00  0.00     0.293 HD
ENDBRANCH   6  24
BRANCH   8  26
ATOM     26  O   UNL     1     -21.719  91.893  -3.703  1.00  0.00    -0.508 OA
ATOM     27  H   UNL     1     -22.729  91.843  -3.767  1.00  0.00     0.293 HD
ENDBRANCH   8  26
TORSDOF 6
ENDMDL
MODEL 4
REMARK VINA RESULT:    -6.981      4.447      7.200
REMARK INTER + INTRA:          -8.720
REMARK INTER:                  -8.328
REMARK INTRA:                  -0.392
REMARK UNBOUND:                -0.310
REMARK SMILES O=c1c(O)c(-c2ccc(O)cc2O)oc2cc(O)cc(O)c12
REMARK SMILES IDX 5 1 3 2 2 3 1 4 22 5 20 6 19 7 17 8 16 9 15 10 14 11 6 12
REMARK SMILES IDX 8 13 7 14 9 15 11 16 12 17 10 18 13 20 4 22 21 24 18 26
REMARK H PARENT 10 19 13 21 4 23 21 25 18 27
REMARK Flexibility Score: inf
ROOT
ATOM      1  C   UNL     1     -32.206  96.315   7.653  1.00  0.00     0.184 A 
ATOM      2  C   UNL     1     -33.463  95.780   7.332  1.00  0.00     0.208 A 
ATOM      3  C   UNL     1     -33.551  94.431   6.950  1.00  0.00     0.238 A 
ATOM      4  O   UNL     1     -34.687  93.943   6.716  1.00  0.00    -0.285 OA
ATOM      5  C   UNL     1     -32.376  93.644   6.877  1.00  0.00     0.111 A 
ATOM      6  C   UNL     1     -32.342  92.278   6.462  1.00  0.00     0.134 A 
ATOM      7  C   UNL     1     -31.144  91.560   6.552  1.00  0.00     0.093 A 
ATOM      8  C   UNL     1     -29.966  92.172   6.979  1.00  0.00     0.123 A 
ATOM      9  C   UNL     1     -29.976  93.522   7.331  1.00  0.00     0.094 A 
ATOM     10  C   UNL     1     -31.163  94.257   7.286  1.00  0.00     0.146 A 
ATOM     11  O   UNL     1     -31.131  95.536   7.639  1.00  0.00    -0.451 OA
ENDROOT
BRANCH   1  12
ATOM     12  C   UNL     1     -32.042  97.730   8.046  1.00  0.00     0.063 A 
ATOM     13  C   UNL     1     -32.407  99.485   9.690  1.00  0.00     0.047 A 
ATOM     14  C   UNL     1     -32.550  98.156   9.285  1.00  0.00     0.020 A 
ATOM     15  C   UNL     1     -31.743 100.403   8.868  1.00  0.00     0.119 A 
ATOM     16  C   UNL     1     -31.214  99.983   7.644  1.00  0.00     0.093 A 
ATOM     17  C   UNL     1     -31.348  98.649   7.232  1.00  0.00     0.130 A 
BRANCH  15  18
ATOM     18  O   UNL     1     -31.598 101.733   9.259  1.00  0.00    -0.508 OA
ATOM     19  H   UNL     1     -31.653 102.006  10.234  1.00  0.00     0.293 HD
ENDBRANCH  15  18
BRANCH  17  20
ATOM     20  O   UNL     1     -30.772  98.233   6.031  1.00  0.00    -0.507 OA
ATOM     21  H   UNL     1     -30.493  98.895   5.317  1.00  0.00     0.293 HD
ENDBRANCH  17  20
ENDBRANCH   1  12
BRANCH   2  22
ATOM     22  O   UNL     1     -34.607  96.576   7.431  1.00  0.00    -0.502 OA
ATOM     23  H   UNL     1     -35.048  96.785   8.319  1.00  0.00     0.293 HD
ENDBRANCH   2  22
BRANCH   6  24
ATOM     24  O   UNL     1     -33.441  91.596   5.933  1.00  0.00    -0.507 OA
ATOM     25  H   UNL     1     -33.923  90.838   6.391  1.00  0.00     0.293 HD
ENDBRANCH   6  24
BRANCH   8  26
ATOM     26  O   UNL     1     -28.789  91.430   7.041  1.00  0.00    -0.508 OA
ATOM     27  H   UNL     1     -27.942  91.740   6.580  1.00  0.00     0.293 HD
ENDBRANCH   8  26
TORSDOF 6
ENDMDL
MODEL 5
REMARK VINA RESULT:    -6.925     16.371     18.665
REMARK INTER + INTRA:          -8.652
REMARK INTER:                  -8.248
REMARK INTRA:                  -0.404
REMARK UNBOUND:                -0.310
REMARK SMILES O=c1c(O)c(-c2ccc(O)cc2O)oc2cc(O)cc(O)c12
REMARK SMILES IDX 5 1 3 2 2 3 1 4 22 5 20 6 19 7 17 8 16 9 15 10 14 11 6 12
REMARK SMILES IDX 8 13 7 14 9 15 11 16 12 17 10 18 13 20 4 22 21 24 18 26
REMARK H PARENT 10 19 13 21 4 23 21 25 18 27
REMARK Flexibility Score: inf
ROOT
ATOM      1  C   UNL     1     -20.489  97.535  -5.566  1.00  0.00     0.184 A 
ATOM      2  C   UNL     1     -19.122  97.681  -5.286  1.00  0.00     0.208 A 
ATOM      3  C   UNL     1     -18.443  96.630  -4.647  1.00  0.00     0.238 A 
ATOM      4  O   UNL     1     -17.206  96.744  -4.446  1.00  0.00    -0.285 OA
ATOM      5  C   UNL     1     -19.147  95.457  -4.282  1.00  0.00     0.111 A 
ATOM      6  C   UNL     1     -18.570  94.347  -3.594  1.00  0.00     0.134 A 
ATOM      7  C   UNL     1     -19.328  93.186  -3.400  1.00  0.00     0.093 A 
ATOM      8  C   UNL     1     -20.660  93.117  -3.808  1.00  0.00     0.123 A 
ATOM      9  C   UNL     1     -21.251  94.218  -4.428  1.00  0.00     0.094 A 
ATOM     10  C   UNL     1     -20.511  95.377  -4.669  1.00  0.00     0.146 A 
ATOM     11  O   UNL     1     -21.109  96.398  -5.271  1.00  0.00    -0.451 OA
ENDROOT
BRANCH   1  12
ATOM     12  C   UNL     1     -21.266  98.608  -6.221  1.00  0.00     0.063 A 
ATOM     13  C   UNL     1     -22.228 100.839  -6.112  1.00  0.00     0.047 A 
ATOM     14  C   UNL     1     -21.501  99.803  -5.521  1.00  0.00     0.020 A 
ATOM     15  C   UNL     1     -22.717 100.700  -7.417  1.00  0.00     0.119 A 
ATOM     16  C   UNL     1     -22.468  99.523  -8.129  1.00  0.00     0.093 A 
ATOM     17  C   UNL     1     -21.735  98.480  -7.545  1.00  0.00     0.130 A 
BRANCH  15  18
ATOM     18  O   UNL     1     -23.447 101.725  -8.016  1.00  0.00    -0.508 OA
ATOM     19  H   UNL     1     -23.459 102.661  -7.627  1.00  0.00     0.293 HD
ENDBRANCH  15  18
BRANCH  17  20
ATOM     20  O   UNL     1     -21.452  97.332  -8.285  1.00  0.00    -0.507 OA
ATOM     21  H   UNL     1     -20.659  97.285  -8.913  1.00  0.00     0.293 HD
ENDBRANCH  17  20
ENDBRANCH   1  12
BRANCH   2  22
ATOM     22  O   UNL     1     -18.449  98.842  -5.673  1.00  0.00    -0.502 OA
ATOM     23  H   UNL     1     -18.931  99.645  -6.060  1.00  0.00     0.293 HD
ENDBRANCH   2  22
BRANCH   6  24
ATOM     24  O   UNL     1     -17.278  94.345  -3.063  1.00  0.00    -0.507 OA
ATOM     25  H   UNL     1     -16.457  94.683  -3.543  1.00  0.00     0.293 HD
ENDBRANCH   6  24
BRANCH   8  26
ATOM     26  O   UNL     1     -21.388  91.951  -3.584  1.00  0.00    -0.508 OA
ATOM     27  H   UNL     1     -22.101  91.902  -2.867  1.00  0.00     0.293 HD
ENDBRANCH   8  26
TORSDOF 6
ENDMDL
MODEL 6
REMARK VINA RESULT:    -6.915      4.932      7.322
REMARK INTER + INTRA:          -8.640
REMARK INTER:                  -8.362
REMARK INTRA:                  -0.278
REMARK UNBOUND:                -0.310
REMARK SMILES O=c1c(O)c(-c2ccc(O)cc2O)oc2cc(O)cc(O)c12
REMARK SMILES IDX 5 1 3 2 2 3 1 4 22 5 20 6 19 7 17 8 16 9 15 10 14 11 6 12
REMARK SMILES IDX 8 13 7 14 9 15 11 16 12 17 10 18 13 20 4 22 21 24 18 26
REMARK H PARENT 10 19 13 21 4 23 21 25 18 27
REMARK Flexibility Score: inf
ROOT
ATOM      1  C   UNL     1     -33.630  95.349   8.051  1.00  0.00     0.184 A 
ATOM      2  C   UNL     1     -32.884  95.416   9.237  1.00  0.00     0.208 A 
ATOM      3  C   UNL     1     -32.443  96.669   9.693  1.00  0.00     0.238 A 
ATOM      4  O   UNL     1     -31.821  96.729  10.786  1.00  0.00    -0.285 OA
ATOM      5  C   UNL     1     -32.741  97.834   8.945  1.00  0.00     0.111 A 
ATOM      6  C   UNL     1     -32.310  99.151   9.291  1.00  0.00     0.134 A 
ATOM      7  C   UNL     1     -32.772 100.245   8.550  1.00  0.00     0.093 A 
ATOM      8  C   UNL     1     -33.594 100.067   7.438  1.00  0.00     0.123 A 
ATOM      9  C   UNL     1     -33.973  98.781   7.056  1.00  0.00     0.094 A 
ATOM     10  C   UNL     1     -33.558  97.671   7.797  1.00  0.00     0.146 A 
ATOM     11  O   UNL     1     -33.950  96.464   7.405  1.00  0.00    -0.451 OA
ENDROOT
BRANCH   1  12
ATOM     12  C   UNL     1     -34.110  94.061   7.506  1.00  0.00     0.063 A 
ATOM     13  C   UNL     1     -33.989  92.368   5.766  1.00  0.00     0.047 A 
ATOM     14  C   UNL     1     -33.562  93.583   6.305  1.00  0.00     0.020 A 
ATOM     15  C   UNL     1     -34.961  91.607   6.428  1.00  0.00     0.119 A 
ATOM     16  C   UNL     1     -35.495  92.064   7.636  1.00  0.00     0.093 A 
ATOM     17  C   UNL     1     -35.067  93.281   8.187  1.00  0.00     0.130 A 
BRANCH  15  18
ATOM     18  O   UNL     1     -35.398  90.395   5.897  1.00  0.00    -0.508 OA
ATOM     19  H   UNL     1     -35.998  90.361   5.081  1.00  0.00     0.293 HD
ENDBRANCH  15  18
BRANCH  17  20
ATOM     20  O   UNL     1     -35.573  93.700   9.418  1.00  0.00    -0.507 OA
ATOM     21  H   UNL     1     -36.002  94.611   9.535  1.00  0.00     0.293 HD
ENDBRANCH  17  20
ENDBRANCH   1  12
BRANCH   2  22
ATOM     22  O   UNL     1     -32.621  94.253   9.964  1.00  0.00    -0.502 OA
ATOM     23  H   UNL     1     -31.893  93.600   9.699  1.00  0.00     0.293 HD
ENDBRANCH   2  22
BRANCH   6  24
ATOM     24  O   UNL     1     -31.415  99.431  10.327  1.00  0.00    -0.507 OA
ATOM     25  H   UNL     1     -31.146  98.779  11.048  1.00  0.00     0.293 HD
ENDBRANCH   6  24
BRANCH   8  26
ATOM     26  O   UNL     1     -34.021 101.179   6.715  1.00  0.00    -0.508 OA
ATOM     27  H   UNL     1     -34.154 102.080   7.158  1.00  0.00     0.293 HD
ENDBRANCH   8  26
TORSDOF 6
ENDMDL
MODEL 7
REMARK VINA RESULT:    -6.847      1.765      2.184
REMARK INTER + INTRA:          -8.558
REMARK INTER:                  -8.138
REMARK INTRA:                  -0.419
REMARK UNBOUND:                -0.310
REMARK SMILES O=c1c(O)c(-c2ccc(O)cc2O)oc2cc(O)cc(O)c12
REMARK SMILES IDX 5 1 3 2 2 3 1 4 22 5 20 6 19 7 17 8 16 9 15 10 14 11 6 12
REMARK SMILES IDX 8 13 7 14 9 15 11 16 12 17 10 18 13 20 4 22 21 24 18 26
REMARK H PARENT 10 19 13 21 4 23 21 25 18 27
REMARK Flexibility Score: inf
ROOT
ATOM      1  C   UNL     1     -31.156  92.079   8.204  1.00  0.00     0.184 A 
ATOM      2  C   UNL     1     -32.171  91.310   7.617  1.00  0.00     0.208 A 
ATOM      3  C   UNL     1     -33.401  91.921   7.318  1.00  0.00     0.238 A 
ATOM      4  O   UNL     1     -34.289  91.240   6.742  1.00  0.00    -0.285 OA
ATOM      5  C   UNL     1     -33.600  93.288   7.628  1.00  0.00     0.111 A 
ATOM      6  C   UNL     1     -34.819  93.999   7.408  1.00  0.00     0.134 A 
ATOM      7  C   UNL     1     -34.862  95.380   7.633  1.00  0.00     0.093 A 
ATOM      8  C   UNL     1     -33.754  96.064   8.132  1.00  0.00     0.123 A 
ATOM      9  C   UNL     1     -32.577  95.369   8.407  1.00  0.00     0.094 A 
ATOM     10  C   UNL     1     -32.491  93.997   8.158  1.00  0.00     0.146 A 
ATOM     11  O   UNL     1     -31.349  93.374   8.425  1.00  0.00    -0.451 OA
ENDROOT
BRANCH   1  12
ATOM     12  C   UNL     1     -29.845  91.495   8.559  1.00  0.00     0.063 A 
ATOM     13  C   UNL     1     -28.539  90.063  10.027  1.00  0.00     0.047 A 
ATOM     14  C   UNL     1     -29.761  90.636   9.667  1.00  0.00     0.020 A 
ATOM     15  C   UNL     1     -27.388  90.330   9.275  1.00  0.00     0.119 A 
ATOM     16  C   UNL     1     -27.468  91.165   8.157  1.00  0.00     0.093 A 
ATOM     17  C   UNL     1     -28.692  91.740   7.786  1.00  0.00     0.130 A 
BRANCH  15  18
ATOM     18  O   UNL     1     -26.163  89.766   9.627  1.00  0.00    -0.508 OA
ATOM     19  H   UNL     1     -25.952  88.795   9.430  1.00  0.00     0.293 HD
ENDBRANCH  15  18
BRANCH  17  20
ATOM     20  O   UNL     1     -28.766  92.531   6.639  1.00  0.00    -0.507 OA
ATOM     21  H   UNL     1     -29.608  92.577   6.077  1.00  0.00     0.293 HD
ENDBRANCH  17  20
ENDBRANCH   1  12
BRANCH   2  22
ATOM     22  O   UNL     1     -31.940  89.968   7.304  1.00  0.00    -0.502 OA
ATOM     23  H   UNL     1     -31.260  89.682   6.610  1.00  0.00     0.293 HD
ENDBRANCH   2  22
BRANCH   6  24
ATOM     24  O   UNL     1     -36.011  93.395   6.998  1.00  0.00    -0.507 OA
ATOM     25  H   UNL     1     -36.319  92.479   7.284  1.00  0.00     0.293 HD
ENDBRANCH   6  24
BRANCH   8  26
ATOM     26  O   UNL     1     -33.839  97.437   8.358  1.00  0.00    -0.508 OA
ATOM     27  H   UNL     1     -33.669  98.107   7.618  1.00  0.00     0.293 HD
ENDBRANCH   8  26
TORSDOF 6
ENDMDL
MODEL 8
REMARK VINA RESULT:    -6.736      1.666      2.908
REMARK INTER + INTRA:          -8.424
REMARK INTER:                  -8.023
REMARK INTRA:                  -0.401
REMARK UNBOUND:                -0.310
REMARK SMILES O=c1c(O)c(-c2ccc(O)cc2O)oc2cc(O)cc(O)c12
REMARK SMILES IDX 5 1 3 2 2 3 1 4 22 5 20 6 19 7 17 8 16 9 15 10 14 11 6 12
REMARK SMILES IDX 8 13 7 14 9 15 11 16 12 17 10 18 13 20 4 22 21 24 18 26
REMARK H PARENT 10 19 13 21 4 23 21 25 18 27
REMARK Flexibility Score: inf
ROOT
ATOM      1  C   UNL     1     -30.702  91.886   8.878  1.00  0.00     0.184 A 
ATOM      2  C   UNL     1     -31.083  93.054   9.556  1.00  0.00     0.208 A 
ATOM      3  C   UNL     1     -32.362  93.587   9.326  1.00  0.00     0.238 A 
ATOM      4  O   UNL     1     -32.718  94.604   9.977  1.00  0.00    -0.285 OA
ATOM      5  C   UNL     1     -33.233  92.953   8.407  1.00  0.00     0.111 A 
ATOM      6  C   UNL     1     -34.535  93.429   8.066  1.00  0.00     0.134 A 
ATOM      7  C   UNL     1     -35.360  92.652   7.244  1.00  0.00     0.093 A 
ATOM      8  C   UNL     1     -34.908  91.450   6.698  1.00  0.00     0.123 A 
ATOM      9  C   UNL     1     -33.616  91.006   6.977  1.00  0.00     0.094 A 
ATOM     10  C   UNL     1     -32.782  91.741   7.824  1.00  0.00     0.146 A 
ATOM     11  O   UNL     1     -31.563  91.277   8.072  1.00  0.00    -0.451 OA
ENDROOT
BRANCH   1  12
ATOM     12  C   UNL     1     -29.365  91.283   9.062  1.00  0.00     0.063 A 
ATOM     13  C   UNL     1     -27.924  89.763  10.298  1.00  0.00     0.047 A 
ATOM     14  C   UNL     1     -29.173  90.356  10.099  1.00  0.00     0.020 A 
ATOM     15  C   UNL     1     -26.854  90.079   9.452  1.00  0.00     0.119 A 
ATOM     16  C   UNL     1     -27.041  90.983   8.403  1.00  0.00     0.093 A 
ATOM     17  C   UNL     1     -28.294  91.578   8.193  1.00  0.00     0.130 A 
BRANCH  15  18
ATOM     18  O   UNL     1     -25.602  89.496   9.643  1.00  0.00    -0.508 OA
ATOM     19  H   UNL     1     -24.953  89.375   8.874  1.00  0.00     0.293 HD
ENDBRANCH  15  18
BRANCH  17  20
ATOM     20  O   UNL     1     -28.479  92.440   7.112  1.00  0.00    -0.507 OA
ATOM     21  H   UNL     1     -27.852  93.216   6.936  1.00  0.00     0.293 HD
ENDBRANCH  17  20
ENDBRANCH   1  12
BRANCH   2  22
ATOM     22  O   UNL     1     -30.210  93.648  10.471  1.00  0.00    -0.502 OA
ATOM     23  H   UNL     1     -30.319  93.543  11.473  1.00  0.00     0.293 HD
ENDBRANCH   2  22
BRANCH   6  24
ATOM     24  O   UNL     1     -35.050  94.659   8.482  1.00  0.00    -0.507 OA
ATOM     25  H   UNL     1     -34.492  95.450   8.767  1.00  0.00     0.293 HD
ENDBRANCH   6  24
BRANCH   8  26
ATOM     26  O   UNL     1     -35.751  90.711   5.871  1.00  0.00    -0.508 OA
ATOM     27  H   UNL     1     -36.696  90.477   6.152  1.00  0.00     0.293 HD
ENDBRANCH   8  26
TORSDOF 6
ENDMDL
MODEL 9
REMARK VINA RESULT:    -6.387     15.863     17.792
REMARK INTER + INTRA:          -8.004
REMARK INTER:                  -7.609
REMARK INTRA:                  -0.395
REMARK UNBOUND:                -0.310
REMARK SMILES O=c1c(O)c(-c2ccc(O)cc2O)oc2cc(O)cc(O)c12
REMARK SMILES IDX 5 1 3 2 2 3 1 4 22 5 20 6 19 7 17 8 16 9 15 10 14 11 6 12
REMARK SMILES IDX 8 13 7 14 9 15 11 16 12 17 10 18 13 20 4 22 21 24 18 26
REMARK H PARENT 10 19 13 21 4 23 21 25 18 27
REMARK Flexibility Score: inf
ROOT
ATOM      1  C   UNL     1     -20.802  93.184  -6.056  1.00  0.00     0.184 A 
ATOM      2  C   UNL     1     -21.287  94.079  -7.022  1.00  0.00     0.208 A 
ATOM      3  C   UNL     1     -20.746  95.374  -7.080  1.00  0.00     0.238 A 
ATOM      4  O   UNL     1     -21.147  96.155  -7.983  1.00  0.00    -0.285 OA
ATOM      5  C   UNL     1     -19.741  95.759  -6.160  1.00  0.00     0.111 A 
ATOM      6  C   UNL     1     -19.152  97.058  -6.101  1.00  0.00     0.134 A 
ATOM      7  C   UNL     1     -18.076  97.289  -5.236  1.00  0.00     0.093 A 
ATOM      8  C   UNL     1     -17.610  96.290  -4.382  1.00  0.00     0.123 A 
ATOM      9  C   UNL     1     -18.217  95.034  -4.389  1.00  0.00     0.094 A 
ATOM     10  C   UNL     1     -19.270  94.762  -5.267  1.00  0.00     0.146 A 
ATOM     11  O   UNL     1     -19.814  93.551  -5.249  1.00  0.00    -0.451 OA
ENDROOT
BRANCH   1  12
ATOM     12  C   UNL     1     -21.338  91.812  -5.930  1.00  0.00     0.063 A 
ATOM     13  C   UNL     1     -21.265  89.481  -6.619  1.00  0.00     0.047 A 
ATOM     14  C   UNL     1     -20.785  90.789  -6.717  1.00  0.00     0.020 A 
ATOM     15  C   UNL     1     -22.295  89.176  -5.722  1.00  0.00     0.119 A 
ATOM     16  C   UNL     1     -22.837  90.183  -4.917  1.00  0.00     0.093 A 
ATOM     17  C   UNL     1     -22.356  91.498  -5.006  1.00  0.00     0.130 A 
BRANCH  15  18
ATOM     18  O   UNL     1     -22.785  87.875  -5.618  1.00  0.00    -0.508 OA
ATOM     19  H   UNL     1     -22.915  87.430  -4.717  1.00  0.00     0.293 HD
ENDBRANCH  15  18
BRANCH  17  20
ATOM     20  O   UNL     1     -22.872  92.483  -4.162  1.00  0.00    -0.507 OA
ATOM     21  H   UNL     1     -23.018  92.314  -3.174  1.00  0.00     0.293 HD
ENDBRANCH  17  20
ENDBRANCH   1  12
BRANCH   2  22
ATOM     22  O   UNL     1     -22.266  93.666  -7.929  1.00  0.00    -0.502 OA
ATOM     23  H   UNL     1     -22.689  92.747  -7.889  1.00  0.00     0.293 HD
ENDBRANCH   2  22
BRANCH   6  24
ATOM     24  O   UNL     1     -19.601  98.153  -6.844  1.00  0.00    -0.507 OA
ATOM     25  H   UNL     1     -19.113  98.555  -7.630  1.00  0.00     0.293 HD
ENDBRANCH   6  24
BRANCH   8  26
ATOM     26  O   UNL     1     -16.547  96.560  -3.523  1.00  0.00    -0.508 OA
ATOM     27  H   UNL     1     -16.599  96.351  -2.534  1.00  0.00     0.293 HD
ENDBRANCH   8  26
TORSDOF 6
ENDMDL
