MODEL 1
REMARK VINA RESULT:    -6.647      0.000      0.000
REMARK INTER + INTRA:          -7.294
REMARK INTER:                  -7.229
REMARK INTRA:                  -0.065
REMARK UNBOUND:                -0.065
REMARK SMILES CC1(C)CC[C@]2(C(=O)[O-])CC[C@]3(C)C(=CC[C@@H]4[C@@]5(C)CC[C@@H](O)C(C)(C)[C@H]5CC[C@]43C)[C@@H]2C1
REMARK SMILES IDX 6 1 5 2 10 3 32 4 4 5 11 6 14 7 33 8 2 9 12 10 15 11 1 12
REMARK SMILES IDX 3 13 13 14 30 15 16 16 17 17 29 18 31 19 18 20 28 21 27 22
REMARK SMILES IDX 20 23 19 24 24 25 21 26 22 27 25 28 26 29 7 30 8 31 9 32
REMARK SMILES IDX 23 33
REMARK H PARENT 23 34
REMARK Flexibility Score: inf
ROOT
ATOM      1  C   UNL     1       8.338   8.087 -15.971  1.00  0.00     0.017 C 
ATOM      2  C   UNL     1       8.442   6.906 -14.965  1.00  0.00     0.014 C 
ATOM      3  C   UNL     1       9.708   8.802 -16.122  1.00  0.00     0.014 C 
ATOM      4  C   UNL     1       7.273   9.120 -15.493  1.00  0.00     0.028 C 
ATOM      5  C   UNL     1       8.618   7.341 -13.503  1.00  0.00     0.007 C 
ATOM      6  C   UNL     1       9.666   9.912 -17.187  1.00  0.00     0.013 C 
ATOM      7  C   UNL     1       7.251  10.376 -16.365  1.00  0.00    -0.064 C 
ATOM      8  C   UNL     1       7.438   9.526 -14.005  1.00  0.00     0.015 C 
ATOM      9  C   UNL     1       7.520   8.325 -13.031  1.00  0.00    -0.035 C 
ATOM     10  C   UNL     1       8.524  10.974 -16.987  1.00  0.00    -0.006 C 
ATOM     11  C   UNL     1       6.084  11.060 -16.455  1.00  0.00    -0.027 C 
ATOM     12  C   UNL     1       7.903   8.851 -11.630  1.00  0.00     0.011 C 
ATOM     13  C   UNL     1       6.150   7.615 -12.910  1.00  0.00     0.011 C 
ATOM     14  C   UNL     1       9.068  12.008 -15.943  1.00  0.00     0.017 C 
ATOM     15  C   UNL     1       8.107  11.637 -18.395  1.00  0.00    -0.020 C 
ATOM     16  C   UNL     1       5.875  12.324 -17.261  1.00  0.00     0.032 C 
ATOM     17  C   UNL     1       7.103  12.814 -18.097  1.00  0.00     0.006 C 
ATOM     18  C   UNL     1       9.357  12.191 -19.146  1.00  0.00     0.008 C 
ATOM     19  C   UNL     1       7.423  10.551 -19.307  1.00  0.00     0.012 C 
ATOM     20  C   UNL     1       6.753  13.783 -19.310  1.00  0.00    -0.025 C 
ATOM     21  C   UNL     1       9.052  13.137 -20.323  1.00  0.00     0.005 C 
ATOM     22  C   UNL     1       8.076  14.313 -20.009  1.00  0.00     0.003 C 
ATOM     23  C   UNL     1       5.883  14.982 -18.817  1.00  0.00     0.010 C 
ATOM     24  C   UNL     1       5.875  13.079 -20.395  1.00  0.00     0.012 C 
ATOM     25  C   UNL     1       8.783  15.629 -19.430  1.00  0.00    -0.006 C 
ATOM     26  C   UNL     1       6.663  16.035 -18.047  1.00  0.00     0.033 C 
ATOM     27  C   UNL     1       7.709  16.671 -18.957  1.00  0.00     0.120 C 
ATOM     28  C   UNL     1       9.788  15.348 -18.284  1.00  0.00     0.014 C 
ATOM     29  C   UNL     1       9.597  16.306 -20.574  1.00  0.00     0.014 C 
ENDROOT
BRANCH   1  30
ATOM     30  C   UNL     1       7.932   7.465 -17.302  1.00  0.00     0.048 C 
ATOM     31  O   UNL     1       8.812   7.072 -18.116  1.00  0.00    -0.550 OA
ATOM     32  O   UNL     1       6.597   7.229 -17.608  1.00  0.00    -0.550 OA
ENDBRANCH   1  30
BRANCH  27  33
ATOM     33  O   UNL     1       8.285  17.752 -18.260  1.00  0.00    -0.393 OA
ATOM     34  H   UNL     1       8.867  18.243 -18.898  1.00  0.00     0.210 HD
ENDBRANCH  27  33
TORSDOF 2
ENDMDL
MODEL 2
REMARK VINA RESULT:    -6.435      2.130      4.062
REMARK INTER + INTRA:          -7.064
REMARK INTER:                  -6.958
REMARK INTRA:                  -0.105
REMARK UNBOUND:                -0.065
REMARK SMILES CC1(C)CC[C@]2(C(=O)[O-])CC[C@]3(C)C(=CC[C@@H]4[C@@]5(C)CC[C@@H](O)C(C)(C)[C@H]5CC[C@]43C)[C@@H]2C1
REMARK SMILES IDX 6 1 5 2 10 3 32 4 4 5 11 6 14 7 33 8 2 9 12 10 15 11 1 12
REMARK SMILES IDX 3 13 13 14 30 15 16 16 17 17 29 18 31 19 18 20 28 21 27 22
REMARK SMILES IDX 20 23 19 24 24 25 21 26 22 27 25 28 26 29 7 30 8 31 9 32
REMARK SMILES IDX 23 33
REMARK H PARENT 23 34
REMARK Flexibility Score: inf
ROOT
ATOM      1  C   UNL     1       7.141   7.225 -14.787  1.00  0.00     0.017 C 
ATOM      2  C   UNL     1       6.761   5.744 -14.503  1.00  0.00     0.014 C 
ATOM      3  C   UNL     1       5.875   8.124 -14.803  1.00  0.00     0.014 C 
ATOM      4  C   UNL     1       7.871   7.348 -16.159  1.00  0.00     0.028 C 
ATOM      5  C   UNL     1       6.022   5.054 -15.659  1.00  0.00     0.007 C 
ATOM      6  C   UNL     1       6.225   9.612 -14.981  1.00  0.00     0.013 C 
ATOM      7  C   UNL     1       8.120   8.804 -16.555  1.00  0.00    -0.064 C 
ATOM      8  C   UNL     1       7.135   6.617 -17.312  1.00  0.00     0.015 C 
ATOM      9  C   UNL     1       6.789   5.140 -17.001  1.00  0.00    -0.035 C 
ATOM     10  C   UNL     1       7.128   9.933 -16.228  1.00  0.00    -0.006 C 
ATOM     11  C   UNL     1       9.182   9.066 -17.356  1.00  0.00    -0.027 C 
ATOM     12  C   UNL     1       5.875   4.600 -18.123  1.00  0.00     0.011 C 
ATOM     13  C   UNL     1       8.066   4.265 -16.971  1.00  0.00     0.011 C 
ATOM     14  C   UNL     1       6.159  10.022 -17.455  1.00  0.00     0.017 C 
ATOM     15  C   UNL     1       7.986  11.274 -15.983  1.00  0.00    -0.020 C 
ATOM     16  C   UNL     1       9.579  10.439 -17.854  1.00  0.00     0.032 C 
ATOM     17  C   UNL     1       8.715  11.634 -17.332  1.00  0.00     0.006 C 
ATOM     18  C   UNL     1       7.066  12.457 -15.551  1.00  0.00     0.008 C 
ATOM     19  C   UNL     1       9.039  11.024 -14.840  1.00  0.00     0.012 C 
ATOM     20  C   UNL     1       9.416  13.061 -17.410  1.00  0.00    -0.025 C 
ATOM     21  C   UNL     1       7.714  13.853 -15.620  1.00  0.00     0.005 C 
ATOM     22  C   UNL     1       8.411  14.208 -16.970  1.00  0.00     0.003 C 
ATOM     23  C   UNL     1       9.948  13.329 -18.853  1.00  0.00     0.010 C 
ATOM     24  C   UNL     1      10.685  13.147 -16.500  1.00  0.00     0.012 C 
ATOM     25  C   UNL     1       7.443  14.852 -18.072  1.00  0.00    -0.006 C 
ATOM     26  C   UNL     1       8.860  13.678 -19.856  1.00  0.00     0.033 C 
ATOM     27  C   UNL     1       8.182  14.982 -19.450  1.00  0.00     0.120 C 
ATOM     28  C   UNL     1       6.108  14.086 -18.258  1.00  0.00     0.014 C 
ATOM     29  C   UNL     1       7.062  16.296 -17.623  1.00  0.00     0.014 C 
ENDROOT
BRANCH   1  30
ATOM     30  C   UNL     1       8.058   7.646 -13.644  1.00  0.00     0.048 C 
ATOM     31  O   UNL     1       7.591   7.820 -12.486  1.00  0.00    -0.550 OA
ATOM     32  O   UNL     1       9.432   7.753 -13.827  1.00  0.00    -0.550 OA
ENDBRANCH   1  30
BRANCH  27  33
ATOM     33  O   UNL     1       7.309  15.356 -20.491  1.00  0.00    -0.393 OA
ATOM     34  H   UNL     1       6.388  15.370 -20.119  1.00  0.00     0.210 HD
ENDBRANCH  27  33
TORSDOF 2
ENDMDL
MODEL 3
REMARK VINA RESULT:    -5.240      2.017      7.609
REMARK INTER + INTRA:          -5.764
REMARK INTER:                  -7.258
REMARK INTRA:                   1.494
REMARK UNBOUND:                -0.065
REMARK SMILES CC1(C)CC[C@]2(C(=O)[O-])CC[C@]3(C)C(=CC[C@@H]4[C@@]5(C)CC[C@@H](O)C(C)(C)[C@H]5CC[C@]43C)[C@@H]2C1
REMARK SMILES IDX 6 1 5 2 10 3 32 4 4 5 11 6 14 7 33 8 2 9 12 10 15 11 1 12
REMARK SMILES IDX 3 13 13 14 30 15 16 16 17 17 29 18 31 19 18 20 28 21 27 22
REMARK SMILES IDX 20 23 19 24 24 25 21 26 22 27 25 28 26 29 7 30 8 31 9 32
REMARK SMILES IDX 23 33
REMARK H PARENT 23 34
REMARK Flexibility Score: inf
ROOT
ATOM      1  C   UNL     1       7.805  13.705 -19.625  1.00  0.00     0.017 C 
ATOM      2  C   UNL     1       7.552  15.121 -20.214  1.00  0.00     0.014 C 
ATOM      3  C   UNL     1       6.510  12.849 -19.673  1.00  0.00     0.014 C 
ATOM      4  C   UNL     1       8.294  13.807 -18.148  1.00  0.00     0.028 C 
ATOM      5  C   UNL     1       6.670  16.018 -19.334  1.00  0.00     0.007 C 
ATOM      6  C   UNL     1       6.751  11.409 -19.191  1.00  0.00     0.013 C 
ATOM      7  C   UNL     1       8.402  12.437 -17.476  1.00  0.00    -0.064 C 
ATOM      8  C   UNL     1       7.418  14.744 -17.276  1.00  0.00     0.015 C 
ATOM      9  C   UNL     1       7.201  16.151 -17.886  1.00  0.00    -0.035 C 
ATOM     10  C   UNL     1       7.421  11.291 -17.773  1.00  0.00    -0.006 C 
ATOM     11  C   UNL     1       9.303  12.297 -16.474  1.00  0.00    -0.027 C 
ATOM     12  C   UNL     1       6.145  16.897 -17.042  1.00  0.00     0.011 C 
ATOM     13  C   UNL     1       8.508  16.980 -17.846  1.00  0.00     0.011 C 
ATOM     14  C   UNL     1       6.261  11.438 -16.730  1.00  0.00     0.017 C 
ATOM     15  C   UNL     1       8.239   9.909 -17.639  1.00  0.00    -0.020 C 
ATOM     16  C   UNL     1       9.544  11.023 -15.692  1.00  0.00     0.032 C 
ATOM     17  C   UNL     1       8.719   9.774 -16.145  1.00  0.00     0.006 C 
ATOM     18  C   UNL     1       7.343   8.689 -18.015  1.00  0.00     0.008 C 
ATOM     19  C   UNL     1       9.476   9.933 -18.613  1.00  0.00     0.012 C 
ATOM     20  C   UNL     1       9.324   8.368 -15.710  1.00  0.00    -0.025 C 
ATOM     21  C   UNL     1       7.900   7.313 -17.604  1.00  0.00     0.005 C 
ATOM     22  C   UNL     1       8.348   7.184 -16.115  1.00  0.00     0.003 C 
ATOM     23  C   UNL     1       9.599   8.344 -14.173  1.00  0.00     0.010 C 
ATOM     24  C   UNL     1      10.719   8.098 -16.364  1.00  0.00     0.012 C 
ATOM     25  C   UNL     1       7.182   6.763 -15.100  1.00  0.00    -0.006 C 
ATOM     26  C   UNL     1       8.346   8.199 -13.325  1.00  0.00     0.033 C 
ATOM     27  C   UNL     1       7.679   6.859 -13.615  1.00  0.00     0.120 C 
ATOM     28  C   UNL     1       5.875   7.578 -15.275  1.00  0.00     0.014 C 
ATOM     29  C   UNL     1       6.808   5.271 -15.358  1.00  0.00     0.014 C 
ENDROOT
BRANCH   1  30
ATOM     30  C   UNL     1       8.874  13.072 -20.508  1.00  0.00     0.048 C 
ATOM     31  O   UNL     1       9.158  13.580 -21.627  1.00  0.00    -0.550 OA
ATOM     32  O   UNL     1       9.622  11.987 -20.066  1.00  0.00    -0.550 OA
ENDBRANCH   1  30
BRANCH  27  33
ATOM     33  O   UNL     1       6.629   6.691 -12.690  1.00  0.00    -0.393 OA
ATOM     34  H   UNL     1       6.663   7.456 -12.057  1.00  0.00     0.210 HD
ENDBRANCH  27  33
TORSDOF 2
ENDMDL
MODEL 4
REMARK VINA RESULT:    -4.307      2.033      7.715
REMARK INTER + INTRA:          -4.750
REMARK INTER:                  -6.407
REMARK INTRA:                   1.658
REMARK UNBOUND:                -0.065
REMARK SMILES CC1(C)CC[C@]2(C(=O)[O-])CC[C@]3(C)C(=CC[C@@H]4[C@@]5(C)CC[C@@H](O)C(C)(C)[C@H]5CC[C@]43C)[C@@H]2C1
REMARK SMILES IDX 6 1 5 2 10 3 32 4 4 5 11 6 14 7 33 8 2 9 12 10 15 11 1 12
REMARK SMILES IDX 3 13 13 14 30 15 16 16 17 17 29 18 31 19 18 20 28 21 27 22
REMARK SMILES IDX 20 23 19 24 24 25 21 26 22 27 25 28 26 29 7 30 8 31 9 32
REMARK SMILES IDX 23 33
REMARK H PARENT 23 34
REMARK Flexibility Score: inf
ROOT
ATOM      1  C   UNL     1       8.191  15.147 -20.374  1.00  0.00     0.017 C 
ATOM      2  C   UNL     1       8.106  16.584 -20.959  1.00  0.00     0.014 C 
ATOM      3  C   UNL     1       6.773  14.535 -20.210  1.00  0.00     0.014 C 
ATOM      4  C   UNL     1       8.902  15.161 -18.987  1.00  0.00     0.028 C 
ATOM      5  C   UNL     1       7.536  17.625 -19.985  1.00  0.00     0.007 C 
ATOM      6  C   UNL     1       6.825  13.075 -19.729  1.00  0.00     0.013 C 
ATOM      7  C   UNL     1       8.865  13.795 -18.301  1.00  0.00    -0.064 C 
ATOM      8  C   UNL     1       8.343  16.240 -18.023  1.00  0.00     0.015 C 
ATOM      9  C   UNL     1       8.290  17.663 -18.634  1.00  0.00    -0.035 C 
ATOM     10  C   UNL     1       7.665  12.841 -18.420  1.00  0.00    -0.006 C 
ATOM     11  C   UNL     1       9.866  13.498 -17.436  1.00  0.00    -0.027 C 
ATOM     12  C   UNL     1       7.518  18.586 -17.666  1.00  0.00     0.011 C 
ATOM     13  C   UNL     1       9.714  18.245 -18.806  1.00  0.00     0.011 C 
ATOM     14  C   UNL     1       6.716  13.194 -17.225  1.00  0.00     0.017 C 
ATOM     15  C   UNL     1       8.238  11.337 -18.369  1.00  0.00    -0.020 C 
ATOM     16  C   UNL     1       9.992  12.203 -16.663  1.00  0.00     0.032 C 
ATOM     17  C   UNL     1       8.901  11.120 -16.957  1.00  0.00     0.006 C 
ATOM     18  C   UNL     1       7.096  10.294 -18.577  1.00  0.00     0.008 C 
ATOM     19  C   UNL     1       9.302  11.139 -19.511  1.00  0.00     0.012 C 
ATOM     20  C   UNL     1       9.308   9.629 -16.576  1.00  0.00    -0.025 C 
ATOM     21  C   UNL     1       7.456   8.842 -18.213  1.00  0.00     0.005 C 
ATOM     22  C   UNL     1       8.090   8.637 -16.802  1.00  0.00     0.003 C 
ATOM     23  C   UNL     1       9.798   9.558 -15.095  1.00  0.00     0.010 C 
ATOM     24  C   UNL     1      10.521   9.114 -17.418  1.00  0.00     0.012 C 
ATOM     25  C   UNL     1       7.030   8.431 -15.618  1.00  0.00    -0.006 C 
ATOM     26  C   UNL     1       8.678   9.640 -14.071  1.00  0.00     0.033 C 
ATOM     27  C   UNL     1       7.750   8.439 -14.224  1.00  0.00     0.120 C 
ATOM     28  C   UNL     1       5.876   9.466 -15.624  1.00  0.00     0.014 C 
ATOM     29  C   UNL     1       6.365   7.030 -15.778  1.00  0.00     0.014 C 
ENDROOT
BRANCH   1  30
ATOM     30  C   UNL     1       8.990  14.332 -21.385  1.00  0.00     0.048 C 
ATOM     31  O   UNL     1       9.276  13.127 -21.147  1.00  0.00    -0.550 OA
ATOM     32  O   UNL     1       9.334  14.861 -22.623  1.00  0.00    -0.550 OA
ENDBRANCH   1  30
BRANCH  27  33
ATOM     33  O   UNL     1       6.835   8.462 -13.152  1.00  0.00    -0.393 OA
ATOM     34  H   UNL     1       6.037   8.972 -13.450  1.00  0.00     0.210 HD
ENDBRANCH  27  33
TORSDOF 2
ENDMDL
MODEL 5
REMARK VINA RESULT:    -3.924      1.895      7.844
REMARK INTER + INTRA:          -4.333
REMARK INTER:                  -4.270
REMARK INTRA:                  -0.063
REMARK UNBOUND:                -0.065
REMARK SMILES CC1(C)CC[C@]2(C(=O)[O-])CC[C@]3(C)C(=CC[C@@H]4[C@@]5(C)CC[C@@H](O)C(C)(C)[C@H]5CC[C@]43C)[C@@H]2C1
REMARK SMILES IDX 6 1 5 2 10 3 32 4 4 5 11 6 14 7 33 8 2 9 12 10 15 11 1 12
REMARK SMILES IDX 3 13 13 14 30 15 16 16 17 17 29 18 31 19 18 20 28 21 27 22
REMARK SMILES IDX 20 23 19 24 24 25 21 26 22 27 25 28 26 29 7 30 8 31 9 32
REMARK SMILES IDX 23 33
REMARK H PARENT 23 34
REMARK Flexibility Score: inf
ROOT
ATOM      1  C   UNL     1       9.942  14.463 -17.150  1.00  0.00     0.017 C 
ATOM      2  C   UNL     1      10.250  15.779 -17.920  1.00  0.00     0.014 C 
ATOM      3  C   UNL     1      10.992  13.370 -17.486  1.00  0.00     0.014 C 
ATOM      4  C   UNL     1       8.522  13.935 -17.517  1.00  0.00     0.028 C 
ATOM      5  C   UNL     1       9.995  15.695 -19.432  1.00  0.00     0.007 C 
ATOM      6  C   UNL     1      10.776  12.089 -16.663  1.00  0.00     0.013 C 
ATOM      7  C   UNL     1       8.239  12.561 -16.908  1.00  0.00    -0.064 C 
ATOM      8  C   UNL     1       8.262  13.888 -19.045  1.00  0.00     0.015 C 
ATOM      9  C   UNL     1       8.562  15.220 -19.775  1.00  0.00    -0.035 C 
ATOM     10  C   UNL     1       9.327  11.485 -16.751  1.00  0.00    -0.006 C 
ATOM     11  C   UNL     1       6.948  12.242 -16.647  1.00  0.00    -0.027 C 
ATOM     12  C   UNL     1       8.478  14.978 -21.299  1.00  0.00     0.011 C 
ATOM     13  C   UNL     1       7.515  16.301 -19.412  1.00  0.00     0.011 C 
ATOM     14  C   UNL     1       9.286  10.638 -18.068  1.00  0.00     0.017 C 
ATOM     15  C   UNL     1       8.979  10.637 -15.426  1.00  0.00    -0.020 C 
ATOM     16  C   UNL     1       6.478  10.931 -16.054  1.00  0.00     0.032 C 
ATOM     17  C   UNL     1       7.600   9.914 -15.663  1.00  0.00     0.006 C 
ATOM     18  C   UNL     1      10.085   9.577 -15.133  1.00  0.00     0.008 C 
ATOM     19  C   UNL     1       8.884  11.607 -14.190  1.00  0.00     0.012 C 
ATOM     20  C   UNL     1       7.175   8.813 -14.596  1.00  0.00    -0.025 C 
ATOM     21  C   UNL     1       9.702   8.494 -14.107  1.00  0.00     0.005 C 
ATOM     22  C   UNL     1       8.346   7.767 -14.366  1.00  0.00     0.003 C 
ATOM     23  C   UNL     1       5.875   8.080 -15.057  1.00  0.00     0.010 C 
ATOM     24  C   UNL     1       6.803   9.442 -13.214  1.00  0.00     0.012 C 
ATOM     25  C   UNL     1       8.446   6.493 -15.334  1.00  0.00    -0.006 C 
ATOM     26  C   UNL     1       6.097   7.077 -16.177  1.00  0.00     0.033 C 
ATOM     27  C   UNL     1       7.016   5.959 -15.695  1.00  0.00     0.120 C 
ATOM     28  C   UNL     1       9.257   6.754 -16.630  1.00  0.00     0.014 C 
ATOM     29  C   UNL     1       9.182   5.345 -14.577  1.00  0.00     0.014 C 
ENDROOT
BRANCH   1  30
ATOM     30  C   UNL     1      10.024  14.819 -15.670  1.00  0.00     0.048 C 
ATOM     31  O   UNL     1       8.971  15.016 -15.004  1.00  0.00    -0.550 OA
ATOM     32  O   UNL     1      11.242  14.839 -15.001  1.00  0.00    -0.550 OA
ENDBRANCH   1  30
BRANCH  27  33
ATOM     33  O   UNL     1       7.054   4.970 -16.698  1.00  0.00    -0.393 OA
ATOM     34  H   UNL     1       6.116   4.716 -16.904  1.00  0.00     0.210 HD
ENDBRANCH  27  33
TORSDOF 2
ENDMDL
