MODEL 1
REMARK VINA RESULT:    -4.324      0.000      0.000
REMARK INTER + INTRA:          -8.565
REMARK INTER:                  -7.357
REMARK INTRA:                  -1.208
REMARK UNBOUND:                -1.208
REMARK SMILES CCCCCCCCCCCCCC(=O)[O-]
REMARK SMILES IDX 8 1 9 2 10 3 11 4 12 5 13 6 14 7 15 8 16 9 7 10 6 11 5 12
REMARK SMILES IDX 4 13 3 14 2 15 1 16
REMARK H PARENT
REMARK Flexibility Score: inf
ROOT
ATOM      1  C   UNL     1      -0.316   3.936  -4.099  1.00  0.00     0.000 C 
ENDROOT
BRANCH   1   2
ATOM      2  C   UNL     1       0.539   3.211  -3.044  1.00  0.00     0.000 C 
BRANCH   2   3
ATOM      3  C   UNL     1       2.044   3.281  -3.350  1.00  0.00     0.000 C 
BRANCH   3   4
ATOM      4  C   UNL     1       2.729   1.907  -3.259  1.00  0.00     0.000 C 
BRANCH   4   5
ATOM      5  C   UNL     1       3.707   1.650  -4.421  1.00  0.00     0.006 C 
BRANCH   5   6
ATOM      6  C   UNL     1       3.713   2.747  -5.498  1.00  0.00     0.053 C 
BRANCH   6   7
ATOM      7  C   UNL     1       4.179   2.230  -6.826  1.00  0.00     0.041 C 
ATOM      8  O   UNL     1       4.516   3.034  -7.734  1.00  0.00    -0.550 OA
ATOM      9  O   UNL     1       4.272   0.863  -7.046  1.00  0.00    -0.550 OA
ENDBRANCH   6   7
ENDBRANCH   5   6
ENDBRANCH   4   5
ENDBRANCH   3   4
ENDBRANCH   2   3
ENDBRANCH   1   2
BRANCH   1  10
ATOM     10  C   UNL     1      -0.104   3.381  -5.516  1.00  0.00     0.000 C 
BRANCH  10  11
ATOM     11  C   UNL     1      -1.413   2.901  -6.165  1.00  0.00    -0.000 C 
BRANCH  11  12
ATOM     12  C   UNL     1      -2.608   2.962  -5.200  1.00  0.00    -0.000 C 
BRANCH  12  13
ATOM     13  C   UNL     1      -3.101   1.567  -4.777  1.00  0.00    -0.000 C 
BRANCH  13  14
ATOM     14  C   UNL     1      -3.057   1.362  -3.254  1.00  0.00    -0.000 C 
BRANCH  14  15
ATOM     15  C   UNL     1      -3.401   2.641  -2.477  1.00  0.00    -0.003 C 
ATOM     16  C   UNL     1      -4.908   2.879  -2.451  1.00  0.00     0.004 C 
ENDBRANCH  14  15
ENDBRANCH  13  14
ENDBRANCH  12  13
ENDBRANCH  11  12
ENDBRANCH  10  11
ENDBRANCH   1  10
TORSDOF 12
ENDMDL
MODEL 2
REMARK VINA RESULT:    -4.263      2.195      3.005
REMARK INTER + INTRA:          -8.461
REMARK INTER:                  -7.362
REMARK INTRA:                  -1.100
REMARK UNBOUND:                -1.208
REMARK SMILES CCCCCCCCCCCCCC(=O)[O-]
REMARK SMILES IDX 8 1 9 2 10 3 11 4 12 5 13 6 14 7 15 8 16 9 7 10 6 11 5 12
REMARK SMILES IDX 4 13 3 14 2 15 1 16
REMARK H PARENT
REMARK Flexibility Score: inf
ROOT
ATOM      1  C   UNL     1       0.138   3.415  -4.528  1.00  0.00     0.000 C 
ENDROOT
BRANCH   1   2
ATOM      2  C   UNL     1       0.653   4.386  -3.450  1.00  0.00     0.000 C 
BRANCH   2   3
ATOM      3  C   UNL     1       2.030   4.977  -3.793  1.00  0.00     0.000 C 
BRANCH   3   4
ATOM      4  C   UNL     1       2.565   4.480  -5.147  1.00  0.00     0.000 C 
BRANCH   4   5
ATOM      5  C   UNL     1       3.912   3.744  -5.022  1.00  0.00     0.006 C 
BRANCH   5   6
ATOM      6  C   UNL     1       3.789   2.227  -4.806  1.00  0.00     0.053 C 
BRANCH   6   7
ATOM      7  C   UNL     1       3.771   1.864  -3.352  1.00  0.00     0.041 C 
ATOM      8  O   UNL     1       2.695   1.516  -2.800  1.00  0.00    -0.550 OA
ATOM      9  O   UNL     1       4.949   1.877  -2.618  1.00  0.00    -0.550 OA
ENDBRANCH   6   7
ENDBRANCH   5   6
ENDBRANCH   4   5
ENDBRANCH   3   4
ENDBRANCH   2   3
ENDBRANCH   1   2
BRANCH   1  10
ATOM     10  C   UNL     1      -1.155   2.697  -4.110  1.00  0.00     0.000 C 
BRANCH  10  11
ATOM     11  C   UNL     1      -1.339   2.654  -2.583  1.00  0.00    -0.000 C 
BRANCH  11  12
ATOM     12  C   UNL     1      -2.802   2.429  -2.171  1.00  0.00    -0.000 C 
BRANCH  12  13
ATOM     13  C   UNL     1      -3.771   2.488  -3.365  1.00  0.00    -0.000 C 
BRANCH  13  14
ATOM     14  C   UNL     1      -4.634   1.222  -3.487  1.00  0.00    -0.000 C 
BRANCH  14  15
ATOM     15  C   UNL     1      -3.815  -0.067  -3.327  1.00  0.00    -0.003 C 
ATOM     16  C   UNL     1      -4.289  -1.144  -4.299  1.00  0.00     0.004 C 
ENDBRANCH  14  15
ENDBRANCH  13  14
ENDBRANCH  12  13
ENDBRANCH  11  12
ENDBRANCH  10  11
ENDBRANCH   1  10
TORSDOF 12
ENDMDL
MODEL 3
REMARK VINA RESULT:    -4.236      3.790      7.081
REMARK INTER + INTRA:          -8.416
REMARK INTER:                  -6.972
REMARK INTRA:                  -1.443
REMARK UNBOUND:                -1.208
REMARK SMILES CCCCCCCCCCCCCC(=O)[O-]
REMARK SMILES IDX 8 1 9 2 10 3 11 4 12 5 13 6 14 7 15 8 16 9 7 10 6 11 5 12
REMARK SMILES IDX 4 13 3 14 2 15 1 16
REMARK H PARENT
REMARK Flexibility Score: inf
ROOT
ATOM      1  C   UNL     1       0.634   4.176  -3.524  1.00  0.00     0.000 C 
ENDROOT
BRANCH   1   2
ATOM      2  C   UNL     1      -0.058   3.361  -4.632  1.00  0.00     0.000 C 
BRANCH   2   3
ATOM      3  C   UNL     1      -1.340   2.667  -4.145  1.00  0.00     0.000 C 
BRANCH   3   4
ATOM      4  C   UNL     1      -1.432   2.606  -2.611  1.00  0.00     0.000 C 
BRANCH   4   5
ATOM      5  C   UNL     1      -2.884   2.522  -2.104  1.00  0.00     0.006 C 
BRANCH   5   6
ATOM      6  C   UNL     1      -3.945   2.524  -3.216  1.00  0.00     0.053 C 
BRANCH   6   7
ATOM      7  C   UNL     1      -4.705   1.234  -3.271  1.00  0.00     0.041 C 
ATOM      8  O   UNL     1      -4.088   0.137  -3.292  1.00  0.00    -0.550 OA
ATOM      9  O   UNL     1      -6.094   1.243  -3.265  1.00  0.00    -0.550 OA
ENDBRANCH   6   7
ENDBRANCH   5   6
ENDBRANCH   4   5
ENDBRANCH   3   4
ENDBRANCH   2   3
ENDBRANCH   1   2
BRANCH   1  10
ATOM     10  C   UNL     1       2.089   3.739  -3.288  1.00  0.00     0.000 C 
BRANCH  10  11
ATOM     11  C   UNL     1       2.240   2.211  -3.202  1.00  0.00    -0.000 C 
BRANCH  11  12
ATOM     12  C   UNL     1       3.477   1.696  -3.957  1.00  0.00    -0.000 C 
BRANCH  12  13
ATOM     13  C   UNL     1       4.239   2.819  -4.682  1.00  0.00    -0.000 C 
BRANCH  13  14
ATOM     14  C   UNL     1       4.239   2.641  -6.209  1.00  0.00    -0.000 C 
BRANCH  14  15
ATOM     15  C   UNL     1       3.008   3.274  -6.875  1.00  0.00    -0.003 C 
ATOM     16  C   UNL     1       3.020   4.792  -6.720  1.00  0.00     0.004 C 
ENDBRANCH  14  15
ENDBRANCH  13  14
ENDBRANCH  12  13
ENDBRANCH  11  12
ENDBRANCH  10  11
ENDBRANCH   1  10
TORSDOF 12
ENDMDL
MODEL 4
REMARK VINA RESULT:    -4.204      2.313      3.254
REMARK INTER + INTRA:          -8.361
REMARK INTER:                  -6.823
REMARK INTRA:                  -1.538
REMARK UNBOUND:                -1.208
REMARK SMILES CCCCCCCCCCCCCC(=O)[O-]
REMARK SMILES IDX 8 1 9 2 10 3 11 4 12 5 13 6 14 7 15 8 16 9 7 10 6 11 5 12
REMARK SMILES IDX 4 13 3 14 2 15 1 16
REMARK H PARENT
REMARK Flexibility Score: inf
ROOT
ATOM      1  C   UNL     1       0.801   4.005  -5.659  1.00  0.00     0.000 C 
ENDROOT
BRANCH   1   2
ATOM      2  C   UNL     1       2.074   3.669  -6.458  1.00  0.00     0.000 C 
BRANCH   2   3
ATOM      3  C   UNL     1       3.342   3.691  -5.589  1.00  0.00     0.000 C 
BRANCH   3   4
ATOM      4  C   UNL     1       3.949   2.290  -5.397  1.00  0.00     0.000 C 
BRANCH   4   5
ATOM      5  C   UNL     1       3.610   1.677  -4.025  1.00  0.00     0.006 C 
BRANCH   5   6
ATOM      6  C   UNL     1       3.863   2.613  -2.832  1.00  0.00     0.053 C 
BRANCH   6   7
ATOM      7  C   UNL     1       5.322   2.740  -2.515  1.00  0.00     0.041 C 
ATOM      8  O   UNL     1       5.892   1.875  -1.801  1.00  0.00    -0.550 OA
ATOM      9  O   UNL     1       6.058   3.795  -3.038  1.00  0.00    -0.550 OA
ENDBRANCH   6   7
ENDBRANCH   5   6
ENDBRANCH   4   5
ENDBRANCH   3   4
ENDBRANCH   2   3
ENDBRANCH   1   2
BRANCH   1  10
ATOM     10  C   UNL     1       1.089   4.872  -4.423  1.00  0.00     0.000 C 
BRANCH  10  11
ATOM     11  C   UNL     1       0.455   4.304  -3.142  1.00  0.00    -0.000 C 
BRANCH  11  12
ATOM     12  C   UNL     1       0.211   2.788  -3.226  1.00  0.00    -0.000 C 
BRANCH  12  13
ATOM     13  C   UNL     1      -1.241   2.402  -2.893  1.00  0.00    -0.000 C 
BRANCH  13  14
ATOM     14  C   UNL     1      -2.160   2.446  -4.125  1.00  0.00    -0.000 C 
BRANCH  14  15
ATOM     15  C   UNL     1      -3.442   3.255  -3.875  1.00  0.00    -0.003 C 
ATOM     16  C   UNL     1      -4.128   2.811  -2.587  1.00  0.00     0.004 C 
ENDBRANCH  14  15
ENDBRANCH  13  14
ENDBRANCH  12  13
ENDBRANCH  11  12
ENDBRANCH  10  11
ENDBRANCH   1  10
TORSDOF 12
ENDMDL
MODEL 5
REMARK VINA RESULT:    -4.202      1.418      2.913
REMARK INTER + INTRA:          -8.358
REMARK INTER:                  -6.860
REMARK INTRA:                  -1.498
REMARK UNBOUND:                -1.208
REMARK SMILES CCCCCCCCCCCCCC(=O)[O-]
REMARK SMILES IDX 8 1 9 2 10 3 11 4 12 5 13 6 14 7 15 8 16 9 7 10 6 11 5 12
REMARK SMILES IDX 4 13 3 14 2 15 1 16
REMARK H PARENT
REMARK Flexibility Score: inf
ROOT
ATOM      1  C   UNL     1       0.927   3.849  -3.105  1.00  0.00     0.000 C 
ENDROOT
BRANCH   1   2
ATOM      2  C   UNL     1       2.428   3.523  -3.213  1.00  0.00     0.000 C 
BRANCH   2   3
ATOM      3  C   UNL     1       2.698   2.016  -3.358  1.00  0.00     0.000 C 
BRANCH   3   4
ATOM      4  C   UNL     1       3.794   1.712  -4.394  1.00  0.00     0.000 C 
BRANCH   4   5
ATOM      5  C   UNL     1       4.084   2.906  -5.323  1.00  0.00     0.006 C 
BRANCH   5   6
ATOM      6  C   UNL     1       3.609   2.713  -6.772  1.00  0.00     0.053 C 
BRANCH   6   7
ATOM      7  C   UNL     1       4.522   1.814  -7.549  1.00  0.00     0.041 C 
ATOM      8  O   UNL     1       5.520   2.293  -8.149  1.00  0.00    -0.550 OA
ATOM      9  O   UNL     1       4.290   0.446  -7.581  1.00  0.00    -0.550 OA
ENDBRANCH   6   7
ENDBRANCH   5   6
ENDBRANCH   4   5
ENDBRANCH   3   4
ENDBRANCH   2   3
ENDBRANCH   1   2
BRANCH   1  10
ATOM     10  C   UNL     1       0.049   2.589  -3.059  1.00  0.00     0.000 C 
BRANCH  10  11
ATOM     11  C   UNL     1      -1.437   2.913  -2.829  1.00  0.00    -0.000 C 
BRANCH  11  12
ATOM     12  C   UNL     1      -2.138   3.410  -4.103  1.00  0.00    -0.000 C 
BRANCH  12  13
ATOM     13  C   UNL     1      -1.798   2.557  -5.338  1.00  0.00    -0.000 C 
BRANCH  13  14
ATOM     14  C   UNL     1      -1.518   3.411  -6.585  1.00  0.00    -0.000 C 
BRANCH  14  15
ATOM     15  C   UNL     1      -0.029   3.753  -6.743  1.00  0.00    -0.003 C 
ATOM     16  C   UNL     1       0.252   5.191  -6.320  1.00  0.00     0.004 C 
ENDBRANCH  14  15
ENDBRANCH  13  14
ENDBRANCH  12  13
ENDBRANCH  11  12
ENDBRANCH  10  11
ENDBRANCH   1  10
TORSDOF 12
ENDMDL
MODEL 6
REMARK VINA RESULT:    -4.201      2.046      3.443
REMARK INTER + INTRA:          -8.356
REMARK INTER:                  -7.328
REMARK INTRA:                  -1.027
REMARK UNBOUND:                -1.208
REMARK SMILES CCCCCCCCCCCCCC(=O)[O-]
REMARK SMILES IDX 8 1 9 2 10 3 11 4 12 5 13 6 14 7 15 8 16 9 7 10 6 11 5 12
REMARK SMILES IDX 4 13 3 14 2 15 1 16
REMARK H PARENT
REMARK Flexibility Score: inf
ROOT
ATOM      1  C   UNL     1      -2.649   3.187  -5.427  1.00  0.00     0.000 C 
ENDROOT
BRANCH   1   2
ATOM      2  C   UNL     1      -1.161   2.989  -5.082  1.00  0.00     0.000 C 
BRANCH   2   3
ATOM      3  C   UNL     1      -0.922   2.800  -3.575  1.00  0.00     0.000 C 
BRANCH   3   4
ATOM      4  C   UNL     1       0.127   3.777  -3.018  1.00  0.00     0.000 C 
BRANCH   4   5
ATOM      5  C   UNL     1       1.560   3.432  -3.464  1.00  0.00     0.006 C 
BRANCH   5   6
ATOM      6  C   UNL     1       2.041   2.037  -3.030  1.00  0.00     0.053 C 
BRANCH   6   7
ATOM      7  C   UNL     1       3.515   1.861  -3.233  1.00  0.00     0.041 C 
ATOM      8  O   UNL     1       3.967   1.579  -4.373  1.00  0.00    -0.550 OA
ATOM      9  O   UNL     1       4.390   2.042  -2.171  1.00  0.00    -0.550 OA
ENDBRANCH   6   7
ENDBRANCH   5   6
ENDBRANCH   4   5
ENDBRANCH   3   4
ENDBRANCH   2   3
ENDBRANCH   1   2
BRANCH   1  10
ATOM     10  C   UNL     1      -3.335   4.219  -4.519  1.00  0.00     0.000 C 
BRANCH  10  11
ATOM     11  C   UNL     1      -4.653   3.698  -3.923  1.00  0.00    -0.000 C 
BRANCH  11  12
ATOM     12  C   UNL     1      -4.430   2.638  -2.831  1.00  0.00    -0.000 C 
BRANCH  12  13
ATOM     13  C   UNL     1      -4.811   1.221  -3.293  1.00  0.00    -0.000 C 
BRANCH  13  14
ATOM     14  C   UNL     1      -3.607   0.266  -3.323  1.00  0.00    -0.000 C 
BRANCH  14  15
ATOM     15  C   UNL     1      -4.017  -1.191  -3.582  1.00  0.00    -0.003 C 
ATOM     16  C   UNL     1      -4.564  -1.365  -4.996  1.00  0.00     0.004 C 
ENDBRANCH  14  15
ENDBRANCH  13  14
ENDBRANCH  12  13
ENDBRANCH  11  12
ENDBRANCH  10  11
ENDBRANCH   1  10
TORSDOF 12
ENDMDL
MODEL 7
REMARK VINA RESULT:    -4.166      1.933      3.079
REMARK INTER + INTRA:          -8.297
REMARK INTER:                  -7.025
REMARK INTRA:                  -1.272
REMARK UNBOUND:                -1.208
REMARK SMILES CCCCCCCCCCCCCC(=O)[O-]
REMARK SMILES IDX 8 1 9 2 10 3 11 4 12 5 13 6 14 7 15 8 16 9 7 10 6 11 5 12
REMARK SMILES IDX 4 13 3 14 2 15 1 16
REMARK H PARENT
REMARK Flexibility Score: inf
ROOT
ATOM      1  C   UNL     1      -1.078   4.097  -6.510  1.00  0.00     0.000 C 
ENDROOT
BRANCH   1   2
ATOM      2  C   UNL     1       0.393   4.226  -6.945  1.00  0.00     0.000 C 
BRANCH   2   3
ATOM      3  C   UNL     1       1.373   3.670  -5.898  1.00  0.00     0.000 C 
BRANCH   3   4
ATOM      4  C   UNL     1       1.786   4.726  -4.858  1.00  0.00     0.000 C 
BRANCH   4   5
ATOM      5  C   UNL     1       2.039   4.122  -3.464  1.00  0.00     0.006 C 
BRANCH   5   6
ATOM      6  C   UNL     1       1.956   2.587  -3.413  1.00  0.00     0.053 C 
BRANCH   6   7
ATOM      7  C   UNL     1       3.311   1.951  -3.353  1.00  0.00     0.041 C 
ATOM      8  O   UNL     1       3.837   1.484  -4.396  1.00  0.00    -0.550 OA
ATOM      9  O   UNL     1       4.005   1.905  -2.151  1.00  0.00    -0.550 OA
ENDBRANCH   6   7
ENDBRANCH   5   6
ENDBRANCH   4   5
ENDBRANCH   3   4
ENDBRANCH   2   3
ENDBRANCH   1   2
BRANCH   1  10
ATOM     10  C   UNL     1      -1.292   2.989  -5.467  1.00  0.00     0.000 C 
BRANCH  10  11
ATOM     11  C   UNL     1      -1.762   3.538  -4.109  1.00  0.00    -0.000 C 
BRANCH  11  12
ATOM     12  C   UNL     1      -1.726   2.476  -2.998  1.00  0.00    -0.000 C 
BRANCH  12  13
ATOM     13  C   UNL     1      -3.068   2.350  -2.255  1.00  0.00    -0.000 C 
BRANCH  13  14
ATOM     14  C   UNL     1      -4.208   1.879  -3.172  1.00  0.00    -0.000 C 
BRANCH  14  15
ATOM     15  C   UNL     1      -3.798   0.697  -4.063  1.00  0.00    -0.003 C 
ATOM     16  C   UNL     1      -3.913  -0.624  -3.310  1.00  0.00     0.004 C 
ENDBRANCH  14  15
ENDBRANCH  13  14
ENDBRANCH  12  13
ENDBRANCH  11  12
ENDBRANCH  10  11
ENDBRANCH   1  10
TORSDOF 12
ENDMDL
MODEL 8
REMARK VINA RESULT:    -4.153      2.282      2.728
REMARK INTER + INTRA:          -8.274
REMARK INTER:                  -6.952
REMARK INTRA:                  -1.323
REMARK UNBOUND:                -1.208
REMARK SMILES CCCCCCCCCCCCCC(=O)[O-]
REMARK SMILES IDX 8 1 9 2 10 3 11 4 12 5 13 6 14 7 15 8 16 9 7 10 6 11 5 12
REMARK SMILES IDX 4 13 3 14 2 15 1 16
REMARK H PARENT
REMARK Flexibility Score: inf
ROOT
ATOM      1  C   UNL     1       0.177   4.702  -4.594  1.00  0.00     0.000 C 
ENDROOT
BRANCH   1   2
ATOM      2  C   UNL     1       0.801   4.129  -3.308  1.00  0.00     0.000 C 
BRANCH   2   3
ATOM      3  C   UNL     1       0.875   2.593  -3.318  1.00  0.00     0.000 C 
BRANCH   3   4
ATOM      4  C   UNL     1       2.262   2.067  -2.912  1.00  0.00     0.000 C 
BRANCH   4   5
ATOM      5  C   UNL     1       3.259   2.049  -4.087  1.00  0.00     0.006 C 
BRANCH   5   6
ATOM      6  C   UNL     1       4.482   2.961  -3.895  1.00  0.00     0.053 C 
BRANCH   6   7
ATOM      7  C   UNL     1       5.062   2.843  -2.518  1.00  0.00     0.041 C 
ATOM      8  O   UNL     1       5.676   1.798  -2.178  1.00  0.00    -0.550 OA
ATOM      9  O   UNL     1       4.953   3.900  -1.625  1.00  0.00    -0.550 OA
ENDBRANCH   6   7
ENDBRANCH   5   6
ENDBRANCH   4   5
ENDBRANCH   3   4
ENDBRANCH   2   3
ENDBRANCH   1   2
BRANCH   1  10
ATOM     10  C   UNL     1       0.179   3.694  -5.753  1.00  0.00     0.000 C 
BRANCH  10  11
ATOM     11  C   UNL     1      -1.218   3.496  -6.366  1.00  0.00    -0.000 C 
BRANCH  11  12
ATOM     12  C   UNL     1      -2.114   2.584  -5.513  1.00  0.00    -0.000 C 
BRANCH  12  13
ATOM     13  C   UNL     1      -3.088   3.375  -4.622  1.00  0.00    -0.000 C 
BRANCH  13  14
ATOM     14  C   UNL     1      -3.306   2.712  -3.252  1.00  0.00    -0.000 C 
BRANCH  14  15
ATOM     15  C   UNL     1      -2.637   1.333  -3.152  1.00  0.00    -0.003 C 
ATOM     16  C   UNL     1      -3.656   0.214  -3.347  1.00  0.00     0.004 C 
ENDBRANCH  14  15
ENDBRANCH  13  14
ENDBRANCH  12  13
ENDBRANCH  11  12
ENDBRANCH  10  11
ENDBRANCH   1  10
TORSDOF 12
ENDMDL
MODEL 9
REMARK VINA RESULT:    -4.100      2.221      3.922
REMARK INTER + INTRA:          -8.184
REMARK INTER:                  -6.295
REMARK INTRA:                  -1.890
REMARK UNBOUND:                -1.208
REMARK SMILES CCCCCCCCCCCCCC(=O)[O-]
REMARK SMILES IDX 8 1 9 2 10 3 11 4 12 5 13 6 14 7 15 8 16 9 7 10 6 11 5 12
REMARK SMILES IDX 4 13 3 14 2 15 1 16
REMARK H PARENT
REMARK Flexibility Score: inf
ROOT
ATOM      1  C   UNL     1      -3.633   3.802  -6.133  1.00  0.00     0.000 C 
ENDROOT
BRANCH   1   2
ATOM      2  C   UNL     1      -2.621   2.696  -6.488  1.00  0.00     0.000 C 
BRANCH   2   3
ATOM      3  C   UNL     1      -1.214   2.980  -5.937  1.00  0.00     0.000 C 
BRANCH   3   4
ATOM      4  C   UNL     1      -1.210   4.095  -4.877  1.00  0.00     0.000 C 
BRANCH   4   5
ATOM      5  C   UNL     1       0.144   4.224  -4.154  1.00  0.00     0.006 C 
BRANCH   5   6
ATOM      6  C   UNL     1       0.545   2.988  -3.334  1.00  0.00     0.053 C 
BRANCH   6   7
ATOM      7  C   UNL     1       2.028   2.768  -3.335  1.00  0.00     0.041 C 
ATOM      8  O   UNL     1       2.805   3.703  -3.659  1.00  0.00    -0.550 OA
ATOM      9  O   UNL     1       2.550   1.542  -2.946  1.00  0.00    -0.550 OA
ENDBRANCH   6   7
ENDBRANCH   5   6
ENDBRANCH   4   5
ENDBRANCH   3   4
ENDBRANCH   2   3
ENDBRANCH   1   2
BRANCH   1  10
ATOM     10  C   UNL     1      -5.091   3.347  -6.304  1.00  0.00     0.000 C 
BRANCH  10  11
ATOM     11  C   UNL     1      -5.831   3.219  -4.962  1.00  0.00    -0.000 C 
BRANCH  11  12
ATOM     12  C   UNL     1      -5.026   3.797  -3.786  1.00  0.00    -0.000 C 
BRANCH  12  13
ATOM     13  C   UNL     1      -4.760   2.758  -2.683  1.00  0.00    -0.000 C 
BRANCH  13  14
ATOM     14  C   UNL     1      -3.260   2.557  -2.412  1.00  0.00    -0.000 C 
BRANCH  14  15
ATOM     15  C   UNL     1      -2.716   1.266  -3.042  1.00  0.00    -0.003 C 
ATOM     16  C   UNL     1      -3.852   0.370  -3.526  1.00  0.00     0.004 C 
ENDBRANCH  14  15
ENDBRANCH  13  14
ENDBRANCH  12  13
ENDBRANCH  11  12
ENDBRANCH  10  11
ENDBRANCH   1  10
TORSDOF 12
ENDMDL
