MODEL 1
REMARK VINA RESULT:    -2.461      0.000      0.000
REMARK INTER + INTRA:          -2.461
REMARK INTER:                  -2.461
REMARK INTRA:                   0.000
REMARK UNBOUND:                 0.000
REMARK SMILES CC(=O)[O-]
REMARK SMILES IDX 1 1 2 2 3 3 4 4
REMARK H PARENT
REMARK Flexibility Score: inf
ROOT
ATOM      1  C   UNL     1     -30.476 -19.800 -25.299  1.00  0.00     0.063 C 
ATOM      2  C   UNL     1     -30.814 -21.221 -24.998  1.00  0.00     0.038 C 
ATOM      3  O   UNL     1     -31.057 -22.025 -25.936  1.00  0.00    -0.550 OA
ATOM      4  O   UNL     1     -30.809 -21.675 -23.685  1.00  0.00    -0.550 OA
ENDROOT
TORSDOF 0
ENDMDL
MODEL 2
REMARK VINA RESULT:    -2.453      1.779      1.984
REMARK INTER + INTRA:          -2.453
REMARK INTER:                  -2.453
REMARK INTRA:                   0.000
REMARK UNBOUND:                 0.000
REMARK SMILES CC(=O)[O-]
REMARK SMILES IDX 1 1 2 2 3 3 4 4
REMARK H PARENT
REMARK Flexibility Score: inf
ROOT
ATOM      1  C   UNL     1     -30.738 -21.748 -25.985  1.00  0.00     0.063 C 
ATOM      2  C   UNL     1     -30.085 -20.708 -25.138  1.00  0.00     0.038 C 
ATOM      3  O   UNL     1     -30.410 -19.498 -25.259  1.00  0.00    -0.550 OA
ATOM      4  O   UNL     1     -29.154 -21.079 -24.176  1.00  0.00    -0.550 OA
ENDROOT
TORSDOF 0
ENDMDL
MODEL 3
REMARK VINA RESULT:    -2.439      0.123      1.623
REMARK INTER + INTRA:          -2.439
REMARK INTER:                  -2.439
REMARK INTRA:                   0.000
REMARK UNBOUND:                 0.000
REMARK SMILES CC(=O)[O-]
REMARK SMILES IDX 1 1 2 2 3 3 4 4
REMARK H PARENT
REMARK Flexibility Score: inf
ROOT
ATOM      1  C   UNL     1     -30.380 -19.865 -25.247  1.00  0.00     0.063 C 
ATOM      2  C   UNL     1     -30.740 -21.284 -24.965  1.00  0.00     0.038 C 
ATOM      3  O   UNL     1     -30.743 -21.712 -23.780  1.00  0.00    -0.550 OA
ATOM      4  O   UNL     1     -31.123 -22.125 -26.002  1.00  0.00    -0.550 OA
ENDROOT
TORSDOF 0
ENDMDL
MODEL 4
REMARK VINA RESULT:    -2.367      1.395      1.701
REMARK INTER + INTRA:          -2.367
REMARK INTER:                  -2.367
REMARK INTRA:                   0.000
REMARK UNBOUND:                 0.000
REMARK SMILES CC(=O)[O-]
REMARK SMILES IDX 1 1 2 2 3 3 4 4
REMARK H PARENT
REMARK Flexibility Score: inf
ROOT
ATOM      1  C   UNL     1     -30.685 -19.950 -25.331  1.00  0.00     0.063 C 
ATOM      2  C   UNL     1     -30.262 -20.842 -24.213  1.00  0.00     0.038 C 
ATOM      3  O   UNL     1     -31.127 -21.392 -23.481  1.00  0.00    -0.550 OA
ATOM      4  O   UNL     1     -28.915 -21.112 -24.010  1.00  0.00    -0.550 OA
ENDROOT
TORSDOF 0
ENDMDL
MODEL 5
REMARK VINA RESULT:    -2.331      1.344      1.966
REMARK INTER + INTRA:          -2.331
REMARK INTER:                  -2.331
REMARK INTRA:                   0.000
REMARK UNBOUND:                 0.000
REMARK SMILES CC(=O)[O-]
REMARK SMILES IDX 1 1 2 2 3 3 4 4
REMARK H PARENT
REMARK Flexibility Score: inf
ROOT
ATOM      1  C   UNL     1     -30.932 -21.118 -23.651  1.00  0.00     0.063 C 
ATOM      2  C   UNL     1     -30.922 -20.923 -25.129  1.00  0.00     0.038 C 
ATOM      3  O   UNL     1     -30.787 -19.768 -25.613  1.00  0.00    -0.550 OA
ATOM      4  O   UNL     1     -31.009 -22.020 -25.977  1.00  0.00    -0.550 OA
ENDROOT
TORSDOF 0
ENDMDL
MODEL 6
REMARK VINA RESULT:    -2.327      1.543      1.803
REMARK INTER + INTRA:          -2.327
REMARK INTER:                  -2.327
REMARK INTRA:                   0.000
REMARK UNBOUND:                 0.000
REMARK SMILES CC(=O)[O-]
REMARK SMILES IDX 1 1 2 2 3 3 4 4
REMARK H PARENT
REMARK Flexibility Score: inf
ROOT
ATOM      1  C   UNL     1     -31.103 -21.047 -23.368  1.00  0.00     0.063 C 
ATOM      2  C   UNL     1     -30.887 -20.861 -24.832  1.00  0.00     0.038 C 
ATOM      3  O   UNL     1     -31.079 -21.819 -25.626  1.00  0.00    -0.550 OA
ATOM      4  O   UNL     1     -30.525 -19.615 -25.330  1.00  0.00    -0.550 OA
ENDROOT
TORSDOF 0
ENDMDL
MODEL 7
REMARK VINA RESULT:    -2.238      3.366      3.854
REMARK INTER + INTRA:          -2.238
REMARK INTER:                  -2.238
REMARK INTRA:                   0.000
REMARK UNBOUND:                 0.000
REMARK SMILES CC(=O)[O-]
REMARK SMILES IDX 1 1 2 2 3 3 4 4
REMARK H PARENT
REMARK Flexibility Score: inf
ROOT
ATOM      1  C   UNL     1     -28.919 -21.515 -21.564  1.00  0.00     0.063 C 
ATOM      2  C   UNL     1     -28.239 -21.426 -22.888  1.00  0.00     0.038 C 
ATOM      3  O   UNL     1     -27.015 -21.703 -22.989  1.00  0.00    -0.550 OA
ATOM      4  O   UNL     1     -28.965 -21.089 -24.023  1.00  0.00    -0.550 OA
ENDROOT
TORSDOF 0
ENDMDL
MODEL 8
REMARK VINA RESULT:    -2.211      2.104      2.505
REMARK INTER + INTRA:          -2.211
REMARK INTER:                  -2.211
REMARK INTRA:                   0.000
REMARK UNBOUND:                 0.000
REMARK SMILES CC(=O)[O-]
REMARK SMILES IDX 1 1 2 2 3 3 4 4
REMARK H PARENT
REMARK Flexibility Score: inf
ROOT
ATOM      1  C   UNL     1     -30.213 -21.803 -22.418  1.00  0.00     0.063 C 
ATOM      2  C   UNL     1     -31.221 -20.973 -23.138  1.00  0.00     0.038 C 
ATOM      3  O   UNL     1     -31.222 -20.929 -24.396  1.00  0.00    -0.550 OA
ATOM      4  O   UNL     1     -32.197 -20.289 -22.424  1.00  0.00    -0.550 OA
ENDROOT
TORSDOF 0
ENDMDL
MODEL 9
REMARK VINA RESULT:    -2.199      3.339      3.789
REMARK INTER + INTRA:          -2.199
REMARK INTER:                  -2.199
REMARK INTRA:                   0.000
REMARK UNBOUND:                 0.000
REMARK SMILES CC(=O)[O-]
REMARK SMILES IDX 1 1 2 2 3 3 4 4
REMARK H PARENT
REMARK Flexibility Score: inf
ROOT
ATOM      1  C   UNL     1     -27.431 -21.579 -22.970  1.00  0.00     0.063 C 
ATOM      2  C   UNL     1     -28.656 -21.501 -22.124  1.00  0.00     0.038 C 
ATOM      3  O   UNL     1     -29.775 -21.267 -22.652  1.00  0.00    -0.550 OA
ATOM      4  O   UNL     1     -28.575 -21.739 -20.758  1.00  0.00    -0.550 OA
ENDROOT
TORSDOF 0
ENDMDL
