MODEL 1
REMARK VINA RESULT:    -2.895      0.000      0.000
REMARK INTER + INTRA:          -3.466
REMARK INTER:                  -3.403
REMARK INTRA:                  -0.063
REMARK UNBOUND:                -0.063
REMARK SMILES CCCCC(=O)[O-]
REMARK SMILES IDX 4 1 5 2 6 3 7 4 3 5 2 6 1 7
REMARK H PARENT
REMARK Flexibility Score: inf
ROOT
ATOM      1  C   UNL     1    -109.590  42.854  -0.655  1.00  0.00     0.053 C 
ENDROOT
BRANCH   1   2
ATOM      2  C   UNL     1    -108.165  42.918  -0.199  1.00  0.00     0.041 C 
ATOM      3  O   UNL     1    -107.333  42.062  -0.598  1.00  0.00    -0.550 OA
ATOM      4  O   UNL     1    -107.764  43.904   0.694  1.00  0.00    -0.550 OA
ENDBRANCH   1   2
BRANCH   1   5
ATOM      5  C   UNL     1    -110.174  44.253  -0.896  1.00  0.00     0.006 C 
BRANCH   5   6
ATOM      6  C   UNL     1    -109.561  44.934  -2.129  1.00  0.00    -0.003 C 
ATOM      7  C   UNL     1    -110.602  45.124  -3.227  1.00  0.00     0.004 C 
ENDBRANCH   5   6
ENDBRANCH   1   5
TORSDOF 3
ENDMDL
MODEL 2
REMARK VINA RESULT:    -2.814      1.078      1.571
REMARK INTER + INTRA:          -3.371
REMARK INTER:                  -3.334
REMARK INTRA:                  -0.037
REMARK UNBOUND:                -0.063
REMARK SMILES CCCCC(=O)[O-]
REMARK SMILES IDX 4 1 5 2 6 3 7 4 3 5 2 6 1 7
REMARK H PARENT
REMARK Flexibility Score: inf
ROOT
ATOM      1  C   UNL     1    -109.566  42.814  -0.719  1.00  0.00     0.053 C 
ENDROOT
BRANCH   1   2
ATOM      2  C   UNL     1    -108.157  42.904  -0.218  1.00  0.00     0.041 C 
ATOM      3  O   UNL     1    -107.299  42.059  -0.584  1.00  0.00    -0.550 OA
ATOM      4  O   UNL     1    -107.801  43.902   0.680  1.00  0.00    -0.550 OA
ENDBRANCH   1   2
BRANCH   1   5
ATOM      5  C   UNL     1    -110.078  44.170  -1.222  1.00  0.00     0.006 C 
BRANCH   5   6
ATOM      6  C   UNL     1    -111.522  44.447  -0.776  1.00  0.00    -0.003 C 
ATOM      7  C   UNL     1    -112.438  43.277  -1.119  1.00  0.00     0.004 C 
ENDBRANCH   5   6
ENDBRANCH   1   5
TORSDOF 3
ENDMDL
MODEL 3
REMARK VINA RESULT:    -2.749     13.675     14.181
REMARK INTER + INTRA:          -3.294
REMARK INTER:                  -3.262
REMARK INTRA:                  -0.031
REMARK UNBOUND:                -0.063
REMARK SMILES CCCCC(=O)[O-]
REMARK SMILES IDX 4 1 5 2 6 3 7 4 3 5 2 6 1 7
REMARK H PARENT
REMARK Flexibility Score: inf
ROOT
ATOM      1  C   UNL     1    -106.642  30.499   3.521  1.00  0.00     0.053 C 
ENDROOT
BRANCH   1   2
ATOM      2  C   UNL     1    -105.219  30.959   3.618  1.00  0.00     0.041 C 
ATOM      3  O   UNL     1    -104.925  32.163   3.400  1.00  0.00    -0.550 OA
ATOM      4  O   UNL     1    -104.213  30.049   3.918  1.00  0.00    -0.550 OA
ENDBRANCH   1   2
BRANCH   1   5
ATOM      5  C   UNL     1    -106.891  29.689   2.241  1.00  0.00     0.006 C 
BRANCH   5   6
ATOM      6  C   UNL     1    -108.266  29.988   1.624  1.00  0.00    -0.003 C 
ATOM      7  C   UNL     1    -109.294  30.316   2.702  1.00  0.00     0.004 C 
ENDBRANCH   5   6
ENDBRANCH   1   5
TORSDOF 3
ENDMDL
MODEL 4
REMARK VINA RESULT:    -2.700     11.724     13.063
REMARK INTER + INTRA:          -3.236
REMARK INTER:                  -3.173
REMARK INTRA:                  -0.063
REMARK UNBOUND:                -0.063
REMARK SMILES CCCCC(=O)[O-]
REMARK SMILES IDX 4 1 5 2 6 3 7 4 3 5 2 6 1 7
REMARK H PARENT
REMARK Flexibility Score: inf
ROOT
ATOM      1  C   UNL     1    -107.067  32.026   3.321  1.00  0.00     0.053 C 
ENDROOT
BRANCH   1   2
ATOM      2  C   UNL     1    -105.950  32.977   3.017  1.00  0.00     0.041 C 
ATOM      3  O   UNL     1    -104.786  32.742   3.435  1.00  0.00    -0.550 OA
ATOM      4  O   UNL     1    -106.202  34.140   2.301  1.00  0.00    -0.550 OA
ENDBRANCH   1   2
BRANCH   1   5
ATOM      5  C   UNL     1    -106.568  30.579   3.431  1.00  0.00     0.006 C 
BRANCH   5   6
ATOM      6  C   UNL     1    -107.016  29.718   2.240  1.00  0.00    -0.003 C 
ATOM      7  C   UNL     1    -108.414  30.110   1.773  1.00  0.00     0.004 C 
ENDBRANCH   5   6
ENDBRANCH   1   5
TORSDOF 3
ENDMDL
MODEL 5
REMARK VINA RESULT:    -2.549      3.076      4.102
REMARK INTER + INTRA:          -3.059
REMARK INTER:                  -3.044
REMARK INTRA:                  -0.015
REMARK UNBOUND:                -0.063
REMARK SMILES CCCCC(=O)[O-]
REMARK SMILES IDX 4 1 5 2 6 3 7 4 3 5 2 6 1 7
REMARK H PARENT
REMARK Flexibility Score: inf
ROOT
ATOM      1  C   UNL     1    -110.525  44.255  -0.856  1.00  0.00     0.053 C 
ENDROOT
BRANCH   1   2
ATOM      2  C   UNL     1    -111.612  44.229  -1.887  1.00  0.00     0.041 C 
ATOM      3  O   UNL     1    -112.704  43.653  -1.643  1.00  0.00    -0.550 OA
ATOM      4  O   UNL     1    -111.405  44.812  -3.131  1.00  0.00    -0.550 OA
ENDBRANCH   1   2
BRANCH   1   5
ATOM      5  C   UNL     1    -109.799  42.906  -0.761  1.00  0.00     0.006 C 
BRANCH   5   6
ATOM      6  C   UNL     1    -108.467  43.016  -0.005  1.00  0.00    -0.003 C 
ATOM      7  C   UNL     1    -107.399  42.131  -0.640  1.00  0.00     0.004 C 
ENDBRANCH   5   6
ENDBRANCH   1   5
TORSDOF 3
ENDMDL
MODEL 6
REMARK VINA RESULT:    -2.495     12.615     13.696
REMARK INTER + INTRA:          -2.995
REMARK INTER:                  -2.943
REMARK INTRA:                  -0.053
REMARK UNBOUND:                -0.063
REMARK SMILES CCCCC(=O)[O-]
REMARK SMILES IDX 4 1 5 2 6 3 7 4 3 5 2 6 1 7
REMARK H PARENT
REMARK Flexibility Score: inf
ROOT
ATOM      1  C   UNL     1    -106.945  30.895   3.722  1.00  0.00     0.053 C 
ENDROOT
BRANCH   1   2
ATOM      2  C   UNL     1    -106.754  29.887   2.631  1.00  0.00     0.041 C 
ATOM      3  O   UNL     1    -105.735  29.148   2.621  1.00  0.00    -0.550 OA
ATOM      4  O   UNL     1    -107.686  29.787   1.605  1.00  0.00    -0.550 OA
ENDBRANCH   1   2
BRANCH   1   5
ATOM      5  C   UNL     1    -106.483  32.294   3.292  1.00  0.00     0.006 C 
BRANCH   5   6
ATOM      6  C   UNL     1    -104.998  32.535   3.598  1.00  0.00    -0.003 C 
ATOM      7  C   UNL     1    -104.520  33.854   2.998  1.00  0.00     0.004 C 
ENDBRANCH   5   6
ENDBRANCH   1   5
TORSDOF 3
ENDMDL
MODEL 7
REMARK VINA RESULT:    -2.470     13.808     14.575
REMARK INTER + INTRA:          -2.966
REMARK INTER:                  -2.925
REMARK INTRA:                  -0.041
REMARK UNBOUND:                -0.063
REMARK SMILES CCCCC(=O)[O-]
REMARK SMILES IDX 4 1 5 2 6 3 7 4 3 5 2 6 1 7
REMARK H PARENT
REMARK Flexibility Score: inf
ROOT
ATOM      1  C   UNL     1    -116.230  34.523  -9.704  1.00  0.00     0.053 C 
ENDROOT
BRANCH   1   2
ATOM      2  C   UNL     1    -115.741  34.709 -11.107  1.00  0.00     0.041 C 
ATOM      3  O   UNL     1    -115.862  35.824 -11.679  1.00  0.00    -0.550 OA
ATOM      4  O   UNL     1    -115.181  33.640 -11.796  1.00  0.00    -0.550 OA
ENDBRANCH   1   2
BRANCH   1   5
ATOM      5  C   UNL     1    -115.181  33.832  -8.822  1.00  0.00     0.006 C 
BRANCH   5   6
ATOM      6  C   UNL     1    -114.825  34.664  -7.581  1.00  0.00    -0.003 C 
ATOM      7  C   UNL     1    -116.027  35.465  -7.092  1.00  0.00     0.004 C 
ENDBRANCH   5   6
ENDBRANCH   1   5
TORSDOF 3
ENDMDL
MODEL 8
REMARK VINA RESULT:    -2.434     15.958     16.909
REMARK INTER + INTRA:          -2.924
REMARK INTER:                  -2.867
REMARK INTRA:                  -0.057
REMARK UNBOUND:                -0.063
REMARK SMILES CCCCC(=O)[O-]
REMARK SMILES IDX 4 1 5 2 6 3 7 4 3 5 2 6 1 7
REMARK H PARENT
REMARK Flexibility Score: inf
ROOT
ATOM      1  C   UNL     1    -116.776  27.849   0.981  1.00  0.00     0.053 C 
ENDROOT
BRANCH   1   2
ATOM      2  C   UNL     1    -115.414  27.229   1.046  1.00  0.00     0.041 C 
ATOM      3  O   UNL     1    -114.806  27.149   2.146  1.00  0.00    -0.550 OA
ATOM      4  O   UNL     1    -114.802  26.770  -0.114  1.00  0.00    -0.550 OA
ENDBRANCH   1   2
BRANCH   1   5
ATOM      5  C   UNL     1    -116.700  29.372   0.808  1.00  0.00     0.006 C 
BRANCH   5   6
ATOM      6  C   UNL     1    -117.055  29.814  -0.620  1.00  0.00    -0.003 C 
ATOM      7  C   UNL     1    -116.056  30.840  -1.143  1.00  0.00     0.004 C 
ENDBRANCH   5   6
ENDBRANCH   1   5
TORSDOF 3
ENDMDL
MODEL 9
REMARK VINA RESULT:    -2.337     13.410     14.052
REMARK INTER + INTRA:          -2.809
REMARK INTER:                  -2.685
REMARK INTRA:                  -0.124
REMARK UNBOUND:                -0.063
REMARK SMILES CCCCC(=O)[O-]
REMARK SMILES IDX 4 1 5 2 6 3 7 4 3 5 2 6 1 7
REMARK H PARENT
REMARK Flexibility Score: inf
ROOT
ATOM      1  C   UNL     1    -114.918  33.894  -8.508  1.00  0.00     0.053 C 
ENDROOT
BRANCH   1   2
ATOM      2  C   UNL     1    -115.837  33.652  -9.666  1.00  0.00     0.041 C 
ATOM      3  O   UNL     1    -116.989  33.182  -9.473  1.00  0.00    -0.550 OA
ATOM      4  O   UNL     1    -115.409  33.914 -10.961  1.00  0.00    -0.550 OA
ENDBRANCH   1   2
BRANCH   1   5
ATOM      5  C   UNL     1    -115.389  35.071  -7.644  1.00  0.00     0.006 C 
BRANCH   5   6
ATOM      6  C   UNL     1    -115.410  36.394  -8.425  1.00  0.00    -0.003 C 
ATOM      7  C   UNL     1    -116.769  37.077  -8.314  1.00  0.00     0.004 C 
ENDBRANCH   5   6
ENDBRANCH   1   5
TORSDOF 3
ENDMDL
