MODEL 1
REMARK VINA RESULT:    -2.415      0.000      0.000
REMARK INTER + INTRA:          -5.642
REMARK INTER:                  -5.238
REMARK INTRA:                  -0.404
REMARK UNBOUND:                -0.404
REMARK SMILES CCCCCCCCCCCCCCCCCCCCCC(=O)[O-]
REMARK SMILES IDX 12 1 11 2 10 3 9 4 8 5 7 6 6 7 5 8 4 9 3 10 2 11 1 12 13 13
REMARK SMILES IDX 14 14 15 15 16 16 17 17 18 18 19 19 20 20 21 21 22 22 23 23
REMARK SMILES IDX 24 24
REMARK H PARENT
REMARK Flexibility Score: inf
ROOT
ATOM      1  C   UNL     1     -11.485 -11.388   4.206  1.00  0.00     0.000 C 
ENDROOT
BRANCH   1   2
ATOM      2  C   UNL     1     -11.026 -12.060   5.514  1.00  0.00     0.000 C 
BRANCH   2   3
ATOM      3  C   UNL     1     -12.005 -11.927   6.695  1.00  0.00     0.000 C 
BRANCH   3   4
ATOM      4  C   UNL     1     -11.356 -11.987   8.090  1.00  0.00    -0.000 C 
BRANCH   4   5
ATOM      5  C   UNL     1     -11.858 -10.885   9.035  1.00  0.00    -0.000 C 
BRANCH   5   6
ATOM      6  C   UNL     1     -10.700 -10.304   9.859  1.00  0.00    -0.000 C 
BRANCH   6   7
ATOM      7  C   UNL     1     -10.609 -10.908  11.269  1.00  0.00    -0.000 C 
BRANCH   7   8
ATOM      8  C   UNL     1     -11.972 -11.387  11.797  1.00  0.00    -0.000 C 
BRANCH   8   9
ATOM      9  C   UNL     1     -12.066 -11.313  13.330  1.00  0.00    -0.000 C 
BRANCH   9  10
ATOM     10  C   UNL     1     -10.834 -10.642  13.963  1.00  0.00    -0.000 C 
BRANCH  10  11
ATOM     11  C   UNL     1     -10.968  -9.113  14.037  1.00  0.00    -0.003 C 
ATOM     12  C   UNL     1     -12.119  -8.576  13.185  1.00  0.00     0.004 C 
ENDBRANCH  10  11
ENDBRANCH   9  10
ENDBRANCH   8   9
ENDBRANCH   7   8
ENDBRANCH   6   7
ENDBRANCH   5   6
ENDBRANCH   4   5
ENDBRANCH   3   4
ENDBRANCH   2   3
ENDBRANCH   1   2
BRANCH   1  13
ATOM     13  C   UNL     1     -11.024 -12.124   2.930  1.00  0.00     0.000 C 
BRANCH  13  14
ATOM     14  C   UNL     1     -11.915 -11.817   1.713  1.00  0.00     0.000 C 
BRANCH  14  15
ATOM     15  C   UNL     1     -11.158 -11.983   0.379  1.00  0.00     0.000 C 
BRANCH  15  16
ATOM     16  C   UNL     1      -9.655 -11.672   0.481  1.00  0.00     0.000 C 
BRANCH  16  17
ATOM     17  C   UNL     1      -9.026 -11.319  -0.874  1.00  0.00     0.000 C 
BRANCH  17  18
ATOM     18  C   UNL     1     -10.071 -10.725  -1.827  1.00  0.00     0.000 C 
BRANCH  18  19
ATOM     19  C   UNL     1     -10.275 -11.629  -3.052  1.00  0.00     0.000 C 
BRANCH  19  20
ATOM     20  C   UNL     1      -9.935 -10.925  -4.378  1.00  0.00     0.006 C 
BRANCH  20  21
ATOM     21  C   UNL     1      -8.646 -10.089  -4.337  1.00  0.00     0.053 C 
BRANCH  21  22
ATOM     22  C   UNL     1      -7.545 -10.712  -5.138  1.00  0.00     0.041 C 
ATOM     23  O   UNL     1      -7.718 -11.830  -5.691  1.00  0.00    -0.550 OA
ATOM     24  O   UNL     1      -6.317 -10.070  -5.249  1.00  0.00    -0.550 OA
ENDBRANCH  21  22
ENDBRANCH  20  21
ENDBRANCH  19  20
ENDBRANCH  18  19
ENDBRANCH  17  18
ENDBRANCH  16  17
ENDBRANCH  15  16
ENDBRANCH  14  15
ENDBRANCH  13  14
ENDBRANCH   1  13
TORSDOF 20
ENDMDL
MODEL 2
REMARK VINA RESULT:    -2.228      2.702      3.654
REMARK INTER + INTRA:          -5.237
REMARK INTER:                  -4.070
REMARK INTRA:                  -1.166
REMARK UNBOUND:                -0.404
REMARK SMILES CCCCCCCCCCCCCCCCCCCCCC(=O)[O-]
REMARK SMILES IDX 12 1 11 2 10 3 9 4 8 5 7 6 6 7 5 8 4 9 3 10 2 11 1 12 13 13
REMARK SMILES IDX 14 14 15 15 16 16 17 17 18 18 19 19 20 20 21 21 22 22 23 23
REMARK SMILES IDX 24 24
REMARK H PARENT
REMARK Flexibility Score: inf
ROOT
ATOM      1  C   UNL     1      -6.291 -10.666   3.103  1.00  0.00     0.000 C 
ENDROOT
BRANCH   1   2
ATOM      2  C   UNL     1      -5.489 -10.787   4.412  1.00  0.00     0.000 C 
BRANCH   2   3
ATOM      3  C   UNL     1      -5.943 -11.918   5.354  1.00  0.00     0.000 C 
BRANCH   3   4
ATOM      4  C   UNL     1      -7.107 -11.554   6.294  1.00  0.00    -0.000 C 
BRANCH   4   5
ATOM      5  C   UNL     1      -8.480 -11.947   5.730  1.00  0.00    -0.000 C 
BRANCH   5   6
ATOM      6  C   UNL     1      -9.509 -12.109   6.859  1.00  0.00    -0.000 C 
BRANCH   6   7
ATOM      7  C   UNL     1      -8.989 -11.610   8.217  1.00  0.00    -0.000 C 
BRANCH   7   8
ATOM      8  C   UNL     1     -10.076 -11.613   9.304  1.00  0.00    -0.000 C 
BRANCH   8   9
ATOM      9  C   UNL     1     -10.630 -10.205   9.584  1.00  0.00    -0.000 C 
BRANCH   9  10
ATOM     10  C   UNL     1     -11.703 -10.205  10.686  1.00  0.00    -0.000 C 
BRANCH  10  11
ATOM     11  C   UNL     1     -11.107 -10.005  12.089  1.00  0.00    -0.003 C 
ATOM     12  C   UNL     1     -12.118 -10.259  13.206  1.00  0.00     0.004 C 
ENDBRANCH  10  11
ENDBRANCH   9  10
ENDBRANCH   8   9
ENDBRANCH   7   8
ENDBRANCH   6   7
ENDBRANCH   5   6
ENDBRANCH   4   5
ENDBRANCH   3   4
ENDBRANCH   2   3
ENDBRANCH   1   2
BRANCH   1  13
ATOM     13  C   UNL     1      -6.573 -12.018   2.415  1.00  0.00     0.000 C 
BRANCH  13  14
ATOM     14  C   UNL     1      -7.691 -11.925   1.361  1.00  0.00     0.000 C 
BRANCH  14  15
ATOM     15  C   UNL     1      -9.092 -11.843   2.002  1.00  0.00     0.000 C 
BRANCH  15  16
ATOM     16  C   UNL     1     -10.241 -12.005   0.994  1.00  0.00     0.000 C 
BRANCH  16  17
ATOM     17  C   UNL     1      -9.776 -11.884  -0.464  1.00  0.00     0.000 C 
BRANCH  17  18
ATOM     18  C   UNL     1      -9.799 -10.423  -0.929  1.00  0.00     0.000 C 
BRANCH  18  19
ATOM     19  C   UNL     1     -10.194 -10.323  -2.410  1.00  0.00     0.000 C 
BRANCH  19  20
ATOM     20  C   UNL     1      -9.209 -11.054  -3.341  1.00  0.00     0.006 C 
BRANCH  20  21
ATOM     21  C   UNL     1      -9.042 -10.401  -4.723  1.00  0.00     0.053 C 
BRANCH  21  22
ATOM     22  C   UNL     1     -10.357 -10.195  -5.410  1.00  0.00     0.041 C 
ATOM     23  O   UNL     1     -10.630  -9.084  -5.935  1.00  0.00    -0.550 OA
ATOM     24  O   UNL     1     -11.291 -11.223  -5.445  1.00  0.00    -0.550 OA
ENDBRANCH  21  22
ENDBRANCH  20  21
ENDBRANCH  19  20
ENDBRANCH  18  19
ENDBRANCH  17  18
ENDBRANCH  16  17
ENDBRANCH  15  16
ENDBRANCH  14  15
ENDBRANCH  13  14
ENDBRANCH   1  13
TORSDOF 20
ENDMDL
MODEL 3
REMARK VINA RESULT:    -1.457      1.665      3.679
REMARK INTER + INTRA:          -3.564
REMARK INTER:                  -2.648
REMARK INTRA:                  -0.916
REMARK UNBOUND:                -0.404
REMARK SMILES CCCCCCCCCCCCCCCCCCCCCC(=O)[O-]
REMARK SMILES IDX 12 1 11 2 10 3 9 4 8 5 7 6 6 7 5 8 4 9 3 10 2 11 1 12 13 13
REMARK SMILES IDX 14 14 15 15 16 16 17 17 18 18 19 19 20 20 21 21 22 22 23 23
REMARK SMILES IDX 24 24
REMARK H PARENT
REMARK Flexibility Score: inf
ROOT
ATOM      1  C   UNL     1     -11.271  -8.637   1.316  1.00  0.00     0.000 C 
ENDROOT
BRANCH   1   2
ATOM      2  C   UNL     1     -11.992  -9.816   1.998  1.00  0.00     0.000 C 
BRANCH   2   3
ATOM      3  C   UNL     1     -11.122 -11.065   2.234  1.00  0.00     0.000 C 
BRANCH   3   4
ATOM      4  C   UNL     1     -11.743 -12.125   3.162  1.00  0.00    -0.000 C 
BRANCH   4   5
ATOM      5  C   UNL     1     -12.124 -11.567   4.542  1.00  0.00    -0.000 C 
BRANCH   5   6
ATOM      6  C   UNL     1     -11.063 -11.932   5.590  1.00  0.00    -0.000 C 
BRANCH   6   7
ATOM      7  C   UNL     1     -11.647 -12.080   7.005  1.00  0.00    -0.000 C 
BRANCH   7   8
ATOM      8  C   UNL     1     -11.698 -10.744   7.766  1.00  0.00    -0.000 C 
BRANCH   8   9
ATOM      9  C   UNL     1     -10.514 -10.574   8.732  1.00  0.00    -0.000 C 
BRANCH   9  10
ATOM     10  C   UNL     1     -10.731  -9.423   9.731  1.00  0.00    -0.000 C 
BRANCH  10  11
ATOM     11  C   UNL     1     -11.057  -9.926  11.146  1.00  0.00    -0.003 C 
ATOM     12  C   UNL     1     -11.053 -11.451  11.251  1.00  0.00     0.004 C 
ENDBRANCH  10  11
ENDBRANCH   9  10
ENDBRANCH   8   9
ENDBRANCH   7   8
ENDBRANCH   6   7
ENDBRANCH   5   6
ENDBRANCH   4   5
ENDBRANCH   3   4
ENDBRANCH   2   3
ENDBRANCH   1   2
BRANCH   1  13
ATOM     13  C   UNL     1     -12.116  -7.928   0.237  1.00  0.00     0.000 C 
BRANCH  13  14
ATOM     14  C   UNL     1     -12.102  -8.672  -1.111  1.00  0.00     0.000 C 
BRANCH  14  15
ATOM     15  C   UNL     1     -10.907  -9.641  -1.229  1.00  0.00     0.000 C 
BRANCH  15  16
ATOM     16  C   UNL     1     -11.294 -11.033  -1.756  1.00  0.00     0.000 C 
BRANCH  16  17
ATOM     17  C   UNL     1     -11.774 -11.006  -3.214  1.00  0.00     0.000 C 
BRANCH  17  18
ATOM     18  C   UNL     1     -11.109  -9.864  -3.991  1.00  0.00     0.000 C 
BRANCH  18  19
ATOM     19  C   UNL     1     -10.674 -10.331  -5.388  1.00  0.00     0.000 C 
BRANCH  19  20
ATOM     20  C   UNL     1      -9.526 -11.355  -5.345  1.00  0.00     0.006 C 
BRANCH  20  21
ATOM     21  C   UNL     1      -8.345 -10.944  -4.452  1.00  0.00     0.053 C 
BRANCH  21  22
ATOM     22  C   UNL     1      -7.414  -9.999  -5.148  1.00  0.00     0.041 C 
ATOM     23  O   UNL     1      -6.170 -10.100  -4.985  1.00  0.00    -0.550 OA
ATOM     24  O   UNL     1      -7.924  -8.990  -5.956  1.00  0.00    -0.550 OA
ENDBRANCH  21  22
ENDBRANCH  20  21
ENDBRANCH  19  20
ENDBRANCH  18  19
ENDBRANCH  17  18
ENDBRANCH  16  17
ENDBRANCH  15  16
ENDBRANCH  14  15
ENDBRANCH  13  14
ENDBRANCH   1  13
TORSDOF 20
ENDMDL
MODEL 4
REMARK VINA RESULT:     0.082      5.717     11.336
REMARK INTER + INTRA:          -0.226
REMARK INTER:                  -1.339
REMARK INTRA:                   1.112
REMARK UNBOUND:                -0.404
REMARK SMILES CCCCCCCCCCCCCCCCCCCCCC(=O)[O-]
REMARK SMILES IDX 12 1 11 2 10 3 9 4 8 5 7 6 6 7 5 8 4 9 3 10 2 11 1 12 13 13
REMARK SMILES IDX 14 14 15 15 16 16 17 17 18 18 19 19 20 20 21 21 22 22 23 23
REMARK SMILES IDX 24 24
REMARK H PARENT
REMARK Flexibility Score: inf
ROOT
ATOM      1  C   UNL     1     -12.123 -10.360   1.924  1.00  0.00     0.000 C 
ENDROOT
BRANCH   1   2
ATOM      2  C   UNL     1     -11.468  -9.066   1.406  1.00  0.00     0.000 C 
BRANCH   2   3
ATOM      3  C   UNL     1     -11.959  -8.593   0.025  1.00  0.00     0.000 C 
BRANCH   3   4
ATOM      4  C   UNL     1     -12.124  -9.707  -1.025  1.00  0.00    -0.000 C 
BRANCH   4   5
ATOM      5  C   UNL     1     -10.841  -9.973  -1.827  1.00  0.00    -0.000 C 
BRANCH   5   6
ATOM      6  C   UNL     1     -11.160 -10.174  -3.316  1.00  0.00    -0.000 C 
BRANCH   6   7
ATOM      7  C   UNL     1     -10.516 -11.442  -3.898  1.00  0.00    -0.000 C 
BRANCH   7   8
ATOM      8  C   UNL     1     -10.262 -11.335  -5.412  1.00  0.00    -0.000 C 
BRANCH   8   9
ATOM      9  C   UNL     1      -9.006 -10.511  -5.739  1.00  0.00    -0.000 C 
BRANCH   9  10
ATOM     10  C   UNL     1      -7.723 -11.146  -5.173  1.00  0.00    -0.000 C 
BRANCH  10  11
ATOM     11  C   UNL     1      -6.686 -10.096  -4.746  1.00  0.00    -0.003 C 
ATOM     12  C   UNL     1      -5.933  -9.488  -5.930  1.00  0.00     0.004 C 
ENDBRANCH  10  11
ENDBRANCH   9  10
ENDBRANCH   8   9
ENDBRANCH   7   8
ENDBRANCH   6   7
ENDBRANCH   5   6
ENDBRANCH   4   5
ENDBRANCH   3   4
ENDBRANCH   2   3
ENDBRANCH   1   2
BRANCH   1  13
ATOM     13  C   UNL     1     -11.446 -10.944   3.182  1.00  0.00     0.000 C 
BRANCH  13  14
ATOM     14  C   UNL     1     -10.508 -12.121   2.858  1.00  0.00     0.000 C 
BRANCH  14  15
ATOM     15  C   UNL     1     -10.062 -12.121   1.380  1.00  0.00     0.000 C 
BRANCH  15  16
ATOM     16  C   UNL     1      -8.676 -11.495   1.155  1.00  0.00     0.000 C 
BRANCH  16  17
ATOM     17  C   UNL     1      -7.706 -11.763   2.314  1.00  0.00     0.000 C 
BRANCH  17  18
ATOM     18  C   UNL     1      -8.466 -12.125   3.596  1.00  0.00     0.000 C 
BRANCH  18  19
ATOM     19  C   UNL     1      -7.564 -11.980   4.830  1.00  0.00     0.000 C 
BRANCH  19  20
ATOM     20  C   UNL     1      -6.073 -11.856   4.469  1.00  0.00     0.006 C 
BRANCH  20  21
ATOM     21  C   UNL     1      -5.604 -10.416   4.206  1.00  0.00     0.053 C 
BRANCH  21  22
ATOM     22  C   UNL     1      -4.327 -10.375   3.424  1.00  0.00     0.041 C 
ATOM     23  O   UNL     1      -4.356 -10.342   2.166  1.00  0.00    -0.550 OA
ATOM     24  O   UNL     1      -3.105 -10.400   4.086  1.00  0.00    -0.550 OA
ENDBRANCH  21  22
ENDBRANCH  20  21
ENDBRANCH  19  20
ENDBRANCH  18  19
ENDBRANCH  17  18
ENDBRANCH  16  17
ENDBRANCH  15  16
ENDBRANCH  14  15
ENDBRANCH  13  14
ENDBRANCH   1  13
TORSDOF 20
ENDMDL
MODEL 5
REMARK VINA RESULT:     0.436      5.294     11.746
REMARK INTER + INTRA:           0.542
REMARK INTER:                  -0.047
REMARK INTRA:                   0.589
REMARK UNBOUND:                -0.404
REMARK SMILES CCCCCCCCCCCCCCCCCCCCCC(=O)[O-]
REMARK SMILES IDX 12 1 11 2 10 3 9 4 8 5 7 6 6 7 5 8 4 9 3 10 2 11 1 12 13 13
REMARK SMILES IDX 14 14 15 15 16 16 17 17 18 18 19 19 20 20 21 21 22 22 23 23
REMARK SMILES IDX 24 24
REMARK H PARENT
REMARK Flexibility Score: inf
ROOT
ATOM      1  C   UNL     1     -12.117 -10.295   1.954  1.00  0.00     0.000 C 
ENDROOT
BRANCH   1   2
ATOM      2  C   UNL     1     -11.560  -8.941   1.475  1.00  0.00     0.000 C 
BRANCH   2   3
ATOM      3  C   UNL     1     -12.119  -8.444   0.128  1.00  0.00     0.000 C 
BRANCH   3   4
ATOM      4  C   UNL     1     -12.029  -9.457  -1.028  1.00  0.00    -0.000 C 
BRANCH   4   5
ATOM      5  C   UNL     1     -10.653  -9.469  -1.710  1.00  0.00    -0.000 C 
BRANCH   5   6
ATOM      6  C   UNL     1     -10.766  -9.962  -3.160  1.00  0.00    -0.000 C 
BRANCH   6   7
ATOM      7  C   UNL     1      -9.709 -11.020  -3.515  1.00  0.00    -0.000 C 
BRANCH   7   8
ATOM      8  C   UNL     1      -9.704 -11.371  -5.013  1.00  0.00    -0.000 C 
BRANCH   8   9
ATOM      9  C   UNL     1      -8.280 -11.472  -5.587  1.00  0.00    -0.000 C 
BRANCH   9  10
ATOM     10  C   UNL     1      -7.247 -10.720  -4.731  1.00  0.00    -0.000 C 
BRANCH  10  11
ATOM     11  C   UNL     1      -6.802  -9.396  -5.373  1.00  0.00    -0.003 C 
ATOM     12  C   UNL     1      -7.964  -8.610  -5.980  1.00  0.00     0.004 C 
ENDBRANCH  10  11
ENDBRANCH   9  10
ENDBRANCH   8   9
ENDBRANCH   7   8
ENDBRANCH   6   7
ENDBRANCH   5   6
ENDBRANCH   4   5
ENDBRANCH   3   4
ENDBRANCH   2   3
ENDBRANCH   1   2
BRANCH   1  13
ATOM     13  C   UNL     1     -11.304 -10.935   3.099  1.00  0.00     0.000 C 
BRANCH  13  14
ATOM     14  C   UNL     1     -10.400 -12.083   2.614  1.00  0.00     0.000 C 
BRANCH  14  15
ATOM     15  C   UNL     1     -10.236 -12.088   1.080  1.00  0.00     0.000 C 
BRANCH  15  16
ATOM     16  C   UNL     1      -8.923 -11.447   0.599  1.00  0.00     0.000 C 
BRANCH  16  17
ATOM     17  C   UNL     1      -7.756 -11.681   1.568  1.00  0.00     0.000 C 
BRANCH  17  18
ATOM     18  C   UNL     1      -8.263 -11.879   3.002  1.00  0.00     0.000 C 
BRANCH  18  19
ATOM     19  C   UNL     1      -7.095 -12.124   3.969  1.00  0.00     0.000 C 
BRANCH  19  20
ATOM     20  C   UNL     1      -7.401 -11.661   5.405  1.00  0.00     0.006 C 
BRANCH  20  21
ATOM     21  C   UNL     1      -8.883 -11.345   5.665  1.00  0.00     0.053 C 
BRANCH  21  22
ATOM     22  C   UNL     1      -9.223 -11.399   7.122  1.00  0.00     0.041 C 
ATOM     23  O   UNL     1     -10.424 -11.347   7.495  1.00  0.00    -0.550 OA
ATOM     24  O   UNL     1      -8.209 -11.479   8.070  1.00  0.00    -0.550 OA
ENDBRANCH  21  22
ENDBRANCH  20  21
ENDBRANCH  19  20
ENDBRANCH  18  19
ENDBRANCH  17  18
ENDBRANCH  16  17
ENDBRANCH  15  16
ENDBRANCH  14  15
ENDBRANCH  13  14
ENDBRANCH   1  13
TORSDOF 20
ENDMDL
