MODEL 1
REMARK VINA RESULT:     9.725      0.000      0.000
REMARK INTER + INTRA:          13.861
REMARK INTER:                  13.421
REMARK INTRA:                   0.439
REMARK UNBOUND:                 0.439
REMARK SMILES C=C(CC[C@@H](C(=O)[O-])[C@@H]1CC[C@@]2(C)C3=C(CC[C@@]12C)[C@]1(C)CC[C@@H](O)C(C)(C)[C@H]1CC3)C(C)C
REMARK SMILES IDX 4 1 5 2 6 3 7 4 8 5 9 6 10 7 18 8 11 9 12 10 17 11 19 12
REMARK SMILES IDX 13 13 14 14 16 15 15 16 31 17 20 18 30 19 29 20 22 21 21 22
REMARK SMILES IDX 26 23 23 24 24 25 27 26 28 27 25 28 3 30 2 31 1 32 32 33
REMARK SMILES IDX 33 34 34 35
REMARK H PARENT 25 29
REMARK Flexibility Score: inf
ROOT
ATOM      1  C   UNL     1      11.494 -31.276  12.055  1.00  0.00     0.014 C 
ENDROOT
BRANCH   1   2
ATOM      2  C   UNL     1      10.744 -32.621  12.209  1.00  0.00     0.039 C 
BRANCH   2   3
ATOM      3  C   UNL     1      11.759 -33.733  12.354  1.00  0.00     0.045 C 
ATOM      4  O   UNL     1      12.930 -33.586  11.909  1.00  0.00    -0.550 OA
ATOM      5  O   UNL     1      11.411 -34.922  12.985  1.00  0.00    -0.550 OA
ENDBRANCH   2   3
BRANCH   2   6
ATOM      6  C   UNL     1       9.755 -32.644  13.428  1.00  0.00     0.004 C 
ATOM      7  C   UNL     1       9.957 -33.920  14.282  1.00  0.00     0.006 C 
ATOM      8  C   UNL     1       8.201 -32.587  13.165  1.00  0.00    -0.020 C 
ATOM      9  C   UNL     1       8.578 -34.419  14.692  1.00  0.00     0.012 C 
ATOM     10  C   UNL     1       7.612 -33.240  14.465  1.00  0.00    -0.006 C 
ATOM     11  C   UNL     1       7.601 -31.170  13.006  1.00  0.00     0.012 C 
ATOM     12  C   UNL     1       7.834 -33.387  11.875  1.00  0.00     0.012 C 
ATOM     13  C   UNL     1       6.161 -33.768  14.298  1.00  0.00     0.017 C 
ATOM     14  C   UNL     1       7.624 -32.271  15.688  1.00  0.00    -0.064 C 
ATOM     15  C   UNL     1       7.878 -30.254  14.185  1.00  0.00     0.032 C 
ATOM     16  C   UNL     1       7.670 -30.900  15.549  1.00  0.00    -0.064 C 
ATOM     17  C   UNL     1       7.593 -32.911  17.082  1.00  0.00     0.032 C 
ATOM     18  C   UNL     1       7.399 -29.948  16.746  1.00  0.00    -0.008 C 
ATOM     19  C   UNL     1       7.142 -31.996  18.214  1.00  0.00     0.009 C 
ATOM     20  C   UNL     1       7.856 -30.643  18.077  1.00  0.00     0.007 C 
ATOM     21  C   UNL     1       8.208 -28.625  16.601  1.00  0.00     0.014 C 
ATOM     22  C   UNL     1       5.877 -29.636  16.686  1.00  0.00     0.016 C 
ATOM     23  C   UNL     1       7.888 -29.759  19.394  1.00  0.00    -0.006 C 
ATOM     24  C   UNL     1       8.104 -27.720  17.832  1.00  0.00     0.033 C 
ATOM     25  C   UNL     1       8.633 -28.419  19.088  1.00  0.00     0.120 C 
ATOM     26  C   UNL     1       6.484 -29.486  20.007  1.00  0.00     0.014 C 
ATOM     27  C   UNL     1       8.719 -30.502  20.480  1.00  0.00     0.014 C 
BRANCH  25  28
ATOM     28  O   UNL     1       8.524 -27.527  20.172  1.00  0.00    -0.393 OA
ATOM     29  H   UNL     1       8.104 -26.694  19.836  1.00  0.00     0.210 HD
ENDBRANCH  25  28
ENDBRANCH   2   6
ENDBRANCH   1   2
BRANCH   1  30
ATOM     30  C   UNL     1      12.462 -30.956  13.213  1.00  0.00     0.031 C 
BRANCH  30  31
ATOM     31  C   UNL     1      12.299 -29.540  13.735  1.00  0.00    -0.075 C 
ATOM     32  C   UNL     1      13.350 -28.698  13.691  1.00  0.00     0.008 C 
BRANCH  31  33
ATOM     33  C   UNL     1      10.929 -29.048  14.189  1.00  0.00     0.008 C 
ATOM     34  C   UNL     1      10.372 -28.005  13.211  1.00  0.00     0.012 C 
ATOM     35  C   UNL     1      10.963 -28.494  15.620  1.00  0.00     0.012 C 
ENDBRANCH  31  33
ENDBRANCH  30  31
ENDBRANCH   1  30
TORSDOF 7
ENDMDL
MODEL 2
REMARK VINA RESULT:    11.970      2.219      4.344
REMARK INTER + INTRA:          16.958
REMARK INTER:                  16.688
REMARK INTRA:                   0.270
REMARK UNBOUND:                 0.439
REMARK SMILES C=C(CC[C@@H](C(=O)[O-])[C@@H]1CC[C@@]2(C)C3=C(CC[C@@]12C)[C@]1(C)CC[C@@H](O)C(C)(C)[C@H]1CC3)C(C)C
REMARK SMILES IDX 4 1 5 2 6 3 7 4 8 5 9 6 10 7 18 8 11 9 12 10 17 11 19 12
REMARK SMILES IDX 13 13 14 14 16 15 15 16 31 17 20 18 30 19 29 20 22 21 21 22
REMARK SMILES IDX 26 23 23 24 24 25 27 26 28 27 25 28 3 30 2 31 1 32 32 33
REMARK SMILES IDX 33 34 34 35
REMARK H PARENT 25 29
REMARK Flexibility Score: inf
ROOT
ATOM      1  C   UNL     1      11.704 -27.299  15.476  1.00  0.00     0.014 C 
ENDROOT
BRANCH   1   2
ATOM      2  C   UNL     1      11.765 -28.108  14.159  1.00  0.00     0.039 C 
BRANCH   2   3
ATOM      3  C   UNL     1      13.205 -28.470  13.873  1.00  0.00     0.045 C 
ATOM      4  O   UNL     1      13.526 -29.669  13.649  1.00  0.00    -0.550 OA
ATOM      5  O   UNL     1      14.185 -27.484  13.849  1.00  0.00    -0.550 OA
ENDBRANCH   2   3
BRANCH   2   6
ATOM      6  C   UNL     1      10.888 -29.410  14.190  1.00  0.00     0.004 C 
ATOM      7  C   UNL     1      11.697 -30.636  13.700  1.00  0.00     0.006 C 
ATOM      8  C   UNL     1       9.550 -29.461  13.355  1.00  0.00    -0.020 C 
ATOM      9  C   UNL     1      10.775 -31.475  12.826  1.00  0.00     0.012 C 
ATOM     10  C   UNL     1       9.342 -31.003  13.142  1.00  0.00    -0.006 C 
ATOM     11  C   UNL     1       8.299 -28.885  14.060  1.00  0.00     0.012 C 
ATOM     12  C   UNL     1       9.714 -28.689  12.008  1.00  0.00     0.012 C 
ATOM     13  C   UNL     1       8.397 -31.349  11.959  1.00  0.00     0.017 C 
ATOM     14  C   UNL     1       8.791 -31.720  14.413  1.00  0.00    -0.064 C 
ATOM     15  C   UNL     1       8.003 -29.530  15.402  1.00  0.00     0.032 C 
ATOM     16  C   UNL     1       8.111 -31.049  15.408  1.00  0.00    -0.064 C 
ATOM     17  C   UNL     1       9.045 -33.228  14.525  1.00  0.00     0.032 C 
ATOM     18  C   UNL     1       7.329 -31.807  16.517  1.00  0.00    -0.008 C 
ATOM     19  C   UNL     1       8.132 -33.978  15.489  1.00  0.00     0.009 C 
ATOM     20  C   UNL     1       8.028 -33.183  16.799  1.00  0.00     0.007 C 
ATOM     21  C   UNL     1       7.322 -30.998  17.847  1.00  0.00     0.014 C 
ATOM     22  C   UNL     1       5.875 -31.935  15.979  1.00  0.00     0.016 C 
ATOM     23  C   UNL     1       7.535 -34.014  18.057  1.00  0.00    -0.006 C 
ATOM     24  C   UNL     1       6.706 -31.771  19.017  1.00  0.00     0.033 C 
ATOM     25  C   UNL     1       7.471 -33.067  19.298  1.00  0.00     0.120 C 
ATOM     26  C   UNL     1       6.174 -34.739  17.842  1.00  0.00     0.014 C 
ATOM     27  C   UNL     1       8.587 -35.115  18.379  1.00  0.00     0.014 C 
BRANCH  25  28
ATOM     28  O   UNL     1       6.864 -33.714  20.391  1.00  0.00    -0.393 OA
ATOM     29  H   UNL     1       6.965 -33.126  21.184  1.00  0.00     0.210 HD
ENDBRANCH  25  28
ENDBRANCH   2   6
ENDBRANCH   1   2
BRANCH   1  30
ATOM     30  C   UNL     1      11.417 -28.152  16.729  1.00  0.00     0.031 C 
BRANCH  30  31
ATOM     31  C   UNL     1      10.254 -27.616  17.546  1.00  0.00    -0.075 C 
ATOM     32  C   UNL     1       9.956 -26.304  17.483  1.00  0.00     0.008 C 
BRANCH  31  33
ATOM     33  C   UNL     1       9.366 -28.578  18.330  1.00  0.00     0.008 C 
ATOM     34  C   UNL     1       7.955 -27.999  18.503  1.00  0.00     0.012 C 
ATOM     35  C   UNL     1       9.978 -28.946  19.688  1.00  0.00     0.012 C 
ENDBRANCH  31  33
ENDBRANCH  30  31
ENDBRANCH   1  30
TORSDOF 7
ENDMDL
