MODEL 1
REMARK VINA RESULT:    -4.408      0.000      0.000
REMARK INTER + INTRA:          -6.092
REMARK INTER:                  -5.954
REMARK INTRA:                  -0.138
REMARK UNBOUND:                -0.138
REMARK SMILES CCCCCCCC(=O)[O-]
REMARK SMILES IDX 5 1 6 2 7 3 8 4 9 5 10 6 4 7 3 8 2 9 1 10
REMARK H PARENT
REMARK Flexibility Score: inf
ROOT
ATOM      1  C   UNL     1      15.495   0.108  40.932  1.00  0.00     0.000 C 
ENDROOT
BRANCH   1   2
ATOM      2  C   UNL     1      15.870   1.582  40.719  1.00  0.00     0.006 C 
BRANCH   2   3
ATOM      3  C   UNL     1      17.390   1.754  40.644  1.00  0.00     0.053 C 
BRANCH   3   4
ATOM      4  C   UNL     1      17.764   3.192  40.813  1.00  0.00     0.041 C 
ATOM      5  O   UNL     1      18.841   3.503  41.389  1.00  0.00    -0.550 OA
ATOM      6  O   UNL     1      16.901   4.191  40.381  1.00  0.00    -0.550 OA
ENDBRANCH   3   4
ENDBRANCH   2   3
ENDBRANCH   1   2
BRANCH   1   7
ATOM      7  C   UNL     1      13.989  -0.151  40.757  1.00  0.00     0.000 C 
BRANCH   7   8
ATOM      8  C   UNL     1      13.697  -1.346  39.839  1.00  0.00    -0.000 C 
BRANCH   8   9
ATOM      9  C   UNL     1      14.154  -2.660  40.485  1.00  0.00    -0.003 C 
ATOM     10  C   UNL     1      13.744  -3.863  39.641  1.00  0.00     0.004 C 
ENDBRANCH   8   9
ENDBRANCH   7   8
ENDBRANCH   1   7
TORSDOF 6
ENDMDL
MODEL 2
REMARK VINA RESULT:    -4.320      3.476      6.062
REMARK INTER + INTRA:          -5.973
REMARK INTER:                  -5.821
REMARK INTRA:                  -0.152
REMARK UNBOUND:                -0.138
REMARK SMILES CCCCCCCC(=O)[O-]
REMARK SMILES IDX 5 1 6 2 7 3 8 4 9 5 10 6 4 7 3 8 2 9 1 10
REMARK H PARENT
REMARK Flexibility Score: inf
ROOT
ATOM      1  C   UNL     1      16.061   1.470  40.516  1.00  0.00     0.000 C 
ENDROOT
BRANCH   1   2
ATOM      2  C   UNL     1      15.555   0.131  41.073  1.00  0.00     0.006 C 
BRANCH   2   3
ATOM      3  C   UNL     1      14.381  -0.397  40.245  1.00  0.00     0.053 C 
BRANCH   3   4
ATOM      4  C   UNL     1      14.168  -1.854  40.507  1.00  0.00     0.041 C 
ATOM      5  O   UNL     1      14.919  -2.470  41.310  1.00  0.00    -0.550 OA
ATOM      6  O   UNL     1      13.172  -2.545  39.829  1.00  0.00    -0.550 OA
ENDBRANCH   3   4
ENDBRANCH   2   3
ENDBRANCH   1   2
BRANCH   1   7
ATOM      7  C   UNL     1      16.921   2.246  41.527  1.00  0.00     0.000 C 
BRANCH   7   8
ATOM      8  C   UNL     1      17.884   3.233  40.852  1.00  0.00    -0.000 C 
BRANCH   8   9
ATOM      9  C   UNL     1      19.173   2.529  40.412  1.00  0.00    -0.003 C 
ATOM     10  C   UNL     1      20.363   2.979  41.254  1.00  0.00     0.004 C 
ENDBRANCH   8   9
ENDBRANCH   7   8
ENDBRANCH   1   7
TORSDOF 6
ENDMDL
MODEL 3
REMARK VINA RESULT:    -4.268      1.127      1.465
REMARK INTER + INTRA:          -5.903
REMARK INTER:                  -5.708
REMARK INTRA:                  -0.195
REMARK UNBOUND:                -0.138
REMARK SMILES CCCCCCCC(=O)[O-]
REMARK SMILES IDX 5 1 6 2 7 3 8 4 9 5 10 6 4 7 3 8 2 9 1 10
REMARK H PARENT
REMARK Flexibility Score: inf
ROOT
ATOM      1  C   UNL     1      15.578   1.420  40.774  1.00  0.00     0.000 C 
ENDROOT
BRANCH   1   2
ATOM      2  C   UNL     1      17.088   1.693  40.714  1.00  0.00     0.006 C 
BRANCH   2   3
ATOM      3  C   UNL     1      17.367   3.107  40.194  1.00  0.00     0.053 C 
BRANCH   3   4
ATOM      4  C   UNL     1      16.754   4.128  41.097  1.00  0.00     0.041 C 
ATOM      5  O   UNL     1      16.996   4.108  42.333  1.00  0.00    -0.550 OA
ATOM      6  O   UNL     1      15.875   5.074  40.583  1.00  0.00    -0.550 OA
ENDBRANCH   3   4
ENDBRANCH   2   3
ENDBRANCH   1   2
BRANCH   1   7
ATOM      7  C   UNL     1      15.252  -0.078  40.891  1.00  0.00     0.000 C 
BRANCH   7   8
ATOM      8  C   UNL     1      14.015  -0.481  40.074  1.00  0.00    -0.000 C 
BRANCH   8   9
ATOM      9  C   UNL     1      13.889  -2.006  39.986  1.00  0.00    -0.003 C 
ATOM     10  C   UNL     1      14.613  -2.689  41.142  1.00  0.00     0.004 C 
ENDBRANCH   8   9
ENDBRANCH   7   8
ENDBRANCH   1   7
TORSDOF 6
ENDMDL
MODEL 4
REMARK VINA RESULT:    -4.166      4.653      5.826
REMARK INTER + INTRA:          -5.766
REMARK INTER:                  -5.474
REMARK INTRA:                  -0.292
REMARK UNBOUND:                -0.138
REMARK SMILES CCCCCCCC(=O)[O-]
REMARK SMILES IDX 5 1 6 2 7 3 8 4 9 5 10 6 4 7 3 8 2 9 1 10
REMARK H PARENT
REMARK Flexibility Score: inf
ROOT
ATOM      1  C   UNL     1      16.429   4.358  41.532  1.00  0.00     0.000 C 
ENDROOT
BRANCH   1   2
ATOM      2  C   UNL     1      17.183   5.696  41.570  1.00  0.00     0.006 C 
BRANCH   2   3
ATOM      3  C   UNL     1      16.551   6.708  40.611  1.00  0.00     0.053 C 
BRANCH   3   4
ATOM      4  C   UNL     1      17.241   8.031  40.715  1.00  0.00     0.041 C 
ATOM      5  O   UNL     1      17.763   8.556  39.696  1.00  0.00    -0.550 OA
ATOM      6  O   UNL     1      17.351   8.663  41.947  1.00  0.00    -0.550 OA
ENDBRANCH   3   4
ENDBRANCH   2   3
ENDBRANCH   1   2
BRANCH   1   7
ATOM      7  C   UNL     1      16.909   3.440  40.395  1.00  0.00     0.000 C 
BRANCH   7   8
ATOM      8  C   UNL     1      17.882   2.356  40.881  1.00  0.00    -0.000 C 
BRANCH   8   9
ATOM      9  C   UNL     1      19.270   2.545  40.258  1.00  0.00    -0.003 C 
ATOM     10  C   UNL     1      20.292   2.973  41.306  1.00  0.00     0.004 C 
ENDBRANCH   8   9
ENDBRANCH   7   8
ENDBRANCH   1   7
TORSDOF 6
ENDMDL
MODEL 5
REMARK VINA RESULT:    -4.012      4.386      5.758
REMARK INTER + INTRA:          -5.557
REMARK INTER:                  -5.251
REMARK INTRA:                  -0.306
REMARK UNBOUND:                -0.138
REMARK SMILES CCCCCCCC(=O)[O-]
REMARK SMILES IDX 5 1 6 2 7 3 8 4 9 5 10 6 4 7 3 8 2 9 1 10
REMARK H PARENT
REMARK Flexibility Score: inf
ROOT
ATOM      1  C   UNL     1      17.112   3.497  41.726  1.00  0.00     0.000 C 
ENDROOT
BRANCH   1   2
ATOM      2  C   UNL     1      16.320   4.710  41.216  1.00  0.00     0.006 C 
BRANCH   2   3
ATOM      3  C   UNL     1      17.011   6.019  41.612  1.00  0.00     0.053 C 
BRANCH   3   4
ATOM      4  C   UNL     1      16.403   7.174  40.882  1.00  0.00     0.041 C 
ATOM      5  O   UNL     1      17.023   7.720  39.931  1.00  0.00    -0.550 OA
ATOM      6  O   UNL     1      15.173   7.681  41.283  1.00  0.00    -0.550 OA
ENDBRANCH   3   4
ENDBRANCH   2   3
ENDBRANCH   1   2
BRANCH   1   7
ATOM      7  C   UNL     1      17.471   2.509  40.603  1.00  0.00     0.000 C 
BRANCH   7   8
ATOM      8  C   UNL     1      18.981   2.441  40.335  1.00  0.00    -0.000 C 
BRANCH   8   9
ATOM      9  C   UNL     1      19.763   3.225  41.396  1.00  0.00    -0.003 C 
ATOM     10  C   UNL     1      21.178   2.679  41.555  1.00  0.00     0.004 C 
ENDBRANCH   8   9
ENDBRANCH   7   8
ENDBRANCH   1   7
TORSDOF 6
ENDMDL
MODEL 6
REMARK VINA RESULT:    -3.973      3.288      6.217
REMARK INTER + INTRA:          -5.505
REMARK INTER:                  -5.367
REMARK INTRA:                  -0.137
REMARK UNBOUND:                -0.138
REMARK SMILES CCCCCCCC(=O)[O-]
REMARK SMILES IDX 5 1 6 2 7 3 8 4 9 5 10 6 4 7 3 8 2 9 1 10
REMARK H PARENT
REMARK Flexibility Score: inf
ROOT
ATOM      1  C   UNL     1      16.976   1.558  40.645  1.00  0.00     0.000 C 
ENDROOT
BRANCH   1   2
ATOM      2  C   UNL     1      15.510   1.191  40.924  1.00  0.00     0.006 C 
BRANCH   2   3
ATOM      3  C   UNL     1      15.327  -0.329  40.973  1.00  0.00     0.053 C 
BRANCH   3   4
ATOM      4  C   UNL     1      13.914  -0.697  40.648  1.00  0.00     0.041 C 
ATOM      5  O   UNL     1      13.597  -1.016  39.471  1.00  0.00    -0.550 OA
ATOM      6  O   UNL     1      12.937  -0.641  41.634  1.00  0.00    -0.550 OA
ENDBRANCH   3   4
ENDBRANCH   2   3
ENDBRANCH   1   2
BRANCH   1   7
ATOM      7  C   UNL     1      17.378   2.904  41.269  1.00  0.00     0.000 C 
BRANCH   7   8
ATOM      8  C   UNL     1      16.800   4.106  40.509  1.00  0.00    -0.000 C 
BRANCH   8   9
ATOM      9  C   UNL     1      16.830   5.370  41.376  1.00  0.00    -0.003 C 
ATOM     10  C   UNL     1      16.433   6.603  40.570  1.00  0.00     0.004 C 
ENDBRANCH   8   9
ENDBRANCH   7   8
ENDBRANCH   1   7
TORSDOF 6
ENDMDL
MODEL 7
REMARK VINA RESULT:    -3.933      3.356      5.869
REMARK INTER + INTRA:          -5.451
REMARK INTER:                  -5.251
REMARK INTRA:                  -0.200
REMARK UNBOUND:                -0.138
REMARK SMILES CCCCCCCC(=O)[O-]
REMARK SMILES IDX 5 1 6 2 7 3 8 4 9 5 10 6 4 7 3 8 2 9 1 10
REMARK H PARENT
REMARK Flexibility Score: inf
ROOT
ATOM      1  C   UNL     1      15.062  -0.253  40.627  1.00  0.00     0.000 C 
ENDROOT
BRANCH   1   2
ATOM      2  C   UNL     1      13.944  -0.973  41.396  1.00  0.00     0.006 C 
BRANCH   2   3
ATOM      3  C   UNL     1      12.595  -0.795  40.692  1.00  0.00     0.053 C 
BRANCH   3   4
ATOM      4  C   UNL     1      11.663   0.009  41.541  1.00  0.00     0.041 C 
ATOM      5  O   UNL     1      10.638  -0.527  42.040  1.00  0.00    -0.550 OA
ATOM      6  O   UNL     1      11.899   1.363  41.743  1.00  0.00    -0.550 OA
ENDBRANCH   3   4
ENDBRANCH   2   3
ENDBRANCH   1   2
BRANCH   1   7
ATOM      7  C   UNL     1      15.505   1.051  41.309  1.00  0.00     0.000 C 
BRANCH   7   8
ATOM      8  C   UNL     1      16.712   1.702  40.618  1.00  0.00    -0.000 C 
BRANCH   8   9
ATOM      9  C   UNL     1      17.385   2.727  41.538  1.00  0.00    -0.003 C 
ATOM     10  C   UNL     1      18.885   2.807  41.273  1.00  0.00     0.004 C 
ENDBRANCH   8   9
ENDBRANCH   7   8
ENDBRANCH   1   7
TORSDOF 6
ENDMDL
MODEL 8
REMARK VINA RESULT:    -3.921      5.377      6.585
REMARK INTER + INTRA:          -5.434
REMARK INTER:                  -4.996
REMARK INTRA:                  -0.438
REMARK UNBOUND:                -0.138
REMARK SMILES CCCCCCCC(=O)[O-]
REMARK SMILES IDX 5 1 6 2 7 3 8 4 9 5 10 6 4 7 3 8 2 9 1 10
REMARK H PARENT
REMARK Flexibility Score: inf
ROOT
ATOM      1  C   UNL     1      12.341  -0.094  41.416  1.00  0.00     0.000 C 
ENDROOT
BRANCH   1   2
ATOM      2  C   UNL     1      10.862  -0.477  41.257  1.00  0.00     0.006 C 
BRANCH   2   3
ATOM      3  C   UNL     1      10.584  -1.013  39.850  1.00  0.00     0.053 C 
BRANCH   3   4
ATOM      4  C   UNL     1       9.794  -2.281  39.918  1.00  0.00     0.041 C 
ATOM      5  O   UNL     1       8.660  -2.293  40.468  1.00  0.00    -0.550 OA
ATOM      6  O   UNL     1      10.329  -3.462  39.420  1.00  0.00    -0.550 OA
ENDBRANCH   3   4
ENDBRANCH   2   3
ENDBRANCH   1   2
BRANCH   1   7
ATOM      7  C   UNL     1      13.246  -0.789  40.385  1.00  0.00     0.000 C 
BRANCH   7   8
ATOM      8  C   UNL     1      14.591  -1.230  40.979  1.00  0.00    -0.000 C 
BRANCH   8   9
ATOM      9  C   UNL     1      14.703  -2.759  41.009  1.00  0.00    -0.003 C 
ATOM     10  C   UNL     1      13.817  -3.399  39.944  1.00  0.00     0.004 C 
ENDBRANCH   8   9
ENDBRANCH   7   8
ENDBRANCH   1   7
TORSDOF 6
ENDMDL
MODEL 9
REMARK VINA RESULT:    -3.819      1.542      2.220
REMARK INTER + INTRA:          -5.297
REMARK INTER:                  -5.001
REMARK INTRA:                  -0.296
REMARK UNBOUND:                -0.138
REMARK SMILES CCCCCCCC(=O)[O-]
REMARK SMILES IDX 5 1 6 2 7 3 8 4 9 5 10 6 4 7 3 8 2 9 1 10
REMARK H PARENT
REMARK Flexibility Score: inf
ROOT
ATOM      1  C   UNL     1      15.122  -0.637  40.979  1.00  0.00     0.000 C 
ENDROOT
BRANCH   1   2
ATOM      2  C   UNL     1      15.217   0.896  40.998  1.00  0.00     0.006 C 
BRANCH   2   3
ATOM      3  C   UNL     1      16.629   1.361  40.628  1.00  0.00     0.053 C 
BRANCH   3   4
ATOM      4  C   UNL     1      16.876   2.745  41.139  1.00  0.00     0.041 C 
ATOM      5  O   UNL     1      17.597   2.925  42.156  1.00  0.00    -0.550 OA
ATOM      6  O   UNL     1      16.270   3.833  40.523  1.00  0.00    -0.550 OA
ENDBRANCH   3   4
ENDBRANCH   2   3
ENDBRANCH   1   2
BRANCH   1   7
ATOM      7  C   UNL     1      13.672  -1.141  41.055  1.00  0.00     0.000 C 
BRANCH   7   8
ATOM      8  C   UNL     1      12.798  -0.609  39.909  1.00  0.00    -0.000 C 
BRANCH   8   9
ATOM      9  C   UNL     1      11.346  -0.426  40.366  1.00  0.00    -0.003 C 
ATOM     10  C   UNL     1      11.278   0.245  41.735  1.00  0.00     0.004 C 
ENDBRANCH   8   9
ENDBRANCH   7   8
ENDBRANCH   1   7
TORSDOF 6
ENDMDL
