MODEL 1
REMARK VINA RESULT:    -5.917      0.000      0.000
REMARK INTER + INTRA:          -8.726
REMARK INTER:                  -7.301
REMARK INTRA:                  -1.425
REMARK UNBOUND:                -1.425
REMARK SMILES CC(C)=CCC[C@@H](C)c1ccc(C)cc1
REMARK SMILES IDX 6 1 7 2 8 3 9 4 13 5 12 6 11 7 14 8 10 9 15 10 5 11 4 12
REMARK SMILES IDX 2 13 1 14 3 15
REMARK H PARENT
REMARK Flexibility Score: inf
ROOT
ATOM      1  C   UNL     1      -2.735 -48.915  18.170  1.00  0.00     0.012 C 
ENDROOT
BRANCH   1   2
ATOM      2  C   UNL     1      -2.522 -48.888  16.636  1.00  0.00     0.016 C 
ATOM      3  C   UNL     1      -3.523 -49.784  15.890  1.00  0.00     0.013 C 
BRANCH   2   4
ATOM      4  C   UNL     1      -2.600 -47.461  16.121  1.00  0.00    -0.045 A 
ATOM      5  C   UNL     1      -2.798 -43.395  14.678  1.00  0.00     0.044 C 
ATOM      6  C   UNL     1      -2.751 -44.800  15.200  1.00  0.00    -0.051 A 
ATOM      7  C   UNL     1      -3.575 -45.788  14.644  1.00  0.00     0.004 A 
ATOM      8  C   UNL     1      -1.837 -45.152  16.202  1.00  0.00     0.004 A 
ATOM      9  C   UNL     1      -3.507 -47.107  15.103  1.00  0.00     0.004 A 
ATOM     10  C   UNL     1      -1.767 -46.469  16.665  1.00  0.00     0.004 A 
ENDBRANCH   2   4
ENDBRANCH   1   2
BRANCH   1  11
ATOM     11  C   UNL     1      -4.205 -48.786  18.607  1.00  0.00     0.028 C 
BRANCH  11  12
ATOM     12  C   UNL     1      -4.445 -47.570  19.470  1.00  0.00    -0.028 C 
ATOM     13  C   UNL     1      -5.159 -46.487  19.088  1.00  0.00    -0.080 C 
ATOM     14  C   UNL     1      -5.315 -45.324  20.033  1.00  0.00     0.039 C 
ATOM     15  C   UNL     1      -5.877 -46.424  17.761  1.00  0.00     0.039 C 
ENDBRANCH  11  12
ENDBRANCH   1  11
TORSDOF 4
ENDMDL
MODEL 2
REMARK VINA RESULT:    -5.701      1.342      3.954
REMARK INTER + INTRA:          -8.459
REMARK INTER:                  -6.889
REMARK INTRA:                  -1.570
REMARK UNBOUND:                -1.425
REMARK SMILES CC(C)=CCC[C@@H](C)c1ccc(C)cc1
REMARK SMILES IDX 6 1 7 2 8 3 9 4 13 5 12 6 11 7 14 8 10 9 15 10 5 11 4 12
REMARK SMILES IDX 2 13 1 14 3 15
REMARK H PARENT
REMARK Flexibility Score: inf
ROOT
ATOM      1  C   UNL     1      -4.195 -48.956  16.938  1.00  0.00     0.012 C 
ENDROOT
BRANCH   1   2
ATOM      2  C   UNL     1      -5.019 -48.644  18.212  1.00  0.00     0.016 C 
ATOM      3  C   UNL     1      -4.288 -49.060  19.498  1.00  0.00     0.013 C 
BRANCH   2   4
ATOM      4  C   UNL     1      -5.376 -47.169  18.257  1.00  0.00    -0.045 A 
ATOM      5  C   UNL     1      -6.383 -42.972  18.418  1.00  0.00     0.044 C 
ATOM      6  C   UNL     1      -6.063 -44.436  18.367  1.00  0.00    -0.051 A 
ATOM      7  C   UNL     1      -6.094 -45.124  17.146  1.00  0.00     0.004 A 
ATOM      8  C   UNL     1      -5.666 -45.114  19.528  1.00  0.00     0.004 A 
ATOM      9  C   UNL     1      -5.760 -46.480  17.090  1.00  0.00     0.004 A 
ATOM     10  C   UNL     1      -5.333 -46.470  19.476  1.00  0.00     0.004 A 
ENDBRANCH   2   4
ENDBRANCH   1   2
BRANCH   1  11
ATOM     11  C   UNL     1      -2.688 -48.674  17.074  1.00  0.00     0.028 C 
BRANCH  11  12
ATOM     12  C   UNL     1      -2.274 -47.404  16.370  1.00  0.00    -0.028 C 
ATOM     13  C   UNL     1      -1.972 -46.244  16.996  1.00  0.00    -0.080 C 
ATOM     14  C   UNL     1      -1.588 -45.035  16.183  1.00  0.00     0.039 C 
ATOM     15  C   UNL     1      -1.934 -46.128  18.500  1.00  0.00     0.039 C 
ENDBRANCH  11  12
ENDBRANCH   1  11
TORSDOF 4
ENDMDL
MODEL 3
REMARK VINA RESULT:    -5.695      0.948      4.456
REMARK INTER + INTRA:          -8.452
REMARK INTER:                  -6.979
REMARK INTRA:                  -1.473
REMARK UNBOUND:                -1.425
REMARK SMILES CC(C)=CCC[C@@H](C)c1ccc(C)cc1
REMARK SMILES IDX 6 1 7 2 8 3 9 4 13 5 12 6 11 7 14 8 10 9 15 10 5 11 4 12
REMARK SMILES IDX 2 13 1 14 3 15
REMARK H PARENT
REMARK Flexibility Score: inf
ROOT
ATOM      1  C   UNL     1      -3.868 -48.711  16.084  1.00  0.00     0.012 C 
ENDROOT
BRANCH   1   2
ATOM      2  C   UNL     1      -3.851 -48.869  17.625  1.00  0.00     0.016 C 
ATOM      3  C   UNL     1      -2.424 -48.925  18.192  1.00  0.00     0.013 C 
BRANCH   2   4
ATOM      4  C   UNL     1      -4.637 -47.745  18.275  1.00  0.00    -0.045 A 
ATOM      5  C   UNL     1      -6.892 -44.543  20.097  1.00  0.00     0.044 C 
ATOM      6  C   UNL     1      -6.087 -45.634  19.456  1.00  0.00    -0.051 A 
ATOM      7  C   UNL     1      -5.128 -46.335  20.200  1.00  0.00     0.004 A 
ATOM      8  C   UNL     1      -6.334 -46.007  18.127  1.00  0.00     0.004 A 
ATOM      9  C   UNL     1      -4.403 -47.378  19.614  1.00  0.00     0.004 A 
ATOM     10  C   UNL     1      -5.611 -47.047  17.539  1.00  0.00     0.004 A 
ENDBRANCH   2   4
ENDBRANCH   1   2
BRANCH   1  11
ATOM     11  C   UNL     1      -2.649 -47.966  15.511  1.00  0.00     0.028 C 
BRANCH  11  12
ATOM     12  C   UNL     1      -2.991 -46.568  15.052  1.00  0.00    -0.028 C 
ATOM     13  C   UNL     1      -2.705 -45.442  15.744  1.00  0.00    -0.080 C 
ATOM     14  C   UNL     1      -3.114 -44.102  15.191  1.00  0.00     0.039 C 
ATOM     15  C   UNL     1      -1.918 -45.468  17.032  1.00  0.00     0.039 C 
ENDBRANCH  11  12
ENDBRANCH   1  11
TORSDOF 4
ENDMDL
MODEL 4
REMARK VINA RESULT:    -5.470      1.486      4.122
REMARK INTER + INTRA:          -8.175
REMARK INTER:                  -6.725
REMARK INTRA:                  -1.449
REMARK UNBOUND:                -1.425
REMARK SMILES CC(C)=CCC[C@@H](C)c1ccc(C)cc1
REMARK SMILES IDX 6 1 7 2 8 3 9 4 13 5 12 6 11 7 14 8 10 9 15 10 5 11 4 12
REMARK SMILES IDX 2 13 1 14 3 15
REMARK H PARENT
REMARK Flexibility Score: inf
ROOT
ATOM      1  C   UNL     1      -4.655 -46.651  18.450  1.00  0.00     0.012 C 
ENDROOT
BRANCH   1   2
ATOM      2  C   UNL     1      -3.753 -47.867  18.772  1.00  0.00     0.016 C 
ATOM      3  C   UNL     1      -4.540 -49.034  19.389  1.00  0.00     0.013 C 
BRANCH   2   4
ATOM      4  C   UNL     1      -3.021 -48.323  17.522  1.00  0.00    -0.045 A 
ATOM      5  C   UNL     1      -0.969 -49.617  13.948  1.00  0.00     0.044 C 
ATOM      6  C   UNL     1      -1.685 -49.198  15.197  1.00  0.00    -0.051 A 
ATOM      7  C   UNL     1      -0.967 -48.957  16.377  1.00  0.00     0.004 A 
ATOM      8  C   UNL     1      -3.069 -48.977  15.178  1.00  0.00     0.004 A 
ATOM      9  C   UNL     1      -1.628 -48.530  17.533  1.00  0.00     0.004 A 
ATOM     10  C   UNL     1      -3.733 -48.551  16.332  1.00  0.00     0.004 A 
ENDBRANCH   2   4
ENDBRANCH   1   2
BRANCH   1  11
ATOM     11  C   UNL     1      -3.888 -45.336  18.225  1.00  0.00     0.028 C 
BRANCH  11  12
ATOM     12  C   UNL     1      -4.044 -44.811  16.818  1.00  0.00    -0.028 C 
ATOM     13  C   UNL     1      -3.030 -44.675  15.933  1.00  0.00    -0.080 C 
ATOM     14  C   UNL     1      -3.307 -44.121  14.559  1.00  0.00     0.039 C 
ATOM     15  C   UNL     1      -1.625 -45.128  16.245  1.00  0.00     0.039 C 
ENDBRANCH  11  12
ENDBRANCH   1  11
TORSDOF 4
ENDMDL
MODEL 5
REMARK VINA RESULT:    -5.380      1.508      3.522
REMARK INTER + INTRA:          -8.063
REMARK INTER:                  -6.652
REMARK INTRA:                  -1.411
REMARK UNBOUND:                -1.425
REMARK SMILES CC(C)=CCC[C@@H](C)c1ccc(C)cc1
REMARK SMILES IDX 6 1 7 2 8 3 9 4 13 5 12 6 11 7 14 8 10 9 15 10 5 11 4 12
REMARK SMILES IDX 2 13 1 14 3 15
REMARK H PARENT
REMARK Flexibility Score: inf
ROOT
ATOM      1  C   UNL     1      -4.723 -46.519  19.661  1.00  0.00     0.012 C 
ENDROOT
BRANCH   1   2
ATOM      2  C   UNL     1      -3.610 -45.461  19.458  1.00  0.00     0.016 C 
ATOM      3  C   UNL     1      -2.236 -45.958  19.932  1.00  0.00     0.013 C 
BRANCH   2   4
ATOM      4  C   UNL     1      -3.549 -45.038  18.001  1.00  0.00    -0.045 A 
ATOM      5  C   UNL     1      -3.408 -43.824  13.858  1.00  0.00     0.044 C 
ATOM      6  C   UNL     1      -3.466 -44.274  15.287  1.00  0.00    -0.051 A 
ATOM      7  C   UNL     1      -2.325 -44.799  15.910  1.00  0.00     0.004 A 
ATOM      8  C   UNL     1      -4.642 -44.111  16.033  1.00  0.00     0.004 A 
ATOM      9  C   UNL     1      -2.366 -45.185  17.253  1.00  0.00     0.004 A 
ATOM     10  C   UNL     1      -4.686 -44.497  17.376  1.00  0.00     0.004 A 
ENDBRANCH   2   4
ENDBRANCH   1   2
BRANCH   1  11
ATOM     11  C   UNL     1      -4.244 -47.975  19.522  1.00  0.00     0.028 C 
BRANCH  11  12
ATOM     12  C   UNL     1      -4.466 -48.524  18.132  1.00  0.00    -0.028 C 
ATOM     13  C   UNL     1      -3.477 -48.885  17.283  1.00  0.00    -0.080 C 
ATOM     14  C   UNL     1      -3.823 -49.404  15.911  1.00  0.00     0.039 C 
ATOM     15  C   UNL     1      -2.022 -48.855  17.684  1.00  0.00     0.039 C 
ENDBRANCH  11  12
ENDBRANCH   1  11
TORSDOF 4
ENDMDL
MODEL 6
REMARK VINA RESULT:    -5.323      1.731      4.349
REMARK INTER + INTRA:          -7.993
REMARK INTER:                  -6.476
REMARK INTRA:                  -1.517
REMARK UNBOUND:                -1.425
REMARK SMILES CC(C)=CCC[C@@H](C)c1ccc(C)cc1
REMARK SMILES IDX 6 1 7 2 8 3 9 4 13 5 12 6 11 7 14 8 10 9 15 10 5 11 4 12
REMARK SMILES IDX 2 13 1 14 3 15
REMARK H PARENT
REMARK Flexibility Score: inf
ROOT
ATOM      1  C   UNL     1      -3.448 -44.532  19.268  1.00  0.00     0.012 C 
ENDROOT
BRANCH   1   2
ATOM      2  C   UNL     1      -3.556 -45.959  19.860  1.00  0.00     0.016 C 
ATOM      3  C   UNL     1      -4.984 -46.295  20.321  1.00  0.00     0.013 C 
BRANCH   2   4
ATOM      4  C   UNL     1      -3.070 -46.984  18.851  1.00  0.00    -0.045 A 
ATOM      5  C   UNL     1      -1.715 -49.914  15.981  1.00  0.00     0.044 C 
ATOM      6  C   UNL     1      -2.172 -48.914  17.000  1.00  0.00    -0.051 A 
ATOM      7  C   UNL     1      -1.351 -47.832  17.347  1.00  0.00     0.004 A 
ATOM      8  C   UNL     1      -3.452 -49.015  17.565  1.00  0.00     0.004 A 
ATOM      9  C   UNL     1      -1.792 -46.878  18.269  1.00  0.00     0.004 A 
ATOM     10  C   UNL     1      -3.894 -48.063  18.488  1.00  0.00     0.004 A 
ENDBRANCH   2   4
ENDBRANCH   1   2
BRANCH   1  11
ATOM     11  C   UNL     1      -4.659 -44.106  18.418  1.00  0.00     0.028 C 
BRANCH  11  12
ATOM     12  C   UNL     1      -4.491 -44.458  16.959  1.00  0.00    -0.028 C 
ATOM     13  C   UNL     1      -5.269 -45.336  16.287  1.00  0.00    -0.080 C 
ATOM     14  C   UNL     1      -4.992 -45.619  14.833  1.00  0.00     0.039 C 
ATOM     15  C   UNL     1      -6.465 -46.001  16.923  1.00  0.00     0.039 C 
ENDBRANCH  11  12
ENDBRANCH   1  11
TORSDOF 4
ENDMDL
MODEL 7
REMARK VINA RESULT:    -5.318      1.294      4.223
REMARK INTER + INTRA:          -7.986
REMARK INTER:                  -6.535
REMARK INTRA:                  -1.452
REMARK UNBOUND:                -1.425
REMARK SMILES CC(C)=CCC[C@@H](C)c1ccc(C)cc1
REMARK SMILES IDX 6 1 7 2 8 3 9 4 13 5 12 6 11 7 14 8 10 9 15 10 5 11 4 12
REMARK SMILES IDX 2 13 1 14 3 15
REMARK H PARENT
REMARK Flexibility Score: inf
ROOT
ATOM      1  C   UNL     1      -3.277 -49.308  14.515  1.00  0.00     0.012 C 
ENDROOT
BRANCH   1   2
ATOM      2  C   UNL     1      -2.810 -49.928  15.856  1.00  0.00     0.016 C 
ATOM      3  C   UNL     1      -1.285 -50.108  15.919  1.00  0.00     0.013 C 
BRANCH   2   4
ATOM      4  C   UNL     1      -3.294 -49.082  17.021  1.00  0.00    -0.045 A 
ATOM      5  C   UNL     1      -4.701 -46.686  20.327  1.00  0.00     0.044 C 
ATOM      6  C   UNL     1      -4.215 -47.493  19.161  1.00  0.00    -0.051 A 
ATOM      7  C   UNL     1      -2.843 -47.577  18.881  1.00  0.00     0.004 A 
ATOM      8  C   UNL     1      -5.121 -48.224  18.380  1.00  0.00     0.004 A 
ATOM      9  C   UNL     1      -2.385 -48.359  17.817  1.00  0.00     0.004 A 
ATOM     10  C   UNL     1      -4.666 -49.006  17.315  1.00  0.00     0.004 A 
ENDBRANCH   2   4
ENDBRANCH   1   2
BRANCH   1  11
ATOM     11  C   UNL     1      -2.798 -47.864  14.286  1.00  0.00     0.028 C 
BRANCH  11  12
ATOM     12  C   UNL     1      -3.848 -46.843  14.652  1.00  0.00    -0.028 C 
ATOM     13  C   UNL     1      -3.618 -45.739  15.398  1.00  0.00    -0.080 C 
ATOM     14  C   UNL     1      -4.754 -44.800  15.714  1.00  0.00     0.039 C 
ATOM     15  C   UNL     1      -2.236 -45.365  15.876  1.00  0.00     0.039 C 
ENDBRANCH  11  12
ENDBRANCH   1  11
TORSDOF 4
ENDMDL
MODEL 8
REMARK VINA RESULT:    -5.317      1.824      3.953
REMARK INTER + INTRA:          -7.985
REMARK INTER:                  -6.767
REMARK INTRA:                  -1.217
REMARK UNBOUND:                -1.425
REMARK SMILES CC(C)=CCC[C@@H](C)c1ccc(C)cc1
REMARK SMILES IDX 6 1 7 2 8 3 9 4 13 5 12 6 11 7 14 8 10 9 15 10 5 11 4 12
REMARK SMILES IDX 2 13 1 14 3 15
REMARK H PARENT
REMARK Flexibility Score: inf
ROOT
ATOM      1  C   UNL     1      -1.612 -47.275  18.209  1.00  0.00     0.012 C 
ENDROOT
BRANCH   1   2
ATOM      2  C   UNL     1      -2.742 -46.226  18.365  1.00  0.00     0.016 C 
ATOM      3  C   UNL     1      -2.405 -45.154  19.413  1.00  0.00     0.013 C 
BRANCH   2   4
ATOM      4  C   UNL     1      -3.047 -45.581  17.025  1.00  0.00    -0.045 A 
ATOM      5  C   UNL     1      -3.880 -43.735  13.209  1.00  0.00     0.044 C 
ATOM      6  C   UNL     1      -3.599 -44.349  14.548  1.00  0.00    -0.051 A 
ATOM      7  C   UNL     1      -4.605 -45.048  15.230  1.00  0.00     0.004 A 
ATOM      8  C   UNL     1      -2.311 -44.288  15.098  1.00  0.00     0.004 A 
ATOM      9  C   UNL     1      -4.335 -45.653  16.461  1.00  0.00     0.004 A 
ATOM     10  C   UNL     1      -2.039 -44.891  16.328  1.00  0.00     0.004 A 
ENDBRANCH   2   4
ENDBRANCH   1   2
BRANCH   1  11
ATOM     11  C   UNL     1      -2.088 -48.644  17.692  1.00  0.00     0.028 C 
BRANCH  11  12
ATOM     12  C   UNL     1      -1.143 -49.236  16.673  1.00  0.00    -0.028 C 
ATOM     13  C   UNL     1      -1.313 -49.159  15.334  1.00  0.00    -0.080 C 
ATOM     14  C   UNL     1      -0.309 -49.806  14.415  1.00  0.00     0.039 C 
ATOM     15  C   UNL     1      -2.446 -48.379  14.711  1.00  0.00     0.039 C 
ENDBRANCH  11  12
ENDBRANCH   1  11
TORSDOF 4
ENDMDL
MODEL 9
REMARK VINA RESULT:    -5.162      1.327      3.914
REMARK INTER + INTRA:          -7.794
REMARK INTER:                  -6.288
REMARK INTRA:                  -1.506
REMARK UNBOUND:                -1.425
REMARK SMILES CC(C)=CCC[C@@H](C)c1ccc(C)cc1
REMARK SMILES IDX 6 1 7 2 8 3 9 4 13 5 12 6 11 7 14 8 10 9 15 10 5 11 4 12
REMARK SMILES IDX 2 13 1 14 3 15
REMARK H PARENT
REMARK Flexibility Score: inf
ROOT
ATOM      1  C   UNL     1      -1.645 -46.092  16.761  1.00  0.00     0.012 C 
ENDROOT
BRANCH   1   2
ATOM      2  C   UNL     1      -2.890 -45.361  16.200  1.00  0.00     0.016 C 
ATOM      3  C   UNL     1      -3.473 -46.061  14.963  1.00  0.00     0.013 C 
BRANCH   2   4
ATOM      4  C   UNL     1      -3.948 -45.225  17.281  1.00  0.00    -0.045 A 
ATOM      5  C   UNL     1      -6.934 -44.828  20.377  1.00  0.00     0.044 C 
ATOM      6  C   UNL     1      -5.892 -44.995  19.311  1.00  0.00    -0.051 A 
ATOM      7  C   UNL     1      -6.255 -45.441  18.032  1.00  0.00     0.004 A 
ATOM      8  C   UNL     1      -4.559 -44.644  19.564  1.00  0.00     0.004 A 
ATOM      9  C   UNL     1      -5.291 -45.563  17.027  1.00  0.00     0.004 A 
ATOM     10  C   UNL     1      -3.594 -44.765  18.561  1.00  0.00     0.004 A 
ENDBRANCH   2   4
ENDBRANCH   1   2
BRANCH   1  11
ATOM     11  C   UNL     1      -1.802 -47.620  16.865  1.00  0.00     0.028 C 
BRANCH  11  12
ATOM     12  C   UNL     1      -2.481 -48.043  18.146  1.00  0.00    -0.028 C 
ATOM     13  C   UNL     1      -3.693 -48.638  18.211  1.00  0.00    -0.080 C 
ATOM     14  C   UNL     1      -4.276 -48.999  19.553  1.00  0.00     0.039 C 
ATOM     15  C   UNL     1      -4.466 -49.026  16.974  1.00  0.00     0.039 C 
ENDBRANCH  11  12
ENDBRANCH   1  11
TORSDOF 4
ENDMDL
