MODEL 1
REMARK VINA RESULT:    -3.564      0.000      0.000
REMARK INTER + INTRA:          -4.638
REMARK INTER:                  -4.397
REMARK INTRA:                  -0.240
REMARK UNBOUND:                -0.240
REMARK SMILES CCCCCC(=O)[O-]
REMARK SMILES IDX 4 1 5 2 6 3 7 4 8 5 3 6 2 7 1 8
REMARK H PARENT
REMARK Flexibility Score: inf
ROOT
ATOM      1  C   UNL     1      62.800  29.988  11.705  1.00  0.00     0.006 C 
ENDROOT
BRANCH   1   2
ATOM      2  C   UNL     1      62.847  29.266  10.352  1.00  0.00     0.053 C 
BRANCH   2   3
ATOM      3  C   UNL     1      61.478  29.084   9.771  1.00  0.00     0.041 C 
ATOM      4  O   UNL     1      61.149  27.986   9.251  1.00  0.00    -0.550 OA
ATOM      5  O   UNL     1      60.556  30.122   9.829  1.00  0.00    -0.550 OA
ENDBRANCH   2   3
ENDBRANCH   1   2
BRANCH   1   6
ATOM      6  C   UNL     1      62.664  29.007  12.882  1.00  0.00     0.000 C 
BRANCH   6   7
ATOM      7  C   UNL     1      61.313  29.135  13.603  1.00  0.00    -0.003 C 
ATOM      8  C   UNL     1      60.271  28.143  13.086  1.00  0.00     0.004 C 
ENDBRANCH   6   7
ENDBRANCH   1   6
TORSDOF 4
ENDMDL
MODEL 2
REMARK VINA RESULT:    -3.560      1.327      1.934
REMARK INTER + INTRA:          -4.633
REMARK INTER:                  -4.389
REMARK INTRA:                  -0.245
REMARK UNBOUND:                -0.240
REMARK SMILES CCCCCC(=O)[O-]
REMARK SMILES IDX 4 1 5 2 6 3 7 4 8 5 3 6 2 7 1 8
REMARK H PARENT
REMARK Flexibility Score: inf
ROOT
ATOM      1  C   UNL     1      60.656  30.245  11.455  1.00  0.00     0.006 C 
ENDROOT
BRANCH   1   2
ATOM      2  C   UNL     1      60.583  29.977   9.946  1.00  0.00     0.053 C 
BRANCH   2   3
ATOM      3  C   UNL     1      61.528  28.892   9.528  1.00  0.00     0.041 C 
ATOM      4  O   UNL     1      61.097  27.867   8.936  1.00  0.00    -0.550 OA
ATOM      5  O   UNL     1      62.890  29.026   9.769  1.00  0.00    -0.550 OA
ENDBRANCH   2   3
ENDBRANCH   1   2
BRANCH   1   6
ATOM      6  C   UNL     1      60.257  29.012  12.284  1.00  0.00     0.000 C 
BRANCH   6   7
ATOM      7  C   UNL     1      61.117  28.847  13.547  1.00  0.00    -0.003 C 
ATOM      8  C   UNL     1      62.612  28.998  13.269  1.00  0.00     0.004 C 
ENDBRANCH   6   7
ENDBRANCH   1   6
TORSDOF 4
ENDMDL
MODEL 3
REMARK VINA RESULT:    -3.460      2.288      3.727
REMARK INTER + INTRA:          -4.510
REMARK INTER:                  -4.349
REMARK INTRA:                  -0.161
REMARK UNBOUND:                -0.240
REMARK SMILES CCCCCC(=O)[O-]
REMARK SMILES IDX 4 1 5 2 6 3 7 4 8 5 3 6 2 7 1 8
REMARK H PARENT
REMARK Flexibility Score: inf
ROOT
ATOM      1  C   UNL     1      60.490  29.604  10.236  1.00  0.00     0.006 C 
ENDROOT
BRANCH   1   2
ATOM      2  C   UNL     1      60.424  30.018  11.712  1.00  0.00     0.053 C 
BRANCH   2   3
ATOM      3  C   UNL     1      60.187  28.842  12.610  1.00  0.00     0.041 C 
ATOM      4  O   UNL     1      61.086  28.457  13.403  1.00  0.00    -0.550 OA
ATOM      5  O   UNL     1      58.961  28.187  12.589  1.00  0.00    -0.550 OA
ENDBRANCH   2   3
ENDBRANCH   1   2
BRANCH   1   6
ATOM      6  C   UNL     1      61.674  28.664   9.950  1.00  0.00     0.000 C 
BRANCH   6   7
ATOM      7  C   UNL     1      63.027  29.289  10.326  1.00  0.00    -0.003 C 
ATOM      8  C   UNL     1      64.040  29.239   9.182  1.00  0.00     0.004 C 
ENDBRANCH   6   7
ENDBRANCH   1   6
TORSDOF 4
ENDMDL
MODEL 4
REMARK VINA RESULT:    -3.449     14.640     16.028
REMARK INTER + INTRA:          -4.495
REMARK INTER:                  -4.251
REMARK INTRA:                  -0.244
REMARK UNBOUND:                -0.240
REMARK SMILES CCCCCC(=O)[O-]
REMARK SMILES IDX 4 1 5 2 6 3 7 4 8 5 3 6 2 7 1 8
REMARK H PARENT
REMARK Flexibility Score: inf
ROOT
ATOM      1  C   UNL     1      61.138  27.133  26.554  1.00  0.00     0.006 C 
ENDROOT
BRANCH   1   2
ATOM      2  C   UNL     1      62.202  27.525  27.587  1.00  0.00     0.053 C 
BRANCH   2   3
ATOM      3  C   UNL     1      61.777  28.708  28.402  1.00  0.00     0.041 C 
ATOM      4  O   UNL     1      60.747  28.645  29.125  1.00  0.00    -0.550 OA
ATOM      5  O   UNL     1      62.535  29.873  28.384  1.00  0.00    -0.550 OA
ENDBRANCH   2   3
ENDBRANCH   1   2
BRANCH   1   6
ATOM      6  C   UNL     1      60.954  28.212  25.473  1.00  0.00     0.000 C 
BRANCH   6   7
ATOM      7  C   UNL     1      62.221  28.421  24.627  1.00  0.00    -0.003 C 
ATOM      8  C   UNL     1      62.841  29.804  24.824  1.00  0.00     0.004 C 
ENDBRANCH   6   7
ENDBRANCH   1   6
TORSDOF 4
ENDMDL
MODEL 5
REMARK VINA RESULT:    -3.435     14.673     15.721
REMARK INTER + INTRA:          -4.478
REMARK INTER:                  -4.294
REMARK INTRA:                  -0.184
REMARK UNBOUND:                -0.240
REMARK SMILES CCCCCC(=O)[O-]
REMARK SMILES IDX 4 1 5 2 6 3 7 4 8 5 3 6 2 7 1 8
REMARK H PARENT
REMARK Flexibility Score: inf
ROOT
ATOM      1  C   UNL     1      62.619  29.748  25.569  1.00  0.00     0.006 C 
ENDROOT
BRANCH   1   2
ATOM      2  C   UNL     1      63.269  29.189  26.842  1.00  0.00     0.053 C 
BRANCH   2   3
ATOM      3  C   UNL     1      62.596  29.697  28.080  1.00  0.00     0.041 C 
ATOM      4  O   UNL     1      63.044  30.713  28.674  1.00  0.00    -0.550 OA
ATOM      5  O   UNL     1      61.456  29.064  28.561  1.00  0.00    -0.550 OA
ENDBRANCH   2   3
ENDBRANCH   1   2
BRANCH   1   6
ATOM      6  C   UNL     1      62.104  28.634  24.643  1.00  0.00     0.000 C 
BRANCH   6   7
ATOM      7  C   UNL     1      61.665  27.380  25.416  1.00  0.00    -0.003 C 
ATOM      8  C   UNL     1      60.147  27.200  25.437  1.00  0.00     0.004 C 
ENDBRANCH   6   7
ENDBRANCH   1   6
TORSDOF 4
ENDMDL
MODEL 6
REMARK VINA RESULT:    -3.423      1.822      2.529
REMARK INTER + INTRA:          -4.464
REMARK INTER:                  -4.291
REMARK INTRA:                  -0.172
REMARK UNBOUND:                -0.240
REMARK SMILES CCCCCC(=O)[O-]
REMARK SMILES IDX 4 1 5 2 6 3 7 4 8 5 3 6 2 7 1 8
REMARK H PARENT
REMARK Flexibility Score: inf
ROOT
ATOM      1  C   UNL     1      60.737  28.748  12.607  1.00  0.00     0.006 C 
ENDROOT
BRANCH   1   2
ATOM      2  C   UNL     1      60.324  29.018  11.154  1.00  0.00     0.053 C 
BRANCH   2   3
ATOM      3  C   UNL     1      61.389  28.601  10.186  1.00  0.00     0.041 C 
ATOM      4  O   UNL     1      61.092  27.926   9.166  1.00  0.00    -0.550 OA
ATOM      5  O   UNL     1      62.709  28.982  10.399  1.00  0.00    -0.550 OA
ENDBRANCH   2   3
ENDBRANCH   1   2
BRANCH   1   6
ATOM      6  C   UNL     1      61.012  30.047  13.382  1.00  0.00     0.000 C 
BRANCH   6   7
ATOM      7  C   UNL     1      60.507  31.295  12.641  1.00  0.00    -0.003 C 
ATOM      8  C   UNL     1      61.350  32.537  12.931  1.00  0.00     0.004 C 
ENDBRANCH   6   7
ENDBRANCH   1   6
TORSDOF 4
ENDMDL
MODEL 7
REMARK VINA RESULT:    -3.365      1.800      2.836
REMARK INTER + INTRA:          -4.392
REMARK INTER:                  -4.165
REMARK INTRA:                  -0.227
REMARK UNBOUND:                -0.240
REMARK SMILES CCCCCC(=O)[O-]
REMARK SMILES IDX 4 1 5 2 6 3 7 4 8 5 3 6 2 7 1 8
REMARK H PARENT
REMARK Flexibility Score: inf
ROOT
ATOM      1  C   UNL     1      61.769  29.111  13.409  1.00  0.00     0.006 C 
ENDROOT
BRANCH   1   2
ATOM      2  C   UNL     1      60.559  28.579  12.630  1.00  0.00     0.053 C 
BRANCH   2   3
ATOM      3  C   UNL     1      60.585  29.013  11.197  1.00  0.00     0.041 C 
ATOM      4  O   UNL     1      60.013  30.078  10.845  1.00  0.00    -0.550 OA
ATOM      5  O   UNL     1      61.266  28.253  10.253  1.00  0.00    -0.550 OA
ENDBRANCH   2   3
ENDBRANCH   1   2
BRANCH   1   6
ATOM      6  C   UNL     1      61.471  30.453  14.099  1.00  0.00     0.000 C 
BRANCH   6   7
ATOM      7  C   UNL     1      62.104  31.646  13.367  1.00  0.00    -0.003 C 
ATOM      8  C   UNL     1      61.078  32.706  12.966  1.00  0.00     0.004 C 
ENDBRANCH   6   7
ENDBRANCH   1   6
TORSDOF 4
ENDMDL
MODEL 8
REMARK VINA RESULT:    -3.363     13.708     14.450
REMARK INTER + INTRA:          -4.390
REMARK INTER:                  -4.297
REMARK INTRA:                  -0.092
REMARK UNBOUND:                -0.240
REMARK SMILES CCCCCC(=O)[O-]
REMARK SMILES IDX 4 1 5 2 6 3 7 4 8 5 3 6 2 7 1 8
REMARK H PARENT
REMARK Flexibility Score: inf
ROOT
ATOM      1  C   UNL     1      63.004  27.977  25.046  1.00  0.00     0.006 C 
ENDROOT
BRANCH   1   2
ATOM      2  C   UNL     1      61.495  28.227  24.926  1.00  0.00     0.053 C 
BRANCH   2   3
ATOM      3  C   UNL     1      60.708  27.318  25.820  1.00  0.00     0.041 C 
ATOM      4  O   UNL     1      59.715  26.688  25.369  1.00  0.00    -0.550 OA
ATOM      5  O   UNL     1      61.088  27.147  27.145  1.00  0.00    -0.550 OA
ENDBRANCH   2   3
ENDBRANCH   1   2
BRANCH   1   6
ATOM      6  C   UNL     1      63.388  26.543  24.645  1.00  0.00     0.000 C 
BRANCH   6   7
ATOM      7  C   UNL     1      64.867  26.229  24.920  1.00  0.00    -0.003 C 
ATOM      8  C   UNL     1      65.672  26.002  23.641  1.00  0.00     0.004 C 
ENDBRANCH   6   7
ENDBRANCH   1   6
TORSDOF 4
ENDMDL
MODEL 9
REMARK VINA RESULT:    -3.317      2.493      4.042
REMARK INTER + INTRA:          -4.333
REMARK INTER:                  -4.113
REMARK INTRA:                  -0.219
REMARK UNBOUND:                -0.240
REMARK SMILES CCCCCC(=O)[O-]
REMARK SMILES IDX 4 1 5 2 6 3 7 4 8 5 3 6 2 7 1 8
REMARK H PARENT
REMARK Flexibility Score: inf
ROOT
ATOM      1  C   UNL     1      60.328  29.776  11.385  1.00  0.00     0.006 C 
ENDROOT
BRANCH   1   2
ATOM      2  C   UNL     1      60.418  28.886  12.632  1.00  0.00     0.053 C 
BRANCH   2   3
ATOM      3  C   UNL     1      61.640  29.190  13.445  1.00  0.00     0.041 C 
ATOM      4  O   UNL     1      61.532  29.742  14.571  1.00  0.00    -0.550 OA
ATOM      5  O   UNL     1      62.897  28.838  12.968  1.00  0.00    -0.550 OA
ENDBRANCH   2   3
ENDBRANCH   1   2
BRANCH   1   6
ATOM      6  C   UNL     1      60.043  28.962  10.112  1.00  0.00     0.000 C 
BRANCH   6   7
ATOM      7  C   UNL     1      61.306  28.297   9.541  1.00  0.00    -0.003 C 
ATOM      8  C   UNL     1      62.491  29.258   9.454  1.00  0.00     0.004 C 
ENDBRANCH   6   7
ENDBRANCH   1   6
TORSDOF 4
ENDMDL
