MODEL 1
REMARK VINA RESULT:    -2.758      0.000      0.000
REMARK INTER + INTRA:          -3.657
REMARK INTER:                  -3.564
REMARK INTRA:                  -0.093
REMARK UNBOUND:                -0.093
REMARK SMILES CCCCCCC(=O)[O-]
REMARK SMILES IDX 5 1 6 2 7 3 8 4 9 5 4 6 3 7 2 8 1 9
REMARK H PARENT
REMARK Flexibility Score: inf
ROOT
ATOM      1  C   UNL     1     -28.234   8.211  -3.686  1.00  0.00     0.006 C 
ENDROOT
BRANCH   1   2
ATOM      2  C   UNL     1     -27.702   8.023  -2.263  1.00  0.00     0.053 C 
BRANCH   2   3
ATOM      3  C   UNL     1     -28.789   7.534  -1.357  1.00  0.00     0.041 C 
ATOM      4  O   UNL     1     -28.634   7.564  -0.108  1.00  0.00    -0.550 OA
ATOM      5  O   UNL     1     -29.953   6.998  -1.894  1.00  0.00    -0.550 OA
ENDBRANCH   2   3
ENDBRANCH   1   2
BRANCH   1   6
ATOM      6  C   UNL     1     -27.155   7.874  -4.725  1.00  0.00     0.000 C 
BRANCH   6   7
ATOM      7  C   UNL     1     -27.119   8.875  -5.890  1.00  0.00    -0.000 C 
BRANCH   7   8
ATOM      8  C   UNL     1     -26.377   8.328  -7.118  1.00  0.00    -0.003 C 
ATOM      9  C   UNL     1     -24.875   8.573  -7.007  1.00  0.00     0.004 C 
ENDBRANCH   7   8
ENDBRANCH   6   7
ENDBRANCH   1   6
TORSDOF 5
ENDMDL
MODEL 2
REMARK VINA RESULT:    -2.566      1.138      1.420
REMARK INTER + INTRA:          -3.409
REMARK INTER:                  -3.340
REMARK INTRA:                  -0.069
REMARK UNBOUND:                -0.093
REMARK SMILES CCCCCCC(=O)[O-]
REMARK SMILES IDX 5 1 6 2 7 3 8 4 9 5 4 6 3 7 2 8 1 9
REMARK H PARENT
REMARK Flexibility Score: inf
ROOT
ATOM      1  C   UNL     1     -28.600   7.813  -2.495  1.00  0.00     0.006 C 
ENDROOT
BRANCH   1   2
ATOM      2  C   UNL     1     -28.222   7.818  -1.012  1.00  0.00     0.053 C 
BRANCH   2   3
ATOM      3  C   UNL     1     -29.356   7.308  -0.180  1.00  0.00     0.041 C 
ATOM      4  O   UNL     1     -29.320   7.412   1.074  1.00  0.00    -0.550 OA
ATOM      5  O   UNL     1     -30.432   6.670  -0.786  1.00  0.00    -0.550 OA
ENDBRANCH   2   3
ENDBRANCH   1   2
BRANCH   1   6
ATOM      6  C   UNL     1     -27.393   8.177  -3.371  1.00  0.00     0.000 C 
BRANCH   6   7
ATOM      7  C   UNL     1     -27.773   8.404  -4.842  1.00  0.00    -0.000 C 
BRANCH   7   8
ATOM      8  C   UNL     1     -26.577   8.254  -5.793  1.00  0.00    -0.003 C 
ATOM      9  C   UNL     1     -26.740   9.140  -7.025  1.00  0.00     0.004 C 
ENDBRANCH   7   8
ENDBRANCH   6   7
ENDBRANCH   1   6
TORSDOF 5
ENDMDL
MODEL 3
REMARK VINA RESULT:    -2.431      0.999      1.804
REMARK INTER + INTRA:          -3.235
REMARK INTER:                  -3.159
REMARK INTRA:                  -0.076
REMARK UNBOUND:                -0.093
REMARK SMILES CCCCCCC(=O)[O-]
REMARK SMILES IDX 5 1 6 2 7 3 8 4 9 5 4 6 3 7 2 8 1 9
REMARK H PARENT
REMARK Flexibility Score: inf
ROOT
ATOM      1  C   UNL     1     -28.266   7.843  -2.304  1.00  0.00     0.006 C 
ENDROOT
BRANCH   1   2
ATOM      2  C   UNL     1     -29.575   7.115  -1.988  1.00  0.00     0.053 C 
BRANCH   2   3
ATOM      3  C   UNL     1     -29.845   7.136  -0.516  1.00  0.00     0.041 C 
ATOM      4  O   UNL     1     -30.992   6.859  -0.078  1.00  0.00    -0.550 OA
ATOM      5  O   UNL     1     -28.841   7.510   0.369  1.00  0.00    -0.550 OA
ENDBRANCH   2   3
ENDBRANCH   1   2
BRANCH   1   6
ATOM      6  C   UNL     1     -28.310   8.470  -3.705  1.00  0.00     0.000 C 
BRANCH   6   7
ATOM      7  C   UNL     1     -27.190   7.953  -4.622  1.00  0.00    -0.000 C 
BRANCH   7   8
ATOM      8  C   UNL     1     -27.124   8.707  -5.958  1.00  0.00    -0.003 C 
ATOM      9  C   UNL     1     -25.761   8.532  -6.620  1.00  0.00     0.004 C 
ENDBRANCH   7   8
ENDBRANCH   6   7
ENDBRANCH   1   6
TORSDOF 5
ENDMDL
MODEL 4
REMARK VINA RESULT:    -2.211      1.649      2.428
REMARK INTER + INTRA:          -2.950
REMARK INTER:                  -2.884
REMARK INTRA:                  -0.066
REMARK UNBOUND:                -0.093
REMARK SMILES CCCCCCC(=O)[O-]
REMARK SMILES IDX 5 1 6 2 7 3 8 4 9 5 4 6 3 7 2 8 1 9
REMARK H PARENT
REMARK Flexibility Score: inf
ROOT
ATOM      1  C   UNL     1     -29.007   7.471  -1.693  1.00  0.00     0.006 C 
ENDROOT
BRANCH   1   2
ATOM      2  C   UNL     1     -30.249   6.718  -1.209  1.00  0.00     0.053 C 
BRANCH   2   3
ATOM      3  C   UNL     1     -30.646   7.183   0.157  1.00  0.00     0.041 C 
ATOM      4  O   UNL     1     -29.793   7.238   1.081  1.00  0.00    -0.550 OA
ATOM      5  O   UNL     1     -31.971   7.507   0.423  1.00  0.00    -0.550 OA
ENDBRANCH   2   3
ENDBRANCH   1   2
BRANCH   1   6
ATOM      6  C   UNL     1     -28.993   7.582  -3.224  1.00  0.00     0.000 C 
BRANCH   6   7
ATOM      7  C   UNL     1     -27.679   8.166  -3.765  1.00  0.00    -0.000 C 
BRANCH   7   8
ATOM      8  C   UNL     1     -27.784   8.598  -5.234  1.00  0.00    -0.003 C 
ATOM      9  C   UNL     1     -26.426   8.525  -5.927  1.00  0.00     0.004 C 
ENDBRANCH   7   8
ENDBRANCH   6   7
ENDBRANCH   1   6
TORSDOF 5
ENDMDL
MODEL 5
REMARK VINA RESULT:    -1.678      2.912      5.568
REMARK INTER + INTRA:          -2.261
REMARK INTER:                  -2.128
REMARK INTRA:                  -0.133
REMARK UNBOUND:                -0.093
REMARK SMILES CCCCCCC(=O)[O-]
REMARK SMILES IDX 5 1 6 2 7 3 8 4 9 5 4 6 3 7 2 8 1 9
REMARK H PARENT
REMARK Flexibility Score: inf
ROOT
ATOM      1  C   UNL     1     -27.566   8.203  -3.161  1.00  0.00     0.006 C 
ENDROOT
BRANCH   1   2
ATOM      2  C   UNL     1     -28.126   8.582  -4.534  1.00  0.00     0.053 C 
BRANCH   2   3
ATOM      3  C   UNL     1     -27.072   8.441  -5.587  1.00  0.00     0.041 C 
ATOM      4  O   UNL     1     -26.397   7.382  -5.671  1.00  0.00    -0.550 OA
ATOM      5  O   UNL     1     -26.801   9.499  -6.446  1.00  0.00    -0.550 OA
ENDBRANCH   2   3
ENDBRANCH   1   2
BRANCH   1   6
ATOM      6  C   UNL     1     -28.678   7.679  -2.240  1.00  0.00     0.000 C 
BRANCH   6   7
ATOM      7  C   UNL     1     -28.301   7.756  -0.752  1.00  0.00    -0.000 C 
BRANCH   7   8
ATOM      8  C   UNL     1     -29.454   7.340   0.172  1.00  0.00    -0.003 C 
ATOM      9  C   UNL     1     -30.607   6.738  -0.624  1.00  0.00     0.004 C 
ENDBRANCH   7   8
ENDBRANCH   6   7
ENDBRANCH   1   6
TORSDOF 5
ENDMDL
MODEL 6
REMARK VINA RESULT:    -1.423      3.350      5.534
REMARK INTER + INTRA:          -1.932
REMARK INTER:                  -1.797
REMARK INTRA:                  -0.135
REMARK UNBOUND:                -0.093
REMARK SMILES CCCCCCC(=O)[O-]
REMARK SMILES IDX 5 1 6 2 7 3 8 4 9 5 4 6 3 7 2 8 1 9
REMARK H PARENT
REMARK Flexibility Score: inf
ROOT
ATOM      1  C   UNL     1     -27.888   8.636  -4.555  1.00  0.00     0.006 C 
ENDROOT
BRANCH   1   2
ATOM      2  C   UNL     1     -26.747   7.870  -5.229  1.00  0.00     0.053 C 
BRANCH   2   3
ATOM      3  C   UNL     1     -26.237   8.625  -6.416  1.00  0.00     0.041 C 
ATOM      4  O   UNL     1     -27.028   9.301  -7.125  1.00  0.00    -0.550 OA
ATOM      5  O   UNL     1     -24.896   8.543  -6.768  1.00  0.00    -0.550 OA
ENDBRANCH   2   3
ENDBRANCH   1   2
BRANCH   1   6
ATOM      6  C   UNL     1     -28.551   7.785  -3.461  1.00  0.00     0.000 C 
BRANCH   6   7
ATOM      7  C   UNL     1     -27.922   8.006  -2.077  1.00  0.00    -0.000 C 
BRANCH   7   8
ATOM      8  C   UNL     1     -28.822   7.513  -0.934  1.00  0.00    -0.003 C 
ATOM      9  C   UNL     1     -30.067   6.817  -1.475  1.00  0.00     0.004 C 
ENDBRANCH   7   8
ENDBRANCH   6   7
ENDBRANCH   1   6
TORSDOF 5
ENDMDL
MODEL 7
REMARK VINA RESULT:     0.179      3.375      6.258
REMARK INTER + INTRA:           0.138
REMARK INTER:                   0.341
REMARK INTRA:                  -0.204
REMARK UNBOUND:                -0.093
REMARK SMILES CCCCCCC(=O)[O-]
REMARK SMILES IDX 5 1 6 2 7 3 8 4 9 5 4 6 3 7 2 8 1 9
REMARK H PARENT
REMARK Flexibility Score: inf
ROOT
ATOM      1  C   UNL     1     -28.557   7.425   0.311  1.00  0.00     0.006 C 
ENDROOT
BRANCH   1   2
ATOM      2  C   UNL     1     -29.112   7.729  -1.083  1.00  0.00     0.053 C 
BRANCH   2   3
ATOM      3  C   UNL     1     -27.996   7.957  -2.054  1.00  0.00     0.041 C 
ATOM      4  O   UNL     1     -28.223   7.952  -3.292  1.00  0.00    -0.550 OA
ATOM      5  O   UNL     1     -26.696   8.124  -1.593  1.00  0.00    -0.550 OA
ENDBRANCH   2   3
ENDBRANCH   1   2
BRANCH   1   6
ATOM      6  C   UNL     1     -29.692   7.265   1.332  1.00  0.00     0.000 C 
BRANCH   6   7
ATOM      7  C   UNL     1     -31.001   6.778   0.691  1.00  0.00    -0.000 C 
BRANCH   7   8
ATOM      8  C   UNL     1     -32.154   7.776   0.870  1.00  0.00    -0.003 C 
ATOM      9  C   UNL     1     -32.749   8.176  -0.477  1.00  0.00     0.004 C 
ENDBRANCH   7   8
ENDBRANCH   6   7
ENDBRANCH   1   6
TORSDOF 5
ENDMDL
