MODEL 1
REMARK VINA RESULT:    -1.981      0.000      0.000
REMARK INTER + INTRA:          -2.155
REMARK INTER:                  -2.155
REMARK INTRA:                   0.000
REMARK UNBOUND:                 0.000
REMARK SMILES [NH3+]CC(=O)[O-]
REMARK SMILES IDX 2 1 1 2 3 6 4 7 5 8
REMARK H PARENT 1 3 1 4 1 5
REMARK Flexibility Score: inf
ROOT
ATOM      1  C   UNL     1      19.239 -10.840   1.302  1.00  0.00     0.312 C 
ENDROOT
BRANCH   1   2
ATOM      2  N   UNL     1      18.708  -9.741   0.500  1.00  0.00    -0.353 N 
ATOM      3  H   UNL     1      17.829 -10.040   0.017  1.00  0.00     0.344 HD
ATOM      4  H   UNL     1      18.512  -8.912   1.109  1.00  0.00     0.344 HD
ATOM      5  H   UNL     1      19.415  -9.471  -0.221  1.00  0.00     0.344 HD
ENDBRANCH   1   2
BRANCH   1   6
ATOM      6  C   UNL     1      20.653 -10.561   1.712  1.00  0.00     0.096 C 
ATOM      7  O   UNL     1      21.119  -9.395   1.623  1.00  0.00    -0.544 OA
ATOM      8  O   UNL     1      21.437 -11.578   2.240  1.00  0.00    -0.544 OA
ENDBRANCH   1   6
TORSDOF 2
ENDMDL
MODEL 2
REMARK VINA RESULT:    -1.977      3.955      4.327
REMARK INTER + INTRA:          -2.150
REMARK INTER:                  -2.150
REMARK INTRA:                   0.000
REMARK UNBOUND:                 0.000
REMARK SMILES [NH3+]CC(=O)[O-]
REMARK SMILES IDX 2 1 1 2 3 6 4 7 5 8
REMARK H PARENT 1 3 1 4 1 5
REMARK Flexibility Score: inf
ROOT
ATOM      1  C   UNL     1      19.306  -6.450   3.051  1.00  0.00     0.312 C 
ENDROOT
BRANCH   1   2
ATOM      2  N   UNL     1      19.671  -5.037   3.131  1.00  0.00    -0.353 N 
ATOM      3  H   UNL     1      20.037  -4.708   2.208  1.00  0.00     0.344 HD
ATOM      4  H   UNL     1      18.837  -4.466   3.406  1.00  0.00     0.344 HD
ATOM      5  H   UNL     1      20.416  -4.917   3.854  1.00  0.00     0.344 HD
ENDBRANCH   1   2
BRANCH   1   6
ATOM      6  C   UNL     1      20.507  -7.319   3.269  1.00  0.00     0.096 C 
ATOM      7  O   UNL     1      20.496  -8.520   2.893  1.00  0.00    -0.544 OA
ATOM      8  O   UNL     1      21.656  -6.785   3.839  1.00  0.00    -0.544 OA
ENDBRANCH   1   6
TORSDOF 2
ENDMDL
MODEL 3
REMARK VINA RESULT:    -1.935      4.000      4.236
REMARK INTER + INTRA:          -2.105
REMARK INTER:                  -2.105
REMARK INTRA:                   0.000
REMARK UNBOUND:                 0.000
REMARK SMILES [NH3+]CC(=O)[O-]
REMARK SMILES IDX 2 1 1 2 3 6 4 7 5 8
REMARK H PARENT 1 3 1 4 1 5
REMARK Flexibility Score: inf
ROOT
ATOM      1  C   UNL     1      19.310  -6.391   3.197  1.00  0.00     0.312 C 
ENDROOT
BRANCH   1   2
ATOM      2  N   UNL     1      19.683  -4.978   3.173  1.00  0.00    -0.353 N 
ATOM      3  H   UNL     1      19.838  -4.631   4.147  1.00  0.00     0.344 HD
ATOM      4  H   UNL     1      20.553  -4.845   2.606  1.00  0.00     0.344 HD
ATOM      5  H   UNL     1      18.908  -4.428   2.736  1.00  0.00     0.344 HD
ENDBRANCH   1   2
BRANCH   1   6
ATOM      6  C   UNL     1      20.528  -7.257   3.300  1.00  0.00     0.096 C 
ATOM      7  O   UNL     1      21.580  -6.810   3.828  1.00  0.00    -0.544 OA
ATOM      8  O   UNL     1      20.484  -8.574   2.861  1.00  0.00    -0.544 OA
ENDBRANCH   1   6
TORSDOF 2
ENDMDL
MODEL 4
REMARK VINA RESULT:    -1.931      0.764      1.559
REMARK INTER + INTRA:          -2.101
REMARK INTER:                  -2.101
REMARK INTRA:                   0.000
REMARK UNBOUND:                 0.000
REMARK SMILES [NH3+]CC(=O)[O-]
REMARK SMILES IDX 2 1 1 2 3 6 4 7 5 8
REMARK H PARENT 1 3 1 4 1 5
REMARK Flexibility Score: inf
ROOT
ATOM      1  C   UNL     1      19.042 -10.303   1.089  1.00  0.00     0.312 C 
ENDROOT
BRANCH   1   2
ATOM      2  N   UNL     1      18.546  -9.098   0.427  1.00  0.00    -0.353 N 
ATOM      3  H   UNL     1      18.193  -8.417   1.139  1.00  0.00     0.344 HD
ATOM      4  H   UNL     1      19.310  -8.657  -0.136  1.00  0.00     0.344 HD
ATOM      5  H   UNL     1      17.761  -9.358  -0.212  1.00  0.00     0.344 HD
ENDBRANCH   1   2
BRANCH   1   6
ATOM      6  C   UNL     1      20.349 -10.032   1.770  1.00  0.00     0.096 C 
ATOM      7  O   UNL     1      21.231 -10.929   1.828  1.00  0.00    -0.544 OA
ATOM      8  O   UNL     1      20.611  -8.773   2.294  1.00  0.00    -0.544 OA
ENDBRANCH   1   6
TORSDOF 2
ENDMDL
MODEL 5
REMARK VINA RESULT:    -1.807      5.912      6.335
REMARK INTER + INTRA:          -1.966
REMARK INTER:                  -1.966
REMARK INTRA:                   0.000
REMARK UNBOUND:                 0.000
REMARK SMILES [NH3+]CC(=O)[O-]
REMARK SMILES IDX 2 1 1 2 3 6 4 7 5 8
REMARK H PARENT 1 3 1 4 1 5
REMARK Flexibility Score: inf
ROOT
ATOM      1  C   UNL     1      18.820  -5.804   2.798  1.00  0.00     0.312 C 
ENDROOT
BRANCH   1   2
ATOM      2  N   UNL     1      20.139  -5.718   3.422  1.00  0.00    -0.353 N 
ATOM      3  H   UNL     1      20.664  -6.611   3.277  1.00  0.00     0.344 HD
ATOM      4  H   UNL     1      20.678  -4.919   3.014  1.00  0.00     0.344 HD
ATOM      5  H   UNL     1      20.022  -5.557   4.449  1.00  0.00     0.344 HD
ENDBRANCH   1   2
BRANCH   1   6
ATOM      6  C   UNL     1      18.567  -4.609   1.932  1.00  0.00     0.096 C 
ATOM      7  O   UNL     1      17.969  -4.739   0.832  1.00  0.00    -0.544 OA
ATOM      8  O   UNL     1      18.945  -3.344   2.365  1.00  0.00    -0.544 OA
ENDBRANCH   1   6
TORSDOF 2
ENDMDL
MODEL 6
REMARK VINA RESULT:    -1.711      8.117      8.458
REMARK INTER + INTRA:          -1.862
REMARK INTER:                  -1.862
REMARK INTRA:                   0.000
REMARK UNBOUND:                 0.000
REMARK SMILES [NH3+]CC(=O)[O-]
REMARK SMILES IDX 2 1 1 2 3 6 4 7 5 8
REMARK H PARENT 1 3 1 4 1 5
REMARK Flexibility Score: inf
ROOT
ATOM      1  C   UNL     1      17.915  -3.543   2.598  1.00  0.00     0.312 C 
ENDROOT
BRANCH   1   2
ATOM      2  N   UNL     1      19.170  -4.198   2.238  1.00  0.00    -0.353 N 
ATOM      3  H   UNL     1      19.883  -3.483   1.964  1.00  0.00     0.344 HD
ATOM      4  H   UNL     1      19.526  -4.762   3.045  1.00  0.00     0.344 HD
ATOM      5  H   UNL     1      19.002  -4.836   1.427  1.00  0.00     0.344 HD
ENDBRANCH   1   2
BRANCH   1   6
ATOM      6  C   UNL     1      18.129  -2.077   2.823  1.00  0.00     0.096 C 
ATOM      7  O   UNL     1      17.744  -1.242   1.963  1.00  0.00    -0.544 OA
ATOM      8  O   UNL     1      18.708  -1.632   4.005  1.00  0.00    -0.544 OA
ENDBRANCH   1   6
TORSDOF 2
ENDMDL
MODEL 7
REMARK VINA RESULT:    -1.669      2.365      2.705
REMARK INTER + INTRA:          -1.816
REMARK INTER:                  -1.816
REMARK INTRA:                   0.000
REMARK UNBOUND:                 0.000
REMARK SMILES [NH3+]CC(=O)[O-]
REMARK SMILES IDX 2 1 1 2 3 6 4 7 5 8
REMARK H PARENT 1 3 1 4 1 5
REMARK Flexibility Score: inf
ROOT
ATOM      1  C   UNL     1      20.191  -9.382   1.678  1.00  0.00     0.312 C 
ENDROOT
BRANCH   1   2
ATOM      2  N   UNL     1      19.120  -9.463   0.688  1.00  0.00    -0.353 N 
ATOM      3  H   UNL     1      18.424 -10.191   0.969  1.00  0.00     0.344 HD
ATOM      4  H   UNL     1      18.645  -8.534   0.597  1.00  0.00     0.344 HD
ATOM      5  H   UNL     1      19.529  -9.725  -0.238  1.00  0.00     0.344 HD
ENDBRANCH   1   2
BRANCH   1   6
ATOM      6  C   UNL     1      19.928  -8.276   2.653  1.00  0.00     0.096 C 
ATOM      7  O   UNL     1      18.747  -7.992   2.986  1.00  0.00    -0.544 OA
ATOM      8  O   UNL     1      20.990  -7.594   3.234  1.00  0.00    -0.544 OA
ENDBRANCH   1   6
TORSDOF 2
ENDMDL
MODEL 8
REMARK VINA RESULT:    -1.644      3.532      3.924
REMARK INTER + INTRA:          -1.789
REMARK INTER:                  -1.789
REMARK INTRA:                   0.000
REMARK UNBOUND:                 0.000
REMARK SMILES [NH3+]CC(=O)[O-]
REMARK SMILES IDX 2 1 1 2 3 6 4 7 5 8
REMARK H PARENT 1 3 1 4 1 5
REMARK Flexibility Score: inf
ROOT
ATOM      1  C   UNL     1      17.524 -12.689  -0.477  1.00  0.00     0.312 C 
ENDROOT
BRANCH   1   2
ATOM      2  N   UNL     1      17.498 -12.862  -1.928  1.00  0.00    -0.353 N 
ATOM      3  H   UNL     1      18.467 -13.021  -2.288  1.00  0.00     0.344 HD
ATOM      4  H   UNL     1      16.888 -13.674  -2.182  1.00  0.00     0.344 HD
ATOM      5  H   UNL     1      17.110 -11.997  -2.368  1.00  0.00     0.344 HD
ENDBRANCH   1   2
BRANCH   1   6
ATOM      6  C   UNL     1      17.814 -11.263  -0.120  1.00  0.00     0.096 C 
ATOM      7  O   UNL     1      18.808 -10.979   0.599  1.00  0.00    -0.544 OA
ATOM      8  O   UNL     1      17.015 -10.244  -0.625  1.00  0.00    -0.544 OA
ENDBRANCH   1   6
TORSDOF 2
ENDMDL
MODEL 9
REMARK VINA RESULT:    -1.635      3.697      3.943
REMARK INTER + INTRA:          -1.779
REMARK INTER:                  -1.779
REMARK INTRA:                   0.000
REMARK UNBOUND:                 0.000
REMARK SMILES [NH3+]CC(=O)[O-]
REMARK SMILES IDX 2 1 1 2 3 6 4 7 5 8
REMARK H PARENT 1 3 1 4 1 5
REMARK Flexibility Score: inf
ROOT
ATOM      1  C   UNL     1      18.181 -10.928   0.519  1.00  0.00     0.312 C 
ENDROOT
BRANCH   1   2
ATOM      2  N   UNL     1      18.498  -9.505   0.432  1.00  0.00    -0.353 N 
ATOM      3  H   UNL     1      17.721  -8.991  -0.044  1.00  0.00     0.344 HD
ATOM      4  H   UNL     1      18.647  -9.111   1.391  1.00  0.00     0.344 HD
ATOM      5  H   UNL     1      19.375  -9.382  -0.123  1.00  0.00     0.344 HD
ENDBRANCH   1   2
BRANCH   1   6
ATOM      6  C   UNL     1      17.379 -11.364  -0.670  1.00  0.00     0.096 C 
ATOM      7  O   UNL     1      16.355 -10.719  -1.014  1.00  0.00    -0.544 OA
ATOM      8  O   UNL     1      17.795 -12.452  -1.427  1.00  0.00    -0.544 OA
ENDBRANCH   1   6
TORSDOF 2
ENDMDL
