MODEL 1
REMARK VINA RESULT:    -3.435      0.000      0.000
REMARK INTER + INTRA:          -6.885
REMARK INTER:                  -5.443
REMARK INTRA:                  -1.442
REMARK UNBOUND:                -1.442
REMARK SMILES CCCCCCCCCCCC(=O)[O-]
REMARK SMILES IDX 7 1 8 2 9 3 10 4 11 5 12 6 13 7 14 8 6 9 5 10 4 11 3 12 2 13
REMARK SMILES IDX 1 14
REMARK H PARENT
REMARK Flexibility Score: inf
ROOT
ATOM      1  C   UNL     1      20.919   1.405  24.627  1.00  0.00     0.000 C 
ENDROOT
BRANCH   1   2
ATOM      2  C   UNL     1      21.771   2.242  23.661  1.00  0.00     0.000 C 
BRANCH   2   3
ATOM      3  C   UNL     1      21.533   3.753  23.818  1.00  0.00     0.000 C 
BRANCH   3   4
ATOM      4  C   UNL     1      20.120   4.080  24.322  1.00  0.00     0.006 C 
BRANCH   4   5
ATOM      5  C   UNL     1      20.075   5.474  24.957  1.00  0.00     0.053 C 
BRANCH   5   6
ATOM      6  C   UNL     1      19.428   6.452  24.029  1.00  0.00     0.041 C 
ATOM      7  O   UNL     1      20.062   7.465  23.633  1.00  0.00    -0.550 OA
ATOM      8  O   UNL     1      18.107   6.272  23.640  1.00  0.00    -0.550 OA
ENDBRANCH   5   6
ENDBRANCH   4   5
ENDBRANCH   3   4
ENDBRANCH   2   3
ENDBRANCH   1   2
BRANCH   1   9
ATOM      9  C   UNL     1      21.629   1.232  25.976  1.00  0.00     0.000 C 
BRANCH   9  10
ATOM     10  C   UNL     1      20.804   1.851  27.115  1.00  0.00    -0.000 C 
BRANCH  10  11
ATOM     11  C   UNL     1      21.422   3.151  27.654  1.00  0.00    -0.000 C 
BRANCH  11  12
ATOM     12  C   UNL     1      22.946   3.059  27.819  1.00  0.00    -0.000 C 
BRANCH  12  13
ATOM     13  C   UNL     1      23.652   4.150  27.006  1.00  0.00    -0.003 C 
ATOM     14  C   UNL     1      24.827   3.578  26.217  1.00  0.00     0.004 C 
ENDBRANCH  12  13
ENDBRANCH  11  12
ENDBRANCH  10  11
ENDBRANCH   9  10
ENDBRANCH   1   9
TORSDOF 10
ENDMDL
MODEL 2
REMARK VINA RESULT:    -3.367      2.125      3.756
REMARK INTER + INTRA:          -6.777
REMARK INTER:                  -5.879
REMARK INTRA:                  -0.899
REMARK UNBOUND:                -1.442
REMARK SMILES CCCCCCCCCCCC(=O)[O-]
REMARK SMILES IDX 7 1 8 2 9 3 10 4 11 5 12 6 13 7 14 8 6 9 5 10 4 11 3 12 2 13
REMARK SMILES IDX 1 14
REMARK H PARENT
REMARK Flexibility Score: inf
ROOT
ATOM      1  C   UNL     1      20.513   4.499  24.018  1.00  0.00     0.000 C 
ENDROOT
BRANCH   1   2
ATOM      2  C   UNL     1      20.035   5.165  25.317  1.00  0.00     0.000 C 
BRANCH   2   3
ATOM      3  C   UNL     1      19.507   6.591  25.092  1.00  0.00     0.000 C 
BRANCH   3   4
ATOM      4  C   UNL     1      19.861   7.142  23.703  1.00  0.00     0.006 C 
BRANCH   4   5
ATOM      5  C   UNL     1      20.402   8.571  23.803  1.00  0.00     0.053 C 
BRANCH   5   6
ATOM      6  C   UNL     1      19.693   9.469  22.839  1.00  0.00     0.041 C 
ATOM      7  O   UNL     1      18.656  10.088  23.194  1.00  0.00    -0.550 OA
ATOM      8  O   UNL     1      20.150   9.584  21.532  1.00  0.00    -0.550 OA
ENDBRANCH   5   6
ENDBRANCH   4   5
ENDBRANCH   3   4
ENDBRANCH   2   3
ENDBRANCH   1   2
BRANCH   1   9
ATOM      9  C   UNL     1      21.746   3.624  24.271  1.00  0.00     0.000 C 
BRANCH   9  10
ATOM     10  C   UNL     1      21.584   2.243  23.619  1.00  0.00    -0.000 C 
BRANCH  10  11
ATOM     11  C   UNL     1      21.219   1.148  24.633  1.00  0.00    -0.000 C 
BRANCH  11  12
ATOM     12  C   UNL     1      21.485   1.573  26.085  1.00  0.00    -0.000 C 
BRANCH  12  13
ATOM     13  C   UNL     1      20.198   1.516  26.916  1.00  0.00    -0.003 C 
ATOM     14  C   UNL     1      18.961   1.630  26.029  1.00  0.00     0.004 C 
ENDBRANCH  12  13
ENDBRANCH  11  12
ENDBRANCH  10  11
ENDBRANCH   9  10
ENDBRANCH   1   9
TORSDOF 10
ENDMDL
MODEL 3
REMARK VINA RESULT:    -3.293      1.167      3.478
REMARK INTER + INTRA:          -6.660
REMARK INTER:                  -4.982
REMARK INTRA:                  -1.677
REMARK UNBOUND:                -1.442
REMARK SMILES CCCCCCCCCCCC(=O)[O-]
REMARK SMILES IDX 7 1 8 2 9 3 10 4 11 5 12 6 13 7 14 8 6 9 5 10 4 11 3 12 2 13
REMARK SMILES IDX 1 14
REMARK H PARENT
REMARK Flexibility Score: inf
ROOT
ATOM      1  C   UNL     1      22.775   4.397  26.449  1.00  0.00     0.000 C 
ENDROOT
BRANCH   1   2
ATOM      2  C   UNL     1      21.603   4.341  27.441  1.00  0.00     0.000 C 
BRANCH   2   3
ATOM      3  C   UNL     1      20.345   5.049  26.912  1.00  0.00     0.000 C 
BRANCH   3   4
ATOM      4  C   UNL     1      20.575   5.730  25.555  1.00  0.00     0.006 C 
BRANCH   4   5
ATOM      5  C   UNL     1      19.550   5.252  24.522  1.00  0.00     0.053 C 
BRANCH   5   6
ATOM      6  C   UNL     1      18.918   6.420  23.831  1.00  0.00     0.041 C 
ATOM      7  O   UNL     1      17.669   6.469  23.684  1.00  0.00    -0.550 OA
ATOM      8  O   UNL     1      19.714   7.430  23.307  1.00  0.00    -0.550 OA
ENDBRANCH   5   6
ENDBRANCH   4   5
ENDBRANCH   3   4
ENDBRANCH   2   3
ENDBRANCH   1   2
BRANCH   1   9
ATOM      9  C   UNL     1      23.081   3.005  25.883  1.00  0.00     0.000 C 
BRANCH   9  10
ATOM     10  C   UNL     1      22.825   2.960  24.369  1.00  0.00    -0.000 C 
BRANCH  10  11
ATOM     11  C   UNL     1      21.531   2.213  24.008  1.00  0.00    -0.000 C 
BRANCH  11  12
ATOM     12  C   UNL     1      21.039   1.301  25.142  1.00  0.00    -0.000 C 
BRANCH  12  13
ATOM     13  C   UNL     1      19.601   1.652  25.542  1.00  0.00    -0.003 C 
ATOM     14  C   UNL     1      19.365   1.399  27.029  1.00  0.00     0.004 C 
ENDBRANCH  12  13
ENDBRANCH  11  12
ENDBRANCH  10  11
ENDBRANCH   9  10
ENDBRANCH   1   9
TORSDOF 10
ENDMDL
MODEL 4
REMARK VINA RESULT:    -3.286      2.019      3.196
REMARK INTER + INTRA:          -6.649
REMARK INTER:                  -5.430
REMARK INTRA:                  -1.219
REMARK UNBOUND:                -1.442
REMARK SMILES CCCCCCCCCCCC(=O)[O-]
REMARK SMILES IDX 7 1 8 2 9 3 10 4 11 5 12 6 13 7 14 8 6 9 5 10 4 11 3 12 2 13
REMARK SMILES IDX 1 14
REMARK H PARENT
REMARK Flexibility Score: inf
ROOT
ATOM      1  C   UNL     1      19.416   3.945  26.747  1.00  0.00     0.000 C 
ENDROOT
BRANCH   1   2
ATOM      2  C   UNL     1      19.267   5.280  26.001  1.00  0.00     0.000 C 
BRANCH   2   3
ATOM      3  C   UNL     1      18.865   5.093  24.529  1.00  0.00     0.000 C 
BRANCH   3   4
ATOM      4  C   UNL     1      18.793   6.422  23.762  1.00  0.00     0.006 C 
BRANCH   4   5
ATOM      5  C   UNL     1      20.169   7.092  23.697  1.00  0.00     0.053 C 
BRANCH   5   6
ATOM      6  C   UNL     1      20.025   8.563  23.464  1.00  0.00     0.041 C 
ATOM      7  O   UNL     1      20.932   9.355  23.830  1.00  0.00    -0.550 OA
ATOM      8  O   UNL     1      18.866   9.065  22.885  1.00  0.00    -0.550 OA
ENDBRANCH   5   6
ENDBRANCH   4   5
ENDBRANCH   3   4
ENDBRANCH   2   3
ENDBRANCH   1   2
BRANCH   1   9
ATOM      9  C   UNL     1      18.632   2.832  26.041  1.00  0.00     0.000 C 
BRANCH   9  10
ATOM     10  C   UNL     1      19.344   1.479  26.191  1.00  0.00    -0.000 C 
BRANCH  10  11
ATOM     11  C   UNL     1      20.834   1.549  25.819  1.00  0.00    -0.000 C 
BRANCH  11  12
ATOM     12  C   UNL     1      21.094   1.191  24.348  1.00  0.00    -0.000 C 
BRANCH  12  13
ATOM     13  C   UNL     1      21.530   2.426  23.552  1.00  0.00    -0.003 C 
ATOM     14  C   UNL     1      22.240   3.438  24.448  1.00  0.00     0.004 C 
ENDBRANCH  12  13
ENDBRANCH  11  12
ENDBRANCH  10  11
ENDBRANCH   9  10
ENDBRANCH   1   9
TORSDOF 10
ENDMDL
MODEL 5
REMARK VINA RESULT:    -3.254      2.428      4.805
REMARK INTER + INTRA:          -6.598
REMARK INTER:                  -5.369
REMARK INTRA:                  -1.229
REMARK UNBOUND:                -1.442
REMARK SMILES CCCCCCCCCCCC(=O)[O-]
REMARK SMILES IDX 7 1 8 2 9 3 10 4 11 5 12 6 13 7 14 8 6 9 5 10 4 11 3 12 2 13
REMARK SMILES IDX 1 14
REMARK H PARENT
REMARK Flexibility Score: inf
ROOT
ATOM      1  C   UNL     1      20.788   1.508  24.730  1.00  0.00     0.000 C 
ENDROOT
BRANCH   1   2
ATOM      2  C   UNL     1      21.596   1.251  26.011  1.00  0.00     0.000 C 
BRANCH   2   3
ATOM      3  C   UNL     1      21.013   1.979  27.234  1.00  0.00     0.000 C 
BRANCH   3   4
ATOM      4  C   UNL     1      21.922   3.109  27.739  1.00  0.00     0.006 C 
BRANCH   4   5
ATOM      5  C   UNL     1      23.399   2.732  27.588  1.00  0.00     0.053 C 
BRANCH   5   6
ATOM      6  C   UNL     1      24.145   3.812  26.869  1.00  0.00     0.041 C 
ATOM      7  O   UNL     1      23.621   4.945  26.708  1.00  0.00    -0.550 OA
ATOM      8  O   UNL     1      25.400   3.551  26.334  1.00  0.00    -0.550 OA
ENDBRANCH   5   6
ENDBRANCH   4   5
ENDBRANCH   3   4
ENDBRANCH   2   3
ENDBRANCH   1   2
BRANCH   1   9
ATOM      9  C   UNL     1      21.636   2.246  23.687  1.00  0.00     0.000 C 
BRANCH   9  10
ATOM     10  C   UNL     1      21.565   3.767  23.897  1.00  0.00    -0.000 C 
BRANCH  10  11
ATOM     11  C   UNL     1      20.163   4.242  24.311  1.00  0.00    -0.000 C 
BRANCH  11  12
ATOM     12  C   UNL     1      20.202   5.325  25.399  1.00  0.00    -0.000 C 
BRANCH  12  13
ATOM     13  C   UNL     1      19.345   6.532  25.003  1.00  0.00    -0.003 C 
ATOM     14  C   UNL     1      19.697   7.022  23.600  1.00  0.00     0.004 C 
ENDBRANCH  12  13
ENDBRANCH  11  12
ENDBRANCH  10  11
ENDBRANCH   9  10
ENDBRANCH   1   9
TORSDOF 10
ENDMDL
MODEL 6
REMARK VINA RESULT:    -3.245      1.432      2.363
REMARK INTER + INTRA:          -6.584
REMARK INTER:                  -5.495
REMARK INTRA:                  -1.089
REMARK UNBOUND:                -1.442
REMARK SMILES CCCCCCCCCCCC(=O)[O-]
REMARK SMILES IDX 7 1 8 2 9 3 10 4 11 5 12 6 13 7 14 8 6 9 5 10 4 11 3 12 2 13
REMARK SMILES IDX 1 14
REMARK H PARENT
REMARK Flexibility Score: inf
ROOT
ATOM      1  C   UNL     1      21.137   3.753  23.896  1.00  0.00     0.000 C 
ENDROOT
BRANCH   1   2
ATOM      2  C   UNL     1      19.757   4.018  24.515  1.00  0.00     0.000 C 
BRANCH   2   3
ATOM      3  C   UNL     1      19.570   5.484  24.940  1.00  0.00     0.000 C 
BRANCH   3   4
ATOM      4  C   UNL     1      20.278   6.468  23.997  1.00  0.00     0.006 C 
BRANCH   4   5
ATOM      5  C   UNL     1      19.375   7.662  23.673  1.00  0.00     0.053 C 
BRANCH   5   6
ATOM      6  C   UNL     1      20.195   8.843  23.260  1.00  0.00     0.041 C 
ATOM      7  O   UNL     1      21.032   9.344  24.056  1.00  0.00    -0.550 OA
ATOM      8  O   UNL     1      20.001   9.422  22.012  1.00  0.00    -0.550 OA
ENDBRANCH   5   6
ENDBRANCH   4   5
ENDBRANCH   3   4
ENDBRANCH   2   3
ENDBRANCH   1   2
BRANCH   1   9
ATOM      9  C   UNL     1      21.498   2.264  23.980  1.00  0.00     0.000 C 
BRANCH   9  10
ATOM     10  C   UNL     1      21.021   1.657  25.308  1.00  0.00    -0.000 C 
BRANCH  10  11
ATOM     11  C   UNL     1      22.073   1.771  26.423  1.00  0.00    -0.000 C 
BRANCH  11  12
ATOM     12  C   UNL     1      21.762   2.900  27.416  1.00  0.00    -0.000 C 
BRANCH  12  13
ATOM     13  C   UNL     1      22.743   4.065  27.246  1.00  0.00    -0.003 C 
ATOM     14  C   UNL     1      23.966   3.644  26.434  1.00  0.00     0.004 C 
ENDBRANCH  12  13
ENDBRANCH  11  12
ENDBRANCH  10  11
ENDBRANCH   9  10
ENDBRANCH   1   9
TORSDOF 10
ENDMDL
MODEL 7
REMARK VINA RESULT:    -3.227      1.551      2.625
REMARK INTER + INTRA:          -6.556
REMARK INTER:                  -5.224
REMARK INTRA:                  -1.332
REMARK UNBOUND:                -1.442
REMARK SMILES CCCCCCCCCCCC(=O)[O-]
REMARK SMILES IDX 7 1 8 2 9 3 10 4 11 5 12 6 13 7 14 8 6 9 5 10 4 11 3 12 2 13
REMARK SMILES IDX 1 14
REMARK H PARENT
REMARK Flexibility Score: inf
ROOT
ATOM      1  C   UNL     1      18.703   2.204  26.239  1.00  0.00     0.000 C 
ENDROOT
BRANCH   1   2
ATOM      2  C   UNL     1      19.003   3.710  26.193  1.00  0.00     0.000 C 
BRANCH   2   3
ATOM      3  C   UNL     1      19.152   4.240  24.757  1.00  0.00     0.000 C 
BRANCH   3   4
ATOM      4  C   UNL     1      20.046   5.486  24.676  1.00  0.00     0.006 C 
BRANCH   4   5
ATOM      5  C   UNL     1      19.489   6.495  23.667  1.00  0.00     0.053 C 
BRANCH   5   6
ATOM      6  C   UNL     1      20.125   7.835  23.860  1.00  0.00     0.041 C 
ATOM      7  O   UNL     1      20.823   8.065  24.882  1.00  0.00    -0.550 OA
ATOM      8  O   UNL     1      19.907   8.847  22.934  1.00  0.00    -0.550 OA
ENDBRANCH   5   6
ENDBRANCH   4   5
ENDBRANCH   3   4
ENDBRANCH   2   3
ENDBRANCH   1   2
BRANCH   1   9
ATOM      9  C   UNL     1      19.561   1.506  27.301  1.00  0.00     0.000 C 
BRANCH   9  10
ATOM     10  C   UNL     1      20.890   2.248  27.508  1.00  0.00    -0.000 C 
BRANCH  10  11
ATOM     11  C   UNL     1      22.005   1.736  26.582  1.00  0.00    -0.000 C 
BRANCH  11  12
ATOM     12  C   UNL     1      22.688   2.865  25.797  1.00  0.00    -0.000 C 
BRANCH  12  13
ATOM     13  C   UNL     1      22.489   2.682  24.288  1.00  0.00    -0.003 C 
ATOM     14  C   UNL     1      21.581   1.490  23.991  1.00  0.00     0.004 C 
ENDBRANCH  12  13
ENDBRANCH  11  12
ENDBRANCH  10  11
ENDBRANCH   9  10
ENDBRANCH   1   9
TORSDOF 10
ENDMDL
MODEL 8
REMARK VINA RESULT:    -3.211      1.831      3.389
REMARK INTER + INTRA:          -6.531
REMARK INTER:                  -5.427
REMARK INTRA:                  -1.104
REMARK UNBOUND:                -1.442
REMARK SMILES CCCCCCCCCCCC(=O)[O-]
REMARK SMILES IDX 7 1 8 2 9 3 10 4 11 5 12 6 13 7 14 8 6 9 5 10 4 11 3 12 2 13
REMARK SMILES IDX 1 14
REMARK H PARENT
REMARK Flexibility Score: inf
ROOT
ATOM      1  C   UNL     1      20.641   5.720  26.424  1.00  0.00     0.000 C 
ENDROOT
BRANCH   1   2
ATOM      2  C   UNL     1      19.614   4.840  25.695  1.00  0.00     0.000 C 
BRANCH   2   3
ATOM      3  C   UNL     1      19.163   5.442  24.355  1.00  0.00     0.000 C 
BRANCH   3   4
ATOM      4  C   UNL     1      20.063   6.596  23.891  1.00  0.00     0.006 C 
BRANCH   4   5
ATOM      5  C   UNL     1      19.236   7.849  23.588  1.00  0.00     0.053 C 
BRANCH   5   6
ATOM      6  C   UNL     1      20.119   8.958  23.110  1.00  0.00     0.041 C 
ATOM      7  O   UNL     1      21.071   9.365  23.827  1.00  0.00    -0.550 OA
ATOM      8  O   UNL     1      19.861   9.576  21.894  1.00  0.00    -0.550 OA
ENDBRANCH   5   6
ENDBRANCH   4   5
ENDBRANCH   3   4
ENDBRANCH   2   3
ENDBRANCH   1   2
BRANCH   1   9
ATOM      9  C   UNL     1      21.893   4.913  26.790  1.00  0.00     0.000 C 
BRANCH   9  10
ATOM     10  C   UNL     1      21.544   3.435  27.027  1.00  0.00    -0.000 C 
BRANCH  10  11
ATOM     11  C   UNL     1      22.409   2.481  26.187  1.00  0.00    -0.000 C 
BRANCH  11  12
ATOM     12  C   UNL     1      22.730   3.044  24.795  1.00  0.00    -0.000 C 
BRANCH  12  13
ATOM     13  C   UNL     1      21.757   2.497  23.745  1.00  0.00    -0.003 C 
ATOM     14  C   UNL     1      21.144   1.173  24.196  1.00  0.00     0.004 C 
ENDBRANCH  12  13
ENDBRANCH  11  12
ENDBRANCH  10  11
ENDBRANCH   9  10
ENDBRANCH   1   9
TORSDOF 10
ENDMDL
MODEL 9
REMARK VINA RESULT:    -3.172      2.677      4.827
REMARK INTER + INTRA:          -6.468
REMARK INTER:                  -5.272
REMARK INTRA:                  -1.196
REMARK UNBOUND:                -1.442
REMARK SMILES CCCCCCCCCCCC(=O)[O-]
REMARK SMILES IDX 7 1 8 2 9 3 10 4 11 5 12 6 13 7 14 8 6 9 5 10 4 11 3 12 2 13
REMARK SMILES IDX 1 14
REMARK H PARENT
REMARK Flexibility Score: inf
ROOT
ATOM      1  C   UNL     1      19.384   2.176  25.794  1.00  0.00     0.000 C 
ENDROOT
BRANCH   1   2
ATOM      2  C   UNL     1      20.591   1.504  25.122  1.00  0.00     0.000 C 
BRANCH   2   3
ATOM      3  C   UNL     1      21.304   2.429  24.123  1.00  0.00     0.000 C 
BRANCH   3   4
ATOM      4  C   UNL     1      22.738   2.770  24.552  1.00  0.00     0.006 C 
BRANCH   4   5
ATOM      5  C   UNL     1      22.832   2.927  26.073  1.00  0.00     0.053 C 
BRANCH   5   6
ATOM      6  C   UNL     1      23.969   3.829  26.438  1.00  0.00     0.041 C 
ATOM      7  O   UNL     1      23.745   4.967  26.926  1.00  0.00    -0.550 OA
ATOM      8  O   UNL     1      25.277   3.430  26.193  1.00  0.00    -0.550 OA
ENDBRANCH   5   6
ENDBRANCH   4   5
ENDBRANCH   3   4
ENDBRANCH   2   3
ENDBRANCH   1   2
BRANCH   1   9
ATOM      9  C   UNL     1      19.175   3.595  25.251  1.00  0.00     0.000 C 
BRANCH   9  10
ATOM     10  C   UNL     1      19.507   4.647  26.321  1.00  0.00    -0.000 C 
BRANCH  10  11
ATOM     11  C   UNL     1      20.295   5.839  25.755  1.00  0.00    -0.000 C 
BRANCH  11  12
ATOM     12  C   UNL     1      20.266   5.892  24.221  1.00  0.00    -0.000 C 
BRANCH  12  13
ATOM     13  C   UNL     1      19.637   7.200  23.729  1.00  0.00    -0.003 C 
ATOM     14  C   UNL     1      18.119   7.178  23.893  1.00  0.00     0.004 C 
ENDBRANCH  12  13
ENDBRANCH  11  12
ENDBRANCH  10  11
ENDBRANCH   9  10
ENDBRANCH   1   9
TORSDOF 10
ENDMDL
