MODEL 1
REMARK VINA RESULT:    -3.918      0.000      0.000
REMARK INTER + INTRA:          -5.215
REMARK INTER:                  -5.063
REMARK INTRA:                  -0.152
REMARK UNBOUND:                -0.152
REMARK SMILES CCCCCCC(=O)[O-]
REMARK SMILES IDX 5 1 6 2 7 3 8 4 9 5 4 6 3 7 2 8 1 9
REMARK H PARENT
REMARK Flexibility Score: inf
ROOT
ATOM      1  C   UNL     1      13.486 -31.239  23.291  1.00  0.00     0.006 C 
ENDROOT
BRANCH   1   2
ATOM      2  C   UNL     1      13.471 -31.499  21.782  1.00  0.00     0.053 C 
BRANCH   2   3
ATOM      3  C   UNL     1      14.250 -32.733  21.454  1.00  0.00     0.041 C 
ATOM      4  O   UNL     1      14.907 -33.326  22.351  1.00  0.00    -0.550 OA
ATOM      5  O   UNL     1      14.213 -33.258  20.168  1.00  0.00    -0.550 OA
ENDBRANCH   2   3
ENDBRANCH   1   2
BRANCH   1   6
ATOM      6  C   UNL     1      13.441 -29.737  23.592  1.00  0.00     0.000 C 
BRANCH   6   7
ATOM      7  C   UNL     1      12.173 -29.097  23.011  1.00  0.00    -0.000 C 
BRANCH   7   8
ATOM      8  C   UNL     1      11.569 -28.031  23.939  1.00  0.00    -0.003 C 
ATOM      9  C   UNL     1      12.615 -27.365  24.832  1.00  0.00     0.004 C 
ENDBRANCH   7   8
ENDBRANCH   6   7
ENDBRANCH   1   6
TORSDOF 5
ENDMDL
MODEL 2
REMARK VINA RESULT:    -3.911      1.671      2.120
REMARK INTER + INTRA:          -5.207
REMARK INTER:                  -5.025
REMARK INTRA:                  -0.182
REMARK UNBOUND:                -0.152
REMARK SMILES CCCCCCC(=O)[O-]
REMARK SMILES IDX 5 1 6 2 7 3 8 4 9 5 4 6 3 7 2 8 1 9
REMARK H PARENT
REMARK Flexibility Score: inf
ROOT
ATOM      1  C   UNL     1      11.119 -30.052  21.731  1.00  0.00     0.006 C 
ENDROOT
BRANCH   1   2
ATOM      2  C   UNL     1      12.377 -30.773  22.225  1.00  0.00     0.053 C 
BRANCH   2   3
ATOM      3  C   UNL     1      13.327 -31.006  21.094  1.00  0.00     0.041 C 
ATOM      4  O   UNL     1      14.366 -30.303  20.983  1.00  0.00    -0.550 OA
ATOM      5  O   UNL     1      13.092 -32.033  20.189  1.00  0.00    -0.550 OA
ENDBRANCH   2   3
ENDBRANCH   1   2
BRANCH   1   6
ATOM      6  C   UNL     1      10.875 -28.763  22.523  1.00  0.00     0.000 C 
BRANCH   6   7
ATOM      7  C   UNL     1      12.006 -28.514  23.532  1.00  0.00    -0.000 C 
BRANCH   7   8
ATOM      8  C   UNL     1      11.982 -27.091  24.109  1.00  0.00    -0.003 C 
ATOM      9  C   UNL     1      13.180 -26.798  25.012  1.00  0.00     0.004 C 
ENDBRANCH   7   8
ENDBRANCH   6   7
ENDBRANCH   1   6
TORSDOF 5
ENDMDL
MODEL 3
REMARK VINA RESULT:    -3.860      0.916      1.805
REMARK INTER + INTRA:          -5.140
REMARK INTER:                  -4.827
REMARK INTRA:                  -0.314
REMARK UNBOUND:                -0.152
REMARK SMILES CCCCCCC(=O)[O-]
REMARK SMILES IDX 5 1 6 2 7 3 8 4 9 5 4 6 3 7 2 8 1 9
REMARK H PARENT
REMARK Flexibility Score: inf
ROOT
ATOM      1  C   UNL     1      14.495 -30.327  21.423  1.00  0.00     0.006 C 
ENDROOT
BRANCH   1   2
ATOM      2  C   UNL     1      13.452 -31.431  21.230  1.00  0.00     0.053 C 
BRANCH   2   3
ATOM      3  C   UNL     1      14.119 -32.749  20.998  1.00  0.00     0.041 C 
ATOM      4  O   UNL     1      14.099 -33.278  19.855  1.00  0.00    -0.550 OA
ATOM      5  O   UNL     1      14.808 -33.371  22.031  1.00  0.00    -0.550 OA
ENDBRANCH   2   3
ENDBRANCH   1   2
BRANCH   1   6
ATOM      6  C   UNL     1      14.700 -30.016  22.910  1.00  0.00     0.000 C 
BRANCH   6   7
ATOM      7  C   UNL     1      13.363 -30.028  23.665  1.00  0.00    -0.000 C 
BRANCH   7   8
ATOM      8  C   UNL     1      12.731 -28.632  23.768  1.00  0.00    -0.003 C 
ATOM      9  C   UNL     1      11.415 -28.520  22.998  1.00  0.00     0.004 C 
ENDBRANCH   7   8
ENDBRANCH   6   7
ENDBRANCH   1   6
TORSDOF 5
ENDMDL
MODEL 4
REMARK VINA RESULT:    -3.814      1.488      2.581
REMARK INTER + INTRA:          -5.082
REMARK INTER:                  -4.942
REMARK INTRA:                  -0.140
REMARK UNBOUND:                -0.152
REMARK SMILES CCCCCCC(=O)[O-]
REMARK SMILES IDX 5 1 6 2 7 3 8 4 9 5 4 6 3 7 2 8 1 9
REMARK H PARENT
REMARK Flexibility Score: inf
ROOT
ATOM      1  C   UNL     1      14.002 -32.362  21.338  1.00  0.00     0.006 C 
ENDROOT
BRANCH   1   2
ATOM      2  C   UNL     1      14.437 -33.300  20.209  1.00  0.00     0.053 C 
BRANCH   2   3
ATOM      3  C   UNL     1      15.307 -34.394  20.741  1.00  0.00     0.041 C 
ATOM      4  O   UNL     1      15.425 -35.475  20.107  1.00  0.00    -0.550 OA
ATOM      5  O   UNL     1      16.026 -34.202  21.914  1.00  0.00    -0.550 OA
ENDBRANCH   2   3
ENDBRANCH   1   2
BRANCH   1   6
ATOM      6  C   UNL     1      13.005 -31.313  20.830  1.00  0.00     0.000 C 
BRANCH   6   7
ATOM      7  C   UNL     1      12.299 -30.613  22.001  1.00  0.00    -0.000 C 
BRANCH   7   8
ATOM      8  C   UNL     1      13.223 -30.405  23.210  1.00  0.00    -0.003 C 
ATOM      9  C   UNL     1      12.898 -29.131  23.990  1.00  0.00     0.004 C 
ENDBRANCH   7   8
ENDBRANCH   6   7
ENDBRANCH   1   6
TORSDOF 5
ENDMDL
MODEL 5
REMARK VINA RESULT:    -3.784      1.000      1.575
REMARK INTER + INTRA:          -5.043
REMARK INTER:                  -4.859
REMARK INTRA:                  -0.184
REMARK UNBOUND:                -0.152
REMARK SMILES CCCCCCC(=O)[O-]
REMARK SMILES IDX 5 1 6 2 7 3 8 4 9 5 4 6 3 7 2 8 1 9
REMARK H PARENT
REMARK Flexibility Score: inf
ROOT
ATOM      1  C   UNL     1      13.338 -29.693  23.157  1.00  0.00     0.006 C 
ENDROOT
BRANCH   1   2
ATOM      2  C   UNL     1      13.211 -31.218  23.205  1.00  0.00     0.053 C 
BRANCH   2   3
ATOM      3  C   UNL     1      13.707 -31.826  21.932  1.00  0.00     0.041 C 
ATOM      4  O   UNL     1      14.577 -32.736  21.959  1.00  0.00    -0.550 OA
ATOM      5  O   UNL     1      13.172 -31.423  20.714  1.00  0.00    -0.550 OA
ENDBRANCH   2   3
ENDBRANCH   1   2
BRANCH   1   6
ATOM      6  C   UNL     1      11.978 -29.035  22.895  1.00  0.00     0.000 C 
BRANCH   6   7
ATOM      7  C   UNL     1      11.600 -28.080  24.037  1.00  0.00    -0.000 C 
BRANCH   7   8
ATOM      8  C   UNL     1      12.812 -27.318  24.595  1.00  0.00    -0.003 C 
ATOM      9  C   UNL     1      13.070 -26.000  23.865  1.00  0.00     0.004 C 
ENDBRANCH   7   8
ENDBRANCH   6   7
ENDBRANCH   1   6
TORSDOF 5
ENDMDL
MODEL 6
REMARK VINA RESULT:    -3.733      3.093      4.930
REMARK INTER + INTRA:          -4.976
REMARK INTER:                  -4.667
REMARK INTRA:                  -0.309
REMARK UNBOUND:                -0.152
REMARK SMILES CCCCCCC(=O)[O-]
REMARK SMILES IDX 5 1 6 2 7 3 8 4 9 5 4 6 3 7 2 8 1 9
REMARK H PARENT
REMARK Flexibility Score: inf
ROOT
ATOM      1  C   UNL     1      14.447 -29.574  22.806  1.00  0.00     0.006 C 
ENDROOT
BRANCH   1   2
ATOM      2  C   UNL     1      13.210 -29.876  23.655  1.00  0.00     0.053 C 
BRANCH   2   3
ATOM      3  C   UNL     1      12.408 -28.633  23.875  1.00  0.00     0.041 C 
ATOM      4  O   UNL     1      12.706 -27.842  24.808  1.00  0.00    -0.550 OA
ATOM      5  O   UNL     1      11.359 -28.321  23.018  1.00  0.00    -0.550 OA
ENDBRANCH   2   3
ENDBRANCH   1   2
BRANCH   1   6
ATOM      6  C   UNL     1      14.294 -30.135  21.388  1.00  0.00     0.000 C 
BRANCH   6   7
ATOM      7  C   UNL     1      13.390 -31.376  21.383  1.00  0.00    -0.000 C 
BRANCH   7   8
ATOM      8  C   UNL     1      14.119 -32.637  20.893  1.00  0.00    -0.003 C 
ATOM      9  C   UNL     1      14.891 -33.344  22.006  1.00  0.00     0.004 C 
ENDBRANCH   7   8
ENDBRANCH   6   7
ENDBRANCH   1   6
TORSDOF 5
ENDMDL
MODEL 7
REMARK VINA RESULT:    -3.726      3.917      5.536
REMARK INTER + INTRA:          -4.968
REMARK INTER:                  -4.833
REMARK INTRA:                  -0.134
REMARK UNBOUND:                -0.152
REMARK SMILES CCCCCCC(=O)[O-]
REMARK SMILES IDX 5 1 6 2 7 3 8 4 9 5 4 6 3 7 2 8 1 9
REMARK H PARENT
REMARK Flexibility Score: inf
ROOT
ATOM      1  C   UNL     1      12.648 -28.785  24.160  1.00  0.00     0.006 C 
ENDROOT
BRANCH   1   2
ATOM      2  C   UNL     1      12.162 -27.435  23.627  1.00  0.00     0.053 C 
BRANCH   2   3
ATOM      3  C   UNL     1      13.061 -26.333  24.091  1.00  0.00     0.041 C 
ATOM      4  O   UNL     1      13.566 -26.370  25.244  1.00  0.00    -0.550 OA
ATOM      5  O   UNL     1      13.382 -25.289  23.233  1.00  0.00    -0.550 OA
ENDBRANCH   2   3
ENDBRANCH   1   2
BRANCH   1   6
ATOM      6  C   UNL     1      13.582 -29.471  23.157  1.00  0.00     0.000 C 
BRANCH   6   7
ATOM      7  C   UNL     1      13.092 -30.889  22.828  1.00  0.00    -0.000 C 
BRANCH   7   8
ATOM      8  C   UNL     1      13.046 -31.164  21.318  1.00  0.00    -0.003 C 
ATOM      9  C   UNL     1      13.892 -32.370  20.910  1.00  0.00     0.004 C 
ENDBRANCH   7   8
ENDBRANCH   6   7
ENDBRANCH   1   6
TORSDOF 5
ENDMDL
MODEL 8
REMARK VINA RESULT:    -3.683      9.937     10.577
REMARK INTER + INTRA:          -4.912
REMARK INTER:                  -4.686
REMARK INTRA:                  -0.226
REMARK UNBOUND:                -0.152
REMARK SMILES CCCCCCC(=O)[O-]
REMARK SMILES IDX 5 1 6 2 7 3 8 4 9 5 4 6 3 7 2 8 1 9
REMARK H PARENT
REMARK Flexibility Score: inf
ROOT
ATOM      1  C   UNL     1      20.777 -25.396  19.985  1.00  0.00     0.006 C 
ENDROOT
BRANCH   1   2
ATOM      2  C   UNL     1      22.072 -24.958  20.676  1.00  0.00     0.053 C 
BRANCH   2   3
ATOM      3  C   UNL     1      23.101 -24.568  19.663  1.00  0.00     0.041 C 
ATOM      4  O   UNL     1      23.856 -23.582  19.873  1.00  0.00    -0.550 OA
ATOM      5  O   UNL     1      23.261 -25.323  18.507  1.00  0.00    -0.550 OA
ENDBRANCH   2   3
ENDBRANCH   1   2
BRANCH   1   6
ATOM      6  C   UNL     1      20.241 -26.697  20.593  1.00  0.00     0.000 C 
BRANCH   6   7
ATOM      7  C   UNL     1      21.342 -27.766  20.664  1.00  0.00    -0.000 C 
BRANCH   7   8
ATOM      8  C   UNL     1      20.797 -29.151  21.045  1.00  0.00    -0.003 C 
ATOM      9  C   UNL     1      19.275 -29.236  20.942  1.00  0.00     0.004 C 
ENDBRANCH   7   8
ENDBRANCH   6   7
ENDBRANCH   1   6
TORSDOF 5
ENDMDL
MODEL 9
REMARK VINA RESULT:    -3.674      3.649      5.203
REMARK INTER + INTRA:          -4.900
REMARK INTER:                  -4.700
REMARK INTRA:                  -0.199
REMARK UNBOUND:                -0.152
REMARK SMILES CCCCCCC(=O)[O-]
REMARK SMILES IDX 5 1 6 2 7 3 8 4 9 5 4 6 3 7 2 8 1 9
REMARK H PARENT
REMARK Flexibility Score: inf
ROOT
ATOM      1  C   UNL     1      13.953 -28.890  22.991  1.00  0.00     0.006 C 
ENDROOT
BRANCH   1   2
ATOM      2  C   UNL     1      12.428 -28.906  23.133  1.00  0.00     0.053 C 
BRANCH   2   3
ATOM      3  C   UNL     1      11.965 -27.747  23.957  1.00  0.00     0.041 C 
ATOM      4  O   UNL     1      10.917 -27.124  23.642  1.00  0.00    -0.550 OA
ATOM      5  O   UNL     1      12.664 -27.385  25.102  1.00  0.00    -0.550 OA
ENDBRANCH   2   3
ENDBRANCH   1   2
BRANCH   1   6
ATOM      6  C   UNL     1      14.547 -30.276  23.265  1.00  0.00     0.000 C 
BRANCH   6   7
ATOM      7  C   UNL     1      13.447 -31.348  23.304  1.00  0.00    -0.000 C 
BRANCH   7   8
ATOM      8  C   UNL     1      13.790 -32.512  24.246  1.00  0.00    -0.003 C 
ATOM      9  C   UNL     1      15.115 -33.188  23.894  1.00  0.00     0.004 C 
ENDBRANCH   7   8
ENDBRANCH   6   7
ENDBRANCH   1   6
TORSDOF 5
ENDMDL
