MODEL 1
REMARK VINA RESULT:    15.892      0.000      0.000
REMARK INTER + INTRA:          23.187
REMARK INTER:                  21.467
REMARK INTRA:                   1.721
REMARK UNBOUND:                 1.721
REMARK SMILES CC[C@@H](CC[C@H](C)[C@@H]1CC[C@H]2[C@H]3CC(=O)C4=CC(=O)CC[C@]4(C)[C@@H]3CC[C@]21C)C(C)C
REMARK SMILES IDX 4 1 3 2 2 3 1 4 29 5 30 6 31 7 5 8 6 9 7 10 8 11 9 12 27 13
REMARK SMILES IDX 10 14 11 15 26 16 28 17 12 18 25 19 24 20 13 21 22 22 14 23
REMARK SMILES IDX 16 24 21 25 23 26 15 27 17 28 20 29 18 30 19 31
REMARK H PARENT
REMARK Flexibility Score: inf
ROOT
ATOM      1  C   UNL     1       4.973 143.085  -9.041  1.00  0.00     0.004 C 
ENDROOT
BRANCH   1   2
ATOM      2  C   UNL     1       3.421 143.202  -9.124  1.00  0.00    -0.009 C 
BRANCH   2   3
ATOM      3  C   UNL     1       2.983 144.694  -9.124  1.00  0.00     0.000 C 
ATOM      4  C   UNL     1       1.527 144.904  -8.702  1.00  0.00     0.004 C 
ENDBRANCH   2   3
BRANCH   2   5
ATOM      5  C   UNL     1       2.709 142.371  -8.001  1.00  0.00    -0.014 C 
ATOM      6  C   UNL     1       2.645 143.141  -6.671  1.00  0.00     0.007 C 
ATOM      7  C   UNL     1       1.304 141.877  -8.390  1.00  0.00     0.007 C 
ENDBRANCH   2   5
ENDBRANCH   1   2
BRANCH   1   8
ATOM      8  C   UNL     1       5.562 142.799  -7.639  1.00  0.00     0.004 C 
BRANCH   8   9
ATOM      9  C   UNL     1       6.136 144.026  -6.866  1.00  0.00    -0.011 C 
ATOM     10  C   UNL     1       6.417 143.652  -5.398  1.00  0.00     0.008 C 
BRANCH   9  11
ATOM     11  C   UNL     1       5.228 145.313  -6.930  1.00  0.00    -0.002 C 
ATOM     12  C   UNL     1       5.392 146.196  -8.162  1.00  0.00     0.005 C 
ATOM     13  C   UNL     1       5.280 146.304  -5.728  1.00  0.00    -0.026 C 
ATOM     14  C   UNL     1       4.612 147.460  -7.834  1.00  0.00     0.005 C 
ATOM     15  C   UNL     1       4.660 147.629  -6.295  1.00  0.00    -0.001 C 
ATOM     16  C   UNL     1       4.500 145.760  -4.495  1.00  0.00     0.007 C 
ATOM     17  C   UNL     1       6.737 146.589  -5.280  1.00  0.00     0.012 C 
ATOM     18  C   UNL     1       3.286 148.000  -5.652  1.00  0.00     0.004 C 
ATOM     19  C   UNL     1       2.961 145.700  -4.635  1.00  0.00     0.005 C 
ATOM     20  C   UNL     1       2.342 146.767  -5.592  1.00  0.00     0.003 C 
ATOM     21  C   UNL     1       2.639 149.217  -6.328  1.00  0.00     0.085 C 
ATOM     22  C   UNL     1       0.780 147.104  -5.391  1.00  0.00    -0.000 C 
ATOM     23  C   UNL     1       1.433 149.622  -5.556  1.00  0.00     0.159 C 
ATOM     24  C   UNL     1       0.531 148.577  -5.018  1.00  0.00     0.005 C 
ATOM     25  C   UNL     1       0.104 146.191  -4.311  1.00  0.00     0.020 C 
ATOM     26  C   UNL     1       0.063 146.863  -6.749  1.00  0.00     0.017 C 
ATOM     27  O   UNL     1       1.187 150.849  -5.391  1.00  0.00    -0.295 OA
ATOM     28  C   UNL     1      -0.575 148.951  -4.339  1.00  0.00     0.055 C 
ATOM     29  C   UNL     1      -1.380 146.508  -4.088  1.00  0.00     0.081 C 
ATOM     30  C   UNL     1      -1.560 147.973  -3.845  1.00  0.00     0.156 C 
ATOM     31  O   UNL     1      -2.585 148.381  -3.237  1.00  0.00    -0.295 OA
ENDBRANCH   9  11
ENDBRANCH   8   9
ENDBRANCH   1   8
TORSDOF 6
ENDMDL
