MODEL 1
REMARK VINA RESULT:    -3.983      0.000      0.000
REMARK INTER + INTRA:          -7.564
REMARK INTER:                  -6.078
REMARK INTRA:                  -1.486
REMARK UNBOUND:                -1.486
REMARK SMILES OC[C@H]1O[C@H](O[C@@]2(CO)O[C@H](CO)[C@H](O)[C@@H]2O)[C@@H](O)[C@H](O)[C@H]1O
REMARK SMILES IDX 6 1 5 2 3 3 22 4 4 5 20 6 18 7 2 8 1 9 23 11 21 13 19 15
REMARK SMILES IDX 7 17 16 18 10 19 14 20 11 21 8 22 9 23 17 25 15 27 12 29
REMARK SMILES IDX 13 30
REMARK H PARENT 1 10 23 12 21 14 19 16 9 24 17 26 15 28 13 31
REMARK Flexibility Score: inf
ROOT
ATOM      1  O   UNL     1     120.898 128.044 136.006  1.00  0.00    -0.313 OA
ENDROOT
BRANCH   1   2
ATOM      2  C   UNL     1     121.241 129.417 135.847  1.00  0.00     0.285 C 
ATOM      3  C   UNL     1     121.048 131.316 134.430  1.00  0.00     0.178 C 
ATOM      4  C   UNL     1     121.622 132.129 135.630  1.00  0.00     0.177 C 
ATOM      5  O   UNL     1     120.575 130.010 134.744  1.00  0.00    -0.341 OA
ATOM      6  C   UNL     1     120.892 131.725 136.926  1.00  0.00     0.179 C 
ATOM      7  C   UNL     1     120.994 130.197 137.167  1.00  0.00     0.202 C 
BRANCH   3   8
ATOM      8  C   UNL     1     121.976 131.276 133.205  1.00  0.00     0.191 C 
BRANCH   8   9
ATOM      9  O   UNL     1     121.640 130.212 132.358  1.00  0.00    -0.394 OA
ATOM     10  H   UNL     1     121.829 130.524 131.434  1.00  0.00     0.210 HD
ENDBRANCH   8   9
ENDBRANCH   3   8
BRANCH   4  11
ATOM     11  O   UNL     1     123.006 131.917 135.766  1.00  0.00    -0.387 OA
ATOM     12  H   UNL     1     123.320 131.509 134.918  1.00  0.00     0.211 HD
ENDBRANCH   4  11
BRANCH   6  13
ATOM     13  O   UNL     1     119.536 132.088 136.837  1.00  0.00    -0.387 OA
ATOM     14  H   UNL     1     119.152 131.587 136.069  1.00  0.00     0.211 HD
ENDBRANCH   6  13
BRANCH   7  15
ATOM     15  O   UNL     1     121.996 129.897 138.108  1.00  0.00    -0.385 OA
ATOM     16  H   UNL     1     122.858 129.820 137.623  1.00  0.00     0.211 HD
ENDBRANCH   7  15
ENDBRANCH   1   2
BRANCH   1  17
ATOM     17  C   UNL     1     121.977 127.104 135.994  1.00  0.00     0.224 C 
ATOM     18  C   UNL     1     121.409 125.666 135.832  1.00  0.00     0.208 C 
ATOM     19  O   UNL     1     122.757 127.162 137.179  1.00  0.00    -0.337 OA
ATOM     20  C   UNL     1     121.906 124.928 137.059  1.00  0.00     0.180 C 
ATOM     21  C   UNL     1     122.989 125.846 137.634  1.00  0.00     0.179 C 
BRANCH  17  22
ATOM     22  C   UNL     1     122.888 127.516 134.815  1.00  0.00     0.225 C 
BRANCH  22  23
ATOM     23  O   UNL     1     122.163 127.527 133.613  1.00  0.00    -0.391 OA
ATOM     24  H   UNL     1     122.297 126.639 133.190  1.00  0.00     0.210 HD
ENDBRANCH  22  23
ENDBRANCH  17  22
BRANCH  18  25
ATOM     25  O   UNL     1     121.854 125.033 134.657  1.00  0.00    -0.385 OA
ATOM     26  H   UNL     1     122.841 124.946 134.733  1.00  0.00     0.211 HD
ENDBRANCH  18  25
BRANCH  20  27
ATOM     27  O   UNL     1     122.381 123.642 136.749  1.00  0.00    -0.387 OA
ATOM     28  H   UNL     1     121.582 123.060 136.666  1.00  0.00     0.211 HD
ENDBRANCH  20  27
BRANCH  21  29
ATOM     29  C   UNL     1     124.428 125.416 137.287  1.00  0.00     0.191 C 
BRANCH  29  30
ATOM     30  O   UNL     1     124.829 124.340 138.091  1.00  0.00    -0.394 OA
ATOM     31  H   UNL     1     125.227 123.663 137.483  1.00  0.00     0.210 HD
ENDBRANCH  29  30
ENDBRANCH  21  29
ENDBRANCH   1  17
TORSDOF 13
ENDMDL
MODEL 2
REMARK VINA RESULT:    -3.978      9.331     11.399
REMARK INTER + INTRA:          -7.557
REMARK INTER:                  -6.080
REMARK INTRA:                  -1.477
REMARK UNBOUND:                -1.486
REMARK SMILES OC[C@H]1O[C@H](O[C@@]2(CO)O[C@H](CO)[C@H](O)[C@@H]2O)[C@@H](O)[C@H](O)[C@H]1O
REMARK SMILES IDX 6 1 5 2 3 3 22 4 4 5 20 6 18 7 2 8 1 9 23 11 21 13 19 15
REMARK SMILES IDX 7 17 16 18 10 19 14 20 11 21 8 22 9 23 17 25 15 27 12 29
REMARK SMILES IDX 13 30
REMARK H PARENT 1 10 23 12 21 14 19 16 9 24 17 26 15 28 13 31
REMARK Flexibility Score: inf
ROOT
ATOM      1  O   UNL     1     131.087 121.736 135.967  1.00  0.00    -0.313 OA
ENDROOT
BRANCH   1   2
ATOM      2  C   UNL     1     129.727 121.335 135.831  1.00  0.00     0.285 C 
ATOM      3  C   UNL     1     128.172 120.174 134.457  1.00  0.00     0.178 C 
ATOM      4  C   UNL     1     127.191 120.292 135.663  1.00  0.00     0.177 C 
ATOM      5  O   UNL     1     129.541 120.433 134.753  1.00  0.00    -0.341 OA
ATOM      6  C   UNL     1     127.919 119.900 136.963  1.00  0.00     0.179 C 
ATOM      7  C   UNL     1     129.189 120.764 137.170  1.00  0.00     0.202 C 
BRANCH   3   8
ATOM      8  C   UNL     1     127.729 120.964 133.214  1.00  0.00     0.191 C 
BRANCH   8   9
ATOM      9  O   UNL     1     128.818 121.227 132.374  1.00  0.00    -0.394 OA
ATOM     10  H   UNL     1     129.563 120.658 132.701  1.00  0.00     0.210 HD
ENDBRANCH   8   9
ENDBRANCH   3   8
BRANCH   4  11
ATOM     11  O   UNL     1     126.678 121.598 135.769  1.00  0.00    -0.387 OA
ATOM     12  H   UNL     1     125.699 121.512 135.907  1.00  0.00     0.211 HD
ENDBRANCH   4  11
BRANCH   6  13
ATOM     13  O   UNL     1     128.288 118.544 136.907  1.00  0.00    -0.387 OA
ATOM     14  H   UNL     1     128.632 118.300 137.807  1.00  0.00     0.211 HD
ENDBRANCH   6  13
BRANCH   7  15
ATOM     15  O   UNL     1     128.951 121.805 138.086  1.00  0.00    -0.385 OA
ATOM     16  H   UNL     1     128.227 121.514 138.699  1.00  0.00     0.211 HD
ENDBRANCH   7  15
ENDBRANCH   1   2
BRANCH   1  17
ATOM     17  C   UNL     1     131.350 123.142 135.966  1.00  0.00     0.224 C 
ATOM     18  C   UNL     1     132.881 123.383 135.861  1.00  0.00     0.208 C 
ATOM     19  O   UNL     1     130.860 123.784 137.134  1.00  0.00    -0.337 OA
ATOM     20  C   UNL     1     133.219 124.185 137.101  1.00  0.00     0.180 C 
ATOM     21  C   UNL     1     131.859 124.651 137.627  1.00  0.00     0.179 C 
BRANCH  17  22
ATOM     22  C   UNL     1     130.575 123.718 134.759  1.00  0.00     0.225 C 
BRANCH  22  23
ATOM     23  O   UNL     1     130.930 123.045 133.579  1.00  0.00    -0.391 OA
ATOM     24  H   UNL     1     131.406 123.702 133.007  1.00  0.00     0.210 HD
ENDBRANCH  22  23
ENDBRANCH  17  22
BRANCH  18  25
ATOM     25  O   UNL     1     133.244 124.089 134.698  1.00  0.00    -0.385 OA
ATOM     26  H   UNL     1     133.319 123.420 133.967  1.00  0.00     0.211 HD
ENDBRANCH  18  25
BRANCH  20  27
ATOM     27  O   UNL     1     134.097 125.247 136.823  1.00  0.00    -0.387 OA
ATOM     28  H   UNL     1     134.861 124.858 136.324  1.00  0.00     0.211 HD
ENDBRANCH  20  27
BRANCH  21  29
ATOM     29  C   UNL     1     131.511 126.110 137.268  1.00  0.00     0.191 C 
BRANCH  29  30
ATOM     30  O   UNL     1     132.175 127.000 138.124  1.00  0.00    -0.394 OA
ATOM     31  H   UNL     1     133.140 126.768 138.083  1.00  0.00     0.210 HD
ENDBRANCH  29  30
ENDBRANCH  21  29
ENDBRANCH   1  17
TORSDOF 13
ENDMDL
MODEL 3
REMARK VINA RESULT:    -3.966      9.301     11.354
REMARK INTER + INTRA:          -7.538
REMARK INTER:                  -6.046
REMARK INTRA:                  -1.492
REMARK UNBOUND:                -1.486
REMARK SMILES OC[C@H]1O[C@H](O[C@@]2(CO)O[C@H](CO)[C@H](O)[C@@H]2O)[C@@H](O)[C@H](O)[C@H]1O
REMARK SMILES IDX 6 1 5 2 3 3 22 4 4 5 20 6 18 7 2 8 1 9 23 11 21 13 19 15
REMARK SMILES IDX 7 17 16 18 10 19 14 20 11 21 8 22 9 23 17 25 15 27 12 29
REMARK SMILES IDX 13 30
REMARK H PARENT 1 10 23 12 21 14 19 16 9 24 17 26 15 28 13 31
REMARK Flexibility Score: inf
ROOT
ATOM      1  O   UNL     1     131.441 133.628 136.001  1.00  0.00    -0.313 OA
ENDROOT
BRANCH   1   2
ATOM      2  C   UNL     1     132.450 132.637 135.833  1.00  0.00     0.285 C 
ATOM      3  C   UNL     1     134.177 131.846 134.404  1.00  0.00     0.178 C 
ATOM      4  C   UNL     1     134.592 130.933 135.597  1.00  0.00     0.177 C 
ATOM      5  O   UNL     1     133.293 132.915 134.728  1.00  0.00    -0.341 OA
ATOM      6  C   UNL     1     134.620 131.761 136.897  1.00  0.00     0.179 C 
ATOM      7  C   UNL     1     133.253 132.447 137.148  1.00  0.00     0.202 C 
BRANCH   3   8
ATOM      8  C   UNL     1     133.665 131.073 133.177  1.00  0.00     0.191 C 
BRANCH   8   9
ATOM      9  O   UNL     1     132.918 131.907 132.337  1.00  0.00    -0.394 OA
ATOM     10  H   UNL     1     132.020 131.986 132.753  1.00  0.00     0.210 HD
ENDBRANCH   8   9
ENDBRANCH   3   8
BRANCH   4  11
ATOM     11  O   UNL     1     133.707 129.847 135.733  1.00  0.00    -0.387 OA
ATOM     12  H   UNL     1     132.892 130.194 136.180  1.00  0.00     0.211 HD
ENDBRANCH   4  11
BRANCH   6  13
ATOM     13  O   UNL     1     135.621 132.745 136.809  1.00  0.00    -0.387 OA
ATOM     14  H   UNL     1     135.256 133.568 137.230  1.00  0.00     0.211 HD
ENDBRANCH   6  13
BRANCH   7  15
ATOM     15  O   UNL     1     132.491 131.732 138.089  1.00  0.00    -0.385 OA
ATOM     16  H   UNL     1     133.056 130.999 138.448  1.00  0.00     0.211 HD
ENDBRANCH   7  15
ENDBRANCH   1   2
BRANCH   1  17
ATOM     17  C   UNL     1     130.084 133.176 135.994  1.00  0.00     0.224 C 
ATOM     18  C   UNL     1     129.130 134.401 135.921  1.00  0.00     0.208 C 
ATOM     19  O   UNL     1     129.764 132.410 137.147  1.00  0.00    -0.337 OA
ATOM     20  C   UNL     1     128.269 134.279 137.163  1.00  0.00     0.180 C 
ATOM     21  C   UNL     1     128.523 132.851 137.655  1.00  0.00     0.179 C 
BRANCH  17  22
ATOM     22  C   UNL     1     129.951 132.248 134.766  1.00  0.00     0.225 C 
BRANCH  22  23
ATOM     23  O   UNL     1     130.414 132.893 133.609  1.00  0.00    -0.391 OA
ATOM     24  H   UNL     1     130.044 132.393 132.834  1.00  0.00     0.210 HD
ENDBRANCH  22  23
ENDBRANCH  17  22
BRANCH  18  25
ATOM     25  O   UNL     1     128.333 134.403 134.761  1.00  0.00    -0.385 OA
ATOM     26  H   UNL     1     128.792 133.826 134.096  1.00  0.00     0.211 HD
ENDBRANCH  18  25
BRANCH  20  27
ATOM     27  O   UNL     1     126.913 134.538 136.896  1.00  0.00    -0.387 OA
ATOM     28  H   UNL     1     126.392 134.017 137.560  1.00  0.00     0.211 HD
ENDBRANCH  20  27
BRANCH  21  29
ATOM     29  C   UNL     1     127.414 131.849 137.276  1.00  0.00     0.191 C 
BRANCH  29  30
ATOM     30  O   UNL     1     126.308 131.993 138.124  1.00  0.00    -0.394 OA
ATOM     31  H   UNL     1     126.591 132.595 138.862  1.00  0.00     0.210 HD
ENDBRANCH  29  30
ENDBRANCH  21  29
ENDBRANCH   1  17
TORSDOF 13
ENDMDL
MODEL 4
REMARK VINA RESULT:    -3.960      9.037     11.203
REMARK INTER + INTRA:          -7.529
REMARK INTER:                  -6.410
REMARK INTRA:                  -1.119
REMARK UNBOUND:                -1.486
REMARK SMILES OC[C@H]1O[C@H](O[C@@]2(CO)O[C@H](CO)[C@H](O)[C@@H]2O)[C@@H](O)[C@H](O)[C@H]1O
REMARK SMILES IDX 6 1 5 2 3 3 22 4 4 5 20 6 18 7 2 8 1 9 23 11 21 13 19 15
REMARK SMILES IDX 7 17 16 18 10 19 14 20 11 21 8 22 9 23 17 25 15 27 12 29
REMARK SMILES IDX 13 30
REMARK H PARENT 1 10 23 12 21 14 19 16 9 24 17 26 15 28 13 31
REMARK Flexibility Score: inf
ROOT
ATOM      1  O   UNL     1     130.500 122.418 134.065  1.00  0.00    -0.313 OA
ENDROOT
BRANCH   1   2
ATOM      2  C   UNL     1     131.116 122.898 135.256  1.00  0.00     0.285 C 
ATOM      3  C   UNL     1     132.761 122.444 136.911  1.00  0.00     0.178 C 
ATOM      4  C   UNL     1     132.531 123.913 137.381  1.00  0.00     0.177 C 
ATOM      5  O   UNL     1     132.247 122.125 135.622  1.00  0.00    -0.341 OA
ATOM      6  C   UNL     1     132.522 124.852 136.159  1.00  0.00     0.179 C 
ATOM      7  C   UNL     1     131.457 124.407 135.125  1.00  0.00     0.202 C 
BRANCH   3   8
ATOM      8  C   UNL     1     132.333 121.387 137.942  1.00  0.00     0.191 C 
BRANCH   8   9
ATOM      9  O   UNL     1     133.337 120.427 138.120  1.00  0.00    -0.394 OA
ATOM     10  H   UNL     1     134.191 120.929 138.185  1.00  0.00     0.210 HD
ENDBRANCH   8   9
ENDBRANCH   3   8
BRANCH   4  11
ATOM     11  O   UNL     1     131.323 124.031 138.093  1.00  0.00    -0.387 OA
ATOM     12  H   UNL     1     130.664 123.443 137.641  1.00  0.00     0.211 HD
ENDBRANCH   4  11
BRANCH   6  13
ATOM     13  O   UNL     1     133.788 124.845 135.548  1.00  0.00    -0.387 OA
ATOM     14  H   UNL     1     134.017 123.895 135.367  1.00  0.00     0.211 HD
ENDBRANCH   6  13
BRANCH   7  15
ATOM     15  O   UNL     1     130.289 125.183 135.232  1.00  0.00    -0.385 OA
ATOM     16  H   UNL     1     129.522 124.627 134.935  1.00  0.00     0.211 HD
ENDBRANCH   7  15
ENDBRANCH   1   2
BRANCH   1  17
ATOM     17  C   UNL     1     129.362 121.566 134.225  1.00  0.00     0.224 C 
ATOM     18  C   UNL     1     128.350 122.232 135.199  1.00  0.00     0.208 C 
ATOM     19  O   UNL     1     129.712 120.285 134.727  1.00  0.00    -0.337 OA
ATOM     20  C   UNL     1     128.194 121.224 136.321  1.00  0.00     0.180 C 
ATOM     21  C   UNL     1     128.813 119.941 135.760  1.00  0.00     0.179 C 
BRANCH  17  22
ATOM     22  C   UNL     1     128.777 121.368 132.808  1.00  0.00     0.225 C 
BRANCH  22  23
ATOM     23  O   UNL     1     128.809 122.572 132.088  1.00  0.00    -0.391 OA
ATOM     24  H   UNL     1     127.998 123.084 132.349  1.00  0.00     0.210 HD
ENDBRANCH  22  23
ENDBRANCH  17  22
BRANCH  18  25
ATOM     25  O   UNL     1     127.107 122.500 134.595  1.00  0.00    -0.385 OA
ATOM     26  H   UNL     1     126.421 122.007 135.117  1.00  0.00     0.211 HD
ENDBRANCH  18  25
BRANCH  20  27
ATOM     27  O   UNL     1     126.851 121.066 136.708  1.00  0.00    -0.387 OA
ATOM     28  H   UNL     1     126.342 121.788 136.257  1.00  0.00     0.211 HD
ENDBRANCH  20  27
BRANCH  21  29
ATOM     29  C   UNL     1     127.781 118.920 135.239  1.00  0.00     0.191 C 
BRANCH  29  30
ATOM     30  O   UNL     1     127.335 118.095 136.281  1.00  0.00    -0.394 OA
ATOM     31  H   UNL     1     128.072 118.054 136.947  1.00  0.00     0.210 HD
ENDBRANCH  29  30
ENDBRANCH  21  29
ENDBRANCH   1  17
TORSDOF 13
ENDMDL
MODEL 5
REMARK VINA RESULT:    -3.893      1.575      5.969
REMARK INTER + INTRA:          -7.427
REMARK INTER:                  -6.358
REMARK INTRA:                  -1.070
REMARK UNBOUND:                -1.486
REMARK SMILES OC[C@H]1O[C@H](O[C@@]2(CO)O[C@H](CO)[C@H](O)[C@@H]2O)[C@@H](O)[C@H](O)[C@H]1O
REMARK SMILES IDX 6 1 5 2 3 3 22 4 4 5 20 6 18 7 2 8 1 9 23 11 21 13 19 15
REMARK SMILES IDX 7 17 16 18 10 19 14 20 11 21 8 22 9 23 17 25 15 27 12 29
REMARK SMILES IDX 13 30
REMARK H PARENT 1 10 23 12 21 14 19 16 9 24 17 26 15 28 13 31
REMARK Flexibility Score: inf
ROOT
ATOM      1  O   UNL     1     121.996 128.237 134.089  1.00  0.00    -0.313 OA
ENDROOT
BRANCH   1   2
ATOM      2  C   UNL     1     122.022 127.427 135.261  1.00  0.00     0.285 C 
ATOM      3  C   UNL     1     120.695 126.187 136.795  1.00  0.00     0.178 C 
ATOM      4  C   UNL     1     122.046 125.630 137.338  1.00  0.00     0.177 C 
ATOM      5  O   UNL     1     120.763 126.830 135.526  1.00  0.00    -0.341 OA
ATOM      6  C   UNL     1     122.941 125.200 136.159  1.00  0.00     0.179 C 
ATOM      7  C   UNL     1     123.160 126.375 135.172  1.00  0.00     0.202 C 
BRANCH   3   8
ATOM      8  C   UNL     1     119.931 127.060 137.804  1.00  0.00     0.191 C 
BRANCH   8   9
ATOM      9  O   UNL     1     118.661 126.530 138.062  1.00  0.00    -0.394 OA
ATOM     10  H   UNL     1     118.039 126.986 137.437  1.00  0.00     0.210 HD
ENDBRANCH   8   9
ENDBRANCH   3   8
BRANCH   4  11
ATOM     11  O   UNL     1     122.708 126.591 138.125  1.00  0.00    -0.387 OA
ATOM     12  H   UNL     1     123.625 126.681 137.758  1.00  0.00     0.211 HD
ENDBRANCH   4  11
BRANCH   6  13
ATOM     13  O   UNL     1     122.338 124.130 135.475  1.00  0.00    -0.387 OA
ATOM     14  H   UNL     1     123.057 123.472 135.276  1.00  0.00     0.211 HD
ENDBRANCH   6  13
BRANCH   7  15
ATOM     15  O   UNL     1     124.410 126.987 135.381  1.00  0.00    -0.385 OA
ATOM     16  H   UNL     1     124.859 126.519 136.132  1.00  0.00     0.211 HD
ENDBRANCH   7  15
ENDBRANCH   1   2
BRANCH   1  17
ATOM     17  C   UNL     1     121.733 129.631 134.273  1.00  0.00     0.224 C 
ATOM     18  C   UNL     1     122.883 130.269 135.100  1.00  0.00     0.208 C 
ATOM     19  O   UNL     1     120.501 129.865 134.939  1.00  0.00    -0.337 OA
ATOM     20  C   UNL     1     122.191 130.850 136.317  1.00  0.00     0.180 C 
ATOM     21  C   UNL     1     120.705 130.832 135.946  1.00  0.00     0.179 C 
BRANCH  17  22
ATOM     22  C   UNL     1     121.619 130.233 132.854  1.00  0.00     0.225 C 
BRANCH  22  23
ATOM     23  O   UNL     1     122.659 129.767 132.036  1.00  0.00    -0.391 OA
ATOM     24  H   UNL     1     123.008 128.940 132.459  1.00  0.00     0.210 HD
ENDBRANCH  22  23
ENDBRANCH  17  22
BRANCH  18  25
ATOM     25  O   UNL     1     123.571 131.274 134.393  1.00  0.00    -0.385 OA
ATOM     26  H   UNL     1     122.899 131.965 134.150  1.00  0.00     0.211 HD
ENDBRANCH  18  25
BRANCH  20  27
ATOM     27  O   UNL     1     122.665 132.134 136.636  1.00  0.00    -0.387 OA
ATOM     28  H   UNL     1     123.116 132.477 135.821  1.00  0.00     0.211 HD
ENDBRANCH  20  27
BRANCH  21  29
ATOM     29  C   UNL     1     120.157 132.197 135.482  1.00  0.00     0.191 C 
BRANCH  29  30
ATOM     30  O   UNL     1     119.727 132.955 136.580  1.00  0.00    -0.394 OA
ATOM     31  H   UNL     1     120.514 133.063 137.176  1.00  0.00     0.210 HD
ENDBRANCH  29  30
ENDBRANCH  21  29
ENDBRANCH   1  17
TORSDOF 13
ENDMDL
MODEL 6
REMARK VINA RESULT:    -3.875      9.561     10.986
REMARK INTER + INTRA:          -7.400
REMARK INTER:                  -6.189
REMARK INTRA:                  -1.212
REMARK UNBOUND:                -1.486
REMARK SMILES OC[C@H]1O[C@H](O[C@@]2(CO)O[C@H](CO)[C@H](O)[C@@H]2O)[C@@H](O)[C@H](O)[C@H]1O
REMARK SMILES IDX 6 1 5 2 3 3 22 4 4 5 20 6 18 7 2 8 1 9 23 11 21 13 19 15
REMARK SMILES IDX 7 17 16 18 10 19 14 20 11 21 8 22 9 23 17 25 15 27 12 29
REMARK SMILES IDX 13 30
REMARK H PARENT 1 10 23 12 21 14 19 16 9 24 17 26 15 28 13 31
REMARK Flexibility Score: inf
ROOT
ATOM      1  O   UNL     1     131.148 132.827 134.107  1.00  0.00    -0.313 OA
ENDROOT
BRANCH   1   2
ATOM      2  C   UNL     1     130.406 133.127 135.285  1.00  0.00     0.285 C 
ATOM      3  C   UNL     1     129.904 134.808 136.889  1.00  0.00     0.178 C 
ATOM      4  C   UNL     1     128.779 133.847 137.378  1.00  0.00     0.177 C 
ATOM      5  O   UNL     1     130.457 134.506 135.612  1.00  0.00    -0.341 OA
ATOM      6  C   UNL     1     127.997 133.306 136.165  1.00  0.00     0.179 C 
ATOM      7  C   UNL     1     128.947 132.611 135.157  1.00  0.00     0.202 C 
BRANCH   3   8
ATOM      8  C   UNL     1     131.020 135.035 137.923  1.00  0.00     0.191 C 
BRANCH   8   9
ATOM      9  O   UNL     1     131.783 133.874 138.099  1.00  0.00    -0.394 OA
ATOM     10  H   UNL     1     131.137 133.120 138.121  1.00  0.00     0.210 HD
ENDBRANCH   8   9
ENDBRANCH   3   8
BRANCH   4  11
ATOM     11  O   UNL     1     129.315 132.781 138.124  1.00  0.00    -0.387 OA
ATOM     12  H   UNL     1     129.148 132.986 139.080  1.00  0.00     0.211 HD
ENDBRANCH   4  11
BRANCH   6  13
ATOM     13  O   UNL     1     127.335 134.365 135.519  1.00  0.00    -0.387 OA
ATOM     14  H   UNL     1     127.714 135.209 135.884  1.00  0.00     0.211 HD
ENDBRANCH   6  13
BRANCH   7  15
ATOM     15  O   UNL     1     128.908 131.212 135.303  1.00  0.00    -0.385 OA
ATOM     16  H   UNL     1     129.609 130.824 134.718  1.00  0.00     0.211 HD
ENDBRANCH   7  15
ENDBRANCH   1   2
BRANCH   1  17
ATOM     17  C   UNL     1     132.451 132.265 134.290  1.00  0.00     0.224 C 
ATOM     18  C   UNL     1     132.345 130.994 135.178  1.00  0.00     0.208 C 
ATOM     19  O   UNL     1     133.353 133.178 134.898  1.00  0.00    -0.337 OA
ATOM     20  C   UNL     1     133.240 131.292 136.365  1.00  0.00     0.180 C 
ATOM     21  C   UNL     1     134.056 132.509 135.922  1.00  0.00     0.179 C 
BRANCH  17  22
ATOM     22  C   UNL     1     132.984 131.955 132.873  1.00  0.00     0.225 C 
BRANCH  22  23
ATOM     23  O   UNL     1     131.981 131.369 132.086  1.00  0.00    -0.391 OA
ATOM     24  H   UNL     1     131.784 130.482 132.487  1.00  0.00     0.210 HD
ENDBRANCH  22  23
ENDBRANCH  17  22
BRANCH  18  25
ATOM     25  O   UNL     1     132.772 129.828 134.514  1.00  0.00    -0.385 OA
ATOM     26  H   UNL     1     133.135 130.115 133.635  1.00  0.00     0.211 HD
ENDBRANCH  18  25
BRANCH  20  27
ATOM     27  O   UNL     1     134.038 130.189 136.718  1.00  0.00    -0.387 OA
ATOM     28  H   UNL     1     133.938 129.525 135.988  1.00  0.00     0.211 HD
ENDBRANCH  20  27
BRANCH  21  29
ATOM     29  C   UNL     1     135.482 132.169 135.443  1.00  0.00     0.191 C 
BRANCH  29  30
ATOM     30  O   UNL     1     136.374 132.151 136.525  1.00  0.00    -0.394 OA
ATOM     31  H   UNL     1     136.113 132.901 137.122  1.00  0.00     0.210 HD
ENDBRANCH  29  30
ENDBRANCH  21  29
ENDBRANCH   1  17
TORSDOF 13
ENDMDL
MODEL 7
REMARK VINA RESULT:    -3.829      3.257      6.091
REMARK INTER + INTRA:          -7.330
REMARK INTER:                  -5.999
REMARK INTRA:                  -1.331
REMARK UNBOUND:                -1.486
REMARK SMILES OC[C@H]1O[C@H](O[C@@]2(CO)O[C@H](CO)[C@H](O)[C@@H]2O)[C@@H](O)[C@H](O)[C@H]1O
REMARK SMILES IDX 6 1 5 2 3 3 22 4 4 5 20 6 18 7 2 8 1 9 23 11 21 13 19 15
REMARK SMILES IDX 7 17 16 18 10 19 14 20 11 21 8 22 9 23 17 25 15 27 12 29
REMARK SMILES IDX 13 30
REMARK H PARENT 1 10 23 12 21 14 19 16 9 24 17 26 15 28 13 31
REMARK Flexibility Score: inf
ROOT
ATOM      1  O   UNL     1     124.500 130.658 135.867  1.00  0.00    -0.313 OA
ENDROOT
BRANCH   1   2
ATOM      2  C   UNL     1     123.130 130.580 135.485  1.00  0.00     0.285 C 
ATOM      3  C   UNL     1     121.617 129.788 133.831  1.00  0.00     0.178 C 
ATOM      4  C   UNL     1     120.492 130.148 134.849  1.00  0.00     0.177 C 
ATOM      5  O   UNL     1     122.934 129.728 134.368  1.00  0.00    -0.341 OA
ATOM      6  C   UNL     1     120.870 129.619 136.247  1.00  0.00     0.179 C 
ATOM      7  C   UNL     1     122.248 130.169 136.695  1.00  0.00     0.202 C 
BRANCH   3   8
ATOM      8  C   UNL     1     121.592 130.640 132.551  1.00  0.00     0.191 C 
BRANCH   8   9
ATOM      9  O   UNL     1     122.811 130.548 131.866  1.00  0.00    -0.394 OA
ATOM     10  H   UNL     1     122.617 130.069 131.019  1.00  0.00     0.210 HD
ENDBRANCH   8   9
ENDBRANCH   3   8
BRANCH   4  11
ATOM     11  O   UNL     1     120.282 131.539 134.898  1.00  0.00    -0.387 OA
ATOM     12  H   UNL     1     119.314 131.689 134.744  1.00  0.00     0.211 HD
ENDBRANCH   4  11
BRANCH   6  13
ATOM     13  O   UNL     1     120.921 128.214 136.221  1.00  0.00    -0.387 OA
ATOM     14  H   UNL     1     120.381 127.890 136.991  1.00  0.00     0.211 HD
ENDBRANCH   6  13
BRANCH   7  15
ATOM     15  O   UNL     1     122.098 131.252 137.581  1.00  0.00    -0.385 OA
ATOM     16  H   UNL     1     121.573 130.937 138.363  1.00  0.00     0.211 HD
ENDBRANCH   7  15
ENDBRANCH   1   2
BRANCH   1  17
ATOM     17  C   UNL     1     125.098 131.957 135.863  1.00  0.00     0.224 C 
ATOM     18  C   UNL     1     126.609 131.832 136.208  1.00  0.00     0.208 C 
ATOM     19  O   UNL     1     124.484 132.838 136.793  1.00  0.00    -0.337 OA
ATOM     20  C   UNL     1     126.782 132.691 137.444  1.00  0.00     0.180 C 
ATOM     21  C   UNL     1     125.493 133.515 137.511  1.00  0.00     0.179 C 
BRANCH  17  22
ATOM     22  C   UNL     1     124.859 132.532 134.448  1.00  0.00     0.225 C 
BRANCH  22  23
ATOM     23  O   UNL     1     125.248 131.605 133.468  1.00  0.00    -0.391 OA
ATOM     24  H   UNL     1     124.804 130.746 133.693  1.00  0.00     0.210 HD
ENDBRANCH  22  23
ENDBRANCH  17  22
BRANCH  18  25
ATOM     25  O   UNL     1     127.444 132.283 135.168  1.00  0.00    -0.385 OA
ATOM     26  H   UNL     1     126.956 133.012 134.703  1.00  0.00     0.211 HD
ENDBRANCH  18  25
BRANCH  20  27
ATOM     27  O   UNL     1     127.941 133.485 137.381  1.00  0.00    -0.387 OA
ATOM     28  H   UNL     1     128.296 133.391 136.459  1.00  0.00     0.211 HD
ENDBRANCH  20  27
BRANCH  21  29
ATOM     29  C   UNL     1     125.638 134.955 136.980  1.00  0.00     0.191 C 
BRANCH  29  30
ATOM     30  O   UNL     1     125.316 135.884 137.980  1.00  0.00    -0.394 OA
ATOM     31  H   UNL     1     124.662 136.517 137.582  1.00  0.00     0.210 HD
ENDBRANCH  29  30
ENDBRANCH  21  29
ENDBRANCH   1  17
TORSDOF 13
ENDMDL
MODEL 8
REMARK VINA RESULT:    -3.821      9.851     11.339
REMARK INTER + INTRA:          -7.318
REMARK INTER:                  -5.638
REMARK INTRA:                  -1.680
REMARK UNBOUND:                -1.486
REMARK SMILES OC[C@H]1O[C@H](O[C@@]2(CO)O[C@H](CO)[C@H](O)[C@@H]2O)[C@@H](O)[C@H](O)[C@H]1O
REMARK SMILES IDX 6 1 5 2 3 3 22 4 4 5 20 6 18 7 2 8 1 9 23 11 21 13 19 15
REMARK SMILES IDX 7 17 16 18 10 19 14 20 11 21 8 22 9 23 17 25 15 27 12 29
REMARK SMILES IDX 13 30
REMARK H PARENT 1 10 23 12 21 14 19 16 9 24 17 26 15 28 13 31
REMARK Flexibility Score: inf
ROOT
ATOM      1  O   UNL     1     133.278 129.244 133.275  1.00  0.00    -0.313 OA
ENDROOT
BRANCH   1   2
ATOM      2  C   UNL     1     133.388 130.381 134.126  1.00  0.00     0.285 C 
ATOM      3  C   UNL     1     133.957 131.122 136.312  1.00  0.00     0.178 C 
ATOM      4  C   UNL     1     133.897 132.561 135.718  1.00  0.00     0.177 C 
ATOM      5  O   UNL     1     134.016 130.066 135.358  1.00  0.00    -0.341 OA
ATOM      6  C   UNL     1     134.659 132.601 134.379  1.00  0.00     0.179 C 
ATOM      7  C   UNL     1     134.099 131.548 133.390  1.00  0.00     0.202 C 
BRANCH   3   8
ATOM      8  C   UNL     1     132.875 130.838 137.367  1.00  0.00     0.191 C 
BRANCH   8   9
ATOM      9  O   UNL     1     132.603 131.984 138.125  1.00  0.00    -0.394 OA
ATOM     10  H   UNL     1     133.147 131.905 138.951  1.00  0.00     0.210 HD
ENDBRANCH   8   9
ENDBRANCH   3   8
BRANCH   4  11
ATOM     11  O   UNL     1     132.564 132.973 135.530  1.00  0.00    -0.387 OA
ATOM     12  H   UNL     1     132.174 132.379 134.838  1.00  0.00     0.211 HD
ENDBRANCH   4  11
BRANCH   6  13
ATOM     13  O   UNL     1     136.023 132.343 134.605  1.00  0.00    -0.387 OA
ATOM     14  H   UNL     1     136.499 132.534 133.753  1.00  0.00     0.211 HD
ENDBRANCH   6  13
BRANCH   7  15
ATOM     15  O   UNL     1     133.229 132.140 132.456  1.00  0.00    -0.385 OA
ATOM     16  H   UNL     1     133.350 133.124 132.506  1.00  0.00     0.211 HD
ENDBRANCH   7  15
ENDBRANCH   1   2
BRANCH   1  17
ATOM     17  C   UNL     1     131.958 128.761 133.011  1.00  0.00     0.224 C 
ATOM     18  C   UNL     1     130.920 129.684 133.708  1.00  0.00     0.208 C 
ATOM     19  O   UNL     1     131.769 127.429 133.465  1.00  0.00    -0.337 OA
ATOM     20  C   UNL     1     130.155 128.756 134.631  1.00  0.00     0.180 C 
ATOM     21  C   UNL     1     130.539 127.353 134.151  1.00  0.00     0.179 C 
BRANCH  17  22
ATOM     22  C   UNL     1     131.806 128.756 131.473  1.00  0.00     0.225 C 
BRANCH  22  23
ATOM     23  O   UNL     1     132.156 130.006 130.939  1.00  0.00    -0.391 OA
ATOM     24  H   UNL     1     133.148 130.052 130.944  1.00  0.00     0.210 HD
ENDBRANCH  22  23
ENDBRANCH  17  22
BRANCH  18  25
ATOM     25  O   UNL     1     130.048 130.310 132.798  1.00  0.00    -0.385 OA
ATOM     26  H   UNL     1     129.778 131.174 133.206  1.00  0.00     0.211 HD
ENDBRANCH  18  25
BRANCH  20  27
ATOM     27  O   UNL     1     128.770 128.992 134.592  1.00  0.00    -0.387 OA
ATOM     28  H   UNL     1     128.561 129.288 133.669  1.00  0.00     0.211 HD
ENDBRANCH  20  27
BRANCH  21  29
ATOM     29  C   UNL     1     129.478 126.682 133.255  1.00  0.00     0.191 C 
BRANCH  29  30
ATOM     30  O   UNL     1     128.450 126.133 134.034  1.00  0.00    -0.394 OA
ATOM     31  H   UNL     1     128.050 126.884 134.547  1.00  0.00     0.210 HD
ENDBRANCH  29  30
ENDBRANCH  21  29
ENDBRANCH   1  17
TORSDOF 13
ENDMDL
MODEL 9
REMARK VINA RESULT:    -3.800      9.486     11.527
REMARK INTER + INTRA:          -7.286
REMARK INTER:                  -5.789
REMARK INTRA:                  -1.497
REMARK UNBOUND:                -1.486
REMARK SMILES OC[C@H]1O[C@H](O[C@@]2(CO)O[C@H](CO)[C@H](O)[C@@H]2O)[C@@H](O)[C@H](O)[C@H]1O
REMARK SMILES IDX 6 1 5 2 3 3 22 4 4 5 20 6 18 7 2 8 1 9 23 11 21 13 19 15
REMARK SMILES IDX 7 17 16 18 10 19 14 20 11 21 8 22 9 23 17 25 15 27 12 29
REMARK SMILES IDX 13 30
REMARK H PARENT 1 10 23 12 21 14 19 16 9 24 17 26 15 28 13 31
REMARK Flexibility Score: inf
ROOT
ATOM      1  O   UNL     1     131.627 133.880 135.861  1.00  0.00    -0.313 OA
ENDROOT
BRANCH   1   2
ATOM      2  C   UNL     1     132.582 132.828 135.758  1.00  0.00     0.285 C 
ATOM      3  C   UNL     1     134.218 131.820 134.358  1.00  0.00     0.178 C 
ATOM      4  C   UNL     1     134.634 131.007 135.621  1.00  0.00     0.177 C 
ATOM      5  O   UNL     1     133.396 132.957 134.604  1.00  0.00    -0.341 OA
ATOM      6  C   UNL     1     134.749 131.954 136.832  1.00  0.00     0.179 C 
ATOM      7  C   UNL     1     133.425 132.728 137.058  1.00  0.00     0.202 C 
BRANCH   3   8
ATOM      8  C   UNL     1     133.626 130.957 133.231  1.00  0.00     0.191 C 
BRANCH   8   9
ATOM      9  O   UNL     1     133.250 131.751 132.139  1.00  0.00    -0.394 OA
ATOM     10  H   UNL     1     134.081 132.186 131.815  1.00  0.00     0.210 HD
ENDBRANCH   8   9
ENDBRANCH   3   8
BRANCH   4  11
ATOM     11  O   UNL     1     133.706 129.984 135.891  1.00  0.00    -0.387 OA
ATOM     12  H   UNL     1     134.213 129.238 136.305  1.00  0.00     0.211 HD
ENDBRANCH   4  11
BRANCH   6  13
ATOM     13  O   UNL     1     135.789 132.874 136.615  1.00  0.00    -0.387 OA
ATOM     14  H   UNL     1     135.818 133.054 135.637  1.00  0.00     0.211 HD
ENDBRANCH   6  13
BRANCH   7  15
ATOM     15  O   UNL     1     132.666 132.145 138.089  1.00  0.00    -0.385 OA
ATOM     16  H   UNL     1     132.711 131.159 137.983  1.00  0.00     0.211 HD
ENDBRANCH   7  15
ENDBRANCH   1   2
BRANCH   1  17
ATOM     17  C   UNL     1     130.250 133.516 135.727  1.00  0.00     0.224 C 
ATOM     18  C   UNL     1     130.122 131.967 135.715  1.00  0.00     0.208 C 
ATOM     19  O   UNL     1     129.667 134.036 134.541  1.00  0.00    -0.337 OA
ATOM     20  C   UNL     1     129.451 131.658 134.392  1.00  0.00     0.180 C 
ATOM     21  C   UNL     1     128.922 133.014 133.915  1.00  0.00     0.179 C 
BRANCH  17  22
ATOM     22  C   UNL     1     129.521 134.161 136.927  1.00  0.00     0.225 C 
BRANCH  22  23
ATOM     23  O   UNL     1     130.191 133.871 138.125  1.00  0.00    -0.391 OA
ATOM     24  H   UNL     1     129.515 133.916 138.851  1.00  0.00     0.210 HD
ENDBRANCH  22  23
ENDBRANCH  17  22
BRANCH  18  25
ATOM     25  O   UNL     1     129.357 131.475 136.789  1.00  0.00    -0.385 OA
ATOM     26  H   UNL     1     129.958 130.898 137.329  1.00  0.00     0.211 HD
ENDBRANCH  18  25
BRANCH  20  27
ATOM     27  O   UNL     1     128.441 130.688 134.524  1.00  0.00    -0.387 OA
ATOM     28  H   UNL     1     128.689 130.129 135.305  1.00  0.00     0.211 HD
ENDBRANCH  20  27
BRANCH  21  29
ATOM     29  C   UNL     1     127.417 133.228 134.171  1.00  0.00     0.191 C 
BRANCH  29  30
ATOM     30  O   UNL     1     126.652 132.496 133.252  1.00  0.00    -0.394 OA
ATOM     31  H   UNL     1     126.371 131.663 133.714  1.00  0.00     0.210 HD
ENDBRANCH  29  30
ENDBRANCH  21  29
ENDBRANCH   1  17
TORSDOF 13
ENDMDL
