MODEL 1
REMARK VINA RESULT:     8.953      0.000      0.000
REMARK INTER + INTRA:          21.612
REMARK INTER:                  22.561
REMARK INTRA:                  -0.950
REMARK UNBOUND:                -0.950
REMARK SMILES CCCCCCCCCCCCCCCCCCCCCCCCCCCC(=O)[O-]
REMARK SMILES IDX 15 1 16 2 17 3 18 4 19 5 20 6 21 7 22 8 23 9 24 10 25 11
REMARK SMILES IDX 26 12 27 13 28 14 29 15 30 16 14 17 13 18 12 19 11 20 10 21
REMARK SMILES IDX 9 22 8 23 7 24 6 25 5 26 4 27 3 28 2 29 1 30
REMARK H PARENT
REMARK Flexibility Score: inf
ROOT
ATOM      1  C   UNL     1      15.270  15.881  -8.080  1.00  0.00     0.000 C 
ENDROOT
BRANCH   1   2
ATOM      2  C   UNL     1      14.302  15.984  -6.890  1.00  0.00     0.000 C 
BRANCH   2   3
ATOM      3  C   UNL     1      13.999  17.442  -6.508  1.00  0.00     0.000 C 
BRANCH   3   4
ATOM      4  C   UNL     1      12.659  17.601  -5.771  1.00  0.00     0.000 C 
BRANCH   4   5
ATOM      5  C   UNL     1      11.820  16.306  -5.738  1.00  0.00     0.000 C 
BRANCH   5   6
ATOM      6  C   UNL     1      11.744  15.696  -4.325  1.00  0.00     0.000 C 
BRANCH   6   7
ATOM      7  C   UNL     1      10.937  14.385  -4.284  1.00  0.00     0.000 C 
BRANCH   7   8
ATOM      8  C   UNL     1      11.136  13.557  -3.003  1.00  0.00     0.000 C 
BRANCH   8   9
ATOM      9  C   UNL     1      10.958  14.392  -1.723  1.00  0.00     0.000 C 
BRANCH   9  10
ATOM     10  C   UNL     1      10.475  13.545  -0.534  1.00  0.00     0.000 C 
BRANCH  10  11
ATOM     11  C   UNL     1      11.600  13.273   0.480  1.00  0.00     0.000 C 
BRANCH  11  12
ATOM     12  C   UNL     1      11.421  14.063   1.786  1.00  0.00     0.006 C 
BRANCH  12  13
ATOM     13  C   UNL     1      10.025  14.689   1.911  1.00  0.00     0.053 C 
BRANCH  13  14
ATOM     14  C   UNL     1      10.102  16.173   1.729  1.00  0.00     0.041 C 
ATOM     15  O   UNL     1      11.212  16.728   1.515  1.00  0.00    -0.550 OA
ATOM     16  O   UNL     1       8.952  16.945   1.822  1.00  0.00    -0.550 OA
ENDBRANCH  13  14
ENDBRANCH  12  13
ENDBRANCH  11  12
ENDBRANCH  10  11
ENDBRANCH   9  10
ENDBRANCH   8   9
ENDBRANCH   7   8
ENDBRANCH   6   7
ENDBRANCH   5   6
ENDBRANCH   4   5
ENDBRANCH   3   4
ENDBRANCH   2   3
ENDBRANCH   1   2
BRANCH   1  17
ATOM     17  C   UNL     1      14.637  15.181  -9.294  1.00  0.00     0.000 C 
BRANCH  17  18
ATOM     18  C   UNL     1      15.252  15.692 -10.605  1.00  0.00     0.000 C 
BRANCH  18  19
ATOM     19  C   UNL     1      15.239  14.625 -11.713  1.00  0.00     0.000 C 
BRANCH  19  20
ATOM     20  C   UNL     1      15.937  15.108 -12.995  1.00  0.00     0.000 C 
BRANCH  20  21
ATOM     21  C   UNL     1      17.122  14.204 -13.403  1.00  0.00     0.000 C 
BRANCH  21  22
ATOM     22  C   UNL     1      18.458  14.957 -13.555  1.00  0.00    -0.000 C 
BRANCH  22  23
ATOM     23  C   UNL     1      19.627  14.377 -12.737  1.00  0.00    -0.000 C 
BRANCH  23  24
ATOM     24  C   UNL     1      20.425  15.411 -11.918  1.00  0.00    -0.000 C 
BRANCH  24  25
ATOM     25  C   UNL     1      19.929  16.866 -12.036  1.00  0.00    -0.000 C 
BRANCH  25  26
ATOM     26  C   UNL     1      18.487  17.099 -11.550  1.00  0.00    -0.000 C 
BRANCH  26  27
ATOM     27  C   UNL     1      18.245  18.543 -11.075  1.00  0.00    -0.000 C 
BRANCH  27  28
ATOM     28  C   UNL     1      18.352  19.566 -12.216  1.00  0.00    -0.000 C 
BRANCH  28  29
ATOM     29  C   UNL     1      19.746  20.207 -12.307  1.00  0.00    -0.003 C 
ATOM     30  C   UNL     1      19.647  21.727 -12.371  1.00  0.00     0.004 C 
ENDBRANCH  28  29
ENDBRANCH  27  28
ENDBRANCH  26  27
ENDBRANCH  25  26
ENDBRANCH  24  25
ENDBRANCH  23  24
ENDBRANCH  22  23
ENDBRANCH  21  22
ENDBRANCH  20  21
ENDBRANCH  19  20
ENDBRANCH  18  19
ENDBRANCH  17  18
ENDBRANCH   1  17
TORSDOF 26
ENDMDL
MODEL 2
REMARK VINA RESULT:    10.186      1.455      2.414
REMARK INTER + INTRA:          24.720
REMARK INTER:                  25.655
REMARK INTRA:                  -0.935
REMARK UNBOUND:                -0.950
REMARK SMILES CCCCCCCCCCCCCCCCCCCCCCCCCCCC(=O)[O-]
REMARK SMILES IDX 15 1 16 2 17 3 18 4 19 5 20 6 21 7 22 8 23 9 24 10 25 11
REMARK SMILES IDX 26 12 27 13 28 14 29 15 30 16 14 17 13 18 12 19 11 20 10 21
REMARK SMILES IDX 9 22 8 23 7 24 6 25 5 26 4 27 3 28 2 29 1 30
REMARK H PARENT
REMARK Flexibility Score: inf
ROOT
ATOM      1  C   UNL     1      13.941  16.689  -7.066  1.00  0.00     0.000 C 
ENDROOT
BRANCH   1   2
ATOM      2  C   UNL     1      13.749  16.697  -5.540  1.00  0.00     0.000 C 
BRANCH   2   3
ATOM      3  C   UNL     1      12.266  16.743  -5.138  1.00  0.00     0.000 C 
BRANCH   3   4
ATOM      4  C   UNL     1      11.554  15.392  -5.324  1.00  0.00     0.000 C 
BRANCH   4   5
ATOM      5  C   UNL     1      10.625  15.022  -4.149  1.00  0.00     0.000 C 
BRANCH   5   6
ATOM      6  C   UNL     1      11.100  13.760  -3.405  1.00  0.00     0.000 C 
BRANCH   6   7
ATOM      7  C   UNL     1      10.417  13.583  -2.036  1.00  0.00     0.000 C 
BRANCH   7   8
ATOM      8  C   UNL     1      11.385  13.563  -0.841  1.00  0.00     0.000 C 
BRANCH   8   9
ATOM      9  C   UNL     1      11.692  14.971  -0.303  1.00  0.00     0.000 C 
BRANCH   9  10
ATOM     10  C   UNL     1      12.116  14.953   1.175  1.00  0.00     0.000 C 
BRANCH  10  11
ATOM     11  C   UNL     1      11.025  15.523   2.100  1.00  0.00     0.000 C 
BRANCH  11  12
ATOM     12  C   UNL     1       9.989  16.366   1.340  1.00  0.00     0.006 C 
BRANCH  12  13
ATOM     13  C   UNL     1       8.673  16.524   2.115  1.00  0.00     0.053 C 
BRANCH  13  14
ATOM     14  C   UNL     1       7.909  15.237   2.112  1.00  0.00     0.041 C 
ATOM     15  O   UNL     1       6.650  15.247   2.125  1.00  0.00    -0.550 OA
ATOM     16  O   UNL     1       8.590  14.026   2.120  1.00  0.00    -0.550 OA
ENDBRANCH  13  14
ENDBRANCH  12  13
ENDBRANCH  11  12
ENDBRANCH  10  11
ENDBRANCH   9  10
ENDBRANCH   8   9
ENDBRANCH   7   8
ENDBRANCH   6   7
ENDBRANCH   5   6
ENDBRANCH   4   5
ENDBRANCH   3   4
ENDBRANCH   2   3
ENDBRANCH   1   2
BRANCH   1  17
ATOM     17  C   UNL     1      14.941  15.618  -7.527  1.00  0.00     0.000 C 
BRANCH  17  18
ATOM     18  C   UNL     1      15.361  15.849  -8.986  1.00  0.00     0.000 C 
BRANCH  18  19
ATOM     19  C   UNL     1      14.380  15.213  -9.986  1.00  0.00     0.000 C 
BRANCH  19  20
ATOM     20  C   UNL     1      15.105  14.444 -11.103  1.00  0.00     0.000 C 
BRANCH  20  21
ATOM     21  C   UNL     1      15.387  15.322 -12.342  1.00  0.00     0.000 C 
BRANCH  21  22
ATOM     22  C   UNL     1      16.678  14.943 -13.094  1.00  0.00    -0.000 C 
BRANCH  22  23
ATOM     23  C   UNL     1      17.852  15.922 -12.905  1.00  0.00    -0.000 C 
BRANCH  23  24
ATOM     24  C   UNL     1      17.672  16.944 -11.765  1.00  0.00    -0.000 C 
BRANCH  24  25
ATOM     25  C   UNL     1      18.656  18.131 -11.787  1.00  0.00    -0.000 C 
BRANCH  25  26
ATOM     26  C   UNL     1      18.224  19.345 -10.945  1.00  0.00    -0.000 C 
BRANCH  26  27
ATOM     27  C   UNL     1      18.647  20.686 -11.573  1.00  0.00    -0.000 C 
BRANCH  27  28
ATOM     28  C   UNL     1      19.517  20.502 -12.825  1.00  0.00    -0.000 C 
BRANCH  28  29
ATOM     29  C   UNL     1      21.011  20.732 -12.547  1.00  0.00    -0.003 C 
ATOM     30  C   UNL     1      21.641  19.507 -11.891  1.00  0.00     0.004 C 
ENDBRANCH  28  29
ENDBRANCH  27  28
ENDBRANCH  26  27
ENDBRANCH  25  26
ENDBRANCH  24  25
ENDBRANCH  23  24
ENDBRANCH  22  23
ENDBRANCH  21  22
ENDBRANCH  20  21
ENDBRANCH  19  20
ENDBRANCH  18  19
ENDBRANCH  17  18
ENDBRANCH   1  17
TORSDOF 26
ENDMDL
MODEL 3
REMARK VINA RESULT:    10.364      4.766     13.022
REMARK INTER + INTRA:          25.168
REMARK INTER:                  27.348
REMARK INTRA:                  -2.180
REMARK UNBOUND:                -0.950
REMARK SMILES CCCCCCCCCCCCCCCCCCCCCCCCCCCC(=O)[O-]
REMARK SMILES IDX 15 1 16 2 17 3 18 4 19 5 20 6 21 7 22 8 23 9 24 10 25 11
REMARK SMILES IDX 26 12 27 13 28 14 29 15 30 16 14 17 13 18 12 19 11 20 10 21
REMARK SMILES IDX 9 22 8 23 7 24 6 25 5 26 4 27 3 28 2 29 1 30
REMARK H PARENT
REMARK Flexibility Score: inf
ROOT
ATOM      1  C   UNL     1      14.809  16.052  -9.570  1.00  0.00     0.000 C 
ENDROOT
BRANCH   1   2
ATOM      2  C   UNL     1      15.151  14.926 -10.560  1.00  0.00     0.000 C 
BRANCH   2   3
ATOM      3  C   UNL     1      15.577  15.466 -11.935  1.00  0.00     0.000 C 
BRANCH   3   4
ATOM      4  C   UNL     1      16.185  14.381 -12.840  1.00  0.00     0.000 C 
BRANCH   4   5
ATOM      5  C   UNL     1      17.398  14.873 -13.657  1.00  0.00     0.000 C 
BRANCH   5   6
ATOM      6  C   UNL     1      18.704  14.170 -13.242  1.00  0.00     0.000 C 
BRANCH   6   7
ATOM      7  C   UNL     1      19.624  15.070 -12.395  1.00  0.00     0.000 C 
BRANCH   7   8
ATOM      8  C   UNL     1      19.325  16.574 -12.515  1.00  0.00     0.000 C 
BRANCH   8   9
ATOM      9  C   UNL     1      18.949  17.214 -11.168  1.00  0.00     0.000 C 
BRANCH   9  10
ATOM     10  C   UNL     1      17.959  18.379 -11.330  1.00  0.00     0.000 C 
BRANCH  10  11
ATOM     11  C   UNL     1      17.864  18.863 -12.788  1.00  0.00     0.000 C 
BRANCH  11  12
ATOM     12  C   UNL     1      18.179  20.359 -12.935  1.00  0.00     0.006 C 
BRANCH  12  13
ATOM     13  C   UNL     1      19.150  20.867 -11.859  1.00  0.00     0.053 C 
BRANCH  13  14
ATOM     14  C   UNL     1      20.564  20.739 -12.331  1.00  0.00     0.041 C 
ATOM     15  O   UNL     1      21.255  21.769 -12.548  1.00  0.00    -0.550 OA
ATOM     16  O   UNL     1      21.110  19.482 -12.558  1.00  0.00    -0.550 OA
ENDBRANCH  13  14
ENDBRANCH  12  13
ENDBRANCH  11  12
ENDBRANCH  10  11
ENDBRANCH   9  10
ENDBRANCH   8   9
ENDBRANCH   7   8
ENDBRANCH   6   7
ENDBRANCH   5   6
ENDBRANCH   4   5
ENDBRANCH   3   4
ENDBRANCH   2   3
ENDBRANCH   1   2
BRANCH   1  17
ATOM     17  C   UNL     1      15.398  15.805  -8.172  1.00  0.00     0.000 C 
BRANCH  17  18
ATOM     18  C   UNL     1      14.285  15.691  -7.119  1.00  0.00     0.000 C 
BRANCH  18  19
ATOM     19  C   UNL     1      13.935  17.050  -6.488  1.00  0.00     0.000 C 
BRANCH  19  20
ATOM     20  C   UNL     1      12.472  17.113  -6.019  1.00  0.00     0.000 C 
BRANCH  20  21
ATOM     21  C   UNL     1      12.240  16.356  -4.692  1.00  0.00     0.000 C 
BRANCH  21  22
ATOM     22  C   UNL     1      11.436  15.051  -4.850  1.00  0.00    -0.000 C 
BRANCH  22  23
ATOM     23  C   UNL     1      10.640  14.622  -3.603  1.00  0.00    -0.000 C 
BRANCH  23  24
ATOM     24  C   UNL     1      11.499  14.208  -2.392  1.00  0.00    -0.000 C 
BRANCH  24  25
ATOM     25  C   UNL     1      10.709  13.877  -1.110  1.00  0.00    -0.000 C 
BRANCH  25  26
ATOM     26  C   UNL     1      11.576  13.519   0.110  1.00  0.00    -0.000 C 
BRANCH  26  27
ATOM     27  C   UNL     1      10.958  13.989   1.439  1.00  0.00    -0.000 C 
BRANCH  27  28
ATOM     28  C   UNL     1       9.730  14.888   1.233  1.00  0.00    -0.000 C 
BRANCH  28  29
ATOM     29  C   UNL     1      10.004  16.357   1.590  1.00  0.00    -0.003 C 
ATOM     30  C   UNL     1      11.485  16.585   1.876  1.00  0.00     0.004 C 
ENDBRANCH  28  29
ENDBRANCH  27  28
ENDBRANCH  26  27
ENDBRANCH  25  26
ENDBRANCH  24  25
ENDBRANCH  23  24
ENDBRANCH  22  23
ENDBRANCH  21  22
ENDBRANCH  20  21
ENDBRANCH  19  20
ENDBRANCH  18  19
ENDBRANCH  17  18
ENDBRANCH   1  17
TORSDOF 26
ENDMDL
MODEL 4
REMARK VINA RESULT:    10.675      1.108      2.886
REMARK INTER + INTRA:          25.951
REMARK INTER:                  24.087
REMARK INTRA:                   1.863
REMARK UNBOUND:                -0.950
REMARK SMILES CCCCCCCCCCCCCCCCCCCCCCCCCCCC(=O)[O-]
REMARK SMILES IDX 15 1 16 2 17 3 18 4 19 5 20 6 21 7 22 8 23 9 24 10 25 11
REMARK SMILES IDX 26 12 27 13 28 14 29 15 30 16 14 17 13 18 12 19 11 20 10 21
REMARK SMILES IDX 9 22 8 23 7 24 6 25 5 26 4 27 3 28 2 29 1 30
REMARK H PARENT
REMARK Flexibility Score: inf
ROOT
ATOM      1  C   UNL     1      12.619  17.528  -5.779  1.00  0.00     0.000 C 
ENDROOT
BRANCH   1   2
ATOM      2  C   UNL     1      12.337  16.132  -5.198  1.00  0.00     0.000 C 
BRANCH   2   3
ATOM      3  C   UNL     1      11.075  15.493  -5.799  1.00  0.00     0.000 C 
BRANCH   3   4
ATOM      4  C   UNL     1      10.224  14.754  -4.753  1.00  0.00     0.000 C 
BRANCH   4   5
ATOM      5  C   UNL     1      11.058  13.911  -3.767  1.00  0.00     0.000 C 
BRANCH   5   6
ATOM      6  C   UNL     1      10.228  13.433  -2.561  1.00  0.00     0.000 C 
BRANCH   6   7
ATOM      7  C   UNL     1      10.746  13.989  -1.221  1.00  0.00     0.000 C 
BRANCH   7   8
ATOM      8  C   UNL     1      12.277  13.959  -1.070  1.00  0.00     0.000 C 
BRANCH   8   9
ATOM      9  C   UNL     1      12.738  13.104   0.123  1.00  0.00     0.000 C 
BRANCH   9  10
ATOM     10  C   UNL     1      11.801  13.238   1.335  1.00  0.00     0.000 C 
BRANCH  10  11
ATOM     11  C   UNL     1      10.391  13.706   0.931  1.00  0.00     0.000 C 
BRANCH  11  12
ATOM     12  C   UNL     1       9.426  13.770   2.125  1.00  0.00     0.006 C 
BRANCH  12  13
ATOM     13  C   UNL     1       8.412  14.916   2.004  1.00  0.00     0.053 C 
BRANCH  13  14
ATOM     14  C   UNL     1       9.113  16.238   2.038  1.00  0.00     0.041 C 
ATOM     15  O   UNL     1       8.452  17.308   1.967  1.00  0.00    -0.550 OA
ATOM     16  O   UNL     1      10.498  16.287   2.121  1.00  0.00    -0.550 OA
ENDBRANCH  13  14
ENDBRANCH  12  13
ENDBRANCH  11  12
ENDBRANCH  10  11
ENDBRANCH   9  10
ENDBRANCH   8   9
ENDBRANCH   7   8
ENDBRANCH   6   7
ENDBRANCH   5   6
ENDBRANCH   4   5
ENDBRANCH   3   4
ENDBRANCH   2   3
ENDBRANCH   1   2
BRANCH   1  17
ATOM     17  C   UNL     1      14.005  17.623  -6.435  1.00  0.00     0.000 C 
BRANCH  17  18
ATOM     18  C   UNL     1      14.541  16.229  -6.794  1.00  0.00     0.000 C 
BRANCH  18  19
ATOM     19  C   UNL     1      14.392  15.912  -8.292  1.00  0.00     0.000 C 
BRANCH  19  20
ATOM     20  C   UNL     1      15.740  15.951  -9.031  1.00  0.00     0.000 C 
BRANCH  20  21
ATOM     21  C   UNL     1      15.575  16.131 -10.557  1.00  0.00     0.000 C 
BRANCH  21  22
ATOM     22  C   UNL     1      15.550  14.806 -11.342  1.00  0.00    -0.000 C 
BRANCH  22  23
ATOM     23  C   UNL     1      15.607  14.957 -12.875  1.00  0.00    -0.000 C 
BRANCH  23  24
ATOM     24  C   UNL     1      17.013  15.209 -13.453  1.00  0.00    -0.000 C 
BRANCH  24  25
ATOM     25  C   UNL     1      18.036  15.796 -12.460  1.00  0.00    -0.000 C 
BRANCH  25  26
ATOM     26  C   UNL     1      17.839  17.287 -12.134  1.00  0.00    -0.000 C 
BRANCH  26  27
ATOM     27  C   UNL     1      18.788  18.201 -12.930  1.00  0.00    -0.000 C 
BRANCH  27  28
ATOM     28  C   UNL     1      18.301  19.657 -12.981  1.00  0.00    -0.000 C 
BRANCH  28  29
ATOM     29  C   UNL     1      18.922  20.528 -11.878  1.00  0.00    -0.003 C 
ATOM     30  C   UNL     1      20.214  21.182 -12.357  1.00  0.00     0.004 C 
ENDBRANCH  28  29
ENDBRANCH  27  28
ENDBRANCH  26  27
ENDBRANCH  25  26
ENDBRANCH  24  25
ENDBRANCH  23  24
ENDBRANCH  22  23
ENDBRANCH  21  22
ENDBRANCH  20  21
ENDBRANCH  19  20
ENDBRANCH  18  19
ENDBRANCH  17  18
ENDBRANCH   1  17
TORSDOF 26
ENDMDL
MODEL 5
REMARK VINA RESULT:    11.628      1.239      2.444
REMARK INTER + INTRA:          28.352
REMARK INTER:                  29.422
REMARK INTRA:                  -1.070
REMARK UNBOUND:                -0.950
REMARK SMILES CCCCCCCCCCCCCCCCCCCCCCCCCCCC(=O)[O-]
REMARK SMILES IDX 15 1 16 2 17 3 18 4 19 5 20 6 21 7 22 8 23 9 24 10 25 11
REMARK SMILES IDX 26 12 27 13 28 14 29 15 30 16 14 17 13 18 12 19 11 20 10 21
REMARK SMILES IDX 9 22 8 23 7 24 6 25 5 26 4 27 3 28 2 29 1 30
REMARK H PARENT
REMARK Flexibility Score: inf
ROOT
ATOM      1  C   UNL     1      13.837  17.852  -6.837  1.00  0.00     0.000 C 
ENDROOT
BRANCH   1   2
ATOM      2  C   UNL     1      12.461  17.302  -6.424  1.00  0.00     0.000 C 
BRANCH   2   3
ATOM      3  C   UNL     1      12.483  16.662  -5.027  1.00  0.00     0.000 C 
BRANCH   3   4
ATOM      4  C   UNL     1      11.538  15.454  -4.909  1.00  0.00     0.000 C 
BRANCH   4   5
ATOM      5  C   UNL     1      11.054  15.192  -3.467  1.00  0.00     0.000 C 
BRANCH   5   6
ATOM      6  C   UNL     1      11.457  13.794  -2.962  1.00  0.00     0.000 C 
BRANCH   6   7
ATOM      7  C   UNL     1      11.431  13.684  -1.426  1.00  0.00     0.000 C 
BRANCH   7   8
ATOM      8  C   UNL     1      10.023  13.538  -0.824  1.00  0.00     0.000 C 
BRANCH   8   9
ATOM      9  C   UNL     1      10.047  13.351   0.703  1.00  0.00     0.000 C 
BRANCH   9  10
ATOM     10  C   UNL     1       9.006  14.231   1.416  1.00  0.00     0.000 C 
BRANCH  10  11
ATOM     11  C   UNL     1       9.056  15.693   0.938  1.00  0.00     0.000 C 
BRANCH  11  12
ATOM     12  C   UNL     1       9.312  16.681   2.087  1.00  0.00     0.006 C 
BRANCH  12  13
ATOM     13  C   UNL     1      10.762  17.184   2.123  1.00  0.00     0.053 C 
BRANCH  13  14
ATOM     14  C   UNL     1      11.673  16.190   1.474  1.00  0.00     0.041 C 
ATOM     15  O   UNL     1      12.094  15.197   2.124  1.00  0.00    -0.550 OA
ATOM     16  O   UNL     1      12.079  16.375   0.158  1.00  0.00    -0.550 OA
ENDBRANCH  13  14
ENDBRANCH  12  13
ENDBRANCH  11  12
ENDBRANCH  10  11
ENDBRANCH   9  10
ENDBRANCH   8   9
ENDBRANCH   7   8
ENDBRANCH   6   7
ENDBRANCH   5   6
ENDBRANCH   4   5
ENDBRANCH   3   4
ENDBRANCH   2   3
ENDBRANCH   1   2
BRANCH   1  17
ATOM     17  C   UNL     1      14.307  17.303  -8.193  1.00  0.00     0.000 C 
BRANCH  17  18
ATOM     18  C   UNL     1      14.912  15.899  -8.039  1.00  0.00     0.000 C 
BRANCH  18  19
ATOM     19  C   UNL     1      14.570  14.980  -9.223  1.00  0.00     0.000 C 
BRANCH  19  20
ATOM     20  C   UNL     1      15.221  15.453 -10.534  1.00  0.00     0.000 C 
BRANCH  20  21
ATOM     21  C   UNL     1      15.170  14.380 -11.644  1.00  0.00     0.000 C 
BRANCH  21  22
ATOM     22  C   UNL     1      15.879  14.796 -12.947  1.00  0.00    -0.000 C 
BRANCH  22  23
ATOM     23  C   UNL     1      17.279  14.187 -13.149  1.00  0.00    -0.000 C 
BRANCH  23  24
ATOM     24  C   UNL     1      18.423  15.212 -13.282  1.00  0.00    -0.000 C 
BRANCH  24  25
ATOM     25  C   UNL     1      18.018  16.681 -13.046  1.00  0.00    -0.000 C 
BRANCH  25  26
ATOM     26  C   UNL     1      18.899  17.441 -12.039  1.00  0.00    -0.000 C 
BRANCH  26  27
ATOM     27  C   UNL     1      18.078  18.154 -10.949  1.00  0.00    -0.000 C 
BRANCH  27  28
ATOM     28  C   UNL     1      18.299  19.674 -10.942  1.00  0.00    -0.000 C 
BRANCH  28  29
ATOM     29  C   UNL     1      19.082  20.164 -12.170  1.00  0.00    -0.003 C 
ATOM     30  C   UNL     1      18.137  20.657 -13.262  1.00  0.00     0.004 C 
ENDBRANCH  28  29
ENDBRANCH  27  28
ENDBRANCH  26  27
ENDBRANCH  25  26
ENDBRANCH  24  25
ENDBRANCH  23  24
ENDBRANCH  22  23
ENDBRANCH  21  22
ENDBRANCH  20  21
ENDBRANCH  19  20
ENDBRANCH  18  19
ENDBRANCH  17  18
ENDBRANCH   1  17
TORSDOF 26
ENDMDL
