MODEL 1
REMARK VINA RESULT:    -7.655      0.000      0.000
REMARK INTER + INTRA:          -9.282
REMARK INTER:                  -8.997
REMARK INTRA:                  -0.285
REMARK UNBOUND:                -0.285
REMARK SMILES O=c1cc(-c2ccc(O)c(O)c2)oc2cc(O)cc(O)c12
REMARK SMILES IDX 4 1 3 2 2 3 1 4 21 5 19 6 18 7 16 8 15 9 14 10 13 11 5 12
REMARK SMILES IDX 6 13 7 14 8 15 12 16 10 17 9 18 11 20 20 22 17 24
REMARK H PARENT 9 19 11 21 20 23 17 25
REMARK Flexibility Score: inf
ROOT
ATOM      1  C   UNL     1     -18.691  32.287 -23.060  1.00  0.00     0.138 A 
ATOM      2  C   UNL     1     -18.792  33.473 -23.802  1.00  0.00     0.100 A 
ATOM      3  C   UNL     1     -19.936  34.263 -23.688  1.00  0.00     0.197 A 
ATOM      4  O   UNL     1     -20.020  35.292 -24.408  1.00  0.00    -0.289 OA
ATOM      5  C   UNL     1     -20.970  33.882 -22.799  1.00  0.00     0.107 A 
ATOM      6  C   UNL     1     -22.167  34.627 -22.575  1.00  0.00     0.134 A 
ATOM      7  C   UNL     1     -23.163  34.098 -21.744  1.00  0.00     0.093 A 
ATOM      8  C   UNL     1     -22.982  32.879 -21.085  1.00  0.00     0.123 A 
ATOM      9  C   UNL     1     -21.796  32.170 -21.258  1.00  0.00     0.094 A 
ATOM     10  C   UNL     1     -20.797  32.653 -22.107  1.00  0.00     0.146 A 
ATOM     11  O   UNL     1     -19.690  31.935 -22.257  1.00  0.00    -0.456 OA
ENDROOT
BRANCH   1  12
ATOM     12  C   UNL     1     -17.496  31.410 -23.140  1.00  0.00     0.021 A 
ATOM     13  C   UNL     1     -17.057  30.654 -22.039  1.00  0.00     0.016 A 
ATOM     14  C   UNL     1     -15.923  29.847 -22.141  1.00  0.00     0.051 A 
ATOM     15  C   UNL     1     -15.199  29.779 -23.336  1.00  0.00     0.157 A 
ATOM     16  C   UNL     1     -16.759  31.353 -24.335  1.00  0.00     0.062 A 
ATOM     17  C   UNL     1     -15.621  30.544 -24.447  1.00  0.00     0.158 A 
BRANCH  15  18
ATOM     18  O   UNL     1     -14.076  28.950 -23.372  1.00  0.00    -0.504 OA
ATOM     19  H   UNL     1     -14.118  27.945 -23.463  1.00  0.00     0.293 HD
ENDBRANCH  15  18
BRANCH  17  20
ATOM     20  O   UNL     1     -14.947  30.533 -25.670  1.00  0.00    -0.504 OA
ATOM     21  H   UNL     1     -14.909  31.320 -26.301  1.00  0.00     0.293 HD
ENDBRANCH  17  20
ENDBRANCH   1  12
BRANCH   6  22
ATOM     22  O   UNL     1     -22.419  35.890 -23.119  1.00  0.00    -0.507 OA
ATOM     23  H   UNL     1     -23.318  36.215 -23.438  1.00  0.00     0.293 HD
ENDBRANCH   6  22
BRANCH   8  24
ATOM     24  O   UNL     1     -23.972  32.370 -20.249  1.00  0.00    -0.508 OA
ATOM     25  H   UNL     1     -24.453  31.504 -20.463  1.00  0.00     0.293 HD
ENDBRANCH   8  24
TORSDOF 5
ENDMDL
MODEL 2
REMARK VINA RESULT:    -7.358      3.504      4.172
REMARK INTER + INTRA:          -8.933
REMARK INTER:                  -8.623
REMARK INTRA:                  -0.310
REMARK UNBOUND:                -0.285
REMARK SMILES O=c1cc(-c2ccc(O)c(O)c2)oc2cc(O)cc(O)c12
REMARK SMILES IDX 4 1 3 2 2 3 1 4 21 5 19 6 18 7 16 8 15 9 14 10 13 11 5 12
REMARK SMILES IDX 6 13 7 14 8 15 12 16 10 17 9 18 11 20 20 22 17 24
REMARK H PARENT 9 19 11 21 20 23 17 25
REMARK Flexibility Score: inf
ROOT
ATOM      1  C   UNL     1     -19.614  33.196 -23.017  1.00  0.00     0.138 A 
ATOM      2  C   UNL     1     -19.977  33.209 -24.371  1.00  0.00     0.100 A 
ATOM      3  C   UNL     1     -21.122  32.528 -24.786  1.00  0.00     0.197 A 
ATOM      4  O   UNL     1     -21.390  32.512 -26.016  1.00  0.00    -0.289 OA
ATOM      5  C   UNL     1     -21.929  31.861 -23.833  1.00  0.00     0.107 A 
ATOM      6  C   UNL     1     -23.137  31.163 -24.135  1.00  0.00     0.134 A 
ATOM      7  C   UNL     1     -23.798  30.457 -23.121  1.00  0.00     0.093 A 
ATOM      8  C   UNL     1     -23.325  30.471 -21.806  1.00  0.00     0.123 A 
ATOM      9  C   UNL     1     -22.175  31.191 -21.492  1.00  0.00     0.094 A 
ATOM     10  C   UNL     1     -21.475  31.877 -22.487  1.00  0.00     0.146 A 
ATOM     11  O   UNL     1     -20.371  32.535 -22.147  1.00  0.00    -0.456 OA
ENDROOT
BRANCH   1  12
ATOM     12  C   UNL     1     -18.409  33.906 -22.520  1.00  0.00     0.021 A 
ATOM     13  C   UNL     1     -17.311  34.176 -23.357  1.00  0.00     0.016 A 
ATOM     14  C   UNL     1     -16.187  34.836 -22.859  1.00  0.00     0.051 A 
ATOM     15  C   UNL     1     -16.126  35.233 -21.519  1.00  0.00     0.157 A 
ATOM     16  C   UNL     1     -18.340  34.292 -21.171  1.00  0.00     0.062 A 
ATOM     17  C   UNL     1     -17.216  34.955 -20.663  1.00  0.00     0.158 A 
BRANCH  15  18
ATOM     18  O   UNL     1     -14.973  35.891 -21.085  1.00  0.00    -0.504 OA
ATOM     19  H   UNL     1     -14.050  35.717 -21.455  1.00  0.00     0.293 HD
ENDBRANCH  15  18
BRANCH  17  20
ATOM     20  O   UNL     1     -17.227  35.316 -19.314  1.00  0.00    -0.504 OA
ATOM     21  H   UNL     1     -16.723  36.105 -18.937  1.00  0.00     0.293 HD
ENDBRANCH  17  20
ENDBRANCH   1  12
BRANCH   6  22
ATOM     22  O   UNL     1     -23.741  31.148 -25.396  1.00  0.00    -0.507 OA
ATOM     23  H   UNL     1     -24.377  30.439 -25.726  1.00  0.00     0.293 HD
ENDBRANCH   6  22
BRANCH   8  24
ATOM     24  O   UNL     1     -23.998  29.779 -20.802  1.00  0.00    -0.508 OA
ATOM     25  H   UNL     1     -23.519  29.449 -19.973  1.00  0.00     0.293 HD
ENDBRANCH   8  24
TORSDOF 5
ENDMDL
MODEL 3
REMARK VINA RESULT:    -7.337      1.175      2.684
REMARK INTER + INTRA:          -8.908
REMARK INTER:                  -8.607
REMARK INTRA:                  -0.302
REMARK UNBOUND:                -0.285
REMARK SMILES O=c1cc(-c2ccc(O)c(O)c2)oc2cc(O)cc(O)c12
REMARK SMILES IDX 4 1 3 2 2 3 1 4 21 5 19 6 18 7 16 8 15 9 14 10 13 11 5 12
REMARK SMILES IDX 6 13 7 14 8 15 12 16 10 17 9 18 11 20 20 22 17 24
REMARK H PARENT 9 19 11 21 20 23 17 25
REMARK Flexibility Score: inf
ROOT
ATOM      1  C   UNL     1     -18.506  31.512 -22.571  1.00  0.00     0.138 A 
ATOM      2  C   UNL     1     -19.523  30.943 -21.792  1.00  0.00     0.100 A 
ATOM      3  C   UNL     1     -20.711  31.646 -21.587  1.00  0.00     0.197 A 
ATOM      4  O   UNL     1     -21.582  31.132 -20.837  1.00  0.00    -0.289 OA
ATOM      5  C   UNL     1     -20.895  32.911 -22.195  1.00  0.00     0.107 A 
ATOM      6  C   UNL     1     -22.077  33.704 -22.084  1.00  0.00     0.134 A 
ATOM      7  C   UNL     1     -22.104  34.985 -22.651  1.00  0.00     0.093 A 
ATOM      8  C   UNL     1     -21.013  35.478 -23.372  1.00  0.00     0.123 A 
ATOM      9  C   UNL     1     -19.874  34.691 -23.528  1.00  0.00     0.094 A 
ATOM     10  C   UNL     1     -19.803  33.424 -22.946  1.00  0.00     0.146 A 
ATOM     11  O   UNL     1     -18.691  32.715 -23.105  1.00  0.00    -0.456 OA
ENDROOT
BRANCH   1  12
ATOM     12  C   UNL     1     -17.224  30.807 -22.824  1.00  0.00     0.021 A 
ATOM     13  C   UNL     1     -16.610  30.011 -21.841  1.00  0.00     0.016 A 
ATOM     14  C   UNL     1     -15.399  29.368 -22.106  1.00  0.00     0.051 A 
ATOM     15  C   UNL     1     -14.771  29.510 -23.347  1.00  0.00     0.157 A 
ATOM     16  C   UNL     1     -16.585  30.960 -24.066  1.00  0.00     0.062 A 
ATOM     17  C   UNL     1     -15.370  30.318 -24.340  1.00  0.00     0.158 A 
BRANCH  15  18
ATOM     18  O   UNL     1     -13.563  28.838 -23.547  1.00  0.00    -0.504 OA
ATOM     19  H   UNL     1     -12.854  28.727 -22.837  1.00  0.00     0.293 HD
ENDBRANCH  15  18
BRANCH  17  20
ATOM     20  O   UNL     1     -14.801  30.512 -25.600  1.00  0.00    -0.504 OA
ATOM     21  H   UNL     1     -14.121  31.228 -25.809  1.00  0.00     0.293 HD
ENDBRANCH  17  20
ENDBRANCH   1  12
BRANCH   6  22
ATOM     22  O   UNL     1     -23.251  33.279 -21.455  1.00  0.00    -0.507 OA
ATOM     23  H   UNL     1     -24.008  32.792 -21.909  1.00  0.00     0.293 HD
ENDBRANCH   6  22
BRANCH   8  24
ATOM     24  O   UNL     1     -21.056  36.747 -23.944  1.00  0.00    -0.508 OA
ATOM     25  H   UNL     1     -20.268  37.125 -24.456  1.00  0.00     0.293 HD
ENDBRANCH   8  24
TORSDOF 5
ENDMDL
MODEL 4
REMARK VINA RESULT:    -7.323      3.073      4.245
REMARK INTER + INTRA:          -8.892
REMARK INTER:                  -8.623
REMARK INTRA:                  -0.269
REMARK UNBOUND:                -0.285
REMARK SMILES O=c1cc(-c2ccc(O)c(O)c2)oc2cc(O)cc(O)c12
REMARK SMILES IDX 4 1 3 2 2 3 1 4 21 5 19 6 18 7 16 8 15 9 14 10 13 11 5 12
REMARK SMILES IDX 6 13 7 14 8 15 12 16 10 17 9 18 11 20 20 22 17 24
REMARK H PARENT 9 19 11 21 20 23 17 25
REMARK Flexibility Score: inf
ROOT
ATOM      1  C   UNL     1     -18.247  31.815 -24.590  1.00  0.00     0.138 A 
ATOM      2  C   UNL     1     -19.454  32.478 -24.851  1.00  0.00     0.100 A 
ATOM      3  C   UNL     1     -19.702  33.719 -24.263  1.00  0.00     0.197 A 
ATOM      4  O   UNL     1     -20.818  34.263 -24.474  1.00  0.00    -0.289 OA
ATOM      5  C   UNL     1     -18.720  34.316 -23.437  1.00  0.00     0.107 A 
ATOM      6  C   UNL     1     -18.848  35.593 -22.812  1.00  0.00     0.134 A 
ATOM      7  C   UNL     1     -17.848  36.035 -21.936  1.00  0.00     0.093 A 
ATOM      8  C   UNL     1     -16.700  35.273 -21.707  1.00  0.00     0.123 A 
ATOM      9  C   UNL     1     -16.543  34.048 -22.352  1.00  0.00     0.094 A 
ATOM     10  C   UNL     1     -17.537  33.564 -23.205  1.00  0.00     0.146 A 
ATOM     11  O   UNL     1     -17.354  32.382 -23.784  1.00  0.00    -0.456 OA
ENDROOT
BRANCH   1  12
ATOM     12  C   UNL     1     -17.930  30.495 -25.190  1.00  0.00     0.021 A 
ATOM     13  C   UNL     1     -17.567  30.365 -26.543  1.00  0.00     0.016 A 
ATOM     14  C   UNL     1     -17.285  29.109 -27.082  1.00  0.00     0.051 A 
ATOM     15  C   UNL     1     -17.365  27.957 -26.293  1.00  0.00     0.157 A 
ATOM     16  C   UNL     1     -18.024  29.336 -24.402  1.00  0.00     0.062 A 
ATOM     17  C   UNL     1     -17.742  28.071 -24.935  1.00  0.00     0.158 A 
BRANCH  15  18
ATOM     18  O   UNL     1     -17.067  26.732 -26.894  1.00  0.00    -0.504 OA
ATOM     19  H   UNL     1     -16.236  26.194 -26.697  1.00  0.00     0.293 HD
ENDBRANCH  15  18
BRANCH  17  20
ATOM     20  O   UNL     1     -17.848  26.968 -24.086  1.00  0.00    -0.504 OA
ATOM     21  H   UNL     1     -18.040  27.033 -23.097  1.00  0.00     0.293 HD
ENDBRANCH  17  20
ENDBRANCH   1  12
BRANCH   6  22
ATOM     22  O   UNL     1     -19.914  36.470 -23.031  1.00  0.00    -0.507 OA
ATOM     23  H   UNL     1     -19.822  37.439 -23.294  1.00  0.00     0.293 HD
ENDBRANCH   6  22
BRANCH   8  24
ATOM     24  O   UNL     1     -15.705  35.729 -20.846  1.00  0.00    -0.508 OA
ATOM     25  H   UNL     1     -15.915  36.352 -20.076  1.00  0.00     0.293 HD
ENDBRANCH   8  24
TORSDOF 5
ENDMDL
MODEL 5
REMARK VINA RESULT:    -7.290      1.885      3.339
REMARK INTER + INTRA:          -8.853
REMARK INTER:                  -8.586
REMARK INTRA:                  -0.267
REMARK UNBOUND:                -0.285
REMARK SMILES O=c1cc(-c2ccc(O)c(O)c2)oc2cc(O)cc(O)c12
REMARK SMILES IDX 4 1 3 2 2 3 1 4 21 5 19 6 18 7 16 8 15 9 14 10 13 11 5 12
REMARK SMILES IDX 6 13 7 14 8 15 12 16 10 17 9 18 11 20 20 22 17 24
REMARK H PARENT 9 19 11 21 20 23 17 25
REMARK Flexibility Score: inf
ROOT
ATOM      1  C   UNL     1     -18.539  31.346 -24.678  1.00  0.00     0.138 A 
ATOM      2  C   UNL     1     -19.636  30.562 -24.294  1.00  0.00     0.100 A 
ATOM      3  C   UNL     1     -20.770  31.174 -23.760  1.00  0.00     0.197 A 
ATOM      4  O   UNL     1     -21.715  30.438 -23.373  1.00  0.00    -0.289 OA
ATOM      5  C   UNL     1     -20.821  32.584 -23.644  1.00  0.00     0.107 A 
ATOM      6  C   UNL     1     -21.937  33.321 -23.147  1.00  0.00     0.134 A 
ATOM      7  C   UNL     1     -21.832  34.708 -22.987  1.00  0.00     0.093 A 
ATOM      8  C   UNL     1     -20.672  35.392 -23.360  1.00  0.00     0.123 A 
ATOM      9  C   UNL     1     -19.596  34.688 -23.893  1.00  0.00     0.094 A 
ATOM     10  C   UNL     1     -19.656  33.300 -24.033  1.00  0.00     0.146 A 
ATOM     11  O   UNL     1     -18.599  32.666 -24.529  1.00  0.00    -0.456 OA
ENDROOT
BRANCH   1  12
ATOM     12  C   UNL     1     -17.309  30.748 -25.255  1.00  0.00     0.021 A 
ATOM     13  C   UNL     1     -17.244  30.340 -26.599  1.00  0.00     0.016 A 
ATOM     14  C   UNL     1     -16.076  29.770 -27.110  1.00  0.00     0.051 A 
ATOM     15  C   UNL     1     -14.954  29.587 -26.295  1.00  0.00     0.157 A 
ATOM     16  C   UNL     1     -16.186  30.550 -24.434  1.00  0.00     0.062 A 
ATOM     17  C   UNL     1     -15.010  29.980 -24.938  1.00  0.00     0.158 A 
BRANCH  15  18
ATOM     18  O   UNL     1     -13.817  29.015 -26.869  1.00  0.00    -0.504 OA
ATOM     19  H   UNL     1     -12.904  29.019 -26.439  1.00  0.00     0.293 HD
ENDBRANCH  15  18
BRANCH  17  20
ATOM     20  O   UNL     1     -13.934  29.825 -24.063  1.00  0.00    -0.504 OA
ATOM     21  H   UNL     1     -13.580  28.931 -23.756  1.00  0.00     0.293 HD
ENDBRANCH  17  20
ENDBRANCH   1  12
BRANCH   6  22
ATOM     22  O   UNL     1     -23.171  32.750 -22.818  1.00  0.00    -0.507 OA
ATOM     23  H   UNL     1     -23.760  33.043 -22.054  1.00  0.00     0.293 HD
ENDBRANCH   6  22
BRANCH   8  24
ATOM     24  O   UNL     1     -20.584  36.774 -23.211  1.00  0.00    -0.508 OA
ATOM     25  H   UNL     1     -19.942  37.197 -22.551  1.00  0.00     0.293 HD
ENDBRANCH   8  24
TORSDOF 5
ENDMDL
MODEL 6
REMARK VINA RESULT:    -7.286      1.459      3.216
REMARK INTER + INTRA:          -8.848
REMARK INTER:                  -8.583
REMARK INTRA:                  -0.265
REMARK UNBOUND:                -0.285
REMARK SMILES O=c1cc(-c2ccc(O)c(O)c2)oc2cc(O)cc(O)c12
REMARK SMILES IDX 4 1 3 2 2 3 1 4 21 5 19 6 18 7 16 8 15 9 14 10 13 11 5 12
REMARK SMILES IDX 6 13 7 14 8 15 12 16 10 17 9 18 11 20 20 22 17 24
REMARK H PARENT 9 19 11 21 20 23 17 25
REMARK Flexibility Score: inf
ROOT
ATOM      1  C   UNL     1     -19.991  31.879 -23.182  1.00  0.00     0.138 A 
ATOM      2  C   UNL     1     -20.525  31.031 -22.201  1.00  0.00     0.100 A 
ATOM      3  C   UNL     1     -21.599  31.465 -21.423  1.00  0.00     0.197 A 
ATOM      4  O   UNL     1     -22.019  30.702 -20.514  1.00  0.00    -0.289 OA
ATOM      5  C   UNL     1     -22.165  32.742 -21.654  1.00  0.00     0.107 A 
ATOM      6  C   UNL     1     -23.284  33.276 -20.946  1.00  0.00     0.134 A 
ATOM      7  C   UNL     1     -23.693  34.592 -21.196  1.00  0.00     0.093 A 
ATOM      8  C   UNL     1     -23.061  35.373 -22.167  1.00  0.00     0.123 A 
ATOM      9  C   UNL     1     -22.001  34.842 -22.898  1.00  0.00     0.094 A 
ATOM     10  C   UNL     1     -21.547  33.545 -22.649  1.00  0.00     0.146 A 
ATOM     11  O   UNL     1     -20.520  33.086 -23.357  1.00  0.00    -0.456 OA
ENDROOT
BRANCH   1  12
ATOM     12  C   UNL     1     -18.851  31.468 -24.039  1.00  0.00     0.021 A 
ATOM     13  C   UNL     1     -19.005  31.244 -25.419  1.00  0.00     0.016 A 
ATOM     14  C   UNL     1     -17.917  30.847 -26.198  1.00  0.00     0.051 A 
ATOM     15  C   UNL     1     -16.656  30.659 -25.622  1.00  0.00     0.157 A 
ATOM     16  C   UNL     1     -17.588  31.264 -23.459  1.00  0.00     0.062 A 
ATOM     17  C   UNL     1     -16.490  30.867 -24.233  1.00  0.00     0.158 A 
BRANCH  15  18
ATOM     18  O   UNL     1     -15.609  30.264 -26.458  1.00  0.00    -0.504 OA
ATOM     19  H   UNL     1     -15.346  29.303 -26.618  1.00  0.00     0.293 HD
ENDBRANCH  15  18
BRANCH  17  20
ATOM     20  O   UNL     1     -15.265  30.694 -23.586  1.00  0.00    -0.504 OA
ATOM     21  H   UNL     1     -14.371  30.914 -24.001  1.00  0.00     0.293 HD
ENDBRANCH  17  20
ENDBRANCH   1  12
BRANCH   6  22
ATOM     22  O   UNL     1     -24.037  32.558 -20.013  1.00  0.00    -0.507 OA
ATOM     23  H   UNL     1     -24.963  32.808 -19.701  1.00  0.00     0.293 HD
ENDBRANCH   6  22
BRANCH   8  24
ATOM     24  O   UNL     1     -23.485  36.675 -22.419  1.00  0.00    -0.508 OA
ATOM     25  H   UNL     1     -23.757  36.974 -23.348  1.00  0.00     0.293 HD
ENDBRANCH   8  24
TORSDOF 5
ENDMDL
MODEL 7
REMARK VINA RESULT:    -7.229      2.079      6.841
REMARK INTER + INTRA:          -8.782
REMARK INTER:                  -8.518
REMARK INTRA:                  -0.264
REMARK UNBOUND:                -0.285
REMARK SMILES O=c1cc(-c2ccc(O)c(O)c2)oc2cc(O)cc(O)c12
REMARK SMILES IDX 4 1 3 2 2 3 1 4 21 5 19 6 18 7 16 8 15 9 14 10 13 11 5 12
REMARK SMILES IDX 6 13 7 14 8 15 12 16 10 17 9 18 11 20 20 22 17 24
REMARK H PARENT 9 19 11 21 20 23 17 25
REMARK Flexibility Score: inf
ROOT
ATOM      1  C   UNL     1     -19.859  32.133 -24.040  1.00  0.00     0.138 A 
ATOM      2  C   UNL     1     -19.674  31.915 -25.413  1.00  0.00     0.100 A 
ATOM      3  C   UNL     1     -18.868  30.860 -25.842  1.00  0.00     0.197 A 
ATOM      4  O   UNL     1     -18.677  30.725 -27.079  1.00  0.00    -0.289 OA
ATOM      5  C   UNL     1     -18.274  29.995 -24.892  1.00  0.00     0.107 A 
ATOM      6  C   UNL     1     -17.462  28.866 -25.213  1.00  0.00     0.134 A 
ATOM      7  C   UNL     1     -16.848  28.142 -24.184  1.00  0.00     0.093 A 
ATOM      8  C   UNL     1     -17.062  28.472 -22.843  1.00  0.00     0.123 A 
ATOM      9  C   UNL     1     -17.894  29.541 -22.517  1.00  0.00     0.094 A 
ATOM     10  C   UNL     1     -18.494  30.303 -23.522  1.00  0.00     0.146 A 
ATOM     11  O   UNL     1     -19.264  31.326 -23.167  1.00  0.00    -0.456 OA
ENDROOT
BRANCH   1  12
ATOM     12  C   UNL     1     -20.708  33.238 -23.528  1.00  0.00     0.021 A 
ATOM     13  C   UNL     1     -21.950  32.995 -22.916  1.00  0.00     0.016 A 
ATOM     14  C   UNL     1     -22.731  34.056 -22.454  1.00  0.00     0.051 A 
ATOM     15  C   UNL     1     -22.297  35.378 -22.596  1.00  0.00     0.157 A 
ATOM     16  C   UNL     1     -20.280  34.567 -23.683  1.00  0.00     0.062 A 
ATOM     17  C   UNL     1     -21.056  35.637 -23.221  1.00  0.00     0.158 A 
BRANCH  15  18
ATOM     18  O   UNL     1     -23.125  36.392 -22.109  1.00  0.00    -0.504 OA
ATOM     19  H   UNL     1     -24.017  36.229 -21.665  1.00  0.00     0.293 HD
ENDBRANCH  15  18
BRANCH  17  20
ATOM     20  O   UNL     1     -20.559  36.930 -23.403  1.00  0.00    -0.504 OA
ATOM     21  H   UNL     1     -20.062  37.232 -24.228  1.00  0.00     0.293 HD
ENDBRANCH  17  20
ENDBRANCH   1  12
BRANCH   6  22
ATOM     22  O   UNL     1     -17.245  28.401 -26.514  1.00  0.00    -0.507 OA
ATOM     23  H   UNL     1     -17.965  28.259 -27.206  1.00  0.00     0.293 HD
ENDBRANCH   6  22
BRANCH   8  24
ATOM     24  O   UNL     1     -16.459  27.736 -21.825  1.00  0.00    -0.508 OA
ATOM     25  H   UNL     1     -17.004  27.294 -21.095  1.00  0.00     0.293 HD
ENDBRANCH   8  24
TORSDOF 5
ENDMDL
MODEL 8
REMARK VINA RESULT:    -7.218      1.627      7.218
REMARK INTER + INTRA:          -8.769
REMARK INTER:                  -8.495
REMARK INTRA:                  -0.274
REMARK UNBOUND:                -0.285
REMARK SMILES O=c1cc(-c2ccc(O)c(O)c2)oc2cc(O)cc(O)c12
REMARK SMILES IDX 4 1 3 2 2 3 1 4 21 5 19 6 18 7 16 8 15 9 14 10 13 11 5 12
REMARK SMILES IDX 6 13 7 14 8 15 12 16 10 17 9 18 11 20 20 22 17 24
REMARK H PARENT 9 19 11 21 20 23 17 25
REMARK Flexibility Score: inf
ROOT
ATOM      1  C   UNL     1     -19.074  32.260 -22.945  1.00  0.00     0.138 A 
ATOM      2  C   UNL     1     -18.632  31.566 -21.810  1.00  0.00     0.100 A 
ATOM      3  C   UNL     1     -17.628  30.605 -21.935  1.00  0.00     0.197 A 
ATOM      4  O   UNL     1     -17.293  29.961 -20.907  1.00  0.00    -0.289 OA
ATOM      5  C   UNL     1     -17.037  30.363 -23.198  1.00  0.00     0.107 A 
ATOM      6  C   UNL     1     -15.983  29.432 -23.439  1.00  0.00     0.134 A 
ATOM      7  C   UNL     1     -15.547  29.208 -24.751  1.00  0.00     0.093 A 
ATOM      8  C   UNL     1     -16.088  29.923 -25.823  1.00  0.00     0.123 A 
ATOM      9  C   UNL     1     -17.082  30.871 -25.592  1.00  0.00     0.094 A 
ATOM     10  C   UNL     1     -17.562  31.092 -24.299  1.00  0.00     0.146 A 
ATOM     11  O   UNL     1     -18.525  31.992 -24.126  1.00  0.00    -0.456 OA
ENDROOT
BRANCH   1  12
ATOM     12  C   UNL     1     -20.136  33.295 -22.870  1.00  0.00     0.021 A 
ATOM     13  C   UNL     1     -21.459  32.973 -22.519  1.00  0.00     0.016 A 
ATOM     14  C   UNL     1     -22.438  33.966 -22.466  1.00  0.00     0.051 A 
ATOM     15  C   UNL     1     -22.126  35.295 -22.769  1.00  0.00     0.157 A 
ATOM     16  C   UNL     1     -19.826  34.628 -23.188  1.00  0.00     0.062 A 
ATOM     17  C   UNL     1     -20.803  35.630 -23.137  1.00  0.00     0.158 A 
BRANCH  15  18
ATOM     18  O   UNL     1     -23.152  36.240 -22.694  1.00  0.00    -0.504 OA
ATOM     19  H   UNL     1     -23.366  36.900 -23.427  1.00  0.00     0.293 HD
ENDBRANCH  15  18
BRANCH  17  20
ATOM     20  O   UNL     1     -20.416  36.934 -23.457  1.00  0.00    -0.504 OA
ATOM     21  H   UNL     1     -21.062  37.669 -23.705  1.00  0.00     0.293 HD
ENDBRANCH  17  20
ENDBRANCH   1  12
BRANCH   6  22
ATOM     22  O   UNL     1     -15.318  28.723 -22.435  1.00  0.00    -0.507 OA
ATOM     23  H   UNL     1     -14.870  29.138 -21.632  1.00  0.00     0.293 HD
ENDBRANCH   6  22
BRANCH   8  24
ATOM     24  O   UNL     1     -15.636  29.704 -27.123  1.00  0.00    -0.508 OA
ATOM     25  H   UNL     1     -16.226  29.883 -27.926  1.00  0.00     0.293 HD
ENDBRANCH   8  24
TORSDOF 5
ENDMDL
