MODEL 1
REMARK VINA RESULT:    -6.438      0.000      0.000
REMARK INTER + INTRA:          -7.885
REMARK INTER:                  -7.567
REMARK INTRA:                  -0.318
REMARK UNBOUND:                -0.318
REMARK SMILES O=c1cc(-c2ccc(O)c(O)c2)oc2cc(O)cc(O)c12
REMARK SMILES IDX 4 1 3 2 2 3 1 4 21 5 19 6 18 7 16 8 15 9 14 10 13 11 5 12
REMARK SMILES IDX 6 13 7 14 8 15 12 16 10 17 9 18 11 20 20 22 17 24
REMARK H PARENT 9 19 11 21 20 23 17 25
REMARK Flexibility Score: inf
ROOT
ATOM      1  C   UNL     1      70.210 -47.486 -22.745  1.00  0.00     0.138 A 
ATOM      2  C   UNL     1      70.739 -48.757 -23.006  1.00  0.00     0.100 A 
ATOM      3  C   UNL     1      70.573 -49.327 -24.269  1.00  0.00     0.197 A 
ATOM      4  O   UNL     1      71.112 -50.441 -24.493  1.00  0.00    -0.289 OA
ATOM      5  C   UNL     1      69.846 -48.631 -25.265  1.00  0.00     0.107 A 
ATOM      6  C   UNL     1      69.579 -49.133 -26.574  1.00  0.00     0.134 A 
ATOM      7  C   UNL     1      68.949 -48.307 -27.514  1.00  0.00     0.093 A 
ATOM      8  C   UNL     1      68.524 -47.023 -27.174  1.00  0.00     0.123 A 
ATOM      9  C   UNL     1      68.732 -46.543 -25.880  1.00  0.00     0.094 A 
ATOM     10  C   UNL     1      69.388 -47.330 -24.931  1.00  0.00     0.146 A 
ATOM     11  O   UNL     1      69.579 -46.831 -23.714  1.00  0.00    -0.456 OA
ENDROOT
BRANCH   1  12
ATOM     12  C   UNL     1      70.356 -46.833 -21.420  1.00  0.00     0.021 A 
ATOM     13  C   UNL     1      70.961 -47.537 -20.364  1.00  0.00     0.016 A 
ATOM     14  C   UNL     1      71.116 -46.943 -19.109  1.00  0.00     0.051 A 
ATOM     15  C   UNL     1      70.679 -45.630 -18.890  1.00  0.00     0.157 A 
ATOM     16  C   UNL     1      69.930 -45.509 -21.196  1.00  0.00     0.062 A 
ATOM     17  C   UNL     1      70.087 -44.909 -19.940  1.00  0.00     0.158 A 
BRANCH  15  18
ATOM     18  O   UNL     1      70.834 -45.040 -17.636  1.00  0.00    -0.504 OA
ATOM     19  H   UNL     1      70.035 -44.751 -17.084  1.00  0.00     0.293 HD
ENDBRANCH  15  18
BRANCH  17  20
ATOM     20  O   UNL     1      69.651 -43.597 -19.756  1.00  0.00    -0.504 OA
ATOM     21  H   UNL     1      69.417 -42.995 -20.535  1.00  0.00     0.293 HD
ENDBRANCH  17  20
ENDBRANCH   1  12
BRANCH   6  22
ATOM     22  O   UNL     1      69.886 -50.431 -26.991  1.00  0.00    -0.507 OA
ATOM     23  H   UNL     1      69.822 -50.763 -27.942  1.00  0.00     0.293 HD
ENDBRANCH   6  22
BRANCH   8  24
ATOM     24  O   UNL     1      67.887 -46.235 -28.131  1.00  0.00    -0.508 OA
ATOM     25  H   UNL     1      66.878 -46.200 -28.202  1.00  0.00     0.293 HD
ENDBRANCH   8  24
TORSDOF 5
ENDMDL
MODEL 2
REMARK VINA RESULT:    -6.406     13.876     15.680
REMARK INTER + INTRA:          -7.848
REMARK INTER:                  -7.580
REMARK INTRA:                  -0.267
REMARK UNBOUND:                -0.318
REMARK SMILES O=c1cc(-c2ccc(O)c(O)c2)oc2cc(O)cc(O)c12
REMARK SMILES IDX 4 1 3 2 2 3 1 4 21 5 19 6 18 7 16 8 15 9 14 10 13 11 5 12
REMARK SMILES IDX 6 13 7 14 8 15 12 16 10 17 9 18 11 20 20 22 17 24
REMARK H PARENT 9 19 11 21 20 23 17 25
REMARK Flexibility Score: inf
ROOT
ATOM      1  C   UNL     1      57.581 -39.442 -20.400  1.00  0.00     0.138 A 
ATOM      2  C   UNL     1      56.276 -38.957 -20.246  1.00  0.00     0.100 A 
ATOM      3  C   UNL     1      55.907 -37.761 -20.863  1.00  0.00     0.197 A 
ATOM      4  O   UNL     1      54.711 -37.384 -20.759  1.00  0.00    -0.289 OA
ATOM      5  C   UNL     1      56.861 -37.033 -21.612  1.00  0.00     0.107 A 
ATOM      6  C   UNL     1      56.609 -35.781 -22.251  1.00  0.00     0.134 A 
ATOM      7  C   UNL     1      57.597 -35.210 -23.062  1.00  0.00     0.093 A 
ATOM      8  C   UNL     1      58.846 -35.812 -23.209  1.00  0.00     0.123 A 
ATOM      9  C   UNL     1      59.122 -37.009 -22.546  1.00  0.00     0.094 A 
ATOM     10  C   UNL     1      58.145 -37.621 -21.757  1.00  0.00     0.146 A 
ATOM     11  O   UNL     1      58.443 -38.767 -21.153  1.00  0.00    -0.456 OA
ENDROOT
BRANCH   1  12
ATOM     12  C   UNL     1      58.028 -40.708 -19.765  1.00  0.00     0.021 A 
ATOM     13  C   UNL     1      58.364 -40.716 -18.399  1.00  0.00     0.016 A 
ATOM     14  C   UNL     1      58.780 -41.895 -17.777  1.00  0.00     0.051 A 
ATOM     15  C   UNL     1      58.858 -43.089 -18.504  1.00  0.00     0.157 A 
ATOM     16  C   UNL     1      58.097 -41.915 -20.487  1.00  0.00     0.062 A 
ATOM     17  C   UNL     1      58.512 -43.099 -19.865  1.00  0.00     0.158 A 
BRANCH  15  18
ATOM     18  O   UNL     1      59.276 -44.264 -17.880  1.00  0.00    -0.504 OA
ATOM     19  H   UNL     1      60.259 -44.471 -17.742  1.00  0.00     0.293 HD
ENDBRANCH  15  18
BRANCH  17  20
ATOM     20  O   UNL     1      58.569 -44.274 -20.614  1.00  0.00    -0.504 OA
ATOM     21  H   UNL     1      58.119 -45.128 -20.311  1.00  0.00     0.293 HD
ENDBRANCH  17  20
ENDBRANCH   1  12
BRANCH   6  22
ATOM     22  O   UNL     1      55.425 -35.053 -22.102  1.00  0.00    -0.507 OA
ATOM     23  H   UNL     1      54.936 -34.587 -22.851  1.00  0.00     0.293 HD
ENDBRANCH   6  22
BRANCH   8  24
ATOM     24  O   UNL     1      59.810 -35.207 -24.013  1.00  0.00    -0.508 OA
ATOM     25  H   UNL     1      59.748 -34.229 -24.270  1.00  0.00     0.293 HD
ENDBRANCH   8  24
TORSDOF 5
ENDMDL
MODEL 3
REMARK VINA RESULT:    -6.325     10.498     13.797
REMARK INTER + INTRA:          -7.752
REMARK INTER:                  -7.471
REMARK INTRA:                  -0.280
REMARK UNBOUND:                -0.318
REMARK SMILES O=c1cc(-c2ccc(O)c(O)c2)oc2cc(O)cc(O)c12
REMARK SMILES IDX 4 1 3 2 2 3 1 4 21 5 19 6 18 7 16 8 15 9 14 10 13 11 5 12
REMARK SMILES IDX 6 13 7 14 8 15 12 16 10 17 9 18 11 20 20 22 17 24
REMARK H PARENT 9 19 11 21 20 23 17 25
REMARK Flexibility Score: inf
ROOT
ATOM      1  C   UNL     1      69.751 -39.141 -13.545  1.00  0.00     0.138 A 
ATOM      2  C   UNL     1      70.834 -38.331 -13.179  1.00  0.00     0.100 A 
ATOM      3  C   UNL     1      70.786 -36.960 -13.434  1.00  0.00     0.197 A 
ATOM      4  O   UNL     1      71.745 -36.249 -13.038  1.00  0.00    -0.289 OA
ATOM      5  C   UNL     1      69.660 -36.405 -14.087  1.00  0.00     0.107 A 
ATOM      6  C   UNL     1      69.521 -35.027 -14.435  1.00  0.00     0.134 A 
ATOM      7  C   UNL     1      68.311 -34.571 -14.974  1.00  0.00     0.093 A 
ATOM      8  C   UNL     1      67.262 -35.451 -15.235  1.00  0.00     0.123 A 
ATOM      9  C   UNL     1      67.407 -36.810 -14.949  1.00  0.00     0.094 A 
ATOM     10  C   UNL     1      68.589 -37.289 -14.378  1.00  0.00     0.146 A 
ATOM     11  O   UNL     1      68.682 -38.586 -14.108  1.00  0.00    -0.456 OA
ENDROOT
BRANCH   1  12
ATOM     12  C   UNL     1      69.749 -40.606 -13.300  1.00  0.00     0.021 A 
ATOM     13  C   UNL     1      69.923 -41.089 -11.991  1.00  0.00     0.016 A 
ATOM     14  C   UNL     1      69.918 -42.461 -11.733  1.00  0.00     0.051 A 
ATOM     15  C   UNL     1      69.728 -43.376 -12.776  1.00  0.00     0.157 A 
ATOM     16  C   UNL     1      69.546 -41.531 -14.342  1.00  0.00     0.062 A 
ATOM     17  C   UNL     1      69.538 -42.908 -14.086  1.00  0.00     0.158 A 
BRANCH  15  18
ATOM     18  O   UNL     1      69.726 -44.746 -12.515  1.00  0.00    -0.504 OA
ATOM     19  H   UNL     1      69.488 -45.422 -13.231  1.00  0.00     0.293 HD
ENDBRANCH  15  18
BRANCH  17  20
ATOM     20  O   UNL     1      69.336 -43.793 -15.145  1.00  0.00    -0.504 OA
ATOM     21  H   UNL     1      68.443 -44.239 -15.310  1.00  0.00     0.293 HD
ENDBRANCH  17  20
ENDBRANCH   1  12
BRANCH   6  22
ATOM     22  O   UNL     1      70.538 -34.079 -14.294  1.00  0.00    -0.507 OA
ATOM     23  H   UNL     1      71.413 -34.092 -14.795  1.00  0.00     0.293 HD
ENDBRANCH   6  22
BRANCH   8  24
ATOM     24  O   UNL     1      66.078 -34.964 -15.787  1.00  0.00    -0.508 OA
ATOM     25  H   UNL     1      65.853 -35.104 -16.765  1.00  0.00     0.293 HD
ENDBRANCH   8  24
TORSDOF 5
ENDMDL
MODEL 4
REMARK VINA RESULT:    -6.274      2.480      4.291
REMARK INTER + INTRA:          -7.693
REMARK INTER:                  -7.430
REMARK INTRA:                  -0.263
REMARK UNBOUND:                -0.318
REMARK SMILES O=c1cc(-c2ccc(O)c(O)c2)oc2cc(O)cc(O)c12
REMARK SMILES IDX 4 1 3 2 2 3 1 4 21 5 19 6 18 7 16 8 15 9 14 10 13 11 5 12
REMARK SMILES IDX 6 13 7 14 8 15 12 16 10 17 9 18 11 20 20 22 17 24
REMARK H PARENT 9 19 11 21 20 23 17 25
REMARK Flexibility Score: inf
ROOT
ATOM      1  C   UNL     1      70.857 -45.461 -19.244  1.00  0.00     0.138 A 
ATOM      2  C   UNL     1      71.652 -46.613 -19.192  1.00  0.00     0.100 A 
ATOM      3  C   UNL     1      71.595 -47.539 -20.235  1.00  0.00     0.197 A 
ATOM      4  O   UNL     1      72.366 -48.531 -20.191  1.00  0.00    -0.289 OA
ATOM      5  C   UNL     1      70.712 -47.322 -21.319  1.00  0.00     0.107 A 
ATOM      6  C   UNL     1      70.539 -48.218 -22.418  1.00  0.00     0.134 A 
ATOM      7  C   UNL     1      69.723 -47.842 -23.492  1.00  0.00     0.093 A 
ATOM      8  C   UNL     1      69.026 -46.635 -23.480  1.00  0.00     0.123 A 
ATOM      9  C   UNL     1      69.145 -45.775 -22.386  1.00  0.00     0.094 A 
ATOM     10  C   UNL     1      69.979 -46.106 -21.315  1.00  0.00     0.146 A 
ATOM     11  O   UNL     1      70.076 -45.255 -20.300  1.00  0.00    -0.456 OA
ENDROOT
BRANCH   1  12
ATOM     12  C   UNL     1      70.877 -44.444 -18.162  1.00  0.00     0.021 A 
ATOM     13  C   UNL     1      71.707 -43.317 -18.286  1.00  0.00     0.016 A 
ATOM     14  C   UNL     1      71.739 -42.343 -17.286  1.00  0.00     0.051 A 
ATOM     15  C   UNL     1      70.934 -42.473 -16.147  1.00  0.00     0.157 A 
ATOM     16  C   UNL     1      70.061 -44.563 -17.019  1.00  0.00     0.062 A 
ATOM     17  C   UNL     1      70.089 -43.587 -16.016  1.00  0.00     0.158 A 
BRANCH  15  18
ATOM     18  O   UNL     1      70.970 -41.500 -15.148  1.00  0.00    -0.504 OA
ATOM     19  H   UNL     1      70.174 -41.329 -14.545  1.00  0.00     0.293 HD
ENDBRANCH  15  18
BRANCH  17  20
ATOM     20  O   UNL     1      69.267 -43.740 -14.899  1.00  0.00    -0.504 OA
ATOM     21  H   UNL     1      68.278 -43.529 -14.926  1.00  0.00     0.293 HD
ENDBRANCH  17  20
ENDBRANCH   1  12
BRANCH   6  22
ATOM     22  O   UNL     1      71.123 -49.486 -22.490  1.00  0.00    -0.507 OA
ATOM     23  H   UNL     1      71.594 -49.949 -21.728  1.00  0.00     0.293 HD
ENDBRANCH   6  22
BRANCH   8  24
ATOM     24  O   UNL     1      68.210 -46.301 -24.559  1.00  0.00    -0.508 OA
ATOM     25  H   UNL     1      67.219 -46.511 -24.559  1.00  0.00     0.293 HD
ENDBRANCH   8  24
TORSDOF 5
ENDMDL
MODEL 5
REMARK VINA RESULT:    -6.226      2.020      2.144
REMARK INTER + INTRA:          -7.635
REMARK INTER:                  -7.327
REMARK INTRA:                  -0.308
REMARK UNBOUND:                -0.318
REMARK SMILES O=c1cc(-c2ccc(O)c(O)c2)oc2cc(O)cc(O)c12
REMARK SMILES IDX 4 1 3 2 2 3 1 4 21 5 19 6 18 7 16 8 15 9 14 10 13 11 5 12
REMARK SMILES IDX 6 13 7 14 8 15 12 16 10 17 9 18 11 20 20 22 17 24
REMARK H PARENT 9 19 11 21 20 23 17 25
REMARK Flexibility Score: inf
ROOT
ATOM      1  C   UNL     1      69.578 -46.797 -22.151  1.00  0.00     0.138 A 
ATOM      2  C   UNL     1      69.008 -48.042 -21.857  1.00  0.00     0.100 A 
ATOM      3  C   UNL     1      68.265 -48.709 -22.832  1.00  0.00     0.197 A 
ATOM      4  O   UNL     1      67.819 -49.853 -22.560  1.00  0.00    -0.289 OA
ATOM      5  C   UNL     1      68.066 -48.107 -24.098  1.00  0.00     0.107 A 
ATOM      6  C   UNL     1      67.292 -48.675 -25.154  1.00  0.00     0.134 A 
ATOM      7  C   UNL     1      67.262 -48.043 -26.404  1.00  0.00     0.093 A 
ATOM      8  C   UNL     1      67.926 -46.835 -26.616  1.00  0.00     0.123 A 
ATOM      9  C   UNL     1      68.642 -46.243 -25.574  1.00  0.00     0.094 A 
ATOM     10  C   UNL     1      68.719 -46.867 -24.327  1.00  0.00     0.146 A 
ATOM     11  O   UNL     1      69.422 -46.279 -23.365  1.00  0.00    -0.456 OA
ENDROOT
BRANCH   1  12
ATOM     12  C   UNL     1      70.376 -46.044 -21.150  1.00  0.00     0.021 A 
ATOM     13  C   UNL     1      70.145 -46.253 -19.780  1.00  0.00     0.016 A 
ATOM     14  C   UNL     1      70.887 -45.563 -18.819  1.00  0.00     0.051 A 
ATOM     15  C   UNL     1      71.882 -44.658 -19.211  1.00  0.00     0.157 A 
ATOM     16  C   UNL     1      71.386 -45.141 -21.537  1.00  0.00     0.062 A 
ATOM     17  C   UNL     1      72.134 -44.449 -20.576  1.00  0.00     0.158 A 
BRANCH  15  18
ATOM     18  O   UNL     1      72.620 -43.969 -18.249  1.00  0.00    -0.504 OA
ATOM     19  H   UNL     1      73.572 -43.670 -18.425  1.00  0.00     0.293 HD
ENDBRANCH  15  18
BRANCH  17  20
ATOM     20  O   UNL     1      73.125 -43.563 -20.998  1.00  0.00    -0.504 OA
ATOM     21  H   UNL     1      73.091 -42.575 -20.780  1.00  0.00     0.293 HD
ENDBRANCH  17  20
ENDBRANCH   1  12
BRANCH   6  22
ATOM     22  O   UNL     1      66.522 -49.834 -25.023  1.00  0.00    -0.507 OA
ATOM     23  H   UNL     1      66.359 -50.323 -24.156  1.00  0.00     0.293 HD
ENDBRANCH   6  22
BRANCH   8  24
ATOM     24  O   UNL     1      67.862 -46.227 -27.869  1.00  0.00    -0.508 OA
ATOM     25  H   UNL     1      67.461 -45.305 -27.990  1.00  0.00     0.293 HD
ENDBRANCH   8  24
TORSDOF 5
ENDMDL
MODEL 6
REMARK VINA RESULT:    -6.213      1.675      6.637
REMARK INTER + INTRA:          -7.620
REMARK INTER:                  -7.340
REMARK INTRA:                  -0.280
REMARK UNBOUND:                -0.318
REMARK SMILES O=c1cc(-c2ccc(O)c(O)c2)oc2cc(O)cc(O)c12
REMARK SMILES IDX 4 1 3 2 2 3 1 4 21 5 19 6 18 7 16 8 15 9 14 10 13 11 5 12
REMARK SMILES IDX 6 13 7 14 8 15 12 16 10 17 9 18 11 20 20 22 17 24
REMARK H PARENT 9 19 11 21 20 23 17 25
REMARK Flexibility Score: inf
ROOT
ATOM      1  C   UNL     1      69.132 -47.255 -23.875  1.00  0.00     0.138 A 
ATOM      2  C   UNL     1      70.026 -48.328 -23.992  1.00  0.00     0.100 A 
ATOM      3  C   UNL     1      70.882 -48.631 -22.932  1.00  0.00     0.197 A 
ATOM      4  O   UNL     1      71.628 -49.638 -23.042  1.00  0.00    -0.289 OA
ATOM      5  C   UNL     1      70.863 -47.834 -21.763  1.00  0.00     0.107 A 
ATOM      6  C   UNL     1      71.719 -48.024 -20.637  1.00  0.00     0.134 A 
ATOM      7  C   UNL     1      71.530 -47.246 -19.488  1.00  0.00     0.093 A 
ATOM      8  C   UNL     1      70.560 -46.246 -19.447  1.00  0.00     0.123 A 
ATOM      9  C   UNL     1      69.753 -46.015 -20.562  1.00  0.00     0.094 A 
ATOM     10  C   UNL     1      69.894 -46.798 -21.710  1.00  0.00     0.146 A 
ATOM     11  O   UNL     1      69.097 -46.556 -22.746  1.00  0.00    -0.456 OA
ENDROOT
BRANCH   1  12
ATOM     12  C   UNL     1      68.201 -46.887 -24.972  1.00  0.00     0.021 A 
ATOM     13  C   UNL     1      66.873 -46.542 -24.666  1.00  0.00     0.016 A 
ATOM     14  C   UNL     1      65.979 -46.186 -25.678  1.00  0.00     0.051 A 
ATOM     15  C   UNL     1      66.399 -46.158 -27.014  1.00  0.00     0.157 A 
ATOM     16  C   UNL     1      68.619 -46.845 -26.316  1.00  0.00     0.062 A 
ATOM     17  C   UNL     1      67.726 -46.486 -27.333  1.00  0.00     0.158 A 
BRANCH  15  18
ATOM     18  O   UNL     1      65.503 -45.804 -28.023  1.00  0.00    -0.504 OA
ATOM     19  H   UNL     1      65.106 -46.497 -28.647  1.00  0.00     0.293 HD
ENDBRANCH  15  18
BRANCH  17  20
ATOM     20  O   UNL     1      68.177 -46.458 -28.653  1.00  0.00    -0.504 OA
ATOM     21  H   UNL     1      69.151 -46.598 -28.891  1.00  0.00     0.293 HD
ENDBRANCH  17  20
ENDBRANCH   1  12
BRANCH   6  22
ATOM     22  O   UNL     1      72.776 -48.939 -20.604  1.00  0.00    -0.507 OA
ATOM     23  H   UNL     1      72.988 -49.601 -21.335  1.00  0.00     0.293 HD
ENDBRANCH   6  22
BRANCH   8  24
ATOM     24  O   UNL     1      70.410 -45.481 -18.291  1.00  0.00    -0.508 OA
ATOM     25  H   UNL     1      69.538 -45.466 -17.775  1.00  0.00     0.293 HD
ENDBRANCH   8  24
TORSDOF 5
ENDMDL
MODEL 7
REMARK VINA RESULT:    -6.194      5.112      9.976
REMARK INTER + INTRA:          -7.598
REMARK INTER:                  -7.319
REMARK INTRA:                  -0.279
REMARK UNBOUND:                -0.318
REMARK SMILES O=c1cc(-c2ccc(O)c(O)c2)oc2cc(O)cc(O)c12
REMARK SMILES IDX 4 1 3 2 2 3 1 4 21 5 19 6 18 7 16 8 15 9 14 10 13 11 5 12
REMARK SMILES IDX 6 13 7 14 8 15 12 16 10 17 9 18 11 20 20 22 17 24
REMARK H PARENT 9 19 11 21 20 23 17 25
REMARK Flexibility Score: inf
ROOT
ATOM      1  C   UNL     1      70.212 -43.503 -17.001  1.00  0.00     0.138 A 
ATOM      2  C   UNL     1      70.390 -43.927 -15.677  1.00  0.00     0.100 A 
ATOM      3  C   UNL     1      69.810 -43.201 -14.636  1.00  0.00     0.197 A 
ATOM      4  O   UNL     1      69.935 -43.640 -13.464  1.00  0.00    -0.289 OA
ATOM      5  C   UNL     1      69.074 -42.027 -14.923  1.00  0.00     0.107 A 
ATOM      6  C   UNL     1      68.472 -41.185 -13.939  1.00  0.00     0.134 A 
ATOM      7  C   UNL     1      67.669 -40.113 -14.348  1.00  0.00     0.093 A 
ATOM      8  C   UNL     1      67.495 -39.816 -15.699  1.00  0.00     0.123 A 
ATOM      9  C   UNL     1      68.122 -40.601 -16.668  1.00  0.00     0.094 A 
ATOM     10  C   UNL     1      68.902 -41.698 -16.293  1.00  0.00     0.146 A 
ATOM     11  O   UNL     1      69.471 -42.428 -17.246  1.00  0.00    -0.456 OA
ENDROOT
BRANCH   1  12
ATOM     12  C   UNL     1      70.808 -44.236 -18.146  1.00  0.00     0.021 A 
ATOM     13  C   UNL     1      70.485 -45.590 -18.346  1.00  0.00     0.016 A 
ATOM     14  C   UNL     1      71.026 -46.300 -19.419  1.00  0.00     0.051 A 
ATOM     15  C   UNL     1      71.894 -45.667 -20.319  1.00  0.00     0.157 A 
ATOM     16  C   UNL     1      71.672 -43.603 -19.062  1.00  0.00     0.062 A 
ATOM     17  C   UNL     1      72.214 -44.312 -20.141  1.00  0.00     0.158 A 
BRANCH  15  18
ATOM     18  O   UNL     1      72.435 -46.380 -21.389  1.00  0.00    -0.504 OA
ATOM     19  H   UNL     1      73.164 -47.070 -21.252  1.00  0.00     0.293 HD
ENDBRANCH  15  18
BRANCH  17  20
ATOM     20  O   UNL     1      73.066 -43.651 -21.025  1.00  0.00    -0.504 OA
ATOM     21  H   UNL     1      73.984 -44.010 -21.257  1.00  0.00     0.293 HD
ENDBRANCH  17  20
ENDBRANCH   1  12
BRANCH   6  22
ATOM     22  O   UNL     1      68.651 -41.342 -12.562  1.00  0.00    -0.507 OA
ATOM     23  H   UNL     1      68.060 -40.935 -11.853  1.00  0.00     0.293 HD
ENDBRANCH   6  22
BRANCH   8  24
ATOM     24  O   UNL     1      66.700 -38.733 -16.068  1.00  0.00    -0.508 OA
ATOM     25  H   UNL     1      66.932 -38.153 -16.865  1.00  0.00     0.293 HD
ENDBRANCH   8  24
TORSDOF 5
ENDMDL
MODEL 8
REMARK VINA RESULT:    -6.168      4.477      7.519
REMARK INTER + INTRA:          -7.568
REMARK INTER:                  -7.262
REMARK INTRA:                  -0.305
REMARK UNBOUND:                -0.318
REMARK SMILES O=c1cc(-c2ccc(O)c(O)c2)oc2cc(O)cc(O)c12
REMARK SMILES IDX 4 1 3 2 2 3 1 4 21 5 19 6 18 7 16 8 15 9 14 10 13 11 5 12
REMARK SMILES IDX 6 13 7 14 8 15 12 16 10 17 9 18 11 20 20 22 17 24
REMARK H PARENT 9 19 11 21 20 23 17 25
REMARK Flexibility Score: inf
ROOT
ATOM      1  C   UNL     1      71.095 -43.252 -17.107  1.00  0.00     0.138 A 
ATOM      2  C   UNL     1      71.912 -42.492 -17.955  1.00  0.00     0.100 A 
ATOM      3  C   UNL     1      72.282 -43.005 -19.199  1.00  0.00     0.197 A 
ATOM      4  O   UNL     1      72.963 -42.275 -19.963  1.00  0.00    -0.289 OA
ATOM      5  C   UNL     1      71.857 -44.300 -19.580  1.00  0.00     0.107 A 
ATOM      6  C   UNL     1      72.207 -44.941 -20.806  1.00  0.00     0.134 A 
ATOM      7  C   UNL     1      71.631 -46.177 -21.126  1.00  0.00     0.093 A 
ATOM      8  C   UNL     1      70.769 -46.822 -20.241  1.00  0.00     0.123 A 
ATOM      9  C   UNL     1      70.462 -46.228 -19.015  1.00  0.00     0.094 A 
ATOM     10  C   UNL     1      70.992 -44.980 -18.682  1.00  0.00     0.146 A 
ATOM     11  O   UNL     1      70.665 -44.442 -17.512  1.00  0.00    -0.456 OA
ENDROOT
BRANCH   1  12
ATOM     12  C   UNL     1      70.673 -42.755 -15.773  1.00  0.00     0.021 A 
ATOM     13  C   UNL     1      70.508 -41.374 -15.569  1.00  0.00     0.016 A 
ATOM     14  C   UNL     1      70.105 -40.882 -14.325  1.00  0.00     0.051 A 
ATOM     15  C   UNL     1      69.848 -41.763 -13.266  1.00  0.00     0.157 A 
ATOM     16  C   UNL     1      70.401 -43.636 -14.707  1.00  0.00     0.062 A 
ATOM     17  C   UNL     1      69.994 -43.145 -13.460  1.00  0.00     0.158 A 
BRANCH  15  18
ATOM     18  O   UNL     1      69.447 -41.268 -12.025  1.00  0.00    -0.504 OA
ATOM     19  H   UNL     1      69.107 -40.320 -11.917  1.00  0.00     0.293 HD
ENDBRANCH  15  18
BRANCH  17  20
ATOM     20  O   UNL     1      69.736 -44.049 -12.429  1.00  0.00    -0.504 OA
ATOM     21  H   UNL     1      69.144 -43.813 -11.643  1.00  0.00     0.293 HD
ENDBRANCH  17  20
ENDBRANCH   1  12
BRANCH   6  22
ATOM     22  O   UNL     1      73.125 -44.424 -21.724  1.00  0.00    -0.507 OA
ATOM     23  H   UNL     1      72.913 -43.726 -22.421  1.00  0.00     0.293 HD
ENDBRANCH   6  22
BRANCH   8  24
ATOM     24  O   UNL     1      70.226 -48.058 -20.587  1.00  0.00    -0.508 OA
ATOM     25  H   UNL     1      69.731 -48.193 -21.460  1.00  0.00     0.293 HD
ENDBRANCH   8  24
TORSDOF 5
ENDMDL
MODEL 9
REMARK VINA RESULT:    -6.128      1.778      3.087
REMARK INTER + INTRA:          -7.520
REMARK INTER:                  -7.256
REMARK INTRA:                  -0.264
REMARK UNBOUND:                -0.318
REMARK SMILES O=c1cc(-c2ccc(O)c(O)c2)oc2cc(O)cc(O)c12
REMARK SMILES IDX 4 1 3 2 2 3 1 4 21 5 19 6 18 7 16 8 15 9 14 10 13 11 5 12
REMARK SMILES IDX 6 13 7 14 8 15 12 16 10 17 9 18 11 20 20 22 17 24
REMARK H PARENT 9 19 11 21 20 23 17 25
REMARK Flexibility Score: inf
ROOT
ATOM      1  C   UNL     1      69.487 -46.531 -23.483  1.00  0.00     0.138 A 
ATOM      2  C   UNL     1      68.217 -45.955 -23.619  1.00  0.00     0.100 A 
ATOM      3  C   UNL     1      67.444 -46.247 -24.744  1.00  0.00     0.197 A 
ATOM      4  O   UNL     1      66.284 -45.766 -24.808  1.00  0.00    -0.289 OA
ATOM      5  C   UNL     1      67.962 -47.096 -25.751  1.00  0.00     0.107 A 
ATOM      6  C   UNL     1      67.280 -47.430 -26.961  1.00  0.00     0.134 A 
ATOM      7  C   UNL     1      67.842 -48.373 -27.830  1.00  0.00     0.093 A 
ATOM      8  C   UNL     1      69.086 -48.946 -27.567  1.00  0.00     0.123 A 
ATOM      9  C   UNL     1      69.786 -48.585 -26.414  1.00  0.00     0.094 A 
ATOM     10  C   UNL     1      69.235 -47.674 -25.509  1.00  0.00     0.146 A 
ATOM     11  O   UNL     1      69.927 -47.367 -24.417  1.00  0.00    -0.456 OA
ENDROOT
BRANCH   1  12
ATOM     12  C   UNL     1      70.351 -46.253 -22.308  1.00  0.00     0.021 A 
ATOM     13  C   UNL     1      71.472 -45.417 -22.454  1.00  0.00     0.016 A 
ATOM     14  C   UNL     1      72.297 -45.135 -21.363  1.00  0.00     0.051 A 
ATOM     15  C   UNL     1      72.011 -45.676 -20.103  1.00  0.00     0.157 A 
ATOM     16  C   UNL     1      70.063 -46.784 -21.035  1.00  0.00     0.062 A 
ATOM     17  C   UNL     1      70.887 -46.501 -19.938  1.00  0.00     0.158 A 
BRANCH  15  18
ATOM     18  O   UNL     1      72.838 -45.394 -19.016  1.00  0.00    -0.504 OA
ATOM     19  H   UNL     1      72.466 -45.026 -18.148  1.00  0.00     0.293 HD
ENDBRANCH  15  18
BRANCH  17  20
ATOM     20  O   UNL     1      70.570 -47.046 -18.694  1.00  0.00    -0.504 OA
ATOM     21  H   UNL     1      69.928 -46.593 -18.057  1.00  0.00     0.293 HD
ENDBRANCH  17  20
ENDBRANCH   1  12
BRANCH   6  22
ATOM     22  O   UNL     1      66.072 -46.853 -27.362  1.00  0.00    -0.507 OA
ATOM     23  H   UNL     1      65.174 -47.311 -27.329  1.00  0.00     0.293 HD
ENDBRANCH   6  22
BRANCH   8  24
ATOM     24  O   UNL     1      69.621 -49.869 -28.463  1.00  0.00    -0.508 OA
ATOM     25  H   UNL     1      70.114 -49.574 -29.297  1.00  0.00     0.293 HD
ENDBRANCH   8  24
TORSDOF 5
ENDMDL
