MODEL 1
REMARK VINA RESULT:    39.251      0.000      0.000
REMARK INTER + INTRA:          43.079
REMARK INTER:                  42.693
REMARK INTRA:                   0.386
REMARK UNBOUND:                 0.386
REMARK SMILES CC(=O)[C@@H]1CC[C@@H]2[C@@H]3CC=C4C[C@@H](O)CC[C@]4(C)[C@@H]3CC[C@@]21C
REMARK SMILES IDX 4 1 5 2 6 3 7 4 22 5 21 6 20 7 19 8 8 9 9 10 10 11 11 12
REMARK SMILES IDX 17 13 16 14 15 15 13 16 12 17 18 18 23 19 2 20 1 21 3 22
REMARK SMILES IDX 14 23
REMARK H PARENT 14 24
REMARK Flexibility Score: inf
ROOT
ATOM      1  C   UNL     1     -41.890  22.538   6.661  1.00  0.00     0.062 C 
ATOM      2  C   UNL     1     -41.228  23.126   5.414  1.00  0.00     0.012 C 
ATOM      3  C   UNL     1     -40.713  24.502   5.826  1.00  0.00     0.005 C 
ATOM      4  C   UNL     1     -40.806  24.579   7.366  1.00  0.00    -0.001 C 
ATOM      5  C   UNL     1     -41.098  23.133   7.858  1.00  0.00    -0.020 C 
ATOM      6  C   UNL     1     -39.782  22.337   8.180  1.00  0.00     0.008 C 
ATOM      7  C   UNL     1     -38.504  22.977   7.625  1.00  0.00     0.005 C 
ATOM      8  C   UNL     1     -38.308  24.395   8.209  1.00  0.00     0.003 C 
ATOM      9  C   UNL     1     -39.603  25.272   8.077  1.00  0.00     0.000 C 
ATOM     10  C   UNL     1     -39.358  26.679   7.515  1.00  0.00     0.031 C 
ATOM     11  C   UNL     1     -38.106  27.287   8.054  1.00  0.00    -0.027 C 
ATOM     12  C   UNL     1     -36.955  26.590   8.082  1.00  0.00    -0.065 C 
ATOM     13  C   UNL     1     -36.934  25.083   7.806  1.00  0.00    -0.008 C 
ATOM     14  C   UNL     1     -36.584  24.922   6.296  1.00  0.00     0.014 C 
ATOM     15  C   UNL     1     -35.317  25.706   5.873  1.00  0.00     0.033 C 
ATOM     16  C   UNL     1     -35.348  27.192   6.310  1.00  0.00     0.118 C 
ATOM     17  C   UNL     1     -35.682  27.357   7.806  1.00  0.00     0.063 C 
ATOM     18  C   UNL     1     -35.815  24.423   8.670  1.00  0.00     0.016 C 
ATOM     19  C   UNL     1     -41.990  23.173   9.124  1.00  0.00     0.012 C 
ENDROOT
BRANCH   1  20
ATOM     20  C   UNL     1     -42.059  21.025   6.659  1.00  0.00     0.133 C 
ATOM     21  C   UNL     1     -42.125  20.212   7.923  1.00  0.00     0.088 C 
ATOM     22  O   UNL     1     -42.125  20.440   5.587  1.00  0.00    -0.300 OA
ENDBRANCH   1  20
BRANCH  16  23
ATOM     23  O   UNL     1     -34.131  27.823   6.001  1.00  0.00    -0.393 OA
ATOM     24  H   UNL     1     -34.295  28.803   5.998  1.00  0.00     0.210 HD
ENDBRANCH  16  23
TORSDOF 2
ENDMDL
MODEL 2
REMARK VINA RESULT:    40.150      1.789      3.165
REMARK INTER + INTRA:          44.057
REMARK INTER:                  43.529
REMARK INTRA:                   0.528
REMARK UNBOUND:                 0.386
REMARK SMILES CC(=O)[C@@H]1CC[C@@H]2[C@@H]3CC=C4C[C@@H](O)CC[C@]4(C)[C@@H]3CC[C@@]21C
REMARK SMILES IDX 4 1 5 2 6 3 7 4 22 5 21 6 20 7 19 8 8 9 9 10 10 11 11 12
REMARK SMILES IDX 17 13 16 14 15 15 13 16 12 17 18 18 23 19 2 20 1 21 3 22
REMARK SMILES IDX 14 23
REMARK H PARENT 14 24
REMARK Flexibility Score: inf
ROOT
ATOM      1  C   UNL     1     -40.328  22.503   7.431  1.00  0.00     0.062 C 
ATOM      2  C   UNL     1     -39.105  21.842   8.066  1.00  0.00     0.012 C 
ATOM      3  C   UNL     1     -37.917  22.238   7.193  1.00  0.00     0.005 C 
ATOM      4  C   UNL     1     -38.403  23.357   6.247  1.00  0.00    -0.001 C 
ATOM      5  C   UNL     1     -39.791  23.809   6.782  1.00  0.00    -0.020 C 
ATOM      6  C   UNL     1     -39.677  24.999   7.802  1.00  0.00     0.008 C 
ATOM      7  C   UNL     1     -38.260  25.240   8.337  1.00  0.00     0.005 C 
ATOM      8  C   UNL     1     -37.290  25.566   7.178  1.00  0.00     0.003 C 
ATOM      9  C   UNL     1     -37.392  24.521   6.010  1.00  0.00     0.000 C 
ATOM     10  C   UNL     1     -36.038  23.993   5.516  1.00  0.00     0.031 C 
ATOM     11  C   UNL     1     -35.006  25.070   5.456  1.00  0.00    -0.027 C 
ATOM     12  C   UNL     1     -34.827  25.915   6.488  1.00  0.00    -0.065 C 
ATOM     13  C   UNL     1     -35.827  25.975   7.647  1.00  0.00    -0.008 C 
ATOM     14  C   UNL     1     -35.257  25.049   8.763  1.00  0.00     0.014 C 
ATOM     15  C   UNL     1     -33.783  25.360   9.125  1.00  0.00     0.033 C 
ATOM     16  C   UNL     1     -32.855  25.423   7.886  1.00  0.00     0.118 C 
ATOM     17  C   UNL     1     -33.408  26.346   6.783  1.00  0.00     0.063 C 
ATOM     18  C   UNL     1     -35.904  27.439   8.178  1.00  0.00     0.016 C 
ATOM     19  C   UNL     1     -40.701  24.236   5.604  1.00  0.00     0.012 C 
ENDROOT
BRANCH   1  20
ATOM     20  C   UNL     1     -41.535  22.660   8.345  1.00  0.00     0.133 C 
ATOM     21  C   UNL     1     -42.124  21.514   9.120  1.00  0.00     0.088 C 
ATOM     22  O   UNL     1     -42.062  23.759   8.441  1.00  0.00    -0.300 OA
ENDBRANCH   1  20
BRANCH  16  23
ATOM     23  O   UNL     1     -31.559  25.817   8.260  1.00  0.00    -0.393 OA
ATOM     24  H   UNL     1     -31.265  26.520   7.623  1.00  0.00     0.210 HD
ENDBRANCH  16  23
TORSDOF 2
ENDMDL
MODEL 3
REMARK VINA RESULT:    41.356      1.996      6.857
REMARK INTER + INTRA:          45.368
REMARK INTER:                  45.178
REMARK INTRA:                   0.190
REMARK UNBOUND:                 0.386
REMARK SMILES CC(=O)[C@@H]1CC[C@@H]2[C@@H]3CC=C4C[C@@H](O)CC[C@]4(C)[C@@H]3CC[C@@]21C
REMARK SMILES IDX 4 1 5 2 6 3 7 4 22 5 21 6 20 7 19 8 8 9 9 10 10 11 11 12
REMARK SMILES IDX 17 13 16 14 15 15 13 16 12 17 18 18 23 19 2 20 1 21 3 22
REMARK SMILES IDX 14 23
REMARK H PARENT 14 24
REMARK Flexibility Score: inf
ROOT
ATOM      1  C   UNL     1     -33.597  25.860   7.771  1.00  0.00     0.062 C 
ATOM      2  C   UNL     1     -34.141  25.112   8.988  1.00  0.00     0.012 C 
ATOM      3  C   UNL     1     -35.599  25.542   9.125  1.00  0.00     0.005 C 
ATOM      4  C   UNL     1     -35.974  26.290   7.827  1.00  0.00    -0.001 C 
ATOM      5  C   UNL     1     -34.817  26.029   6.822  1.00  0.00    -0.020 C 
ATOM      6  C   UNL     1     -35.078  24.763   5.928  1.00  0.00     0.008 C 
ATOM      7  C   UNL     1     -36.199  23.850   6.439  1.00  0.00     0.005 C 
ATOM      8  C   UNL     1     -37.539  24.619   6.507  1.00  0.00     0.003 C 
ATOM      9  C   UNL     1     -37.397  25.986   7.265  1.00  0.00     0.000 C 
ATOM     10  C   UNL     1     -38.480  26.235   8.324  1.00  0.00     0.031 C 
ATOM     11  C   UNL     1     -39.826  25.780   7.865  1.00  0.00    -0.027 C 
ATOM     12  C   UNL     1     -39.993  24.569   7.305  1.00  0.00    -0.065 C 
ATOM     13  C   UNL     1     -38.791  23.717   6.885  1.00  0.00    -0.008 C 
ATOM     14  C   UNL     1     -38.513  22.742   8.068  1.00  0.00     0.014 C 
ATOM     15  C   UNL     1     -39.769  21.960   8.528  1.00  0.00     0.033 C 
ATOM     16  C   UNL     1     -40.988  22.876   8.799  1.00  0.00     0.118 C 
ATOM     17  C   UNL     1     -41.275  23.835   7.627  1.00  0.00     0.063 C 
ATOM     18  C   UNL     1     -39.169  22.894   5.615  1.00  0.00     0.016 C 
ATOM     19  C   UNL     1     -34.618  27.264   5.909  1.00  0.00     0.012 C 
ENDROOT
BRANCH   1  20
ATOM     20  C   UNL     1     -32.343  25.267   7.145  1.00  0.00     0.133 C 
ATOM     21  C   UNL     1     -31.050  26.028   7.036  1.00  0.00     0.088 C 
ATOM     22  O   UNL     1     -32.390  24.132   6.694  1.00  0.00    -0.300 OA
ENDBRANCH   1  20
BRANCH  16  23
ATOM     23  O   UNL     1     -42.125  22.108   9.103  1.00  0.00    -0.393 OA
ATOM     24  H   UNL     1     -41.814  21.284   9.562  1.00  0.00     0.210 HD
ENDBRANCH  16  23
TORSDOF 2
ENDMDL
