MODEL 1
REMARK VINA RESULT:    -4.852      0.000      0.000
REMARK INTER + INTRA:          -5.152
REMARK INTER:                  -5.135
REMARK INTRA:                  -0.016
REMARK UNBOUND:                -0.016
REMARK SMILES O=C([O-])c1cccnc1
REMARK SMILES IDX 4 1 5 2 9 3 6 4 8 5 7 6 2 7 1 8 3 9
REMARK H PARENT
REMARK Flexibility Score: inf
ROOT
ATOM      1  C   UNL     1       9.254 -12.080 -14.638  1.00  0.00     0.016 A 
ATOM      2  C   UNL     1       9.191 -11.672 -15.981  1.00  0.00     0.013 A 
ATOM      3  C   UNL     1       9.074 -13.443 -14.344  1.00  0.00     0.120 A 
ATOM      4  C   UNL     1       8.955 -12.611 -16.988  1.00  0.00     0.021 A 
ATOM      5  N   UNL     1       8.846 -14.336 -15.344  1.00  0.00    -0.264 NA
ATOM      6  C   UNL     1       8.784 -13.952 -16.646  1.00  0.00     0.111 A 
ENDROOT
BRANCH   1   7
ATOM      7  C   UNL     1       9.503 -11.102 -13.556  1.00  0.00     0.073 C 
ATOM      8  O   UNL     1       8.569 -10.381 -13.118  1.00  0.00    -0.545 OA
ATOM      9  O   UNL     1      10.774 -10.967 -13.009  1.00  0.00    -0.545 OA
ENDBRANCH   1   7
TORSDOF 1
ENDMDL
MODEL 2
REMARK VINA RESULT:    -4.752      2.494      2.817
REMARK INTER + INTRA:          -5.046
REMARK INTER:                  -5.030
REMARK INTRA:                  -0.016
REMARK UNBOUND:                -0.016
REMARK SMILES O=C([O-])c1cccnc1
REMARK SMILES IDX 4 1 5 2 9 3 6 4 8 5 7 6 2 7 1 8 3 9
REMARK H PARENT
REMARK Flexibility Score: inf
ROOT
ATOM      1  C   UNL     1       8.272 -13.136 -15.273  1.00  0.00     0.016 A 
ATOM      2  C   UNL     1       6.927 -12.730 -15.281  1.00  0.00     0.013 A 
ATOM      3  C   UNL     1       8.572 -14.445 -14.859  1.00  0.00     0.120 A 
ATOM      4  C   UNL     1       5.925 -13.617 -14.884  1.00  0.00     0.021 A 
ATOM      5  N   UNL     1       7.577 -15.290 -14.478  1.00  0.00    -0.264 NA
ATOM      6  C   UNL     1       6.272 -14.907 -14.482  1.00  0.00     0.111 A 
ENDROOT
BRANCH   1   7
ATOM      7  C   UNL     1       9.349 -12.211 -15.690  1.00  0.00     0.073 C 
ATOM      8  O   UNL     1      10.014 -11.575 -14.830  1.00  0.00    -0.545 OA
ATOM      9  O   UNL     1       9.640 -12.033 -17.037  1.00  0.00    -0.545 OA
ENDBRANCH   1   7
TORSDOF 1
ENDMDL
MODEL 3
REMARK VINA RESULT:    -4.614      3.065      3.516
REMARK INTER + INTRA:          -4.900
REMARK INTER:                  -4.880
REMARK INTRA:                  -0.021
REMARK UNBOUND:                -0.016
REMARK SMILES O=C([O-])c1cccnc1
REMARK SMILES IDX 4 1 5 2 9 3 6 4 8 5 7 6 2 7 1 8 3 9
REMARK H PARENT
REMARK Flexibility Score: inf
ROOT
ATOM      1  C   UNL     1       7.904 -13.935 -15.465  1.00  0.00     0.016 A 
ATOM      2  C   UNL     1       7.554 -12.593 -15.239  1.00  0.00     0.013 A 
ATOM      3  C   UNL     1       8.779 -14.228 -16.525  1.00  0.00     0.120 A 
ATOM      4  C   UNL     1       8.070 -11.587 -16.058  1.00  0.00     0.021 A 
ATOM      5  N   UNL     1       9.267 -13.229 -17.308  1.00  0.00    -0.264 NA
ATOM      6  C   UNL     1       8.935 -11.928 -17.098  1.00  0.00     0.111 A 
ENDROOT
BRANCH   1   7
ATOM      7  C   UNL     1       7.369 -15.016 -14.608  1.00  0.00     0.073 C 
ATOM      8  O   UNL     1       6.177 -14.980 -14.204  1.00  0.00    -0.545 OA
ATOM      9  O   UNL     1       8.176 -16.086 -14.239  1.00  0.00    -0.545 OA
ENDBRANCH   1   7
TORSDOF 1
ENDMDL
MODEL 4
REMARK VINA RESULT:    -4.492      6.307      7.154
REMARK INTER + INTRA:          -4.771
REMARK INTER:                  -4.747
REMARK INTRA:                  -0.024
REMARK UNBOUND:                -0.016
REMARK SMILES O=C([O-])c1cccnc1
REMARK SMILES IDX 4 1 5 2 9 3 6 4 8 5 7 6 2 7 1 8 3 9
REMARK H PARENT
REMARK Flexibility Score: inf
ROOT
ATOM      1  C   UNL     1      10.249 -18.256 -11.102  1.00  0.00     0.016 A 
ATOM      2  C   UNL     1      11.023 -17.439 -11.942  1.00  0.00     0.013 A 
ATOM      3  C   UNL     1       9.042 -18.774 -11.602  1.00  0.00     0.120 A 
ATOM      4  C   UNL     1      10.590 -17.157 -13.239  1.00  0.00     0.021 A 
ATOM      5  N   UNL     1       8.643 -18.485 -12.869  1.00  0.00    -0.264 NA
ATOM      6  C   UNL     1       9.385 -17.695 -13.690  1.00  0.00     0.111 A 
ENDROOT
BRANCH   1   7
ATOM      7  C   UNL     1      10.690 -18.567  -9.724  1.00  0.00     0.073 C 
ATOM      8  O   UNL     1      10.003 -19.323  -8.988  1.00  0.00    -0.545 OA
ATOM      9  O   UNL     1      11.869 -18.027  -9.224  1.00  0.00    -0.545 OA
ENDBRANCH   1   7
TORSDOF 1
ENDMDL
MODEL 5
REMARK VINA RESULT:    -4.310      6.372      7.340
REMARK INTER + INTRA:          -4.578
REMARK INTER:                  -4.554
REMARK INTRA:                  -0.024
REMARK UNBOUND:                -0.016
REMARK SMILES O=C([O-])c1cccnc1
REMARK SMILES IDX 4 1 5 2 9 3 6 4 8 5 7 6 2 7 1 8 3 9
REMARK H PARENT
REMARK Flexibility Score: inf
ROOT
ATOM      1  C   UNL     1      10.276 -18.216 -10.973  1.00  0.00     0.016 A 
ATOM      2  C   UNL     1       9.063 -18.799 -11.375  1.00  0.00     0.013 A 
ATOM      3  C   UNL     1      10.980 -17.431 -11.902  1.00  0.00     0.120 A 
ATOM      4  C   UNL     1       8.582 -18.594 -12.670  1.00  0.00     0.021 A 
ATOM      5  N   UNL     1      10.489 -17.246 -13.157  1.00  0.00    -0.264 NA
ATOM      6  C   UNL     1       9.316 -17.806 -13.556  1.00  0.00     0.111 A 
ENDROOT
BRANCH   1   7
ATOM      7  C   UNL     1      10.803 -18.421  -9.606  1.00  0.00     0.073 C 
ATOM      8  O   UNL     1      11.845 -17.823  -9.226  1.00  0.00    -0.545 OA
ATOM      9  O   UNL     1      10.155 -19.276  -8.723  1.00  0.00    -0.545 OA
ENDBRANCH   1   7
TORSDOF 1
ENDMDL
MODEL 6
REMARK VINA RESULT:    -4.265      6.867      8.023
REMARK INTER + INTRA:          -4.530
REMARK INTER:                  -4.507
REMARK INTRA:                  -0.023
REMARK UNBOUND:                -0.016
REMARK SMILES O=C([O-])c1cccnc1
REMARK SMILES IDX 4 1 5 2 9 3 6 4 8 5 7 6 2 7 1 8 3 9
REMARK H PARENT
REMARK Flexibility Score: inf
ROOT
ATOM      1  C   UNL     1      10.020 -18.279 -11.122  1.00  0.00     0.016 A 
ATOM      2  C   UNL     1      11.122 -18.008 -10.295  1.00  0.00     0.013 A 
ATOM      3  C   UNL     1       8.863 -18.823 -10.538  1.00  0.00     0.120 A 
ATOM      4  C   UNL     1      11.054 -18.280  -8.927  1.00  0.00     0.021 A 
ATOM      5  N   UNL     1       8.823 -19.077  -9.203  1.00  0.00    -0.264 NA
ATOM      6  C   UNL     1       9.884 -18.820  -8.393  1.00  0.00     0.111 A 
ENDROOT
BRANCH   1   7
ATOM      7  C   UNL     1      10.071 -17.998 -12.574  1.00  0.00     0.073 C 
ATOM      8  O   UNL     1       9.135 -18.370 -13.330  1.00  0.00    -0.545 OA
ATOM      9  O   UNL     1      11.153 -17.320 -13.122  1.00  0.00    -0.545 OA
ENDBRANCH   1   7
TORSDOF 1
ENDMDL
MODEL 7
REMARK VINA RESULT:    -4.230      7.524      8.240
REMARK INTER + INTRA:          -4.494
REMARK INTER:                  -4.473
REMARK INTRA:                  -0.021
REMARK UNBOUND:                -0.016
REMARK SMILES O=C([O-])c1cccnc1
REMARK SMILES IDX 4 1 5 2 9 3 6 4 8 5 7 6 2 7 1 8 3 9
REMARK H PARENT
REMARK Flexibility Score: inf
ROOT
ATOM      1  C   UNL     1       9.202 -18.726 -10.101  1.00  0.00     0.016 A 
ATOM      2  C   UNL     1       7.962 -18.678  -9.442  1.00  0.00     0.013 A 
ATOM      3  C   UNL     1       9.213 -18.726 -11.507  1.00  0.00     0.120 A 
ATOM      4  C   UNL     1       6.778 -18.632 -10.181  1.00  0.00     0.021 A 
ATOM      5  N   UNL     1       8.045 -18.680 -12.202  1.00  0.00    -0.264 NA
ATOM      6  C   UNL     1       6.840 -18.633 -11.575  1.00  0.00     0.111 A 
ENDROOT
BRANCH   1   7
ATOM      7  C   UNL     1      10.468 -18.775  -9.337  1.00  0.00     0.073 C 
ATOM      8  O   UNL     1      10.549 -19.447  -8.275  1.00  0.00    -0.545 OA
ATOM      9  O   UNL     1      11.586 -18.079  -9.783  1.00  0.00    -0.545 OA
ENDBRANCH   1   7
TORSDOF 1
ENDMDL
MODEL 8
REMARK VINA RESULT:    -4.224      7.365      8.016
REMARK INTER + INTRA:          -4.487
REMARK INTER:                  -4.465
REMARK INTRA:                  -0.022
REMARK UNBOUND:                -0.016
REMARK SMILES O=C([O-])c1cccnc1
REMARK SMILES IDX 4 1 5 2 9 3 6 4 8 5 7 6 2 7 1 8 3 9
REMARK H PARENT
REMARK Flexibility Score: inf
ROOT
ATOM      1  C   UNL     1       9.368 -18.584 -10.673  1.00  0.00     0.016 A 
ATOM      2  C   UNL     1       8.617 -18.989 -11.789  1.00  0.00     0.013 A 
ATOM      3  C   UNL     1       8.832 -18.802  -9.392  1.00  0.00     0.120 A 
ATOM      4  C   UNL     1       7.369 -19.591 -11.612  1.00  0.00     0.021 A 
ATOM      5  N   UNL     1       7.615 -19.392  -9.248  1.00  0.00    -0.264 NA
ATOM      6  C   UNL     1       6.880 -19.787 -10.321  1.00  0.00     0.111 A 
ENDROOT
BRANCH   1   7
ATOM      7  C   UNL     1      10.691 -17.944 -10.838  1.00  0.00     0.073 C 
ATOM      8  O   UNL     1      11.521 -17.937  -9.890  1.00  0.00    -0.545 OA
ATOM      9  O   UNL     1      11.037 -17.342 -12.042  1.00  0.00    -0.545 OA
ENDBRANCH   1   7
TORSDOF 1
ENDMDL
MODEL 9
REMARK VINA RESULT:    -4.206      7.588      8.618
REMARK INTER + INTRA:          -4.468
REMARK INTER:                  -4.447
REMARK INTRA:                  -0.021
REMARK UNBOUND:                -0.016
REMARK SMILES O=C([O-])c1cccnc1
REMARK SMILES IDX 4 1 5 2 9 3 6 4 8 5 7 6 2 7 1 8 3 9
REMARK H PARENT
REMARK Flexibility Score: inf
ROOT
ATOM      1  C   UNL     1       8.975 -18.713 -10.610  1.00  0.00     0.016 A 
ATOM      2  C   UNL     1       8.450 -19.151  -9.383  1.00  0.00     0.013 A 
ATOM      3  C   UNL     1      10.318 -18.301 -10.654  1.00  0.00     0.120 A 
ATOM      4  C   UNL     1       9.256 -19.170  -8.243  1.00  0.00     0.021 A 
ATOM      5  N   UNL     1      11.081 -18.330  -9.528  1.00  0.00    -0.264 NA
ATOM      6  C   UNL     1      10.583 -18.752  -8.336  1.00  0.00     0.111 A 
ENDROOT
BRANCH   1   7
ATOM      7  C   UNL     1       8.138 -18.686 -11.830  1.00  0.00     0.073 C 
ATOM      8  O   UNL     1       6.913 -18.404 -11.759  1.00  0.00    -0.545 OA
ATOM      9  O   UNL     1       8.695 -18.971 -13.072  1.00  0.00    -0.545 OA
ENDBRANCH   1   7
TORSDOF 1
ENDMDL
