MODEL 1
REMARK VINA RESULT:    -4.559      0.000      0.000
REMARK INTER + INTRA:          -5.171
REMARK INTER:                  -4.959
REMARK INTRA:                  -0.212
REMARK UNBOUND:                -0.212
REMARK SMILES O=C([O-])c1ccccc1O
REMARK SMILES IDX 4 1 9 2 5 3 8 4 6 5 7 6 2 7 1 8 3 9 10 10
REMARK H PARENT 10 11
REMARK Flexibility Score: inf
ROOT
ATOM      1  C   UNL     1       7.346 -15.063   6.416  1.00  0.00     0.039 A 
ATOM      2  C   UNL     1       6.725 -14.104   5.574  1.00  0.00     0.124 A 
ATOM      3  C   UNL     1       6.636 -15.551   7.530  1.00  0.00     0.014 A 
ATOM      4  C   UNL     1       5.405 -13.710   5.829  1.00  0.00     0.047 A 
ATOM      5  C   UNL     1       5.328 -15.131   7.781  1.00  0.00     0.001 A 
ATOM      6  C   UNL     1       4.709 -14.221   6.926  1.00  0.00     0.004 A 
ENDROOT
BRANCH   1   7
ATOM      7  C   UNL     1       8.699 -15.602   6.158  1.00  0.00     0.075 C 
ATOM      8  O   UNL     1       9.422 -15.123   5.244  1.00  0.00    -0.545 OA
ATOM      9  O   UNL     1       9.164 -16.694   6.881  1.00  0.00    -0.545 OA
ENDBRANCH   1   7
BRANCH   2  10
ATOM     10  O   UNL     1       7.388 -13.497   4.506  1.00  0.00    -0.507 OA
ATOM     11  H   UNL     1       7.372 -13.855   3.561  1.00  0.00     0.293 HD
ENDBRANCH   2  10
TORSDOF 2
ENDMDL
MODEL 2
REMARK VINA RESULT:    -4.401      2.481      4.567
REMARK INTER + INTRA:          -4.999
REMARK INTER:                  -4.753
REMARK INTRA:                  -0.246
REMARK UNBOUND:                -0.212
REMARK SMILES O=C([O-])c1ccccc1O
REMARK SMILES IDX 4 1 9 2 5 3 8 4 6 5 7 6 2 7 1 8 3 9 10 10
REMARK H PARENT 10 11
REMARK Flexibility Score: inf
ROOT
ATOM      1  C   UNL     1       9.317 -15.549   6.035  1.00  0.00     0.039 A 
ATOM      2  C   UNL     1       8.949 -16.421   7.092  1.00  0.00     0.124 A 
ATOM      3  C   UNL     1      10.649 -15.558   5.578  1.00  0.00     0.014 A 
ATOM      4  C   UNL     1       9.895 -17.312   7.615  1.00  0.00     0.047 A 
ATOM      5  C   UNL     1      11.584 -16.438   6.127  1.00  0.00     0.001 A 
ATOM      6  C   UNL     1      11.206 -17.322   7.136  1.00  0.00     0.004 A 
ENDROOT
BRANCH   1   7
ATOM      7  C   UNL     1       8.354 -14.649   5.364  1.00  0.00     0.075 C 
ATOM      8  O   UNL     1       7.209 -15.057   5.034  1.00  0.00    -0.545 OA
ATOM      9  O   UNL     1       8.729 -13.353   5.029  1.00  0.00    -0.545 OA
ENDBRANCH   1   7
BRANCH   2  10
ATOM     10  O   UNL     1       7.678 -16.411   7.670  1.00  0.00    -0.507 OA
ATOM     11  H   UNL     1       6.879 -15.952   7.255  1.00  0.00     0.293 HD
ENDBRANCH   2  10
TORSDOF 2
ENDMDL
MODEL 3
REMARK VINA RESULT:    -4.352      1.957      3.526
REMARK INTER + INTRA:          -4.945
REMARK INTER:                  -4.712
REMARK INTRA:                  -0.233
REMARK UNBOUND:                -0.212
REMARK SMILES O=C([O-])c1ccccc1O
REMARK SMILES IDX 4 1 9 2 5 3 8 4 6 5 7 6 2 7 1 8 3 9 10 10
REMARK H PARENT 10 11
REMARK Flexibility Score: inf
ROOT
ATOM      1  C   UNL     1       7.124 -14.918   6.697  1.00  0.00     0.039 A 
ATOM      2  C   UNL     1       7.665 -14.349   5.514  1.00  0.00     0.124 A 
ATOM      3  C   UNL     1       7.872 -15.890   7.388  1.00  0.00     0.014 A 
ATOM      4  C   UNL     1       8.949 -14.717   5.094  1.00  0.00     0.047 A 
ATOM      5  C   UNL     1       9.143 -16.260   6.942  1.00  0.00     0.001 A 
ATOM      6  C   UNL     1       9.686 -15.667   5.804  1.00  0.00     0.004 A 
ENDROOT
BRANCH   1   7
ATOM      7  C   UNL     1       5.818 -14.510   7.259  1.00  0.00     0.075 C 
ATOM      8  O   UNL     1       5.555 -14.684   8.478  1.00  0.00    -0.545 OA
ATOM      9  O   UNL     1       4.834 -13.989   6.426  1.00  0.00    -0.545 OA
ENDBRANCH   1   7
BRANCH   2  10
ATOM     10  O   UNL     1       6.954 -13.450   4.717  1.00  0.00    -0.507 OA
ATOM     11  H   UNL     1       7.001 -12.447   4.825  1.00  0.00     0.293 HD
ENDBRANCH   2  10
TORSDOF 2
ENDMDL
MODEL 4
REMARK VINA RESULT:    -4.276      0.992      2.179
REMARK INTER + INTRA:          -4.862
REMARK INTER:                  -4.640
REMARK INTRA:                  -0.222
REMARK UNBOUND:                -0.212
REMARK SMILES O=C([O-])c1ccccc1O
REMARK SMILES IDX 4 1 9 2 5 3 8 4 6 5 7 6 2 7 1 8 3 9 10 10
REMARK H PARENT 10 11
REMARK Flexibility Score: inf
ROOT
ATOM      1  C   UNL     1       7.592 -15.075   6.232  1.00  0.00     0.039 A 
ATOM      2  C   UNL     1       6.795 -15.434   7.351  1.00  0.00     0.124 A 
ATOM      3  C   UNL     1       7.057 -14.197   5.271  1.00  0.00     0.014 A 
ATOM      4  C   UNL     1       5.526 -14.862   7.509  1.00  0.00     0.047 A 
ATOM      5  C   UNL     1       5.781 -13.653   5.434  1.00  0.00     0.001 A 
ATOM      6  C   UNL     1       5.021 -13.976   6.556  1.00  0.00     0.004 A 
ENDROOT
BRANCH   1   7
ATOM      7  C   UNL     1       8.977 -15.559   6.045  1.00  0.00     0.075 C 
ATOM      8  O   UNL     1       9.756 -14.992   5.235  1.00  0.00    -0.545 OA
ATOM      9  O   UNL     1       9.414 -16.696   6.716  1.00  0.00    -0.545 OA
ENDBRANCH   1   7
BRANCH   2  10
ATOM     10  O   UNL     1       7.208 -16.371   8.301  1.00  0.00    -0.507 OA
ATOM     11  H   UNL     1       6.594 -17.063   8.707  1.00  0.00     0.293 HD
ENDBRANCH   2  10
TORSDOF 2
ENDMDL
MODEL 5
REMARK VINA RESULT:    -4.233      0.923      2.471
REMARK INTER + INTRA:          -4.816
REMARK INTER:                  -4.567
REMARK INTRA:                  -0.249
REMARK UNBOUND:                -0.212
REMARK SMILES O=C([O-])c1ccccc1O
REMARK SMILES IDX 4 1 9 2 5 3 8 4 6 5 7 6 2 7 1 8 3 9 10 10
REMARK H PARENT 10 11
REMARK Flexibility Score: inf
ROOT
ATOM      1  C   UNL     1       7.082 -14.687   6.229  1.00  0.00     0.039 A 
ATOM      2  C   UNL     1       6.999 -15.529   7.370  1.00  0.00     0.124 A 
ATOM      3  C   UNL     1       5.950 -13.942   5.850  1.00  0.00     0.014 A 
ATOM      4  C   UNL     1       5.821 -15.553   8.127  1.00  0.00     0.047 A 
ATOM      5  C   UNL     1       4.776 -13.995   6.605  1.00  0.00     0.001 A 
ATOM      6  C   UNL     1       4.714 -14.790   7.748  1.00  0.00     0.004 A 
ENDROOT
BRANCH   1   7
ATOM      7  C   UNL     1       8.320 -14.533   5.435  1.00  0.00     0.075 C 
ATOM      8  O   UNL     1       9.046 -15.527   5.168  1.00  0.00    -0.545 OA
ATOM      9  O   UNL     1       8.735 -13.269   5.031  1.00  0.00    -0.545 OA
ENDBRANCH   1   7
BRANCH   2  10
ATOM     10  O   UNL     1       8.039 -16.373   7.761  1.00  0.00    -0.507 OA
ATOM     11  H   UNL     1       7.919 -17.156   8.389  1.00  0.00     0.293 HD
ENDBRANCH   2  10
TORSDOF 2
ENDMDL
MODEL 6
REMARK VINA RESULT:    -4.217      7.345      7.835
REMARK INTER + INTRA:          -4.799
REMARK INTER:                  -4.587
REMARK INTRA:                  -0.212
REMARK UNBOUND:                -0.212
REMARK SMILES O=C([O-])c1ccccc1O
REMARK SMILES IDX 4 1 9 2 5 3 8 4 6 5 7 6 2 7 1 8 3 9 10 10
REMARK H PARENT 10 11
REMARK Flexibility Score: inf
ROOT
ATOM      1  C   UNL     1       8.359 -11.897  13.028  1.00  0.00     0.039 A 
ATOM      2  C   UNL     1       6.973 -11.599  12.956  1.00  0.00     0.124 A 
ATOM      3  C   UNL     1       9.159 -11.193  13.948  1.00  0.00     0.014 A 
ATOM      4  C   UNL     1       6.419 -10.663  13.838  1.00  0.00     0.047 A 
ATOM      5  C   UNL     1       8.593 -10.246  14.805  1.00  0.00     0.001 A 
ATOM      6  C   UNL     1       7.224  -9.989  14.759  1.00  0.00     0.004 A 
ENDROOT
BRANCH   1   7
ATOM      7  C   UNL     1       9.000 -12.941  12.199  1.00  0.00     0.075 C 
ATOM      8  O   UNL     1       8.329 -13.611  11.371  1.00  0.00    -0.545 OA
ATOM      9  O   UNL     1      10.346 -13.242  12.377  1.00  0.00    -0.545 OA
ENDBRANCH   1   7
BRANCH   2  10
ATOM     10  O   UNL     1       6.126 -12.179  12.009  1.00  0.00    -0.507 OA
ATOM     11  H   UNL     1       5.529 -11.647  11.392  1.00  0.00     0.293 HD
ENDBRANCH   2  10
TORSDOF 2
ENDMDL
MODEL 7
REMARK VINA RESULT:    -4.181      7.841      8.602
REMARK INTER + INTRA:          -4.760
REMARK INTER:                  -4.535
REMARK INTRA:                  -0.225
REMARK UNBOUND:                -0.212
REMARK SMILES O=C([O-])c1ccccc1O
REMARK SMILES IDX 4 1 9 2 5 3 8 4 6 5 7 6 2 7 1 8 3 9 10 10
REMARK H PARENT 10 11
REMARK Flexibility Score: inf
ROOT
ATOM      1  C   UNL     1       7.689 -11.854  13.840  1.00  0.00     0.039 A 
ATOM      2  C   UNL     1       7.416 -12.365  12.544  1.00  0.00     0.124 A 
ATOM      3  C   UNL     1       8.949 -12.099  14.416  1.00  0.00     0.014 A 
ATOM      4  C   UNL     1       8.421 -13.045  11.843  1.00  0.00     0.047 A 
ATOM      5  C   UNL     1       9.932 -12.798  13.711  1.00  0.00     0.001 A 
ATOM      6  C   UNL     1       9.672 -13.261  12.422  1.00  0.00     0.004 A 
ENDROOT
BRANCH   1   7
ATOM      7  C   UNL     1       6.716 -11.043  14.604  1.00  0.00     0.075 C 
ATOM      8  O   UNL     1       6.351 -11.389  15.759  1.00  0.00    -0.545 OA
ATOM      9  O   UNL     1       6.137  -9.920  14.023  1.00  0.00    -0.545 OA
ENDBRANCH   1   7
BRANCH   2  10
ATOM     10  O   UNL     1       6.164 -12.251  11.937  1.00  0.00    -0.507 OA
ATOM     11  H   UNL     1       5.406 -11.703  12.317  1.00  0.00     0.293 HD
ENDBRANCH   2  10
TORSDOF 2
ENDMDL
MODEL 8
REMARK VINA RESULT:    -4.109      7.397      7.826
REMARK INTER + INTRA:          -4.681
REMARK INTER:                  -4.434
REMARK INTRA:                  -0.247
REMARK UNBOUND:                -0.212
REMARK SMILES O=C([O-])c1ccccc1O
REMARK SMILES IDX 4 1 9 2 5 3 8 4 6 5 7 6 2 7 1 8 3 9 10 10
REMARK H PARENT 10 11
REMARK Flexibility Score: inf
ROOT
ATOM      1  C   UNL     1       8.698 -11.562  12.904  1.00  0.00     0.039 A 
ATOM      2  C   UNL     1       7.327 -11.441  12.556  1.00  0.00     0.124 A 
ATOM      3  C   UNL     1       9.406 -12.706  12.491  1.00  0.00     0.014 A 
ATOM      4  C   UNL     1       6.725 -12.426  11.762  1.00  0.00     0.047 A 
ATOM      5  C   UNL     1       8.784 -13.689  11.718  1.00  0.00     0.001 A 
ATOM      6  C   UNL     1       7.449 -13.544  11.344  1.00  0.00     0.004 A 
ENDROOT
BRANCH   1   7
ATOM      7  C   UNL     1       9.430 -10.520  13.656  1.00  0.00     0.075 C 
ATOM      8  O   UNL     1      10.566 -10.127  13.280  1.00  0.00    -0.545 OA
ATOM      9  O   UNL     1       8.897 -10.008  14.833  1.00  0.00    -0.545 OA
ENDBRANCH   1   7
BRANCH   2  10
ATOM     10  O   UNL     1       6.526 -10.389  13.003  1.00  0.00    -0.507 OA
ATOM     11  H   UNL     1       6.503 -10.071  13.962  1.00  0.00     0.293 HD
ENDBRANCH   2  10
TORSDOF 2
ENDMDL
MODEL 9
REMARK VINA RESULT:    -4.074      2.536      3.396
REMARK INTER + INTRA:          -4.643
REMARK INTER:                  -4.412
REMARK INTRA:                  -0.232
REMARK UNBOUND:                -0.212
REMARK SMILES O=C([O-])c1ccccc1O
REMARK SMILES IDX 4 1 9 2 5 3 8 4 6 5 7 6 2 7 1 8 3 9 10 10
REMARK H PARENT 10 11
REMARK Flexibility Score: inf
ROOT
ATOM      1  C   UNL     1       6.400 -15.011   7.631  1.00  0.00     0.039 A 
ATOM      2  C   UNL     1       5.524 -14.151   6.918  1.00  0.00     0.124 A 
ATOM      3  C   UNL     1       7.590 -15.436   7.011  1.00  0.00     0.014 A 
ATOM      4  C   UNL     1       5.887 -13.695   5.644  1.00  0.00     0.047 A 
ATOM      5  C   UNL     1       7.926 -14.989   5.731  1.00  0.00     0.001 A 
ATOM      6  C   UNL     1       7.082 -14.111   5.053  1.00  0.00     0.004 A 
ENDROOT
BRANCH   1   7
ATOM      7  C   UNL     1       6.135 -15.457   9.016  1.00  0.00     0.075 C 
ATOM      8  O   UNL     1       6.652 -16.513   9.466  1.00  0.00    -0.545 OA
ATOM      9  O   UNL     1       5.251 -14.745   9.819  1.00  0.00    -0.545 OA
ENDBRANCH   1   7
BRANCH   2  10
ATOM     10  O   UNL     1       4.281 -13.758   7.418  1.00  0.00    -0.507 OA
ATOM     11  H   UNL     1       3.898 -12.830   7.299  1.00  0.00     0.293 HD
ENDBRANCH   2  10
TORSDOF 2
ENDMDL
