MODEL 1
REMARK VINA RESULT:    -3.489      0.000      0.000
REMARK INTER + INTRA:          -9.119
REMARK INTER:                  -6.753
REMARK INTRA:                  -2.366
REMARK UNBOUND:                -2.366
REMARK SMILES CCCCCCCCCCCCCCCCCC(=O)[O-]
REMARK SMILES IDX 10 1 11 2 12 3 13 4 14 5 15 6 16 7 17 8 18 9 19 10 20 11
REMARK SMILES IDX 9 12 8 13 7 14 6 15 5 16 4 17 3 18 2 19 1 20
REMARK H PARENT
REMARK Flexibility Score: inf
ROOT
ATOM      1  C   UNL     1      19.381   1.553  43.432  1.00  0.00     0.000 C 
ENDROOT
BRANCH   1   2
ATOM      2  C   UNL     1      18.118   0.754  43.049  1.00  0.00     0.000 C 
BRANCH   2   3
ATOM      3  C   UNL     1      16.823   1.585  42.972  1.00  0.00     0.000 C 
BRANCH   3   4
ATOM      4  C   UNL     1      17.009   3.030  42.470  1.00  0.00     0.000 C 
BRANCH   4   5
ATOM      5  C   UNL     1      16.300   3.318  41.129  1.00  0.00     0.000 C 
BRANCH   5   6
ATOM      6  C   UNL     1      16.210   2.074  40.233  1.00  0.00     0.000 C 
BRANCH   6   7
ATOM      7  C   UNL     1      15.450   2.383  38.937  1.00  0.00     0.006 C 
BRANCH   7   8
ATOM      8  C   UNL     1      14.683   1.154  38.443  1.00  0.00     0.053 C 
BRANCH   8   9
ATOM      9  C   UNL     1      15.380   0.535  37.274  1.00  0.00     0.041 C 
ATOM     10  O   UNL     1      16.550   0.086  37.398  1.00  0.00    -0.550 OA
ATOM     11  O   UNL     1      14.722   0.409  36.056  1.00  0.00    -0.550 OA
ENDBRANCH   8   9
ENDBRANCH   7   8
ENDBRANCH   6   7
ENDBRANCH   5   6
ENDBRANCH   4   5
ENDBRANCH   3   4
ENDBRANCH   2   3
ENDBRANCH   1   2
BRANCH   1  12
ATOM     12  C   UNL     1      20.451   1.657  42.327  1.00  0.00     0.000 C 
BRANCH  12  13
ATOM     13  C   UNL     1      19.967   1.305  40.909  1.00  0.00    -0.000 C 
BRANCH  13  14
ATOM     14  C   UNL     1      21.022   0.543  40.090  1.00  0.00    -0.000 C 
BRANCH  14  15
ATOM     15  C   UNL     1      20.940  -0.983  40.281  1.00  0.00    -0.000 C 
BRANCH  15  16
ATOM     16  C   UNL     1      19.514  -1.555  40.415  1.00  0.00    -0.000 C 
BRANCH  16  17
ATOM     17  C   UNL     1      19.267  -2.408  41.671  1.00  0.00    -0.000 C 
BRANCH  17  18
ATOM     18  C   UNL     1      20.369  -2.245  42.728  1.00  0.00    -0.000 C 
BRANCH  18  19
ATOM     19  C   UNL     1      19.787  -2.321  44.145  1.00  0.00    -0.003 C 
ATOM     20  C   UNL     1      18.359  -2.857  44.127  1.00  0.00     0.004 C 
ENDBRANCH  18  19
ENDBRANCH  17  18
ENDBRANCH  16  17
ENDBRANCH  15  16
ENDBRANCH  14  15
ENDBRANCH  13  14
ENDBRANCH  12  13
ENDBRANCH   1  12
TORSDOF 16
ENDMDL
MODEL 2
REMARK VINA RESULT:    -3.415      1.872      4.261
REMARK INTER + INTRA:          -8.974
REMARK INTER:                  -6.462
REMARK INTRA:                  -2.512
REMARK UNBOUND:                -2.366
REMARK SMILES CCCCCCCCCCCCCCCCCC(=O)[O-]
REMARK SMILES IDX 10 1 11 2 12 3 13 4 14 5 15 6 16 7 17 8 18 9 19 10 20 11
REMARK SMILES IDX 9 12 8 13 7 14 6 15 5 16 4 17 3 18 2 19 1 20
REMARK H PARENT
REMARK Flexibility Score: inf
ROOT
ATOM      1  C   UNL     1      20.039   0.727  42.121  1.00  0.00     0.000 C 
ENDROOT
BRANCH   1   2
ATOM      2  C   UNL     1      19.948   2.263  41.997  1.00  0.00     0.000 C 
BRANCH   2   3
ATOM      3  C   UNL     1      19.162   2.769  40.773  1.00  0.00     0.000 C 
BRANCH   3   4
ATOM      4  C   UNL     1      18.707   4.238  40.859  1.00  0.00     0.000 C 
BRANCH   4   5
ATOM      5  C   UNL     1      17.474   4.558  39.985  1.00  0.00     0.000 C 
BRANCH   5   6
ATOM      6  C   UNL     1      16.996   3.344  39.175  1.00  0.00     0.000 C 
BRANCH   6   7
ATOM      7  C   UNL     1      15.591   2.910  39.611  1.00  0.00     0.006 C 
BRANCH   7   8
ATOM      8  C   UNL     1      14.659   2.773  38.404  1.00  0.00     0.053 C 
BRANCH   8   9
ATOM      9  C   UNL     1      14.331   1.336  38.156  1.00  0.00     0.041 C 
ATOM     10  O   UNL     1      13.131   0.958  38.112  1.00  0.00    -0.550 OA
ATOM     11  O   UNL     1      15.349   0.419  37.923  1.00  0.00    -0.550 OA
ENDBRANCH   8   9
ENDBRANCH   7   8
ENDBRANCH   6   7
ENDBRANCH   5   6
ENDBRANCH   4   5
ENDBRANCH   3   4
ENDBRANCH   2   3
ENDBRANCH   1   2
BRANCH   1  12
ATOM     12  C   UNL     1      19.595   0.152  43.481  1.00  0.00     0.000 C 
BRANCH  12  13
ATOM     13  C   UNL     1      18.161  -0.407  43.521  1.00  0.00    -0.000 C 
BRANCH  13  14
ATOM     14  C   UNL     1      17.145   0.597  44.092  1.00  0.00    -0.000 C 
BRANCH  14  15
ATOM     15  C   UNL     1      16.455   1.436  43.001  1.00  0.00    -0.000 C 
BRANCH  15  16
ATOM     16  C   UNL     1      16.439   2.958  43.249  1.00  0.00    -0.000 C 
BRANCH  16  17
ATOM     17  C   UNL     1      16.540   3.381  44.724  1.00  0.00    -0.000 C 
BRANCH  17  18
ATOM     18  C   UNL     1      17.746   4.290  45.003  1.00  0.00    -0.000 C 
BRANCH  18  19
ATOM     19  C   UNL     1      18.610   3.725  46.136  1.00  0.00    -0.003 C 
ATOM     20  C   UNL     1      19.810   2.961  45.588  1.00  0.00     0.004 C 
ENDBRANCH  18  19
ENDBRANCH  17  18
ENDBRANCH  16  17
ENDBRANCH  15  16
ENDBRANCH  14  15
ENDBRANCH  13  14
ENDBRANCH  12  13
ENDBRANCH   1  12
TORSDOF 16
ENDMDL
MODEL 3
REMARK VINA RESULT:    -3.398      2.045      4.747
REMARK INTER + INTRA:          -8.942
REMARK INTER:                  -5.986
REMARK INTRA:                  -2.955
REMARK UNBOUND:                -2.366
REMARK SMILES CCCCCCCCCCCCCCCCCC(=O)[O-]
REMARK SMILES IDX 10 1 11 2 12 3 13 4 14 5 15 6 16 7 17 8 18 9 19 10 20 11
REMARK SMILES IDX 9 12 8 13 7 14 6 15 5 16 4 17 3 18 2 19 1 20
REMARK H PARENT
REMARK Flexibility Score: inf
ROOT
ATOM      1  C   UNL     1      20.388   1.977  41.784  1.00  0.00     0.000 C 
ENDROOT
BRANCH   1   2
ATOM      2  C   UNL     1      20.378   0.585  41.116  1.00  0.00     0.000 C 
BRANCH   2   3
ATOM      3  C   UNL     1      19.489   0.472  39.864  1.00  0.00     0.000 C 
BRANCH   3   4
ATOM      4  C   UNL     1      18.885  -0.924  39.622  1.00  0.00     0.000 C 
BRANCH   4   5
ATOM      5  C   UNL     1      17.986  -1.003  38.369  1.00  0.00     0.000 C 
BRANCH   5   6
ATOM      6  C   UNL     1      17.635   0.383  37.808  1.00  0.00     0.000 C 
BRANCH   6   7
ATOM      7  C   UNL     1      16.250   0.377  37.150  1.00  0.00     0.006 C 
BRANCH   7   8
ATOM      8  C   UNL     1      15.619   1.772  37.185  1.00  0.00     0.053 C 
BRANCH   8   9
ATOM      9  C   UNL     1      14.348   1.752  37.972  1.00  0.00     0.041 C 
ATOM     10  O   UNL     1      13.901   0.667  38.429  1.00  0.00    -0.550 OA
ATOM     11  O   UNL     1      13.680   2.940  38.246  1.00  0.00    -0.550 OA
ENDBRANCH   8   9
ENDBRANCH   7   8
ENDBRANCH   6   7
ENDBRANCH   5   6
ENDBRANCH   4   5
ENDBRANCH   3   4
ENDBRANCH   2   3
ENDBRANCH   1   2
BRANCH   1  12
ATOM     12  C   UNL     1      20.326   1.966  43.324  1.00  0.00     0.000 C 
BRANCH  12  13
ATOM     13  C   UNL     1      18.968   1.558  43.924  1.00  0.00    -0.000 C 
BRANCH  13  14
ATOM     14  C   UNL     1      18.079   2.766  44.266  1.00  0.00    -0.000 C 
BRANCH  14  15
ATOM     15  C   UNL     1      16.857   2.892  43.338  1.00  0.00    -0.000 C 
BRANCH  15  16
ATOM     16  C   UNL     1      16.545   1.645  42.485  1.00  0.00    -0.000 C 
BRANCH  16  17
ATOM     17  C   UNL     1      16.344   1.914  40.984  1.00  0.00    -0.000 C 
BRANCH  17  18
ATOM     18  C   UNL     1      16.404   3.408  40.632  1.00  0.00    -0.000 C 
BRANCH  18  19
ATOM     19  C   UNL     1      17.640   3.724  39.783  1.00  0.00    -0.003 C 
ATOM     20  C   UNL     1      18.519   4.774  40.454  1.00  0.00     0.004 C 
ENDBRANCH  18  19
ENDBRANCH  17  18
ENDBRANCH  16  17
ENDBRANCH  15  16
ENDBRANCH  14  15
ENDBRANCH  13  14
ENDBRANCH  12  13
ENDBRANCH   1  12
TORSDOF 16
ENDMDL
MODEL 4
REMARK VINA RESULT:    -3.391      4.175      5.929
REMARK INTER + INTRA:          -8.928
REMARK INTER:                  -6.467
REMARK INTRA:                  -2.460
REMARK UNBOUND:                -2.366
REMARK SMILES CCCCCCCCCCCCCCCCCC(=O)[O-]
REMARK SMILES IDX 10 1 11 2 12 3 13 4 14 5 15 6 16 7 17 8 18 9 19 10 20 11
REMARK SMILES IDX 9 12 8 13 7 14 6 15 5 16 4 17 3 18 2 19 1 20
REMARK H PARENT
REMARK Flexibility Score: inf
ROOT
ATOM      1  C   UNL     1      19.788  -2.627  44.394  1.00  0.00     0.000 C 
ENDROOT
BRANCH   1   2
ATOM      2  C   UNL     1      19.963  -1.173  43.906  1.00  0.00     0.000 C 
BRANCH   2   3
ATOM      3  C   UNL     1      19.060  -0.772  42.725  1.00  0.00     0.000 C 
BRANCH   3   4
ATOM      4  C   UNL     1      19.781  -0.034  41.581  1.00  0.00     0.000 C 
BRANCH   4   5
ATOM      5  C   UNL     1      20.403   1.314  42.006  1.00  0.00     0.000 C 
BRANCH   5   6
ATOM      6  C   UNL     1      19.395   2.231  42.713  1.00  0.00     0.000 C 
BRANCH   6   7
ATOM      7  C   UNL     1      19.787   2.455  44.178  1.00  0.00     0.006 C 
BRANCH   7   8
ATOM      8  C   UNL     1      18.619   2.133  45.115  1.00  0.00     0.053 C 
BRANCH   8   9
ATOM      9  C   UNL     1      18.051   3.388  45.695  1.00  0.00     0.041 C 
ATOM     10  O   UNL     1      17.422   4.197  44.963  1.00  0.00    -0.550 OA
ATOM     11  O   UNL     1      18.172   3.644  47.056  1.00  0.00    -0.550 OA
ENDBRANCH   8   9
ENDBRANCH   7   8
ENDBRANCH   6   7
ENDBRANCH   5   6
ENDBRANCH   4   5
ENDBRANCH   3   4
ENDBRANCH   2   3
ENDBRANCH   1   2
BRANCH   1  12
ATOM     12  C   UNL     1      18.390  -3.233  44.161  1.00  0.00     0.000 C 
BRANCH  12  13
ATOM     13  C   UNL     1      18.381  -4.680  43.636  1.00  0.00    -0.000 C 
BRANCH  13  14
ATOM     14  C   UNL     1      17.712  -4.810  42.257  1.00  0.00    -0.000 C 
BRANCH  14  15
ATOM     15  C   UNL     1      18.488  -4.081  41.145  1.00  0.00    -0.000 C 
BRANCH  15  16
ATOM     16  C   UNL     1      19.948  -4.538  40.949  1.00  0.00    -0.000 C 
BRANCH  16  17
ATOM     17  C   UNL     1      20.983  -3.403  40.869  1.00  0.00    -0.000 C 
BRANCH  17  18
ATOM     18  C   UNL     1      22.370  -3.824  41.377  1.00  0.00    -0.000 C 
BRANCH  18  19
ATOM     19  C   UNL     1      22.259  -4.614  42.686  1.00  0.00    -0.003 C 
ATOM     20  C   UNL     1      23.174  -4.035  43.760  1.00  0.00     0.004 C 
ENDBRANCH  18  19
ENDBRANCH  17  18
ENDBRANCH  16  17
ENDBRANCH  15  16
ENDBRANCH  14  15
ENDBRANCH  13  14
ENDBRANCH  12  13
ENDBRANCH   1  12
TORSDOF 16
ENDMDL
MODEL 5
REMARK VINA RESULT:    -3.361      3.560      7.263
REMARK INTER + INTRA:          -8.870
REMARK INTER:                  -5.892
REMARK INTRA:                  -2.978
REMARK UNBOUND:                -2.366
REMARK SMILES CCCCCCCCCCCCCCCCCC(=O)[O-]
REMARK SMILES IDX 10 1 11 2 12 3 13 4 14 5 15 6 16 7 17 8 18 9 19 10 20 11
REMARK SMILES IDX 9 12 8 13 7 14 6 15 5 16 4 17 3 18 2 19 1 20
REMARK H PARENT
REMARK Flexibility Score: inf
ROOT
ATOM      1  C   UNL     1      14.802   0.912  38.380  1.00  0.00     0.000 C 
ENDROOT
BRANCH   1   2
ATOM      2  C   UNL     1      15.638   0.192  37.301  1.00  0.00     0.000 C 
BRANCH   2   3
ATOM      3  C   UNL     1      17.032  -0.273  37.764  1.00  0.00     0.000 C 
BRANCH   3   4
ATOM      4  C   UNL     1      18.154   0.767  37.585  1.00  0.00     0.000 C 
BRANCH   4   5
ATOM      5  C   UNL     1      19.099   0.875  38.802  1.00  0.00     0.000 C 
BRANCH   5   6
ATOM      6  C   UNL     1      18.629   1.923  39.821  1.00  0.00     0.000 C 
BRANCH   6   7
ATOM      7  C   UNL     1      18.155   1.256  41.118  1.00  0.00     0.006 C 
BRANCH   7   8
ATOM      8  C   UNL     1      16.929   1.974  41.689  1.00  0.00     0.053 C 
BRANCH   8   9
ATOM      9  C   UNL     1      17.223   2.509  43.053  1.00  0.00     0.041 C 
ATOM     10  O   UNL     1      16.332   2.501  43.943  1.00  0.00    -0.550 OA
ATOM     11  O   UNL     1      18.497   2.972  43.360  1.00  0.00    -0.550 OA
ENDBRANCH   8   9
ENDBRANCH   7   8
ENDBRANCH   6   7
ENDBRANCH   5   6
ENDBRANCH   4   5
ENDBRANCH   3   4
ENDBRANCH   2   3
ENDBRANCH   1   2
BRANCH   1  12
ATOM     12  C   UNL     1      14.485   2.392  38.085  1.00  0.00     0.000 C 
BRANCH  12  13
ATOM     13  C   UNL     1      15.521   3.403  38.608  1.00  0.00    -0.000 C 
BRANCH  13  14
ATOM     14  C   UNL     1      16.381   4.011  37.487  1.00  0.00    -0.000 C 
BRANCH  14  15
ATOM     15  C   UNL     1      15.813   3.737  36.083  1.00  0.00    -0.000 C 
BRANCH  15  16
ATOM     16  C   UNL     1      16.795   3.081  35.090  1.00  0.00    -0.000 C 
BRANCH  16  17
ATOM     17  C   UNL     1      16.172   2.038  34.147  1.00  0.00    -0.000 C 
BRANCH  17  18
ATOM     18  C   UNL     1      17.033   0.775  34.002  1.00  0.00    -0.000 C 
BRANCH  18  19
ATOM     19  C   UNL     1      16.185  -0.420  33.554  1.00  0.00    -0.003 C 
ATOM     20  C   UNL     1      14.695  -0.106  33.645  1.00  0.00     0.004 C 
ENDBRANCH  18  19
ENDBRANCH  17  18
ENDBRANCH  16  17
ENDBRANCH  15  16
ENDBRANCH  14  15
ENDBRANCH  13  14
ENDBRANCH  12  13
ENDBRANCH   1  12
TORSDOF 16
ENDMDL
MODEL 6
REMARK VINA RESULT:    -3.343      2.256      4.524
REMARK INTER + INTRA:          -8.836
REMARK INTER:                  -6.210
REMARK INTRA:                  -2.626
REMARK UNBOUND:                -2.366
REMARK SMILES CCCCCCCCCCCCCCCCCC(=O)[O-]
REMARK SMILES IDX 10 1 11 2 12 3 13 4 14 5 15 6 16 7 17 8 18 9 19 10 20 11
REMARK SMILES IDX 9 12 8 13 7 14 6 15 5 16 4 17 3 18 2 19 1 20
REMARK H PARENT
REMARK Flexibility Score: inf
ROOT
ATOM      1  C   UNL     1      16.560   3.934  46.041  1.00  0.00     0.000 C 
ENDROOT
BRANCH   1   2
ATOM      2  C   UNL     1      17.033   4.795  44.851  1.00  0.00     0.000 C 
BRANCH   2   3
ATOM      3  C   UNL     1      16.038   4.884  43.678  1.00  0.00     0.000 C 
BRANCH   3   4
ATOM      4  C   UNL     1      16.684   4.883  42.280  1.00  0.00     0.000 C 
BRANCH   4   5
ATOM      5  C   UNL     1      15.858   4.128  41.216  1.00  0.00     0.000 C 
BRANCH   5   6
ATOM      6  C   UNL     1      16.742   3.398  40.194  1.00  0.00     0.000 C 
BRANCH   6   7
ATOM      7  C   UNL     1      16.316   1.933  40.043  1.00  0.00     0.006 C 
BRANCH   7   8
ATOM      8  C   UNL     1      15.965   1.609  38.588  1.00  0.00     0.053 C 
BRANCH   8   9
ATOM      9  C   UNL     1      14.504   1.813  38.344  1.00  0.00     0.041 C 
ATOM     10  O   UNL     1      14.042   2.974  38.194  1.00  0.00    -0.550 OA
ATOM     11  O   UNL     1      13.657   0.716  38.232  1.00  0.00    -0.550 OA
ENDBRANCH   8   9
ENDBRANCH   7   8
ENDBRANCH   6   7
ENDBRANCH   5   6
ENDBRANCH   4   5
ENDBRANCH   3   4
ENDBRANCH   2   3
ENDBRANCH   1   2
BRANCH   1  12
ATOM     12  C   UNL     1      15.042   3.673  46.099  1.00  0.00     0.000 C 
BRANCH  12  13
ATOM     13  C   UNL     1      14.626   2.193  46.027  1.00  0.00    -0.000 C 
BRANCH  13  14
ATOM     14  C   UNL     1      15.819   1.249  45.800  1.00  0.00    -0.000 C 
BRANCH  14  15
ATOM     15  C   UNL     1      15.836   0.635  44.388  1.00  0.00    -0.000 C 
BRANCH  15  16
ATOM     16  C   UNL     1      16.844   1.266  43.406  1.00  0.00    -0.000 C 
BRANCH  16  17
ATOM     17  C   UNL     1      18.296   1.329  43.910  1.00  0.00    -0.000 C 
BRANCH  17  18
ATOM     18  C   UNL     1      19.151   2.347  43.142  1.00  0.00    -0.000 C 
BRANCH  18  19
ATOM     19  C   UNL     1      20.328   1.659  42.441  1.00  0.00    -0.003 C 
ATOM     20  C   UNL     1      19.891   1.023  41.125  1.00  0.00     0.004 C 
ENDBRANCH  18  19
ENDBRANCH  17  18
ENDBRANCH  16  17
ENDBRANCH  15  16
ENDBRANCH  14  15
ENDBRANCH  13  14
ENDBRANCH  12  13
ENDBRANCH   1  12
TORSDOF 16
ENDMDL
MODEL 7
REMARK VINA RESULT:    -3.322      2.139      4.958
REMARK INTER + INTRA:          -8.796
REMARK INTER:                  -6.181
REMARK INTRA:                  -2.615
REMARK UNBOUND:                -2.366
REMARK SMILES CCCCCCCCCCCCCCCCCC(=O)[O-]
REMARK SMILES IDX 10 1 11 2 12 3 13 4 14 5 15 6 16 7 17 8 18 9 19 10 20 11
REMARK SMILES IDX 9 12 8 13 7 14 6 15 5 16 4 17 3 18 2 19 1 20
REMARK H PARENT
REMARK Flexibility Score: inf
ROOT
ATOM      1  C   UNL     1      20.069   0.901  41.826  1.00  0.00     0.000 C 
ENDROOT
BRANCH   1   2
ATOM      2  C   UNL     1      20.464   1.439  40.434  1.00  0.00     0.000 C 
BRANCH   2   3
ATOM      3  C   UNL     1      19.886   0.648  39.245  1.00  0.00     0.000 C 
BRANCH   3   4
ATOM      4  C   UNL     1      18.723  -0.297  39.600  1.00  0.00     0.000 C 
BRANCH   4   5
ATOM      5  C   UNL     1      17.859  -0.701  38.385  1.00  0.00     0.000 C 
BRANCH   5   6
ATOM      6  C   UNL     1      18.665  -0.743  37.079  1.00  0.00     0.000 C 
BRANCH   6   7
ATOM      7  C   UNL     1      17.803  -0.312  35.886  1.00  0.00     0.006 C 
BRANCH   7   8
ATOM      8  C   UNL     1      16.312  -0.437  36.211  1.00  0.00     0.053 C 
BRANCH   8   9
ATOM      9  C   UNL     1      15.502   0.425  35.297  1.00  0.00     0.041 C 
ATOM     10  O   UNL     1      15.771   1.650  35.177  1.00  0.00    -0.550 OA
ATOM     11  O   UNL     1      14.479  -0.131  34.538  1.00  0.00    -0.550 OA
ENDBRANCH   8   9
ENDBRANCH   7   8
ENDBRANCH   6   7
ENDBRANCH   5   6
ENDBRANCH   4   5
ENDBRANCH   3   4
ENDBRANCH   2   3
ENDBRANCH   1   2
BRANCH   1  12
ATOM     12  C   UNL     1      20.310   1.874  42.997  1.00  0.00     0.000 C 
BRANCH  12  13
ATOM     13  C   UNL     1      19.090   2.128  43.901  1.00  0.00    -0.000 C 
BRANCH  13  14
ATOM     14  C   UNL     1      18.013   2.991  43.223  1.00  0.00    -0.000 C 
BRANCH  14  15
ATOM     15  C   UNL     1      16.735   2.200  42.891  1.00  0.00    -0.000 C 
BRANCH  15  16
ATOM     16  C   UNL     1      16.447   2.012  41.387  1.00  0.00    -0.000 C 
BRANCH  16  17
ATOM     17  C   UNL     1      17.173   2.997  40.454  1.00  0.00    -0.000 C 
BRANCH  17  18
ATOM     18  C   UNL     1      16.611   2.990  39.025  1.00  0.00    -0.000 C 
BRANCH  18  19
ATOM     19  C   UNL     1      15.427   2.024  38.905  1.00  0.00    -0.003 C 
ATOM     20  C   UNL     1      14.254   2.676  38.180  1.00  0.00     0.004 C 
ENDBRANCH  18  19
ENDBRANCH  17  18
ENDBRANCH  16  17
ENDBRANCH  15  16
ENDBRANCH  14  15
ENDBRANCH  13  14
ENDBRANCH  12  13
ENDBRANCH   1  12
TORSDOF 16
ENDMDL
MODEL 8
REMARK VINA RESULT:    -3.320      3.125      6.374
REMARK INTER + INTRA:          -8.792
REMARK INTER:                  -6.173
REMARK INTRA:                  -2.619
REMARK UNBOUND:                -2.366
REMARK SMILES CCCCCCCCCCCCCCCCCC(=O)[O-]
REMARK SMILES IDX 10 1 11 2 12 3 13 4 14 5 15 6 16 7 17 8 18 9 19 10 20 11
REMARK SMILES IDX 9 12 8 13 7 14 6 15 5 16 4 17 3 18 2 19 1 20
REMARK H PARENT
REMARK Flexibility Score: inf
ROOT
ATOM      1  C   UNL     1      18.431   0.493  39.777  1.00  0.00     0.000 C 
ENDROOT
BRANCH   1   2
ATOM      2  C   UNL     1      19.437   0.149  40.896  1.00  0.00     0.000 C 
BRANCH   2   3
ATOM      3  C   UNL     1      20.588   1.157  41.067  1.00  0.00     0.000 C 
BRANCH   3   4
ATOM      4  C   UNL     1      20.616   1.885  42.424  1.00  0.00     0.000 C 
BRANCH   4   5
ATOM      5  C   UNL     1      19.280   1.809  43.196  1.00  0.00     0.000 C 
BRANCH   5   6
ATOM      6  C   UNL     1      18.388   3.034  42.950  1.00  0.00     0.000 C 
BRANCH   6   7
ATOM      7  C   UNL     1      16.934   2.744  43.342  1.00  0.00     0.006 C 
BRANCH   7   8
ATOM      8  C   UNL     1      16.632   1.245  43.265  1.00  0.00     0.053 C 
BRANCH   8   9
ATOM      9  C   UNL     1      15.948   0.784  44.512  1.00  0.00     0.041 C 
ATOM     10  O   UNL     1      15.228  -0.249  44.495  1.00  0.00    -0.550 OA
ATOM     11  O   UNL     1      16.145   1.465  45.707  1.00  0.00    -0.550 OA
ENDBRANCH   8   9
ENDBRANCH   7   8
ENDBRANCH   6   7
ENDBRANCH   5   6
ENDBRANCH   4   5
ENDBRANCH   3   4
ENDBRANCH   2   3
ENDBRANCH   1   2
BRANCH   1  12
ATOM     12  C   UNL     1      18.680   1.836  39.062  1.00  0.00     0.000 C 
BRANCH  12  13
ATOM     13  C   UNL     1      17.640   2.934  39.346  1.00  0.00    -0.000 C 
BRANCH  13  14
ATOM     14  C   UNL     1      16.251   2.368  39.685  1.00  0.00    -0.000 C 
BRANCH  14  15
ATOM     15  C   UNL     1      15.113   3.092  38.944  1.00  0.00    -0.000 C 
BRANCH  15  16
ATOM     16  C   UNL     1      14.151   2.178  38.156  1.00  0.00    -0.000 C 
BRANCH  16  17
ATOM     17  C   UNL     1      14.674   0.757  37.887  1.00  0.00    -0.000 C 
BRANCH  17  18
ATOM     18  C   UNL     1      15.086   0.540  36.424  1.00  0.00    -0.000 C 
BRANCH  18  19
ATOM     19  C   UNL     1      16.317   1.381  36.069  1.00  0.00    -0.003 C 
ATOM     20  C   UNL     1      16.259   1.863  34.623  1.00  0.00     0.004 C 
ENDBRANCH  18  19
ENDBRANCH  17  18
ENDBRANCH  16  17
ENDBRANCH  15  16
ENDBRANCH  14  15
ENDBRANCH  13  14
ENDBRANCH  12  13
ENDBRANCH   1  12
TORSDOF 16
ENDMDL
MODEL 9
REMARK VINA RESULT:    -3.276      3.463      6.757
REMARK INTER + INTRA:          -8.706
REMARK INTER:                  -5.630
REMARK INTRA:                  -3.076
REMARK UNBOUND:                -2.366
REMARK SMILES CCCCCCCCCCCCCCCCCC(=O)[O-]
REMARK SMILES IDX 10 1 11 2 12 3 13 4 14 5 15 6 16 7 17 8 18 9 19 10 20 11
REMARK SMILES IDX 9 12 8 13 7 14 6 15 5 16 4 17 3 18 2 19 1 20
REMARK H PARENT
REMARK Flexibility Score: inf
ROOT
ATOM      1  C   UNL     1      19.560   4.177  38.811  1.00  0.00     0.000 C 
ENDROOT
BRANCH   1   2
ATOM      2  C   UNL     1      19.375   2.815  38.108  1.00  0.00     0.000 C 
BRANCH   2   3
ATOM      3  C   UNL     1      19.465   1.588  39.034  1.00  0.00     0.000 C 
BRANCH   3   4
ATOM      4  C   UNL     1      20.778   1.473  39.831  1.00  0.00     0.000 C 
BRANCH   4   5
ATOM      5  C   UNL     1      20.578   1.472  41.362  1.00  0.00     0.000 C 
BRANCH   5   6
ATOM      6  C   UNL     1      19.663   0.333  41.834  1.00  0.00     0.000 C 
BRANCH   6   7
ATOM      7  C   UNL     1      19.608   0.268  43.365  1.00  0.00     0.006 C 
BRANCH   7   8
ATOM      8  C   UNL     1      18.323   0.910  43.897  1.00  0.00     0.053 C 
BRANCH   8   9
ATOM      9  C   UNL     1      18.645   2.058  44.799  1.00  0.00     0.041 C 
ATOM     10  O   UNL     1      19.835   2.452  44.923  1.00  0.00    -0.550 OA
ATOM     11  O   UNL     1      17.626   2.726  45.467  1.00  0.00    -0.550 OA
ENDBRANCH   8   9
ENDBRANCH   7   8
ENDBRANCH   6   7
ENDBRANCH   5   6
ENDBRANCH   4   5
ENDBRANCH   3   4
ENDBRANCH   2   3
ENDBRANCH   1   2
BRANCH   1  12
ATOM     12  C   UNL     1      18.259   4.848  39.294  1.00  0.00     0.000 C 
BRANCH  12  13
ATOM     13  C   UNL     1      18.169   5.091  40.811  1.00  0.00    -0.000 C 
BRANCH  13  14
ATOM     14  C   UNL     1      17.765   3.831  41.595  1.00  0.00    -0.000 C 
BRANCH  14  15
ATOM     15  C   UNL     1      16.380   3.294  41.189  1.00  0.00    -0.000 C 
BRANCH  15  16
ATOM     16  C   UNL     1      16.363   1.843  40.665  1.00  0.00    -0.000 C 
BRANCH  16  17
ATOM     17  C   UNL     1      15.538   1.620  39.386  1.00  0.00    -0.000 C 
BRANCH  17  18
ATOM     18  C   UNL     1      15.164   2.932  38.681  1.00  0.00    -0.000 C 
BRANCH  18  19
ATOM     19  C   UNL     1      15.796   3.006  37.286  1.00  0.00    -0.003 C 
ATOM     20  C   UNL     1      15.587   4.379  36.656  1.00  0.00     0.004 C 
ENDBRANCH  18  19
ENDBRANCH  17  18
ENDBRANCH  16  17
ENDBRANCH  15  16
ENDBRANCH  14  15
ENDBRANCH  13  14
ENDBRANCH  12  13
ENDBRANCH   1  12
TORSDOF 16
ENDMDL
