MODEL 1
REMARK VINA RESULT:    -2.899      0.000      0.000
REMARK INTER + INTRA:          -3.451
REMARK INTER:                  -3.408
REMARK INTRA:                  -0.043
REMARK UNBOUND:                -0.043
REMARK SMILES CCCCC(=O)[O-]
REMARK SMILES IDX 4 1 5 2 6 3 7 4 3 5 2 6 1 7
REMARK H PARENT
REMARK Flexibility Score: inf
ROOT
ATOM      1  C   UNL     1     154.783 131.944 166.129  1.00  0.00     0.053 C 
ENDROOT
BRANCH   1   2
ATOM      2  C   UNL     1     154.199 132.980 165.221  1.00  0.00     0.041 C 
ATOM      3  O   UNL     1     153.588 132.635 164.175  1.00  0.00    -0.550 OA
ATOM      4  O   UNL     1     154.371 134.329 165.505  1.00  0.00    -0.550 OA
ENDBRANCH   1   2
BRANCH   1   5
ATOM      5  C   UNL     1     155.711 132.594 167.158  1.00  0.00     0.006 C 
BRANCH   5   6
ATOM      6  C   UNL     1     157.164 132.154 166.943  1.00  0.00    -0.003 C 
ATOM      7  C   UNL     1     158.125 133.000 167.774  1.00  0.00     0.004 C 
ENDBRANCH   5   6
ENDBRANCH   1   5
TORSDOF 3
ENDMDL
MODEL 2
REMARK VINA RESULT:    -2.741      2.522      3.690
REMARK INTER + INTRA:          -3.265
REMARK INTER:                  -3.219
REMARK INTRA:                  -0.046
REMARK UNBOUND:                -0.043
REMARK SMILES CCCCC(=O)[O-]
REMARK SMILES IDX 4 1 5 2 6 3 7 4 3 5 2 6 1 7
REMARK H PARENT
REMARK Flexibility Score: inf
ROOT
ATOM      1  C   UNL     1     151.836 131.875 164.346  1.00  0.00     0.053 C 
ENDROOT
BRANCH   1   2
ATOM      2  C   UNL     1     151.038 133.075 163.945  1.00  0.00     0.041 C 
ATOM      3  O   UNL     1     151.239 134.186 164.502  1.00  0.00    -0.550 OA
ATOM      4  O   UNL     1     150.037 132.955 162.988  1.00  0.00    -0.550 OA
ENDBRANCH   1   2
BRANCH   1   5
ATOM      5  C   UNL     1     153.314 132.242 164.503  1.00  0.00     0.006 C 
BRANCH   5   6
ATOM      6  C   UNL     1     153.825 131.877 165.902  1.00  0.00    -0.003 C 
ATOM      7  C   UNL     1     155.309 132.203 166.049  1.00  0.00     0.004 C 
ENDBRANCH   5   6
ENDBRANCH   1   5
TORSDOF 3
ENDMDL
MODEL 3
REMARK VINA RESULT:    -2.735      4.517      5.939
REMARK INTER + INTRA:          -3.258
REMARK INTER:                  -3.237
REMARK INTRA:                  -0.021
REMARK UNBOUND:                -0.043
REMARK SMILES CCCCC(=O)[O-]
REMARK SMILES IDX 4 1 5 2 6 3 7 4 3 5 2 6 1 7
REMARK H PARENT
REMARK Flexibility Score: inf
ROOT
ATOM      1  C   UNL     1     150.306 133.108 163.037  1.00  0.00     0.053 C 
ENDROOT
BRANCH   1   2
ATOM      2  C   UNL     1     148.822 132.924 163.008  1.00  0.00     0.041 C 
ATOM      3  O   UNL     1     148.236 132.345 163.961  1.00  0.00    -0.550 OA
ATOM      4  O   UNL     1     148.089 133.351 161.907  1.00  0.00    -0.550 OA
ENDBRANCH   1   2
BRANCH   1   5
ATOM      5  C   UNL     1     150.960 132.049 163.927  1.00  0.00     0.006 C 
BRANCH   5   6
ATOM      6  C   UNL     1     152.445 131.882 163.582  1.00  0.00    -0.003 C 
ATOM      7  C   UNL     1     153.307 131.875 164.842  1.00  0.00     0.004 C 
ENDBRANCH   5   6
ENDBRANCH   1   5
TORSDOF 3
ENDMDL
MODEL 4
REMARK VINA RESULT:    -2.713      2.400      4.346
REMARK INTER + INTRA:          -3.231
REMARK INTER:                  -3.210
REMARK INTRA:                  -0.021
REMARK UNBOUND:                -0.043
REMARK SMILES CCCCC(=O)[O-]
REMARK SMILES IDX 4 1 5 2 6 3 7 4 3 5 2 6 1 7
REMARK H PARENT
REMARK Flexibility Score: inf
ROOT
ATOM      1  C   UNL     1     154.641 132.080 165.596  1.00  0.00     0.053 C 
ENDROOT
BRANCH   1   2
ATOM      2  C   UNL     1     155.058 132.417 166.993  1.00  0.00     0.041 C 
ATOM      3  O   UNL     1     156.278 132.433 167.304  1.00  0.00    -0.550 OA
ATOM      4  O   UNL     1     154.096 132.668 167.964  1.00  0.00    -0.550 OA
ENDBRANCH   1   2
BRANCH   1   5
ATOM      5  C   UNL     1     153.125 131.875 165.524  1.00  0.00     0.006 C 
BRANCH   5   6
ATOM      6  C   UNL     1     152.637 131.897 164.071  1.00  0.00    -0.003 C 
ATOM      7  C   UNL     1     151.176 132.334 163.986  1.00  0.00     0.004 C 
ENDBRANCH   5   6
ENDBRANCH   1   5
TORSDOF 3
ENDMDL
MODEL 5
REMARK VINA RESULT:    -2.678      8.586      9.876
REMARK INTER + INTRA:          -3.191
REMARK INTER:                  -3.155
REMARK INTRA:                  -0.036
REMARK UNBOUND:                -0.043
REMARK SMILES CCCCC(=O)[O-]
REMARK SMILES IDX 4 1 5 2 6 3 7 4 3 5 2 6 1 7
REMARK H PARENT
REMARK Flexibility Score: inf
ROOT
ATOM      1  C   UNL     1     147.120 133.058 161.197  1.00  0.00     0.053 C 
ENDROOT
BRANCH   1   2
ATOM      2  C   UNL     1     145.838 133.272 160.457  1.00  0.00     0.041 C 
ATOM      3  O   UNL     1     145.242 134.380 160.529  1.00  0.00    -0.550 OA
ATOM      4  O   UNL     1     145.274 132.233 159.728  1.00  0.00    -0.550 OA
ENDBRANCH   1   2
BRANCH   1   5
ATOM      5  C   UNL     1     146.873 132.253 162.476  1.00  0.00     0.006 C 
BRANCH   5   6
ATOM      6  C   UNL     1     148.102 132.285 163.391  1.00  0.00    -0.003 C 
ATOM      7  C   UNL     1     149.203 133.167 162.807  1.00  0.00     0.004 C 
ENDBRANCH   5   6
ENDBRANCH   1   5
TORSDOF 3
ENDMDL
MODEL 6
REMARK VINA RESULT:    -2.670      5.523      6.478
REMARK INTER + INTRA:          -3.181
REMARK INTER:                  -3.163
REMARK INTRA:                  -0.018
REMARK UNBOUND:                -0.043
REMARK SMILES CCCCC(=O)[O-]
REMARK SMILES IDX 4 1 5 2 6 3 7 4 3 5 2 6 1 7
REMARK H PARENT
REMARK Flexibility Score: inf
ROOT
ATOM      1  C   UNL     1     149.762 133.199 163.249  1.00  0.00     0.053 C 
ENDROOT
BRANCH   1   2
ATOM      2  C   UNL     1     148.338 133.007 162.832  1.00  0.00     0.041 C 
ATOM      3  O   UNL     1     147.955 133.383 161.694  1.00  0.00    -0.550 OA
ATOM      4  O   UNL     1     147.423 132.456 163.720  1.00  0.00    -0.550 OA
ENDBRANCH   1   2
BRANCH   1   5
ATOM      5  C   UNL     1     150.362 131.878 163.735  1.00  0.00     0.006 C 
BRANCH   5   6
ATOM      6  C   UNL     1     151.735 132.101 164.380  1.00  0.00    -0.003 C 
ATOM      7  C   UNL     1     152.861 131.875 163.374  1.00  0.00     0.004 C 
ENDBRANCH   5   6
ENDBRANCH   1   5
TORSDOF 3
ENDMDL
MODEL 7
REMARK VINA RESULT:    -2.624      8.412     10.250
REMARK INTER + INTRA:          -3.127
REMARK INTER:                  -3.041
REMARK INTRA:                  -0.086
REMARK UNBOUND:                -0.043
REMARK SMILES CCCCC(=O)[O-]
REMARK SMILES IDX 4 1 5 2 6 3 7 4 3 5 2 6 1 7
REMARK H PARENT
REMARK Flexibility Score: inf
ROOT
ATOM      1  C   UNL     1     147.544 133.694 162.083  1.00  0.00     0.053 C 
ENDROOT
BRANCH   1   2
ATOM      2  C   UNL     1     147.573 132.687 163.188  1.00  0.00     0.041 C 
ATOM      3  O   UNL     1     148.672 132.229 163.600  1.00  0.00    -0.550 OA
ATOM      4  O   UNL     1     146.384 132.218 163.732  1.00  0.00    -0.550 OA
ENDBRANCH   1   2
BRANCH   1   5
ATOM      5  C   UNL     1     147.239 133.014 160.745  1.00  0.00     0.006 C 
BRANCH   5   6
ATOM      6  C   UNL     1     145.781 133.243 160.332  1.00  0.00    -0.003 C 
ATOM      7  C   UNL     1     145.101 131.929 159.958  1.00  0.00     0.004 C 
ENDBRANCH   5   6
ENDBRANCH   1   5
TORSDOF 3
ENDMDL
MODEL 8
REMARK VINA RESULT:    -1.806      1.510      1.919
REMARK INTER + INTRA:          -2.166
REMARK INTER:                  -2.131
REMARK INTRA:                  -0.034
REMARK UNBOUND:                -0.043
REMARK SMILES CCCCC(=O)[O-]
REMARK SMILES IDX 4 1 5 2 6 3 7 4 3 5 2 6 1 7
REMARK H PARENT
REMARK Flexibility Score: inf
ROOT
ATOM      1  C   UNL     1     155.627 132.544 167.746  1.00  0.00     0.053 C 
ENDROOT
BRANCH   1   2
ATOM      2  C   UNL     1     154.498 132.234 166.814  1.00  0.00     0.041 C 
ATOM      3  O   UNL     1     154.734 131.875 165.630  1.00  0.00    -0.550 OA
ATOM      4  O   UNL     1     153.184 132.390 167.238  1.00  0.00    -0.550 OA
ENDBRANCH   1   2
BRANCH   1   5
ATOM      5  C   UNL     1     156.973 132.325 167.049  1.00  0.00     0.006 C 
BRANCH   5   6
ATOM      6  C   UNL     1     158.122 132.907 167.879  1.00  0.00    -0.003 C 
ATOM      7  C   UNL     1     157.873 132.722 169.374  1.00  0.00     0.004 C 
ENDBRANCH   5   6
ENDBRANCH   1   5
TORSDOF 3
ENDMDL
