MODEL 1
REMARK VINA RESULT:    -3.544      0.000      0.000
REMARK INTER + INTRA:          -9.448
REMARK INTER:                  -6.859
REMARK INTRA:                  -2.589
REMARK UNBOUND:                -2.589
REMARK SMILES CCCCCCCCCCCCCCCCCC(=O)[O-]
REMARK SMILES IDX 10 1 11 2 12 3 13 4 14 5 15 6 16 7 17 8 18 9 19 10 20 11
REMARK SMILES IDX 9 12 8 13 7 14 6 15 5 16 4 17 3 18 2 19 1 20
REMARK H PARENT
REMARK Flexibility Score: inf
ROOT
ATOM      1  C   UNL     1      21.016   3.349  23.508  1.00  0.00     0.000 C 
ENDROOT
BRANCH   1   2
ATOM      2  C   UNL     1      20.923   4.650  24.316  1.00  0.00     0.000 C 
BRANCH   2   3
ATOM      3  C   UNL     1      19.465   4.998  24.636  1.00  0.00     0.000 C 
BRANCH   3   4
ATOM      4  C   UNL     1      19.359   6.386  25.286  1.00  0.00     0.000 C 
BRANCH   4   5
ATOM      5  C   UNL     1      20.728   6.954  25.692  1.00  0.00     0.000 C 
BRANCH   5   6
ATOM      6  C   UNL     1      20.642   8.413  26.174  1.00  0.00     0.000 C 
BRANCH   6   7
ATOM      7  C   UNL     1      19.994   9.345  25.134  1.00  0.00     0.006 C 
BRANCH   7   8
ATOM      8  C   UNL     1      20.688   9.336  23.761  1.00  0.00     0.053 C 
BRANCH   8   9
ATOM      9  C   UNL     1      19.701   9.364  22.634  1.00  0.00     0.041 C 
ATOM     10  O   UNL     1      20.093   9.554  21.454  1.00  0.00    -0.550 OA
ATOM     11  O   UNL     1      18.353   9.147  22.886  1.00  0.00    -0.550 OA
ENDBRANCH   8   9
ENDBRANCH   7   8
ENDBRANCH   6   7
ENDBRANCH   5   6
ENDBRANCH   4   5
ENDBRANCH   3   4
ENDBRANCH   2   3
ENDBRANCH   1   2
BRANCH   1  12
ATOM     12  C   UNL     1      22.022   2.379  24.144  1.00  0.00     0.000 C 
BRANCH  12  13
ATOM     13  C   UNL     1      21.352   1.125  24.729  1.00  0.00    -0.000 C 
BRANCH  13  14
ATOM     14  C   UNL     1      20.150   1.462  25.629  1.00  0.00    -0.000 C 
BRANCH  14  15
ATOM     15  C   UNL     1      20.547   1.661  27.102  1.00  0.00    -0.000 C 
BRANCH  15  16
ATOM     16  C   UNL     1      20.153   3.023  27.707  1.00  0.00    -0.000 C 
BRANCH  16  17
ATOM     17  C   UNL     1      21.342   3.987  27.903  1.00  0.00    -0.000 C 
BRANCH  17  18
ATOM     18  C   UNL     1      22.693   3.306  27.631  1.00  0.00    -0.000 C 
BRANCH  18  19
ATOM     19  C   UNL     1      23.634   4.239  26.861  1.00  0.00    -0.003 C 
ATOM     20  C   UNL     1      24.935   3.532  26.496  1.00  0.00     0.004 C 
ENDBRANCH  18  19
ENDBRANCH  17  18
ENDBRANCH  16  17
ENDBRANCH  15  16
ENDBRANCH  14  15
ENDBRANCH  13  14
ENDBRANCH  12  13
ENDBRANCH   1  12
TORSDOF 16
ENDMDL
MODEL 2
REMARK VINA RESULT:    -3.539      1.338      1.912
REMARK INTER + INTRA:          -9.438
REMARK INTER:                  -7.462
REMARK INTRA:                  -1.976
REMARK UNBOUND:                -2.589
REMARK SMILES CCCCCCCCCCCCCCCCCC(=O)[O-]
REMARK SMILES IDX 10 1 11 2 12 3 13 4 14 5 15 6 16 7 17 8 18 9 19 10 20 11
REMARK SMILES IDX 9 12 8 13 7 14 6 15 5 16 4 17 3 18 2 19 1 20
REMARK H PARENT
REMARK Flexibility Score: inf
ROOT
ATOM      1  C   UNL     1      20.830   4.501  23.981  1.00  0.00     0.000 C 
ENDROOT
BRANCH   1   2
ATOM      2  C   UNL     1      20.683   5.304  25.280  1.00  0.00     0.000 C 
BRANCH   2   3
ATOM      3  C   UNL     1      19.235   5.279  25.782  1.00  0.00     0.000 C 
BRANCH   3   4
ATOM      4  C   UNL     1      18.488   6.558  25.375  1.00  0.00     0.000 C 
BRANCH   4   5
ATOM      5  C   UNL     1      17.941   6.493  23.941  1.00  0.00     0.000 C 
BRANCH   5   6
ATOM      6  C   UNL     1      17.020   7.679  23.606  1.00  0.00     0.000 C 
BRANCH   6   7
ATOM      7  C   UNL     1      17.608   9.032  24.050  1.00  0.00     0.006 C 
BRANCH   7   8
ATOM      8  C   UNL     1      18.184   9.876  22.901  1.00  0.00     0.053 C 
BRANCH   8   9
ATOM      9  C   UNL     1      19.624   9.556  22.639  1.00  0.00     0.041 C 
ATOM     10  O   UNL     1      20.388   9.246  23.590  1.00  0.00    -0.550 OA
ATOM     11  O   UNL     1      20.113   9.569  21.339  1.00  0.00    -0.550 OA
ENDBRANCH   8   9
ENDBRANCH   7   8
ENDBRANCH   6   7
ENDBRANCH   5   6
ENDBRANCH   4   5
ENDBRANCH   3   4
ENDBRANCH   2   3
ENDBRANCH   1   2
BRANCH   1  12
ATOM     12  C   UNL     1      21.970   3.479  24.095  1.00  0.00     0.000 C 
BRANCH  12  13
ATOM     13  C   UNL     1      21.539   2.059  23.694  1.00  0.00    -0.000 C 
BRANCH  13  14
ATOM     14  C   UNL     1      21.325   1.141  24.911  1.00  0.00    -0.000 C 
BRANCH  14  15
ATOM     15  C   UNL     1      20.183   1.618  25.823  1.00  0.00    -0.000 C 
BRANCH  15  16
ATOM     16  C   UNL     1      20.490   1.575  27.333  1.00  0.00    -0.000 C 
BRANCH  16  17
ATOM     17  C   UNL     1      21.302   2.786  27.839  1.00  0.00    -0.000 C 
BRANCH  17  18
ATOM     18  C   UNL     1      22.818   2.557  27.728  1.00  0.00    -0.000 C 
BRANCH  18  19
ATOM     19  C   UNL     1      23.549   3.862  27.396  1.00  0.00    -0.003 C 
ATOM     20  C   UNL     1      24.800   3.597  26.565  1.00  0.00     0.004 C 
ENDBRANCH  18  19
ENDBRANCH  17  18
ENDBRANCH  16  17
ENDBRANCH  15  16
ENDBRANCH  14  15
ENDBRANCH  13  14
ENDBRANCH  12  13
ENDBRANCH   1  12
TORSDOF 16
ENDMDL
MODEL 3
REMARK VINA RESULT:    -3.475      2.035      3.216
REMARK INTER + INTRA:          -9.314
REMARK INTER:                  -6.892
REMARK INTRA:                  -2.423
REMARK UNBOUND:                -2.589
REMARK SMILES CCCCCCCCCCCCCCCCCC(=O)[O-]
REMARK SMILES IDX 10 1 11 2 12 3 13 4 14 5 15 6 16 7 17 8 18 9 19 10 20 11
REMARK SMILES IDX 9 12 8 13 7 14 6 15 5 16 4 17 3 18 2 19 1 20
REMARK H PARENT
REMARK Flexibility Score: inf
ROOT
ATOM      1  C   UNL     1      21.624   1.375  25.102  1.00  0.00     0.000 C 
ENDROOT
BRANCH   1   2
ATOM      2  C   UNL     1      20.150   1.705  24.837  1.00  0.00     0.000 C 
BRANCH   2   3
ATOM      3  C   UNL     1      19.474   2.259  26.096  1.00  0.00     0.000 C 
BRANCH   3   4
ATOM      4  C   UNL     1      19.091   3.735  25.911  1.00  0.00     0.000 C 
BRANCH   4   5
ATOM      5  C   UNL     1      19.470   4.275  24.524  1.00  0.00     0.000 C 
BRANCH   5   6
ATOM      6  C   UNL     1      20.452   5.459  24.598  1.00  0.00     0.000 C 
BRANCH   6   7
ATOM      7  C   UNL     1      19.890   6.738  23.949  1.00  0.00     0.006 C 
BRANCH   7   8
ATOM      8  C   UNL     1      20.141   8.019  24.762  1.00  0.00     0.053 C 
BRANCH   8   9
ATOM      9  C   UNL     1      20.833   9.071  23.950  1.00  0.00     0.041 C 
ATOM     10  O   UNL     1      21.857   9.647  24.400  1.00  0.00    -0.550 OA
ATOM     11  O   UNL     1      20.363   9.391  22.683  1.00  0.00    -0.550 OA
ENDBRANCH   8   9
ENDBRANCH   7   8
ENDBRANCH   6   7
ENDBRANCH   5   6
ENDBRANCH   4   5
ENDBRANCH   3   4
ENDBRANCH   2   3
ENDBRANCH   1   2
BRANCH   1  12
ATOM     12  C   UNL     1      22.546   2.401  24.426  1.00  0.00     0.000 C 
BRANCH  12  13
ATOM     13  C   UNL     1      23.346   3.239  25.436  1.00  0.00    -0.000 C 
BRANCH  13  14
ATOM     14  C   UNL     1      22.940   2.955  26.893  1.00  0.00    -0.000 C 
BRANCH  14  15
ATOM     15  C   UNL     1      22.422   4.206  27.621  1.00  0.00    -0.000 C 
BRANCH  15  16
ATOM     16  C   UNL     1      23.172   5.512  27.292  1.00  0.00    -0.000 C 
BRANCH  16  17
ATOM     17  C   UNL     1      22.314   6.784  27.458  1.00  0.00    -0.000 C 
BRANCH  17  18
ATOM     18  C   UNL     1      23.162   8.065  27.426  1.00  0.00    -0.000 C 
BRANCH  18  19
ATOM     19  C   UNL     1      24.652   7.736  27.286  1.00  0.00    -0.003 C 
ATOM     20  C   UNL     1      25.445   8.955  26.825  1.00  0.00     0.004 C 
ENDBRANCH  18  19
ENDBRANCH  17  18
ENDBRANCH  16  17
ENDBRANCH  15  16
ENDBRANCH  14  15
ENDBRANCH  13  14
ENDBRANCH  12  13
ENDBRANCH   1  12
TORSDOF 16
ENDMDL
MODEL 4
REMARK VINA RESULT:    -3.473      1.820      3.694
REMARK INTER + INTRA:          -9.310
REMARK INTER:                  -6.429
REMARK INTRA:                  -2.880
REMARK UNBOUND:                -2.589
REMARK SMILES CCCCCCCCCCCCCCCCCC(=O)[O-]
REMARK SMILES IDX 10 1 11 2 12 3 13 4 14 5 15 6 16 7 17 8 18 9 19 10 20 11
REMARK SMILES IDX 9 12 8 13 7 14 6 15 5 16 4 17 3 18 2 19 1 20
REMARK H PARENT
REMARK Flexibility Score: inf
ROOT
ATOM      1  C   UNL     1      22.278   3.626  27.987  1.00  0.00     0.000 C 
ENDROOT
BRANCH   1   2
ATOM      2  C   UNL     1      22.563   4.996  27.356  1.00  0.00     0.000 C 
BRANCH   2   3
ATOM      3  C   UNL     1      21.398   5.964  27.591  1.00  0.00     0.000 C 
BRANCH   3   4
ATOM      4  C   UNL     1      21.537   7.216  26.713  1.00  0.00     0.000 C 
BRANCH   4   5
ATOM      5  C   UNL     1      20.249   7.547  25.944  1.00  0.00     0.000 C 
BRANCH   5   6
ATOM      6  C   UNL     1      20.527   8.133  24.548  1.00  0.00     0.000 C 
BRANCH   6   7
ATOM      7  C   UNL     1      19.470   7.718  23.508  1.00  0.00     0.006 C 
BRANCH   7   8
ATOM      8  C   UNL     1      18.182   8.558  23.549  1.00  0.00     0.053 C 
BRANCH   8   9
ATOM      9  C   UNL     1      17.003   7.754  24.006  1.00  0.00     0.041 C 
ATOM     10  O   UNL     1      16.504   7.951  25.144  1.00  0.00    -0.550 OA
ATOM     11  O   UNL     1      16.438   6.808  23.160  1.00  0.00    -0.550 OA
ENDBRANCH   8   9
ENDBRANCH   7   8
ENDBRANCH   6   7
ENDBRANCH   5   6
ENDBRANCH   4   5
ENDBRANCH   3   4
ENDBRANCH   2   3
ENDBRANCH   1   2
BRANCH   1  12
ATOM     12  C   UNL     1      22.607   2.492  27.005  1.00  0.00     0.000 C 
BRANCH  12  13
ATOM     13  C   UNL     1      22.940   3.002  25.594  1.00  0.00    -0.000 C 
BRANCH  13  14
ATOM     14  C   UNL     1      22.215   2.208  24.493  1.00  0.00    -0.000 C 
BRANCH  14  15
ATOM     15  C   UNL     1      21.380   3.106  23.564  1.00  0.00    -0.000 C 
BRANCH  15  16
ATOM     16  C   UNL     1      20.759   4.345  24.238  1.00  0.00    -0.000 C 
BRANCH  16  17
ATOM     17  C   UNL     1      19.276   4.165  24.629  1.00  0.00    -0.000 C 
BRANCH  17  18
ATOM     18  C   UNL     1      19.114   3.597  26.048  1.00  0.00    -0.000 C 
BRANCH  18  19
ATOM     19  C   UNL     1      18.824   2.092  26.008  1.00  0.00    -0.003 C 
ATOM     20  C   UNL     1      18.801   1.498  27.413  1.00  0.00     0.004 C 
ENDBRANCH  18  19
ENDBRANCH  17  18
ENDBRANCH  16  17
ENDBRANCH  15  16
ENDBRANCH  14  15
ENDBRANCH  13  14
ENDBRANCH  12  13
ENDBRANCH   1  12
TORSDOF 16
ENDMDL
MODEL 5
REMARK VINA RESULT:    -3.472      1.452      2.228
REMARK INTER + INTRA:          -9.310
REMARK INTER:                  -6.984
REMARK INTRA:                  -2.326
REMARK UNBOUND:                -2.589
REMARK SMILES CCCCCCCCCCCCCCCCCC(=O)[O-]
REMARK SMILES IDX 10 1 11 2 12 3 13 4 14 5 15 6 16 7 17 8 18 9 19 10 20 11
REMARK SMILES IDX 9 12 8 13 7 14 6 15 5 16 4 17 3 18 2 19 1 20
REMARK H PARENT
REMARK Flexibility Score: inf
ROOT
ATOM      1  C   UNL     1      21.045   3.234  23.908  1.00  0.00     0.000 C 
ENDROOT
BRANCH   1   2
ATOM      2  C   UNL     1      19.990   4.143  24.552  1.00  0.00     0.000 C 
BRANCH   2   3
ATOM      3  C   UNL     1      20.031   5.551  23.948  1.00  0.00     0.000 C 
BRANCH   3   4
ATOM      4  C   UNL     1      18.627   6.169  23.896  1.00  0.00     0.000 C 
BRANCH   4   5
ATOM      5  C   UNL     1      18.244   6.879  25.204  1.00  0.00     0.000 C 
BRANCH   5   6
ATOM      6  C   UNL     1      17.588   8.250  24.962  1.00  0.00     0.000 C 
BRANCH   6   7
ATOM      7  C   UNL     1      17.522   8.621  23.468  1.00  0.00     0.006 C 
BRANCH   7   8
ATOM      8  C   UNL     1      18.343   9.866  23.092  1.00  0.00     0.053 C 
BRANCH   8   9
ATOM      9  C   UNL     1      19.712   9.506  22.599  1.00  0.00     0.041 C 
ATOM     10  O   UNL     1      19.978   9.564  21.371  1.00  0.00    -0.550 OA
ATOM     11  O   UNL     1      20.701   9.137  23.503  1.00  0.00    -0.550 OA
ENDBRANCH   8   9
ENDBRANCH   7   8
ENDBRANCH   6   7
ENDBRANCH   5   6
ENDBRANCH   4   5
ENDBRANCH   3   4
ENDBRANCH   2   3
ENDBRANCH   1   2
BRANCH   1  12
ATOM     12  C   UNL     1      21.053   1.848  24.570  1.00  0.00     0.000 C 
BRANCH  12  13
ATOM     13  C   UNL     1      20.020   1.722  25.701  1.00  0.00    -0.000 C 
BRANCH  13  14
ATOM     14  C   UNL     1      20.674   1.648  27.093  1.00  0.00    -0.000 C 
BRANCH  14  15
ATOM     15  C   UNL     1      22.204   1.502  27.024  1.00  0.00    -0.000 C 
BRANCH  15  16
ATOM     16  C   UNL     1      22.999   2.618  27.729  1.00  0.00    -0.000 C 
BRANCH  16  17
ATOM     17  C   UNL     1      23.369   3.799  26.806  1.00  0.00    -0.000 C 
BRANCH  17  18
ATOM     18  C   UNL     1      23.260   5.154  27.523  1.00  0.00    -0.000 C 
BRANCH  18  19
ATOM     19  C   UNL     1      22.009   5.916  27.072  1.00  0.00    -0.003 C 
ATOM     20  C   UNL     1      20.786   5.494  27.879  1.00  0.00     0.004 C 
ENDBRANCH  18  19
ENDBRANCH  17  18
ENDBRANCH  16  17
ENDBRANCH  15  16
ENDBRANCH  14  15
ENDBRANCH  13  14
ENDBRANCH  12  13
ENDBRANCH   1  12
TORSDOF 16
ENDMDL
MODEL 6
REMARK VINA RESULT:    -3.448      1.286      3.224
REMARK INTER + INTRA:          -9.262
REMARK INTER:                  -6.456
REMARK INTRA:                  -2.806
REMARK UNBOUND:                -2.589
REMARK SMILES CCCCCCCCCCCCCCCCCC(=O)[O-]
REMARK SMILES IDX 10 1 11 2 12 3 13 4 14 5 15 6 16 7 17 8 18 9 19 10 20 11
REMARK SMILES IDX 9 12 8 13 7 14 6 15 5 16 4 17 3 18 2 19 1 20
REMARK H PARENT
REMARK Flexibility Score: inf
ROOT
ATOM      1  C   UNL     1      22.911   2.981  26.996  1.00  0.00     0.000 C 
ENDROOT
BRANCH   1   2
ATOM      2  C   UNL     1      22.573   4.242  27.801  1.00  0.00     0.000 C 
BRANCH   2   3
ATOM      3  C   UNL     1      22.853   5.509  26.985  1.00  0.00     0.000 C 
BRANCH   3   4
ATOM      4  C   UNL     1      22.120   6.720  27.580  1.00  0.00     0.000 C 
BRANCH   4   5
ATOM      5  C   UNL     1      21.515   7.634  26.503  1.00  0.00     0.000 C 
BRANCH   5   6
ATOM      6  C   UNL     1      19.982   7.730  26.603  1.00  0.00     0.000 C 
BRANCH   6   7
ATOM      7  C   UNL     1      19.339   8.318  25.333  1.00  0.00     0.006 C 
BRANCH   7   8
ATOM      8  C   UNL     1      20.308   8.463  24.147  1.00  0.00     0.053 C 
BRANCH   8   9
ATOM      9  C   UNL     1      19.757   9.359  23.080  1.00  0.00     0.041 C 
ATOM     10  O   UNL     1      20.304   9.406  21.948  1.00  0.00    -0.550 OA
ATOM     11  O   UNL     1      18.620  10.117  23.329  1.00  0.00    -0.550 OA
ENDBRANCH   8   9
ENDBRANCH   7   8
ENDBRANCH   6   7
ENDBRANCH   5   6
ENDBRANCH   4   5
ENDBRANCH   3   4
ENDBRANCH   2   3
ENDBRANCH   1   2
BRANCH   1  12
ATOM     12  C   UNL     1      23.036   3.302  25.500  1.00  0.00     0.000 C 
BRANCH  12  13
ATOM     13  C   UNL     1      22.235   2.334  24.614  1.00  0.00    -0.000 C 
BRANCH  13  14
ATOM     14  C   UNL     1      21.312   3.066  23.624  1.00  0.00    -0.000 C 
BRANCH  14  15
ATOM     15  C   UNL     1      20.843   4.434  24.147  1.00  0.00    -0.000 C 
BRANCH  15  16
ATOM     16  C   UNL     1      19.401   4.467  24.690  1.00  0.00    -0.000 C 
BRANCH  16  17
ATOM     17  C   UNL     1      19.303   4.259  26.216  1.00  0.00    -0.000 C 
BRANCH  17  18
ATOM     18  C   UNL     1      18.519   2.989  26.580  1.00  0.00    -0.000 C 
BRANCH  18  19
ATOM     19  C   UNL     1      19.451   1.907  27.137  1.00  0.00    -0.003 C 
ATOM     20  C   UNL     1      18.660   0.707  27.648  1.00  0.00     0.004 C 
ENDBRANCH  18  19
ENDBRANCH  17  18
ENDBRANCH  16  17
ENDBRANCH  15  16
ENDBRANCH  14  15
ENDBRANCH  13  14
ENDBRANCH  12  13
ENDBRANCH   1  12
TORSDOF 16
ENDMDL
MODEL 7
REMARK VINA RESULT:    -3.428      2.990      6.867
REMARK INTER + INTRA:          -9.223
REMARK INTER:                  -6.911
REMARK INTRA:                  -2.312
REMARK UNBOUND:                -2.589
REMARK SMILES CCCCCCCCCCCCCCCCCC(=O)[O-]
REMARK SMILES IDX 10 1 11 2 12 3 13 4 14 5 15 6 16 7 17 8 18 9 19 10 20 11
REMARK SMILES IDX 9 12 8 13 7 14 6 15 5 16 4 17 3 18 2 19 1 20
REMARK H PARENT
REMARK Flexibility Score: inf
ROOT
ATOM      1  C   UNL     1      19.535   4.201  24.560  1.00  0.00     0.000 C 
ENDROOT
BRANCH   1   2
ATOM      2  C   UNL     1      21.006   4.334  24.147  1.00  0.00     0.000 C 
BRANCH   2   3
ATOM      3  C   UNL     1      21.580   2.984  23.705  1.00  0.00     0.000 C 
BRANCH   3   4
ATOM      4  C   UNL     1      20.857   1.823  24.404  1.00  0.00     0.000 C 
BRANCH   4   5
ATOM      5  C   UNL     1      21.621   1.304  25.632  1.00  0.00     0.000 C 
BRANCH   5   6
ATOM      6  C   UNL     1      21.004   1.785  26.958  1.00  0.00     0.000 C 
BRANCH   6   7
ATOM      7  C   UNL     1      21.864   2.852  27.661  1.00  0.00     0.006 C 
BRANCH   7   8
ATOM      8  C   UNL     1      23.379   2.649  27.495  1.00  0.00     0.053 C 
BRANCH   8   9
ATOM      9  C   UNL     1      24.034   3.827  26.841  1.00  0.00     0.041 C 
ATOM     10  O   UNL     1      23.417   4.919  26.739  1.00  0.00    -0.550 OA
ATOM     11  O   UNL     1      25.339   3.726  26.375  1.00  0.00    -0.550 OA
ENDBRANCH   8   9
ENDBRANCH   7   8
ENDBRANCH   6   7
ENDBRANCH   5   6
ENDBRANCH   4   5
ENDBRANCH   3   4
ENDBRANCH   2   3
ENDBRANCH   1   2
BRANCH   1  12
ATOM     12  C   UNL     1      19.267   4.940  25.879  1.00  0.00     0.000 C 
BRANCH  12  13
ATOM     13  C   UNL     1      18.841   6.401  25.668  1.00  0.00    -0.000 C 
BRANCH  13  14
ATOM     14  C   UNL     1      19.923   7.402  26.113  1.00  0.00    -0.000 C 
BRANCH  14  15
ATOM     15  C   UNL     1      20.704   7.999  24.930  1.00  0.00    -0.000 C 
BRANCH  15  16
ATOM     16  C   UNL     1      19.992   7.913  23.567  1.00  0.00    -0.000 C 
BRANCH  16  17
ATOM     17  C   UNL     1      19.765   9.284  22.894  1.00  0.00    -0.000 C 
BRANCH  17  18
ATOM     18  C   UNL     1      18.273   9.637  22.783  1.00  0.00    -0.000 C 
BRANCH  18  19
ATOM     19  C   UNL     1      17.655   9.856  24.168  1.00  0.00    -0.003 C 
ATOM     20  C   UNL     1      16.461   8.934  24.391  1.00  0.00     0.004 C 
ENDBRANCH  18  19
ENDBRANCH  17  18
ENDBRANCH  16  17
ENDBRANCH  15  16
ENDBRANCH  14  15
ENDBRANCH  13  14
ENDBRANCH  12  13
ENDBRANCH   1  12
TORSDOF 16
ENDMDL
MODEL 8
REMARK VINA RESULT:    -3.403      1.414      3.581
REMARK INTER + INTRA:          -9.175
REMARK INTER:                  -6.572
REMARK INTRA:                  -2.603
REMARK UNBOUND:                -2.589
REMARK SMILES CCCCCCCCCCCCCCCCCC(=O)[O-]
REMARK SMILES IDX 10 1 11 2 12 3 13 4 14 5 15 6 16 7 17 8 18 9 19 10 20 11
REMARK SMILES IDX 9 12 8 13 7 14 6 15 5 16 4 17 3 18 2 19 1 20
REMARK H PARENT
REMARK Flexibility Score: inf
ROOT
ATOM      1  C   UNL     1      21.811   6.306  26.976  1.00  0.00     0.000 C 
ENDROOT
BRANCH   1   2
ATOM      2  C   UNL     1      20.541   5.904  26.216  1.00  0.00     0.000 C 
BRANCH   2   3
ATOM      3  C   UNL     1      20.777   5.915  24.702  1.00  0.00     0.000 C 
BRANCH   3   4
ATOM      4  C   UNL     1      19.446   5.953  23.937  1.00  0.00     0.000 C 
BRANCH   4   5
ATOM      5  C   UNL     1      18.265   6.371  24.826  1.00  0.00     0.000 C 
BRANCH   5   6
ATOM      6  C   UNL     1      17.527   7.609  24.285  1.00  0.00     0.000 C 
BRANCH   6   7
ATOM      7  C   UNL     1      18.288   8.920  24.557  1.00  0.00     0.006 C 
BRANCH   7   8
ATOM      8  C   UNL     1      18.533   9.778  23.304  1.00  0.00     0.053 C 
BRANCH   8   9
ATOM      9  C   UNL     1      19.885   9.526  22.710  1.00  0.00     0.041 C 
ATOM     10  O   UNL     1      20.868   9.275  23.454  1.00  0.00    -0.550 OA
ATOM     11  O   UNL     1      20.050   9.538  21.331  1.00  0.00    -0.550 OA
ENDBRANCH   8   9
ENDBRANCH   7   8
ENDBRANCH   6   7
ENDBRANCH   5   6
ENDBRANCH   4   5
ENDBRANCH   3   4
ENDBRANCH   2   3
ENDBRANCH   1   2
BRANCH   1  12
ATOM     12  C   UNL     1      22.533   5.069  27.531  1.00  0.00     0.000 C 
BRANCH  12  13
ATOM     13  C   UNL     1      23.954   4.907  26.969  1.00  0.00    -0.000 C 
BRANCH  13  14
ATOM     14  C   UNL     1      24.167   3.544  26.286  1.00  0.00    -0.000 C 
BRANCH  14  15
ATOM     15  C   UNL     1      22.851   2.783  26.053  1.00  0.00    -0.000 C 
BRANCH  15  16
ATOM     16  C   UNL     1      22.432   2.637  24.577  1.00  0.00    -0.000 C 
BRANCH  16  17
ATOM     17  C   UNL     1      20.977   2.158  24.386  1.00  0.00    -0.000 C 
BRANCH  17  18
ATOM     18  C   UNL     1      20.262   1.921  25.725  1.00  0.00    -0.000 C 
BRANCH  18  19
ATOM     19  C   UNL     1      18.965   2.734  25.808  1.00  0.00    -0.003 C 
ATOM     20  C   UNL     1      18.377   2.691  27.215  1.00  0.00     0.004 C 
ENDBRANCH  18  19
ENDBRANCH  17  18
ENDBRANCH  16  17
ENDBRANCH  15  16
ENDBRANCH  14  15
ENDBRANCH  13  14
ENDBRANCH  12  13
ENDBRANCH   1  12
TORSDOF 16
ENDMDL
MODEL 9
REMARK VINA RESULT:    -3.372      1.385      3.640
REMARK INTER + INTRA:          -9.115
REMARK INTER:                  -6.245
REMARK INTRA:                  -2.869
REMARK UNBOUND:                -2.589
REMARK SMILES CCCCCCCCCCCCCCCCCC(=O)[O-]
REMARK SMILES IDX 10 1 11 2 12 3 13 4 14 5 15 6 16 7 17 8 18 9 19 10 20 11
REMARK SMILES IDX 9 12 8 13 7 14 6 15 5 16 4 17 3 18 2 19 1 20
REMARK H PARENT
REMARK Flexibility Score: inf
ROOT
ATOM      1  C   UNL     1      21.270   1.105  24.619  1.00  0.00     0.000 C 
ENDROOT
BRANCH   1   2
ATOM      2  C   UNL     1      19.954   1.279  25.389  1.00  0.00     0.000 C 
BRANCH   2   3
ATOM      3  C   UNL     1      20.216   1.543  26.876  1.00  0.00     0.000 C 
BRANCH   3   4
ATOM      4  C   UNL     1      19.534   2.841  27.332  1.00  0.00     0.000 C 
BRANCH   4   5
ATOM      5  C   UNL     1      18.710   3.501  26.216  1.00  0.00     0.000 C 
BRANCH   5   6
ATOM      6  C   UNL     1      19.181   4.933  25.901  1.00  0.00     0.000 C 
BRANCH   6   7
ATOM      7  C   UNL     1      19.057   5.283  24.407  1.00  0.00     0.006 C 
BRANCH   7   8
ATOM      8  C   UNL     1      20.045   6.359  23.928  1.00  0.00     0.053 C 
BRANCH   8   9
ATOM      9  C   UNL     1      19.355   7.647  23.597  1.00  0.00     0.041 C 
ATOM     10  O   UNL     1      18.178   7.855  23.992  1.00  0.00    -0.550 OA
ATOM     11  O   UNL     1      20.024   8.630  22.879  1.00  0.00    -0.550 OA
ENDBRANCH   8   9
ENDBRANCH   7   8
ENDBRANCH   6   7
ENDBRANCH   5   6
ENDBRANCH   4   5
ENDBRANCH   3   4
ENDBRANCH   2   3
ENDBRANCH   1   2
BRANCH   1  12
ATOM     12  C   UNL     1      21.541   2.317  23.715  1.00  0.00     0.000 C 
BRANCH  12  13
ATOM     13  C   UNL     1      22.233   3.471  24.458  1.00  0.00    -0.000 C 
BRANCH  13  14
ATOM     14  C   UNL     1      23.558   3.041  25.112  1.00  0.00    -0.000 C 
BRANCH  14  15
ATOM     15  C   UNL     1      23.766   3.667  26.502  1.00  0.00    -0.000 C 
BRANCH  15  16
ATOM     16  C   UNL     1      22.615   4.566  26.992  1.00  0.00    -0.000 C 
BRANCH  16  17
ATOM     17  C   UNL     1      23.050   6.006  27.336  1.00  0.00    -0.000 C 
BRANCH  17  18
ATOM     18  C   UNL     1      21.852   6.915  27.656  1.00  0.00    -0.000 C 
BRANCH  18  19
ATOM     19  C   UNL     1      21.730   8.046  26.630  1.00  0.00    -0.003 C 
ATOM     20  C   UNL     1      20.767   9.127  27.112  1.00  0.00     0.004 C 
ENDBRANCH  18  19
ENDBRANCH  17  18
ENDBRANCH  16  17
ENDBRANCH  15  16
ENDBRANCH  14  15
ENDBRANCH  13  14
ENDBRANCH  12  13
ENDBRANCH   1  12
TORSDOF 16
ENDMDL
