MODEL 1
REMARK VINA RESULT:    -4.645      0.000      0.000
REMARK INTER + INTRA:          -5.374
REMARK INTER:                  -5.324
REMARK INTRA:                  -0.050
REMARK UNBOUND:                -0.050
REMARK SMILES O=C([O-])c1cc(O)c(O)c(O)c1
REMARK SMILES IDX 4 1 5 2 12 3 6 4 10 5 8 6 2 7 1 8 3 9 7 10 11 12 9 14
REMARK H PARENT 7 11 11 13 9 15
REMARK Flexibility Score: inf
ROOT
ATOM      1  C   UNL     1      73.132  38.811  20.583  1.00  0.00     0.005 A 
ATOM      2  C   UNL     1      74.189  39.206  19.748  1.00  0.00     0.060 A 
ATOM      3  C   UNL     1      73.048  39.349  21.876  1.00  0.00     0.060 A 
ATOM      4  C   UNL     1      75.146  40.123  20.194  1.00  0.00     0.162 A 
ATOM      5  C   UNL     1      73.998  40.267  22.338  1.00  0.00     0.162 A 
ATOM      6  C   UNL     1      75.061  40.662  21.491  1.00  0.00     0.200 A 
ENDROOT
BRANCH   1   7
ATOM      7  C   UNL     1      72.119  37.841  20.109  1.00  0.00     0.072 C 
ATOM      8  O   UNL     1      70.916  37.941  20.471  1.00  0.00    -0.545 OA
ATOM      9  O   UNL     1      72.483  36.804  19.257  1.00  0.00    -0.545 OA
ENDBRANCH   1   7
BRANCH   4  10
ATOM     10  O   UNL     1      76.178  40.486  19.329  1.00  0.00    -0.504 OA
ATOM     11  H   UNL     1      76.043  41.144  18.570  1.00  0.00     0.293 HD
ENDBRANCH   4  10
BRANCH   5  12
ATOM     12  O   UNL     1      73.846  40.758  23.636  1.00  0.00    -0.504 OA
ATOM     13  H   UNL     1      74.448  41.452  24.055  1.00  0.00     0.293 HD
ENDBRANCH   5  12
BRANCH   6  14
ATOM     14  O   UNL     1      76.038  41.575  21.896  1.00  0.00    -0.502 OA
ATOM     15  H   UNL     1      76.456  42.266  21.290  1.00  0.00     0.293 HD
ENDBRANCH   6  14
TORSDOF 4
ENDMDL
MODEL 2
REMARK VINA RESULT:    -4.612      0.102      2.447
REMARK INTER + INTRA:          -5.336
REMARK INTER:                  -5.287
REMARK INTRA:                  -0.050
REMARK UNBOUND:                -0.050
REMARK SMILES O=C([O-])c1cc(O)c(O)c(O)c1
REMARK SMILES IDX 4 1 5 2 12 3 6 4 10 5 8 6 2 7 1 8 3 9 7 10 11 12 9 14
REMARK H PARENT 7 11 11 13 9 15
REMARK Flexibility Score: inf
ROOT
ATOM      1  C   UNL     1      73.132  38.896  20.541  1.00  0.00     0.005 A 
ATOM      2  C   UNL     1      73.042  39.403  21.847  1.00  0.00     0.060 A 
ATOM      3  C   UNL     1      74.201  39.298  19.726  1.00  0.00     0.060 A 
ATOM      4  C   UNL     1      74.001  40.297  22.332  1.00  0.00     0.162 A 
ATOM      5  C   UNL     1      75.169  40.193  20.197  1.00  0.00     0.162 A 
ATOM      6  C   UNL     1      75.072  40.701  21.515  1.00  0.00     0.200 A 
ENDROOT
BRANCH   1   7
ATOM      7  C   UNL     1      72.116  37.949  20.028  1.00  0.00     0.072 C 
ATOM      8  O   UNL     1      70.903  38.075  20.347  1.00  0.00    -0.545 OA
ATOM      9  O   UNL     1      72.487  36.906  19.186  1.00  0.00    -0.545 OA
ENDBRANCH   1   7
BRANCH   4  10
ATOM     10  O   UNL     1      73.870  40.775  23.636  1.00  0.00    -0.504 OA
ATOM     11  H   UNL     1      74.126  40.221  24.445  1.00  0.00     0.293 HD
ENDBRANCH   4  10
BRANCH   5  12
ATOM     12  O   UNL     1      76.203  40.545  19.327  1.00  0.00    -0.504 OA
ATOM     13  H   UNL     1      77.178  40.347  19.495  1.00  0.00     0.293 HD
ENDBRANCH   5  12
BRANCH   6  14
ATOM     14  O   UNL     1      76.009  41.595  22.040  1.00  0.00    -0.502 OA
ATOM     15  H   UNL     1      75.810  42.558  22.267  1.00  0.00     0.293 HD
ENDBRANCH   6  14
TORSDOF 4
ENDMDL
MODEL 3
REMARK VINA RESULT:    -4.414      1.105      2.772
REMARK INTER + INTRA:          -5.109
REMARK INTER:                  -5.060
REMARK INTRA:                  -0.050
REMARK UNBOUND:                -0.050
REMARK SMILES O=C([O-])c1cc(O)c(O)c(O)c1
REMARK SMILES IDX 4 1 5 2 12 3 6 4 10 5 8 6 2 7 1 8 3 9 7 10 11 12 9 14
REMARK H PARENT 7 11 11 13 9 15
REMARK Flexibility Score: inf
ROOT
ATOM      1  C   UNL     1      72.791  38.979  20.449  1.00  0.00     0.005 A 
ATOM      2  C   UNL     1      71.981  39.493  21.474  1.00  0.00     0.060 A 
ATOM      3  C   UNL     1      74.145  39.345  20.403  1.00  0.00     0.060 A 
ATOM      4  C   UNL     1      72.511  40.356  22.437  1.00  0.00     0.162 A 
ATOM      5  C   UNL     1      74.691  40.209  21.360  1.00  0.00     0.162 A 
ATOM      6  C   UNL     1      73.869  40.724  22.391  1.00  0.00     0.200 A 
ENDROOT
BRANCH   1   7
ATOM      7  C   UNL     1      72.229  38.064  19.431  1.00  0.00     0.072 C 
ATOM      8  O   UNL     1      72.927  37.131  18.950  1.00  0.00    -0.545 OA
ATOM      9  O   UNL     1      70.920  38.222  18.989  1.00  0.00    -0.545 OA
ENDBRANCH   1   7
BRANCH   4  10
ATOM     10  O   UNL     1      71.668  40.842  23.437  1.00  0.00    -0.504 OA
ATOM     11  H   UNL     1      71.125  41.690  23.323  1.00  0.00     0.293 HD
ENDBRANCH   4  10
BRANCH   5  12
ATOM     12  O   UNL     1      76.047  40.526  21.247  1.00  0.00    -0.504 OA
ATOM     13  H   UNL     1      76.798  39.877  21.427  1.00  0.00     0.293 HD
ENDBRANCH   5  12
BRANCH   6  14
ATOM     14  O   UNL     1      74.358  41.589  23.373  1.00  0.00    -0.502 OA
ATOM     15  H   UNL     1      74.460  42.585  23.252  1.00  0.00     0.293 HD
ENDBRANCH   6  14
TORSDOF 4
ENDMDL
MODEL 4
REMARK VINA RESULT:    -4.081      2.115      2.766
REMARK INTER + INTRA:          -4.727
REMARK INTER:                  -4.674
REMARK INTRA:                  -0.053
REMARK UNBOUND:                -0.050
REMARK SMILES O=C([O-])c1cc(O)c(O)c(O)c1
REMARK SMILES IDX 4 1 5 2 12 3 6 4 10 5 8 6 2 7 1 8 3 9 7 10 11 12 9 14
REMARK H PARENT 7 11 11 13 9 15
REMARK Flexibility Score: inf
ROOT
ATOM      1  C   UNL     1      72.212  39.549  20.823  1.00  0.00     0.005 A 
ATOM      2  C   UNL     1      73.124  39.370  21.876  1.00  0.00     0.060 A 
ATOM      3  C   UNL     1      71.646  40.816  20.621  1.00  0.00     0.060 A 
ATOM      4  C   UNL     1      73.466  40.437  22.712  1.00  0.00     0.162 A 
ATOM      5  C   UNL     1      71.976  41.895  21.451  1.00  0.00     0.162 A 
ATOM      6  C   UNL     1      72.897  41.707  22.510  1.00  0.00     0.200 A 
ENDROOT
BRANCH   1   7
ATOM      7  C   UNL     1      71.852  38.419  19.938  1.00  0.00     0.072 C 
ATOM      8  O   UNL     1      70.953  38.550  19.064  1.00  0.00    -0.545 OA
ATOM      9  O   UNL     1      72.502  37.195  20.058  1.00  0.00    -0.545 OA
ENDBRANCH   1   7
BRANCH   4  10
ATOM     10  O   UNL     1      74.376  40.212  23.745  1.00  0.00    -0.504 OA
ATOM     11  H   UNL     1      75.114  40.869  23.969  1.00  0.00     0.293 HD
ENDBRANCH   4  10
BRANCH   5  12
ATOM     12  O   UNL     1      71.371  43.125  21.186  1.00  0.00    -0.504 OA
ATOM     13  H   UNL     1      71.869  43.949  20.883  1.00  0.00     0.293 HD
ENDBRANCH   5  12
BRANCH   6  14
ATOM     14  O   UNL     1      73.266  42.746  23.369  1.00  0.00    -0.502 OA
ATOM     15  H   UNL     1      72.888  42.879  24.295  1.00  0.00     0.293 HD
ENDBRANCH   6  14
TORSDOF 4
ENDMDL
MODEL 5
REMARK VINA RESULT:    -4.006      2.721      4.108
REMARK INTER + INTRA:          -4.641
REMARK INTER:                  -4.596
REMARK INTRA:                  -0.045
REMARK UNBOUND:                -0.050
REMARK SMILES O=C([O-])c1cc(O)c(O)c(O)c1
REMARK SMILES IDX 4 1 5 2 12 3 6 4 10 5 8 6 2 7 1 8 3 9 7 10 11 12 9 14
REMARK H PARENT 7 11 11 13 9 15
REMARK Flexibility Score: inf
ROOT
ATOM      1  C   UNL     1      72.002  41.865  22.739  1.00  0.00     0.005 A 
ATOM      2  C   UNL     1      73.193  42.565  22.990  1.00  0.00     0.060 A 
ATOM      3  C   UNL     1      72.073  40.540  22.284  1.00  0.00     0.060 A 
ATOM      4  C   UNL     1      74.434  41.954  22.790  1.00  0.00     0.162 A 
ATOM      5  C   UNL     1      73.309  39.914  22.079  1.00  0.00     0.162 A 
ATOM      6  C   UNL     1      74.506  40.625  22.334  1.00  0.00     0.200 A 
ENDROOT
BRANCH   1   7
ATOM      7  C   UNL     1      70.688  42.513  22.951  1.00  0.00     0.072 C 
ATOM      8  O   UNL     1      70.270  42.751  24.116  1.00  0.00    -0.545 OA
ATOM      9  O   UNL     1      69.896  42.870  21.865  1.00  0.00    -0.545 OA
ENDBRANCH   1   7
BRANCH   4  10
ATOM     10  O   UNL     1      75.591  42.688  23.053  1.00  0.00    -0.504 OA
ATOM     11  H   UNL     1      75.641  43.690  22.908  1.00  0.00     0.293 HD
ENDBRANCH   4  10
BRANCH   5  12
ATOM     12  O   UNL     1      73.298  38.593  21.625  1.00  0.00    -0.504 OA
ATOM     13  H   UNL     1      73.329  37.786  22.229  1.00  0.00     0.293 HD
ENDBRANCH   5  12
BRANCH   6  14
ATOM     14  O   UNL     1      75.767  40.053  22.149  1.00  0.00    -0.502 OA
ATOM     15  H   UNL     1      76.083  39.213  22.611  1.00  0.00     0.293 HD
ENDBRANCH   6  14
TORSDOF 4
ENDMDL
MODEL 6
REMARK VINA RESULT:    -3.998      2.714      4.013
REMARK INTER + INTRA:          -4.632
REMARK INTER:                  -4.587
REMARK INTRA:                  -0.045
REMARK UNBOUND:                -0.050
REMARK SMILES O=C([O-])c1cc(O)c(O)c(O)c1
REMARK SMILES IDX 4 1 5 2 12 3 6 4 10 5 8 6 2 7 1 8 3 9 7 10 11 12 9 14
REMARK H PARENT 7 11 11 13 9 15
REMARK Flexibility Score: inf
ROOT
ATOM      1  C   UNL     1      71.977  41.807  22.717  1.00  0.00     0.005 A 
ATOM      2  C   UNL     1      72.058  40.487  22.245  1.00  0.00     0.060 A 
ATOM      3  C   UNL     1      73.163  42.510  22.980  1.00  0.00     0.060 A 
ATOM      4  C   UNL     1      73.299  39.878  22.040  1.00  0.00     0.162 A 
ATOM      5  C   UNL     1      74.413  41.914  22.781  1.00  0.00     0.162 A 
ATOM      6  C   UNL     1      74.487  40.582  22.305  1.00  0.00     0.200 A 
ENDROOT
BRANCH   1   7
ATOM      7  C   UNL     1      70.662  42.451  22.933  1.00  0.00     0.072 C 
ATOM      8  O   UNL     1      70.233  42.658  24.100  1.00  0.00    -0.545 OA
ATOM      9  O   UNL     1      69.881  42.839  21.850  1.00  0.00    -0.545 OA
ENDBRANCH   1   7
BRANCH   4  10
ATOM     10  O   UNL     1      73.330  38.564  21.571  1.00  0.00    -0.504 OA
ATOM     11  H   UNL     1      72.859  38.283  20.719  1.00  0.00     0.293 HD
ENDBRANCH   4  10
BRANCH   5  12
ATOM     12  O   UNL     1      75.547  42.678  23.065  1.00  0.00    -0.504 OA
ATOM     13  H   UNL     1      76.447  42.541  22.629  1.00  0.00     0.293 HD
ENDBRANCH   5  12
BRANCH   6  14
ATOM     14  O   UNL     1      75.707  39.936  22.085  1.00  0.00    -0.502 OA
ATOM     15  H   UNL     1      76.018  39.602  21.186  1.00  0.00     0.293 HD
ENDBRANCH   6  14
TORSDOF 4
ENDMDL
MODEL 7
REMARK VINA RESULT:    -3.866      1.207      4.641
REMARK INTER + INTRA:          -4.481
REMARK INTER:                  -4.435
REMARK INTRA:                  -0.046
REMARK UNBOUND:                -0.050
REMARK SMILES O=C([O-])c1cc(O)c(O)c(O)c1
REMARK SMILES IDX 4 1 5 2 12 3 6 4 10 5 8 6 2 7 1 8 3 9 7 10 11 12 9 14
REMARK H PARENT 7 11 11 13 9 15
REMARK Flexibility Score: inf
ROOT
ATOM      1  C   UNL     1      74.427  40.538  21.982  1.00  0.00     0.005 A 
ATOM      2  C   UNL     1      73.206  39.846  22.021  1.00  0.00     0.060 A 
ATOM      3  C   UNL     1      75.310  40.301  20.917  1.00  0.00     0.060 A 
ATOM      4  C   UNL     1      72.870  38.934  21.016  1.00  0.00     0.162 A 
ATOM      5  C   UNL     1      74.988  39.391  19.903  1.00  0.00     0.162 A 
ATOM      6  C   UNL     1      73.755  38.697  19.949  1.00  0.00     0.200 A 
ENDROOT
BRANCH   1   7
ATOM      7  C   UNL     1      74.781  41.503  23.047  1.00  0.00     0.072 C 
ATOM      8  O   UNL     1      75.780  41.302  23.789  1.00  0.00    -0.545 OA
ATOM      9  O   UNL     1      74.016  42.647  23.243  1.00  0.00    -0.545 OA
ENDBRANCH   1   7
BRANCH   4  10
ATOM     10  O   UNL     1      71.645  38.271  21.097  1.00  0.00    -0.504 OA
ATOM     11  H   UNL     1      70.825  38.585  20.594  1.00  0.00     0.293 HD
ENDBRANCH   4  10
BRANCH   5  12
ATOM     12  O   UNL     1      75.918  39.210  18.877  1.00  0.00    -0.504 OA
ATOM     13  H   UNL     1      76.836  39.629  18.862  1.00  0.00     0.293 HD
ENDBRANCH   5  12
BRANCH   6  14
ATOM     14  O   UNL     1      73.380  37.778  18.965  1.00  0.00    -0.502 OA
ATOM     15  H   UNL     1      73.925  37.574  18.142  1.00  0.00     0.293 HD
ENDBRANCH   6  14
TORSDOF 4
ENDMDL
MODEL 8
REMARK VINA RESULT:    -3.780      1.573      3.630
REMARK INTER + INTRA:          -4.383
REMARK INTER:                  -4.330
REMARK INTRA:                  -0.052
REMARK UNBOUND:                -0.050
REMARK SMILES O=C([O-])c1cc(O)c(O)c(O)c1
REMARK SMILES IDX 4 1 5 2 12 3 6 4 10 5 8 6 2 7 1 8 3 9 7 10 11 12 9 14
REMARK H PARENT 7 11 11 13 9 15
REMARK Flexibility Score: inf
ROOT
ATOM      1  C   UNL     1      73.160  40.971  21.908  1.00  0.00     0.005 A 
ATOM      2  C   UNL     1      74.460  41.474  21.740  1.00  0.00     0.060 A 
ATOM      3  C   UNL     1      72.766  39.843  21.172  1.00  0.00     0.060 A 
ATOM      4  C   UNL     1      75.352  40.862  20.855  1.00  0.00     0.162 A 
ATOM      5  C   UNL     1      73.647  39.220  20.281  1.00  0.00     0.162 A 
ATOM      6  C   UNL     1      74.957  39.732  20.117  1.00  0.00     0.200 A 
ENDROOT
BRANCH   1   7
ATOM      7  C   UNL     1      72.216  41.620  22.846  1.00  0.00     0.072 C 
ATOM      8  O   UNL     1      71.159  41.033  23.200  1.00  0.00    -0.545 OA
ATOM      9  O   UNL     1      72.484  42.888  23.350  1.00  0.00    -0.545 OA
ENDBRANCH   1   7
BRANCH   4  10
ATOM     10  O   UNL     1      76.634  41.397  20.721  1.00  0.00    -0.504 OA
ATOM     11  H   UNL     1      76.796  42.387  20.577  1.00  0.00     0.293 HD
ENDBRANCH   4  10
BRANCH   5  12
ATOM     12  O   UNL     1      73.181  38.101  19.586  1.00  0.00    -0.504 OA
ATOM     13  H   UNL     1      72.698  37.327  20.016  1.00  0.00     0.293 HD
ENDBRANCH   5  12
BRANCH   6  14
ATOM     14  O   UNL     1      75.880  39.151  19.244  1.00  0.00    -0.502 OA
ATOM     15  H   UNL     1      75.648  38.788  18.331  1.00  0.00     0.293 HD
ENDBRANCH   6  14
TORSDOF 4
ENDMDL
MODEL 9
REMARK VINA RESULT:    -3.716      1.271      4.194
REMARK INTER + INTRA:          -4.309
REMARK INTER:                  -4.257
REMARK INTRA:                  -0.052
REMARK UNBOUND:                -0.050
REMARK SMILES O=C([O-])c1cc(O)c(O)c(O)c1
REMARK SMILES IDX 4 1 5 2 12 3 6 4 10 5 8 6 2 7 1 8 3 9 7 10 11 12 9 14
REMARK H PARENT 7 11 11 13 9 15
REMARK Flexibility Score: inf
ROOT
ATOM      1  C   UNL     1      75.160  40.911  20.498  1.00  0.00     0.005 A 
ATOM      2  C   UNL     1      74.968  39.857  19.590  1.00  0.00     0.060 A 
ATOM      3  C   UNL     1      74.331  40.998  21.626  1.00  0.00     0.060 A 
ATOM      4  C   UNL     1      73.967  38.906  19.804  1.00  0.00     0.162 A 
ATOM      5  C   UNL     1      73.323  40.053  21.854  1.00  0.00     0.162 A 
ATOM      6  C   UNL     1      73.135  38.992  20.935  1.00  0.00     0.200 A 
ENDROOT
BRANCH   1   7
ATOM      7  C   UNL     1      76.220  41.918  20.270  1.00  0.00     0.072 C 
ATOM      8  O   UNL     1      76.781  42.016  19.146  1.00  0.00    -0.545 OA
ATOM      9  O   UNL     1      76.613  42.771  21.296  1.00  0.00    -0.545 OA
ENDBRANCH   1   7
BRANCH   4  10
ATOM     10  O   UNL     1      73.813  37.876  18.875  1.00  0.00    -0.504 OA
ATOM     11  H   UNL     1      73.228  37.971  18.053  1.00  0.00     0.293 HD
ENDBRANCH   4  10
BRANCH   5  12
ATOM     12  O   UNL     1      72.540  40.206  23.000  1.00  0.00    -0.504 OA
ATOM     13  H   UNL     1      71.667  39.725  23.159  1.00  0.00     0.293 HD
ENDBRANCH   5  12
BRANCH   6  14
ATOM     14  O   UNL     1      72.147  38.020  21.111  1.00  0.00    -0.502 OA
ATOM     15  H   UNL     1      71.988  37.251  20.477  1.00  0.00     0.293 HD
ENDBRANCH   6  14
TORSDOF 4
ENDMDL
