MODEL 1
REMARK VINA RESULT:    -4.470      0.000      0.000
REMARK INTER + INTRA:          -5.032
REMARK INTER:                  -4.993
REMARK INTRA:                  -0.039
REMARK UNBOUND:                -0.039
REMARK SMILES O=C([O-])c1ccc(O)c(O)c1
REMARK SMILES IDX 4 1 11 2 5 3 9 4 6 5 7 6 2 7 1 8 3 9 10 10 8 12
REMARK H PARENT 10 11 8 13
REMARK Flexibility Score: inf
ROOT
ATOM      1  C   UNL     1     -45.024 -52.378  11.182  1.00  0.00     0.001 A 
ATOM      2  C   UNL     1     -45.032 -52.808   9.844  1.00  0.00     0.060 A 
ATOM      3  C   UNL     1     -45.629 -51.151  11.509  1.00  0.00     0.014 A 
ATOM      4  C   UNL     1     -45.632 -52.028   8.847  1.00  0.00     0.158 A 
ATOM      5  C   UNL     1     -46.229 -50.371  10.516  1.00  0.00     0.051 A 
ATOM      6  C   UNL     1     -46.234 -50.804   9.184  1.00  0.00     0.157 A 
ENDROOT
BRANCH   1   7
ATOM      7  C   UNL     1     -44.388 -53.207  12.230  1.00  0.00     0.072 C 
ATOM      8  O   UNL     1     -43.234 -53.683  12.057  1.00  0.00    -0.545 OA
ATOM      9  O   UNL     1     -45.056 -53.474  13.419  1.00  0.00    -0.545 OA
ENDBRANCH   1   7
BRANCH   4  10
ATOM     10  O   UNL     1     -45.621 -52.487   7.530  1.00  0.00    -0.504 OA
ATOM     11  H   UNL     1     -45.401 -51.878   6.750  1.00  0.00     0.293 HD
ENDBRANCH   4  10
BRANCH   6  12
ATOM     12  O   UNL     1     -46.833 -50.024   8.196  1.00  0.00    -0.504 OA
ATOM     13  H   UNL     1     -46.964 -49.026   8.315  1.00  0.00     0.293 HD
ENDBRANCH   6  12
TORSDOF 3
ENDMDL
MODEL 2
REMARK VINA RESULT:    -4.303      1.786      4.369
REMARK INTER + INTRA:          -4.845
REMARK INTER:                  -4.808
REMARK INTRA:                  -0.037
REMARK UNBOUND:                -0.039
REMARK SMILES O=C([O-])c1ccc(O)c(O)c1
REMARK SMILES IDX 4 1 11 2 5 3 9 4 6 5 7 6 2 7 1 8 3 9 10 10 8 12
REMARK H PARENT 10 11 8 13
REMARK Flexibility Score: inf
ROOT
ATOM      1  C   UNL     1     -44.801 -51.176  10.866  1.00  0.00     0.001 A 
ATOM      2  C   UNL     1     -45.184 -52.254  11.681  1.00  0.00     0.060 A 
ATOM      3  C   UNL     1     -43.548 -51.212  10.229  1.00  0.00     0.014 A 
ATOM      4  C   UNL     1     -44.333 -53.352  11.861  1.00  0.00     0.158 A 
ATOM      5  C   UNL     1     -42.696 -52.306  10.406  1.00  0.00     0.051 A 
ATOM      6  C   UNL     1     -43.083 -53.379  11.220  1.00  0.00     0.157 A 
ENDROOT
BRANCH   1   7
ATOM      7  C   UNL     1     -45.707 -50.019  10.682  1.00  0.00     0.072 C 
ATOM      8  O   UNL     1     -46.278 -49.823   9.577  1.00  0.00    -0.545 OA
ATOM      9  O   UNL     1     -45.938 -49.133  11.728  1.00  0.00    -0.545 OA
ENDBRANCH   1   7
BRANCH   4  10
ATOM     10  O   UNL     1     -44.747 -54.404  12.676  1.00  0.00    -0.504 OA
ATOM     11  H   UNL     1     -44.226 -55.270  12.743  1.00  0.00     0.293 HD
ENDBRANCH   4  10
BRANCH   6  12
ATOM     12  O   UNL     1     -42.231 -54.469  11.394  1.00  0.00    -0.504 OA
ATOM     13  H   UNL     1     -41.270 -54.447  11.073  1.00  0.00     0.293 HD
ENDBRANCH   6  12
TORSDOF 3
ENDMDL
MODEL 3
REMARK VINA RESULT:    -4.267      1.454      4.015
REMARK INTER + INTRA:          -4.805
REMARK INTER:                  -4.762
REMARK INTRA:                  -0.043
REMARK UNBOUND:                -0.039
REMARK SMILES O=C([O-])c1ccc(O)c(O)c1
REMARK SMILES IDX 4 1 11 2 5 3 9 4 6 5 7 6 2 7 1 8 3 9 10 10 8 12
REMARK H PARENT 10 11 8 13
REMARK Flexibility Score: inf
ROOT
ATOM      1  C   UNL     1     -45.603 -50.911  10.148  1.00  0.00     0.001 A 
ATOM      2  C   UNL     1     -45.087 -52.042   9.493  1.00  0.00     0.060 A 
ATOM      3  C   UNL     1     -45.839 -50.972  11.533  1.00  0.00     0.014 A 
ATOM      4  C   UNL     1     -44.811 -53.216  10.205  1.00  0.00     0.158 A 
ATOM      5  C   UNL     1     -45.565 -52.143  12.246  1.00  0.00     0.051 A 
ATOM      6  C   UNL     1     -45.051 -53.267  11.588  1.00  0.00     0.157 A 
ENDROOT
BRANCH   1   7
ATOM      7  C   UNL     1     -45.893 -49.674   9.388  1.00  0.00     0.072 C 
ATOM      8  O   UNL     1     -46.115 -49.721   8.149  1.00  0.00    -0.545 OA
ATOM      9  O   UNL     1     -45.922 -48.443  10.032  1.00  0.00    -0.545 OA
ENDBRANCH   1   7
BRANCH   4  10
ATOM     10  O   UNL     1     -44.299 -54.318   9.521  1.00  0.00    -0.504 OA
ATOM     11  H   UNL     1     -44.711 -55.241   9.602  1.00  0.00     0.293 HD
ENDBRANCH   4  10
BRANCH   6  12
ATOM     12  O   UNL     1     -44.777 -54.433  12.303  1.00  0.00    -0.504 OA
ATOM     13  H   UNL     1     -44.562 -55.304  11.834  1.00  0.00     0.293 HD
ENDBRANCH   6  12
TORSDOF 3
ENDMDL
MODEL 4
REMARK VINA RESULT:    -4.261      6.154      7.923
REMARK INTER + INTRA:          -4.799
REMARK INTER:                  -4.763
REMARK INTRA:                  -0.036
REMARK UNBOUND:                -0.039
REMARK SMILES O=C([O-])c1ccc(O)c(O)c1
REMARK SMILES IDX 4 1 11 2 5 3 9 4 6 5 7 6 2 7 1 8 3 9 10 10 8 12
REMARK H PARENT 10 11 8 13
REMARK Flexibility Score: inf
ROOT
ATOM      1  C   UNL     1     -46.389 -45.751  12.512  1.00  0.00     0.001 A 
ATOM      2  C   UNL     1     -45.956 -46.692  13.463  1.00  0.00     0.060 A 
ATOM      3  C   UNL     1     -47.445 -44.883  12.843  1.00  0.00     0.014 A 
ATOM      4  C   UNL     1     -46.564 -46.767  14.722  1.00  0.00     0.158 A 
ATOM      5  C   UNL     1     -48.054 -44.956  14.099  1.00  0.00     0.051 A 
ATOM      6  C   UNL     1     -47.618 -45.895  15.043  1.00  0.00     0.157 A 
ENDROOT
BRANCH   1   7
ATOM      7  C   UNL     1     -45.741 -45.678  11.184  1.00  0.00     0.072 C 
ATOM      8  O   UNL     1     -46.125 -46.422  10.242  1.00  0.00    -0.545 OA
ATOM      9  O   UNL     1     -44.698 -44.787  10.957  1.00  0.00    -0.545 OA
ENDBRANCH   1   7
BRANCH   4  10
ATOM     10  O   UNL     1     -46.107 -47.713  15.639  1.00  0.00    -0.504 OA
ATOM     11  H   UNL     1     -46.375 -48.688  15.584  1.00  0.00     0.293 HD
ENDBRANCH   4  10
BRANCH   6  12
ATOM     12  O   UNL     1     -48.228 -45.965  16.295  1.00  0.00    -0.504 OA
ATOM     13  H   UNL     1     -47.747 -46.353  17.097  1.00  0.00     0.293 HD
ENDBRANCH   6  12
TORSDOF 3
ENDMDL
MODEL 5
REMARK VINA RESULT:    -4.207      1.503      4.337
REMARK INTER + INTRA:          -4.738
REMARK INTER:                  -4.697
REMARK INTRA:                  -0.041
REMARK UNBOUND:                -0.039
REMARK SMILES O=C([O-])c1ccc(O)c(O)c1
REMARK SMILES IDX 4 1 11 2 5 3 9 4 6 5 7 6 2 7 1 8 3 9 10 10 8 12
REMARK H PARENT 10 11 8 13
REMARK Flexibility Score: inf
ROOT
ATOM      1  C   UNL     1     -44.632 -51.425  10.307  1.00  0.00     0.001 A 
ATOM      2  C   UNL     1     -43.641 -52.417  10.393  1.00  0.00     0.060 A 
ATOM      3  C   UNL     1     -45.614 -51.351  11.310  1.00  0.00     0.014 A 
ATOM      4  C   UNL     1     -43.628 -53.323  11.461  1.00  0.00     0.158 A 
ATOM      5  C   UNL     1     -45.604 -52.253  12.378  1.00  0.00     0.051 A 
ATOM      6  C   UNL     1     -44.614 -53.241  12.459  1.00  0.00     0.157 A 
ENDROOT
BRANCH   1   7
ATOM      7  C   UNL     1     -44.639 -50.471   9.174  1.00  0.00     0.072 C 
ATOM      8  O   UNL     1     -45.727 -50.075   8.677  1.00  0.00    -0.545 OA
ATOM      9  O   UNL     1     -43.444 -50.001   8.642  1.00  0.00    -0.545 OA
ENDBRANCH   1   7
BRANCH   4  10
ATOM     10  O   UNL     1     -42.629 -54.294  11.513  1.00  0.00    -0.504 OA
ATOM     11  H   UNL     1     -42.420 -54.805  12.362  1.00  0.00     0.293 HD
ENDBRANCH   4  10
BRANCH   6  12
ATOM     12  O   UNL     1     -44.606 -54.139  13.525  1.00  0.00    -0.504 OA
ATOM     13  H   UNL     1     -43.985 -54.017  14.316  1.00  0.00     0.293 HD
ENDBRANCH   6  12
TORSDOF 3
ENDMDL
MODEL 6
REMARK VINA RESULT:    -4.157      7.900      9.671
REMARK INTER + INTRA:          -4.682
REMARK INTER:                  -4.642
REMARK INTRA:                  -0.040
REMARK UNBOUND:                -0.039
REMARK SMILES O=C([O-])c1ccc(O)c(O)c1
REMARK SMILES IDX 4 1 11 2 5 3 9 4 6 5 7 6 2 7 1 8 3 9 10 10 8 12
REMARK H PARENT 10 11 8 13
REMARK Flexibility Score: inf
ROOT
ATOM      1  C   UNL     1     -46.793 -44.195  13.534  1.00  0.00     0.001 A 
ATOM      2  C   UNL     1     -47.638 -45.147  14.130  1.00  0.00     0.060 A 
ATOM      3  C   UNL     1     -46.170 -43.231  14.347  1.00  0.00     0.014 A 
ATOM      4  C   UNL     1     -47.861 -45.139  15.513  1.00  0.00     0.158 A 
ATOM      5  C   UNL     1     -46.391 -43.220  15.727  1.00  0.00     0.051 A 
ATOM      6  C   UNL     1     -47.234 -44.171  16.316  1.00  0.00     0.157 A 
ENDROOT
BRANCH   1   7
ATOM      7  C   UNL     1     -46.563 -44.211  12.072  1.00  0.00     0.072 C 
ATOM      8  O   UNL     1     -46.554 -43.137  11.414  1.00  0.00    -0.545 OA
ATOM      9  O   UNL     1     -46.356 -45.413  11.405  1.00  0.00    -0.545 OA
ENDBRANCH   1   7
BRANCH   4  10
ATOM     10  O   UNL     1     -48.705 -46.098  16.069  1.00  0.00    -0.504 OA
ATOM     11  H   UNL     1     -49.555 -46.400  15.607  1.00  0.00     0.293 HD
ENDBRANCH   4  10
BRANCH   6  12
ATOM     12  O   UNL     1     -47.451 -44.157  17.693  1.00  0.00    -0.504 OA
ATOM     13  H   UNL     1     -47.205 -44.948  18.276  1.00  0.00     0.293 HD
ENDBRANCH   6  12
TORSDOF 3
ENDMDL
MODEL 7
REMARK VINA RESULT:    -4.154      1.841      3.950
REMARK INTER + INTRA:          -4.679
REMARK INTER:                  -4.636
REMARK INTRA:                  -0.043
REMARK UNBOUND:                -0.039
REMARK SMILES O=C([O-])c1ccc(O)c(O)c1
REMARK SMILES IDX 4 1 11 2 5 3 9 4 6 5 7 6 2 7 1 8 3 9 10 10 8 12
REMARK H PARENT 10 11 8 13
REMARK Flexibility Score: inf
ROOT
ATOM      1  C   UNL     1     -45.658 -50.929  10.335  1.00  0.00     0.001 A 
ATOM      2  C   UNL     1     -45.244 -51.881  11.282  1.00  0.00     0.060 A 
ATOM      3  C   UNL     1     -45.921 -51.344   9.018  1.00  0.00     0.014 A 
ATOM      4  C   UNL     1     -45.093 -53.226  10.923  1.00  0.00     0.158 A 
ATOM      5  C   UNL     1     -45.771 -52.686   8.656  1.00  0.00     0.051 A 
ATOM      6  C   UNL     1     -45.358 -53.632   9.604  1.00  0.00     0.157 A 
ENDROOT
BRANCH   1   7
ATOM      7  C   UNL     1     -45.815 -49.509  10.723  1.00  0.00     0.072 C 
ATOM      8  O   UNL     1     -45.974 -49.188  11.931  1.00  0.00    -0.545 OA
ATOM      9  O   UNL     1     -45.791 -48.509   9.757  1.00  0.00    -0.545 OA
ENDBRANCH   1   7
BRANCH   4  10
ATOM     10  O   UNL     1     -44.681 -54.143  11.889  1.00  0.00    -0.504 OA
ATOM     11  H   UNL     1     -43.726 -54.477  11.941  1.00  0.00     0.293 HD
ENDBRANCH   4  10
BRANCH   6  12
ATOM     12  O   UNL     1     -45.210 -54.970   9.240  1.00  0.00    -0.504 OA
ATOM     13  H   UNL     1     -45.793 -55.393   8.529  1.00  0.00     0.293 HD
ENDBRANCH   6  12
TORSDOF 3
ENDMDL
MODEL 8
REMARK VINA RESULT:    -4.077      3.683      4.876
REMARK INTER + INTRA:          -4.593
REMARK INTER:                  -4.552
REMARK INTRA:                  -0.041
REMARK UNBOUND:                -0.039
REMARK SMILES O=C([O-])c1ccc(O)c(O)c1
REMARK SMILES IDX 4 1 11 2 5 3 9 4 6 5 7 6 2 7 1 8 3 9 10 10 8 12
REMARK H PARENT 10 11 8 13
REMARK Flexibility Score: inf
ROOT
ATOM      1  C   UNL     1     -45.215 -49.891   7.011  1.00  0.00     0.001 A 
ATOM      2  C   UNL     1     -45.064 -50.011   5.619  1.00  0.00     0.060 A 
ATOM      3  C   UNL     1     -46.069 -48.898   7.522  1.00  0.00     0.014 A 
ATOM      4  C   UNL     1     -45.752 -49.156   4.750  1.00  0.00     0.158 A 
ATOM      5  C   UNL     1     -46.757 -48.043   6.657  1.00  0.00     0.051 A 
ATOM      6  C   UNL     1     -46.604 -48.167   5.270  1.00  0.00     0.157 A 
ENDROOT
BRANCH   1   7
ATOM      7  C   UNL     1     -44.483 -50.799   7.924  1.00  0.00     0.072 C 
ATOM      8  O   UNL     1     -43.298 -51.142   7.671  1.00  0.00    -0.545 OA
ATOM      9  O   UNL     1     -45.096 -51.286   9.073  1.00  0.00    -0.545 OA
ENDBRANCH   1   7
BRANCH   4  10
ATOM     10  O   UNL     1     -45.578 -49.306   3.375  1.00  0.00    -0.504 OA
ATOM     11  H   UNL     1     -44.694 -49.594   2.972  1.00  0.00     0.293 HD
ENDBRANCH   4  10
BRANCH   6  12
ATOM     12  O   UNL     1     -47.292 -47.313   4.410  1.00  0.00    -0.504 OA
ATOM     13  H   UNL     1     -48.278 -47.116   4.536  1.00  0.00     0.293 HD
ENDBRANCH   6  12
TORSDOF 3
ENDMDL
MODEL 9
REMARK VINA RESULT:    -4.007      3.686      5.402
REMARK INTER + INTRA:          -4.515
REMARK INTER:                  -4.479
REMARK INTRA:                  -0.036
REMARK UNBOUND:                -0.039
REMARK SMILES O=C([O-])c1ccc(O)c(O)c1
REMARK SMILES IDX 4 1 11 2 5 3 9 4 6 5 7 6 2 7 1 8 3 9 10 10 8 12
REMARK H PARENT 10 11 8 13
REMARK Flexibility Score: inf
ROOT
ATOM      1  C   UNL     1     -45.597 -49.513   7.266  1.00  0.00     0.001 A 
ATOM      2  C   UNL     1     -46.256 -48.471   6.590  1.00  0.00     0.060 A 
ATOM      3  C   UNL     1     -44.942 -50.506   6.516  1.00  0.00     0.014 A 
ATOM      4  C   UNL     1     -46.263 -48.419   5.191  1.00  0.00     0.158 A 
ATOM      5  C   UNL     1     -44.948 -50.457   5.119  1.00  0.00     0.051 A 
ATOM      6  C   UNL     1     -45.606 -49.416   4.451  1.00  0.00     0.157 A 
ENDROOT
BRANCH   1   7
ATOM      7  C   UNL     1     -45.595 -49.561   8.745  1.00  0.00     0.072 C 
ATOM      8  O   UNL     1     -46.346 -50.362   9.362  1.00  0.00    -0.545 OA
ATOM      9  O   UNL     1     -44.762 -48.720   9.475  1.00  0.00    -0.545 OA
ENDBRANCH   1   7
BRANCH   4  10
ATOM     10  O   UNL     1     -46.926 -47.371   4.556  1.00  0.00    -0.504 OA
ATOM     11  H   UNL     1     -46.452 -46.515   4.292  1.00  0.00     0.293 HD
ENDBRANCH   4  10
BRANCH   6  12
ATOM     12  O   UNL     1     -45.609 -49.370   3.058  1.00  0.00    -0.504 OA
ATOM     13  H   UNL     1     -46.143 -50.031   2.506  1.00  0.00     0.293 HD
ENDBRANCH   6  12
TORSDOF 3
ENDMDL
