MODEL 1
REMARK VINA RESULT:    -6.930      0.000      0.000
REMARK INTER + INTRA:          -8.834
REMARK INTER:                  -8.551
REMARK INTRA:                  -0.283
REMARK UNBOUND:                -0.283
REMARK SMILES Oc1cc(O)c2cc(O)c(-c3cc(O)c(O)c(O)c3)[o+]c2c1
REMARK SMILES IDX 10 1 20 2 21 3 22 4 2 5 3 6 4 7 6 8 7 9 8 10 11 11 12 12
REMARK SMILES IDX 13 13 19 14 15 15 17 16 14 17 16 19 18 21 9 23 1 25 5 27
REMARK H PARENT 14 18 16 20 18 22 9 24 1 26 5 28
REMARK Flexibility Score: inf
ROOT
ATOM      1  C   UNL     1     -21.936  11.795 -35.131  1.00  0.00     0.402 A 
ATOM      2  O   UNL     1     -21.975  11.663 -36.456  1.00  0.00    -0.202 OA
ATOM      3  C   UNL     1     -20.890  11.467 -37.199  1.00  0.00     0.368 A 
ATOM      4  C   UNL     1     -21.016  11.334 -38.585  1.00  0.00     0.162 A 
ATOM      5  C   UNL     1     -19.882  11.123 -39.380  1.00  0.00     0.128 A 
ATOM      6  C   UNL     1     -18.618  11.044 -38.784  1.00  0.00     0.093 A 
ATOM      7  C   UNL     1     -18.476  11.177 -37.395  1.00  0.00     0.136 A 
ATOM      8  C   UNL     1     -19.616  11.389 -36.597  1.00  0.00     0.125 A 
ATOM      9  C   UNL     1     -19.534  11.537 -35.207  1.00  0.00     0.078 A 
ATOM     10  C   UNL     1     -20.696  11.753 -34.462  1.00  0.00     0.223 A 
ENDROOT
BRANCH   1  11
ATOM     11  C   UNL     1     -23.213  12.002 -34.410  1.00  0.00     0.091 A 
ATOM     12  C   UNL     1     -23.915  13.216 -34.499  1.00  0.00     0.068 A 
ATOM     13  C   UNL     1     -25.110  13.401 -33.790  1.00  0.00     0.162 A 
ATOM     14  C   UNL     1     -23.705  10.988 -33.575  1.00  0.00     0.068 A 
ATOM     15  C   UNL     1     -25.608  12.371 -32.974  1.00  0.00     0.200 A 
ATOM     16  C   UNL     1     -24.898  11.163 -32.865  1.00  0.00     0.162 A 
BRANCH  13  17
ATOM     17  O   UNL     1     -25.803  14.607 -33.891  1.00  0.00    -0.504 OA
ATOM     18  H   UNL     1     -25.798  15.153 -34.745  1.00  0.00     0.293 HD
ENDBRANCH  13  17
BRANCH  15  19
ATOM     19  O   UNL     1     -26.799  12.537 -32.265  1.00  0.00    -0.502 OA
ATOM     20  H   UNL     1     -26.815  12.832 -31.297  1.00  0.00     0.293 HD
ENDBRANCH  15  19
BRANCH  16  21
ATOM     21  O   UNL     1     -25.361  10.125 -32.058  1.00  0.00    -0.504 OA
ATOM     22  H   UNL     1     -24.803   9.303 -31.864  1.00  0.00     0.293 HD
ENDBRANCH  16  21
ENDBRANCH   1  11
BRANCH  10  23
ATOM     23  O   UNL     1     -20.615  11.950 -33.083  1.00  0.00    -0.500 OA
ATOM     24  H   UNL     1     -20.154  11.283 -32.477  1.00  0.00     0.294 HD
ENDBRANCH  10  23
BRANCH   5  25
ATOM     25  O   UNL     1     -19.998  10.989 -40.761  1.00  0.00    -0.507 OA
ATOM     26  H   UNL     1     -20.822  11.308 -41.256  1.00  0.00     0.293 HD
ENDBRANCH   5  25
BRANCH   7  27
ATOM     27  O   UNL     1     -17.210  11.098 -36.813  1.00  0.00    -0.507 OA
ATOM     28  H   UNL     1     -16.521  11.831 -36.938  1.00  0.00     0.293 HD
ENDBRANCH   7  27
TORSDOF 7
ENDMDL
MODEL 2
REMARK VINA RESULT:    -6.914      4.622      6.709
REMARK INTER + INTRA:          -8.814
REMARK INTER:                  -8.700
REMARK INTRA:                  -0.114
REMARK UNBOUND:                -0.283
REMARK SMILES Oc1cc(O)c2cc(O)c(-c3cc(O)c(O)c(O)c3)[o+]c2c1
REMARK SMILES IDX 10 1 20 2 21 3 22 4 2 5 3 6 4 7 6 8 7 9 8 10 11 11 12 12
REMARK SMILES IDX 13 13 19 14 15 15 17 16 14 17 16 19 18 21 9 23 1 25 5 27
REMARK H PARENT 14 18 16 20 18 22 9 24 1 26 5 28
REMARK Flexibility Score: inf
ROOT
ATOM      1  C   UNL     1     -17.693  12.019 -34.754  1.00  0.00     0.402 A 
ATOM      2  O   UNL     1     -18.003  12.576 -35.923  1.00  0.00    -0.202 OA
ATOM      3  C   UNL     1     -18.796  11.996 -36.819  1.00  0.00     0.368 A 
ATOM      4  C   UNL     1     -19.076  12.650 -38.022  1.00  0.00     0.162 A 
ATOM      5  C   UNL     1     -19.913  12.051 -38.973  1.00  0.00     0.128 A 
ATOM      6  C   UNL     1     -20.470  10.793 -38.717  1.00  0.00     0.093 A 
ATOM      7  C   UNL     1     -20.197  10.124 -37.515  1.00  0.00     0.136 A 
ATOM      8  C   UNL     1     -19.357  10.726 -36.560  1.00  0.00     0.125 A 
ATOM      9  C   UNL     1     -19.043  10.102 -35.346  1.00  0.00     0.078 A 
ATOM     10  C   UNL     1     -18.197  10.740 -34.435  1.00  0.00     0.223 A 
ENDROOT
BRANCH   1  11
ATOM     11  C   UNL     1     -16.807  12.767 -33.834  1.00  0.00     0.091 A 
ATOM     12  C   UNL     1     -17.161  12.985 -32.492  1.00  0.00     0.068 A 
ATOM     13  C   UNL     1     -16.318  13.715 -31.642  1.00  0.00     0.162 A 
ATOM     14  C   UNL     1     -15.614  13.320 -34.324  1.00  0.00     0.068 A 
ATOM     15  C   UNL     1     -15.114  14.246 -32.136  1.00  0.00     0.200 A 
ATOM     16  C   UNL     1     -14.767  14.049 -33.484  1.00  0.00     0.162 A 
BRANCH  13  17
ATOM     17  O   UNL     1     -16.676  13.919 -30.310  1.00  0.00    -0.504 OA
ATOM     18  H   UNL     1     -16.989  13.156 -29.721  1.00  0.00     0.293 HD
ENDBRANCH  13  17
BRANCH  15  19
ATOM     19  O   UNL     1     -14.262  14.972 -31.303  1.00  0.00    -0.502 OA
ATOM     20  H   UNL     1     -13.294  15.148 -31.542  1.00  0.00     0.293 HD
ENDBRANCH  15  19
BRANCH  16  21
ATOM     21  O   UNL     1     -13.583  14.570 -34.005  1.00  0.00    -0.504 OA
ATOM     22  H   UNL     1     -13.366  15.559 -33.968  1.00  0.00     0.293 HD
ENDBRANCH  16  21
ENDBRANCH   1  11
BRANCH  10  23
ATOM     23  O   UNL     1     -17.840  10.102 -33.247  1.00  0.00    -0.500 OA
ATOM     24  H   UNL     1     -16.925  10.226 -32.831  1.00  0.00     0.294 HD
ENDBRANCH  10  23
BRANCH   5  25
ATOM     25  O   UNL     1     -20.198  12.695 -40.173  1.00  0.00    -0.507 OA
ATOM     26  H   UNL     1     -21.072  12.541 -40.663  1.00  0.00     0.293 HD
ENDBRANCH   5  25
BRANCH   7  27
ATOM     27  O   UNL     1     -20.758   8.869 -37.272  1.00  0.00    -0.507 OA
ATOM     28  H   UNL     1     -20.373   8.240 -36.578  1.00  0.00     0.293 HD
ENDBRANCH   7  27
TORSDOF 7
ENDMDL
MODEL 3
REMARK VINA RESULT:    -6.811      7.144      9.909
REMARK INTER + INTRA:          -8.687
REMARK INTER:                  -8.398
REMARK INTRA:                  -0.288
REMARK UNBOUND:                -0.283
REMARK SMILES Oc1cc(O)c2cc(O)c(-c3cc(O)c(O)c(O)c3)[o+]c2c1
REMARK SMILES IDX 10 1 20 2 21 3 22 4 2 5 3 6 4 7 6 8 7 9 8 10 11 11 12 12
REMARK SMILES IDX 13 13 19 14 15 15 17 16 14 17 16 19 18 21 9 23 1 25 5 27
REMARK H PARENT 14 18 16 20 18 22 9 24 1 26 5 28
REMARK Flexibility Score: inf
ROOT
ATOM      1  C   UNL     1     -24.250  18.352 -38.623  1.00  0.00     0.402 A 
ATOM      2  O   UNL     1     -23.478  17.928 -37.623  1.00  0.00    -0.202 OA
ATOM      3  C   UNL     1     -23.867  17.012 -36.743  1.00  0.00     0.368 A 
ATOM      4  C   UNL     1     -22.995  16.617 -35.723  1.00  0.00     0.162 A 
ATOM      5  C   UNL     1     -23.391  15.649 -34.791  1.00  0.00     0.128 A 
ATOM      6  C   UNL     1     -24.663  15.075 -34.880  1.00  0.00     0.093 A 
ATOM      7  C   UNL     1     -25.550  15.461 -35.896  1.00  0.00     0.136 A 
ATOM      8  C   UNL     1     -25.152  16.433 -36.833  1.00  0.00     0.125 A 
ATOM      9  C   UNL     1     -25.997  16.863 -37.863  1.00  0.00     0.078 A 
ATOM     10  C   UNL     1     -25.556  17.837 -38.763  1.00  0.00     0.223 A 
ENDROOT
BRANCH   1  11
ATOM     11  C   UNL     1     -23.703  19.372 -39.546  1.00  0.00     0.091 A 
ATOM     12  C   UNL     1     -23.424  19.068 -40.890  1.00  0.00     0.068 A 
ATOM     13  C   UNL     1     -22.885  20.042 -41.743  1.00  0.00     0.162 A 
ATOM     14  C   UNL     1     -23.402  20.652 -39.059  1.00  0.00     0.068 A 
ATOM     15  C   UNL     1     -22.608  21.329 -41.251  1.00  0.00     0.200 A 
ATOM     16  C   UNL     1     -22.865  21.630 -39.902  1.00  0.00     0.162 A 
BRANCH  13  17
ATOM     17  O   UNL     1     -22.619  19.733 -43.076  1.00  0.00    -0.504 OA
ATOM     18  H   UNL     1     -23.087  20.212 -43.836  1.00  0.00     0.293 HD
ENDBRANCH  13  17
BRANCH  15  19
ATOM     19  O   UNL     1     -22.076  22.312 -42.088  1.00  0.00    -0.502 OA
ATOM     20  H   UNL     1     -21.217  22.172 -42.605  1.00  0.00     0.293 HD
ENDBRANCH  15  19
BRANCH  16  21
ATOM     21  O   UNL     1     -22.595  22.896 -39.383  1.00  0.00    -0.504 OA
ATOM     22  H   UNL     1     -21.715  23.370 -39.549  1.00  0.00     0.293 HD
ENDBRANCH  16  21
ENDBRANCH   1  11
BRANCH  10  23
ATOM     23  O   UNL     1     -26.410  18.306 -39.760  1.00  0.00    -0.500 OA
ATOM     24  H   UNL     1     -27.105  19.018 -39.573  1.00  0.00     0.294 HD
ENDBRANCH  10  23
BRANCH   5  25
ATOM     25  O   UNL     1     -22.528  15.250 -33.774  1.00  0.00    -0.507 OA
ATOM     26  H   UNL     1     -21.600  15.646 -33.680  1.00  0.00     0.293 HD
ENDBRANCH   5  25
BRANCH   7  27
ATOM     27  O   UNL     1     -26.817  14.881 -35.973  1.00  0.00    -0.507 OA
ATOM     28  H   UNL     1     -27.385  14.956 -36.809  1.00  0.00     0.293 HD
ENDBRANCH   7  27
TORSDOF 7
ENDMDL
MODEL 4
REMARK VINA RESULT:    -6.677      5.206      7.365
REMARK INTER + INTRA:          -8.522
REMARK INTER:                  -8.670
REMARK INTRA:                   0.148
REMARK UNBOUND:                -0.283
REMARK SMILES Oc1cc(O)c2cc(O)c(-c3cc(O)c(O)c(O)c3)[o+]c2c1
REMARK SMILES IDX 10 1 20 2 21 3 22 4 2 5 3 6 4 7 6 8 7 9 8 10 11 11 12 12
REMARK SMILES IDX 13 13 19 14 15 15 17 16 14 17 16 19 18 21 9 23 1 25 5 27
REMARK H PARENT 14 18 16 20 18 22 9 24 1 26 5 28
REMARK Flexibility Score: inf
ROOT
ATOM      1  C   UNL     1     -16.751  12.975 -34.158  1.00  0.00     0.402 A 
ATOM      2  O   UNL     1     -17.069  13.104 -35.445  1.00  0.00    -0.202 OA
ATOM      3  C   UNL     1     -17.671  12.149 -36.145  1.00  0.00     0.368 A 
ATOM      4  C   UNL     1     -17.975  12.365 -37.493  1.00  0.00     0.162 A 
ATOM      5  C   UNL     1     -18.613  11.367 -38.241  1.00  0.00     0.128 A 
ATOM      6  C   UNL     1     -18.947  10.150 -37.639  1.00  0.00     0.093 A 
ATOM      7  C   UNL     1     -18.647   9.918 -36.288  1.00  0.00     0.136 A 
ATOM      8  C   UNL     1     -18.006  10.920 -35.536  1.00  0.00     0.125 A 
ATOM      9  C   UNL     1     -17.676  10.741 -34.187  1.00  0.00     0.078 A 
ATOM     10  C   UNL     1     -17.033  11.767 -33.488  1.00  0.00     0.223 A 
ENDROOT
BRANCH   1  11
ATOM     11  C   UNL     1     -16.089  14.114 -33.482  1.00  0.00     0.091 A 
ATOM     12  C   UNL     1     -15.121  13.909 -32.484  1.00  0.00     0.068 A 
ATOM     13  C   UNL     1     -14.522  15.001 -31.839  1.00  0.00     0.162 A 
ATOM     14  C   UNL     1     -16.475  15.424 -33.800  1.00  0.00     0.068 A 
ATOM     15  C   UNL     1     -14.898  16.310 -32.181  1.00  0.00     0.200 A 
ATOM     16  C   UNL     1     -15.882  16.519 -33.163  1.00  0.00     0.162 A 
BRANCH  13  17
ATOM     17  O   UNL     1     -13.557  14.787 -30.855  1.00  0.00    -0.504 OA
ATOM     18  H   UNL     1     -13.225  15.540 -30.263  1.00  0.00     0.293 HD
ENDBRANCH  13  17
BRANCH  15  19
ATOM     19  O   UNL     1     -14.309  17.408 -31.552  1.00  0.00    -0.502 OA
ATOM     20  H   UNL     1     -13.311  17.576 -31.581  1.00  0.00     0.293 HD
ENDBRANCH  15  19
BRANCH  16  21
ATOM     21  O   UNL     1     -16.283  17.806 -33.519  1.00  0.00    -0.504 OA
ATOM     22  H   UNL     1     -16.829  18.391 -32.898  1.00  0.00     0.293 HD
ENDBRANCH  16  21
ENDBRANCH   1  11
BRANCH  10  23
ATOM     23  O   UNL     1     -16.656  11.576 -32.159  1.00  0.00    -0.500 OA
ATOM     24  H   UNL     1     -17.299  11.744 -31.395  1.00  0.00     0.294 HD
ENDBRANCH  10  23
BRANCH   5  25
ATOM     25  O   UNL     1     -18.920  11.574 -39.584  1.00  0.00    -0.507 OA
ATOM     26  H   UNL     1     -18.199  11.588 -40.296  1.00  0.00     0.293 HD
ENDBRANCH   5  25
BRANCH   7  27
ATOM     27  O   UNL     1     -18.985   8.698 -35.699  1.00  0.00    -0.507 OA
ATOM     28  H   UNL     1     -19.942   8.367 -35.674  1.00  0.00     0.293 HD
ENDBRANCH   7  27
TORSDOF 7
ENDMDL
MODEL 5
REMARK VINA RESULT:    -6.663      4.005      7.584
REMARK INTER + INTRA:          -8.504
REMARK INTER:                  -8.463
REMARK INTRA:                  -0.042
REMARK UNBOUND:                -0.283
REMARK SMILES Oc1cc(O)c2cc(O)c(-c3cc(O)c(O)c(O)c3)[o+]c2c1
REMARK SMILES IDX 10 1 20 2 21 3 22 4 2 5 3 6 4 7 6 8 7 9 8 10 11 11 12 12
REMARK SMILES IDX 13 13 19 14 15 15 17 16 14 17 16 19 18 21 9 23 1 25 5 27
REMARK H PARENT 14 18 16 20 18 22 9 24 1 26 5 28
REMARK Flexibility Score: inf
ROOT
ATOM      1  C   UNL     1     -17.516  12.384 -34.282  1.00  0.00     0.402 A 
ATOM      2  O   UNL     1     -18.738  12.571 -33.786  1.00  0.00    -0.202 OA
ATOM      3  C   UNL     1     -19.824  11.997 -34.294  1.00  0.00     0.368 A 
ATOM      4  C   UNL     1     -21.072  12.241 -33.712  1.00  0.00     0.162 A 
ATOM      5  C   UNL     1     -22.224  11.639 -34.234  1.00  0.00     0.128 A 
ATOM      6  C   UNL     1     -22.127  10.791 -35.343  1.00  0.00     0.093 A 
ATOM      7  C   UNL     1     -20.882  10.538 -35.938  1.00  0.00     0.136 A 
ATOM      8  C   UNL     1     -19.724  11.142 -35.413  1.00  0.00     0.125 A 
ATOM      9  C   UNL     1     -18.457  10.932 -35.970  1.00  0.00     0.078 A 
ATOM     10  C   UNL     1     -17.341  11.562 -35.414  1.00  0.00     0.223 A 
ENDROOT
BRANCH   1  11
ATOM     11  C   UNL     1     -16.381  13.072 -33.625  1.00  0.00     0.091 A 
ATOM     12  C   UNL     1     -15.447  13.815 -34.368  1.00  0.00     0.068 A 
ATOM     13  C   UNL     1     -14.366  14.440 -33.730  1.00  0.00     0.162 A 
ATOM     14  C   UNL     1     -16.198  12.933 -32.242  1.00  0.00     0.068 A 
ATOM     15  C   UNL     1     -14.204  14.315 -32.340  1.00  0.00     0.200 A 
ATOM     16  C   UNL     1     -15.123  13.554 -31.597  1.00  0.00     0.162 A 
BRANCH  13  17
ATOM     17  O   UNL     1     -13.450  15.181 -34.475  1.00  0.00    -0.504 OA
ATOM     18  H   UNL     1     -12.489  14.878 -34.590  1.00  0.00     0.293 HD
ENDBRANCH  13  17
BRANCH  15  19
ATOM     19  O   UNL     1     -13.136  14.934 -31.689  1.00  0.00    -0.502 OA
ATOM     20  H   UNL     1     -12.720  14.550 -30.850  1.00  0.00     0.293 HD
ENDBRANCH  15  19
BRANCH  16  21
ATOM     21  O   UNL     1     -14.985  13.404 -30.218  1.00  0.00    -0.504 OA
ATOM     22  H   UNL     1     -14.170  13.738 -29.718  1.00  0.00     0.293 HD
ENDBRANCH  16  21
ENDBRANCH   1  11
BRANCH  10  23
ATOM     23  O   UNL     1     -16.084  11.397 -35.995  1.00  0.00    -0.500 OA
ATOM     24  H   UNL     1     -15.972  11.265 -36.993  1.00  0.00     0.294 HD
ENDBRANCH  10  23
BRANCH   5  25
ATOM     25  O   UNL     1     -23.471  11.877 -33.661  1.00  0.00    -0.507 OA
ATOM     26  H   UNL     1     -23.876  12.805 -33.640  1.00  0.00     0.293 HD
ENDBRANCH   5  25
BRANCH   7  27
ATOM     27  O   UNL     1     -20.798   9.691 -37.044  1.00  0.00    -0.507 OA
ATOM     28  H   UNL     1     -21.623   9.268 -37.453  1.00  0.00     0.293 HD
ENDBRANCH   7  27
TORSDOF 7
ENDMDL
MODEL 6
REMARK VINA RESULT:    -6.632      1.644      3.427
REMARK INTER + INTRA:          -8.466
REMARK INTER:                  -8.124
REMARK INTRA:                  -0.342
REMARK UNBOUND:                -0.283
REMARK SMILES Oc1cc(O)c2cc(O)c(-c3cc(O)c(O)c(O)c3)[o+]c2c1
REMARK SMILES IDX 10 1 20 2 21 3 22 4 2 5 3 6 4 7 6 8 7 9 8 10 11 11 12 12
REMARK SMILES IDX 13 13 19 14 15 15 17 16 14 17 16 19 18 21 9 23 1 25 5 27
REMARK H PARENT 14 18 16 20 18 22 9 24 1 26 5 28
REMARK Flexibility Score: inf
ROOT
ATOM      1  C   UNL     1     -21.723  12.062 -34.522  1.00  0.00     0.402 A 
ATOM      2  O   UNL     1     -20.784  12.148 -33.581  1.00  0.00    -0.202 OA
ATOM      3  C   UNL     1     -19.492  11.955 -33.824  1.00  0.00     0.368 A 
ATOM      4  C   UNL     1     -18.568  12.068 -32.781  1.00  0.00     0.162 A 
ATOM      5  C   UNL     1     -17.202  11.871 -33.024  1.00  0.00     0.128 A 
ATOM      6  C   UNL     1     -16.761  11.560 -34.314  1.00  0.00     0.093 A 
ATOM      7  C   UNL     1     -17.677  11.442 -35.370  1.00  0.00     0.136 A 
ATOM      8  C   UNL     1     -19.049  11.640 -35.127  1.00  0.00     0.125 A 
ATOM      9  C   UNL     1     -20.008  11.528 -36.140  1.00  0.00     0.078 A 
ATOM     10  C   UNL     1     -21.359  11.727 -35.843  1.00  0.00     0.223 A 
ENDROOT
BRANCH   1  11
ATOM     11  C   UNL     1     -23.131  12.306 -34.132  1.00  0.00     0.091 A 
ATOM     12  C   UNL     1     -23.786  13.503 -34.469  1.00  0.00     0.068 A 
ATOM     13  C   UNL     1     -25.112  13.724 -34.070  1.00  0.00     0.162 A 
ATOM     14  C   UNL     1     -23.809  11.349 -33.362  1.00  0.00     0.068 A 
ATOM     15  C   UNL     1     -25.791  12.751 -33.318  1.00  0.00     0.200 A 
ATOM     16  C   UNL     1     -25.132  11.562 -32.961  1.00  0.00     0.162 A 
BRANCH  13  17
ATOM     17  O   UNL     1     -25.755  14.913 -34.416  1.00  0.00    -0.504 OA
ATOM     18  H   UNL     1     -26.441  14.948 -35.161  1.00  0.00     0.293 HD
ENDBRANCH  13  17
BRANCH  15  19
ATOM     19  O   UNL     1     -27.112  12.954 -32.918  1.00  0.00    -0.502 OA
ATOM     20  H   UNL     1     -27.517  13.878 -32.842  1.00  0.00     0.293 HD
ENDBRANCH  15  19
BRANCH  16  21
ATOM     21  O   UNL     1     -25.775  10.580 -32.209  1.00  0.00    -0.504 OA
ATOM     22  H   UNL     1     -25.908   9.637 -32.555  1.00  0.00     0.293 HD
ENDBRANCH  16  21
ENDBRANCH   1  11
BRANCH  10  23
ATOM     23  O   UNL     1     -22.324  11.567 -36.837  1.00  0.00    -0.500 OA
ATOM     24  H   UNL     1     -22.593  12.331 -37.444  1.00  0.00     0.294 HD
ENDBRANCH  10  23
BRANCH   5  25
ATOM     25  O   UNL     1     -16.275  11.982 -31.991  1.00  0.00    -0.507 OA
ATOM     26  H   UNL     1     -15.954  12.885 -31.662  1.00  0.00     0.293 HD
ENDBRANCH   5  25
BRANCH   7  27
ATOM     27  O   UNL     1     -17.224  11.131 -36.654  1.00  0.00    -0.507 OA
ATOM     28  H   UNL     1     -17.415  11.733 -37.445  1.00  0.00     0.293 HD
ENDBRANCH   7  27
TORSDOF 7
ENDMDL
MODEL 7
REMARK VINA RESULT:    -6.560      5.355      8.148
REMARK INTER + INTRA:          -8.377
REMARK INTER:                  -8.011
REMARK INTRA:                  -0.366
REMARK UNBOUND:                -0.283
REMARK SMILES Oc1cc(O)c2cc(O)c(-c3cc(O)c(O)c(O)c3)[o+]c2c1
REMARK SMILES IDX 10 1 20 2 21 3 22 4 2 5 3 6 4 7 6 8 7 9 8 10 11 11 12 12
REMARK SMILES IDX 13 13 19 14 15 15 17 16 14 17 16 19 18 21 9 23 1 25 5 27
REMARK H PARENT 14 18 16 20 18 22 9 24 1 26 5 28
REMARK Flexibility Score: inf
ROOT
ATOM      1  C   UNL     1     -21.870  15.101 -40.088  1.00  0.00     0.402 A 
ATOM      2  O   UNL     1     -22.616  15.899 -39.327  1.00  0.00    -0.202 OA
ATOM      3  C   UNL     1     -23.036  17.096 -39.723  1.00  0.00     0.368 A 
ATOM      4  C   UNL     1     -23.821  17.873 -38.865  1.00  0.00     0.162 A 
ATOM      5  C   UNL     1     -24.274  19.135 -39.271  1.00  0.00     0.128 A 
ATOM      6  C   UNL     1     -23.940  19.621 -40.540  1.00  0.00     0.093 A 
ATOM      7  C   UNL     1     -23.152  18.853 -41.411  1.00  0.00     0.136 A 
ATOM      8  C   UNL     1     -22.697  17.586 -41.004  1.00  0.00     0.125 A 
ATOM      9  C   UNL     1     -21.903  16.780 -41.827  1.00  0.00     0.078 A 
ATOM     10  C   UNL     1     -21.471  15.531 -41.371  1.00  0.00     0.223 A 
ENDROOT
BRANCH   1  11
ATOM     11  C   UNL     1     -21.469  13.785 -39.541  1.00  0.00     0.091 A 
ATOM     12  C   UNL     1     -22.141  12.605 -39.906  1.00  0.00     0.068 A 
ATOM     13  C   UNL     1     -21.761  11.371 -39.358  1.00  0.00     0.162 A 
ATOM     14  C   UNL     1     -20.436  13.717 -38.594  1.00  0.00     0.068 A 
ATOM     15  C   UNL     1     -20.710  11.310 -38.428  1.00  0.00     0.200 A 
ATOM     16  C   UNL     1     -20.050  12.490 -38.044  1.00  0.00     0.162 A 
BRANCH  13  17
ATOM     17  O   UNL     1     -22.429  10.206 -39.733  1.00  0.00    -0.504 OA
ATOM     18  H   UNL     1     -23.264   9.894 -39.251  1.00  0.00     0.293 HD
ENDBRANCH  13  17
BRANCH  15  19
ATOM     19  O   UNL     1     -20.316  10.090 -37.877  1.00  0.00    -0.502 OA
ATOM     20  H   UNL     1     -20.013  10.005 -36.915  1.00  0.00     0.293 HD
ENDBRANCH  15  19
BRANCH  16  21
ATOM     21  O   UNL     1     -19.008  12.464 -37.117  1.00  0.00    -0.504 OA
ATOM     22  H   UNL     1     -18.219  11.836 -37.211  1.00  0.00     0.293 HD
ENDBRANCH  16  21
ENDBRANCH   1  11
BRANCH  10  23
ATOM     23  O   UNL     1     -20.638  14.746 -42.167  1.00  0.00    -0.500 OA
ATOM     24  H   UNL     1     -20.017  14.054 -41.765  1.00  0.00     0.294 HD
ENDBRANCH  10  23
BRANCH   5  25
ATOM     25  O   UNL     1     -25.057  19.914 -38.423  1.00  0.00    -0.507 OA
ATOM     26  H   UNL     1     -25.811  20.489 -38.779  1.00  0.00     0.293 HD
ENDBRANCH   5  25
BRANCH   7  27
ATOM     27  O   UNL     1     -22.825  19.349 -42.674  1.00  0.00    -0.507 OA
ATOM     28  H   UNL     1     -22.213  18.842 -43.302  1.00  0.00     0.293 HD
ENDBRANCH   7  27
TORSDOF 7
ENDMDL
MODEL 8
REMARK VINA RESULT:    -6.500      3.127      4.455
REMARK INTER + INTRA:          -8.304
REMARK INTER:                  -7.924
REMARK INTRA:                  -0.380
REMARK UNBOUND:                -0.283
REMARK SMILES Oc1cc(O)c2cc(O)c(-c3cc(O)c(O)c(O)c3)[o+]c2c1
REMARK SMILES IDX 10 1 20 2 21 3 22 4 2 5 3 6 4 7 6 8 7 9 8 10 11 11 12 12
REMARK SMILES IDX 13 13 19 14 15 15 17 16 14 17 16 19 18 21 9 23 1 25 5 27
REMARK H PARENT 14 18 16 20 18 22 9 24 1 26 5 28
REMARK Flexibility Score: inf
ROOT
ATOM      1  C   UNL     1     -22.690  13.866 -38.217  1.00  0.00     0.402 A 
ATOM      2  O   UNL     1     -21.904  13.119 -37.442  1.00  0.00    -0.202 OA
ATOM      3  C   UNL     1     -20.912  12.372 -37.916  1.00  0.00     0.368 A 
ATOM      4  C   UNL     1     -20.130  11.620 -37.035  1.00  0.00     0.162 A 
ATOM      5  C   UNL     1     -19.079  10.832 -37.522  1.00  0.00     0.128 A 
ATOM      6  C   UNL     1     -18.811  10.797 -38.895  1.00  0.00     0.093 A 
ATOM      7  C   UNL     1     -19.589  11.545 -39.791  1.00  0.00     0.136 A 
ATOM      8  C   UNL     1     -20.644  12.337 -39.303  1.00  0.00     0.125 A 
ATOM      9  C   UNL     1     -21.458  13.098 -40.150  1.00  0.00     0.078 A 
ATOM     10  C   UNL     1     -22.498  13.862 -39.614  1.00  0.00     0.223 A 
ENDROOT
BRANCH   1  11
ATOM     11  C   UNL     1     -23.757  14.663 -37.571  1.00  0.00     0.091 A 
ATOM     12  C   UNL     1     -23.576  16.024 -37.274  1.00  0.00     0.068 A 
ATOM     13  C   UNL     1     -24.591  16.756 -36.642  1.00  0.00     0.162 A 
ATOM     14  C   UNL     1     -24.955  14.036 -37.195  1.00  0.00     0.068 A 
ATOM     15  C   UNL     1     -25.795  16.125 -36.289  1.00  0.00     0.200 A 
ATOM     16  C   UNL     1     -25.973  14.758 -36.565  1.00  0.00     0.162 A 
BRANCH  13  17
ATOM     17  O   UNL     1     -24.403  18.109 -36.358  1.00  0.00    -0.504 OA
ATOM     18  H   UNL     1     -23.694  18.421 -35.704  1.00  0.00     0.293 HD
ENDBRANCH  13  17
BRANCH  15  19
ATOM     19  O   UNL     1     -26.818  16.840 -35.663  1.00  0.00    -0.502 OA
ATOM     20  H   UNL     1     -27.185  17.703 -36.045  1.00  0.00     0.293 HD
ENDBRANCH  15  19
BRANCH  16  21
ATOM     21  O   UNL     1     -27.153  14.101 -36.221  1.00  0.00    -0.504 OA
ATOM     22  H   UNL     1     -27.938  14.587 -35.804  1.00  0.00     0.293 HD
ENDBRANCH  16  21
ENDBRANCH   1  11
BRANCH  10  23
ATOM     23  O   UNL     1     -23.342  14.583 -40.458  1.00  0.00    -0.500 OA
ATOM     24  H   UNL     1     -23.827  14.140 -41.229  1.00  0.00     0.294 HD
ENDBRANCH  10  23
BRANCH   5  25
ATOM     25  O   UNL     1     -18.294  10.080 -36.651  1.00  0.00    -0.507 OA
ATOM     26  H   UNL     1     -17.499  10.485 -36.171  1.00  0.00     0.293 HD
ENDBRANCH   5  25
BRANCH   7  27
ATOM     27  O   UNL     1     -19.312  11.500 -41.158  1.00  0.00    -0.507 OA
ATOM     28  H   UNL     1     -19.305  12.339 -41.727  1.00  0.00     0.293 HD
ENDBRANCH   7  27
TORSDOF 7
ENDMDL
MODEL 9
REMARK VINA RESULT:    -6.449      6.697      8.007
REMARK INTER + INTRA:          -8.241
REMARK INTER:                  -7.998
REMARK INTRA:                  -0.242
REMARK UNBOUND:                -0.283
REMARK SMILES Oc1cc(O)c2cc(O)c(-c3cc(O)c(O)c(O)c3)[o+]c2c1
REMARK SMILES IDX 10 1 20 2 21 3 22 4 2 5 3 6 4 7 6 8 7 9 8 10 11 11 12 12
REMARK SMILES IDX 13 13 19 14 15 15 17 16 14 17 16 19 18 21 9 23 1 25 5 27
REMARK H PARENT 14 18 16 20 18 22 9 24 1 26 5 28
REMARK Flexibility Score: inf
ROOT
ATOM      1  C   UNL     1     -23.742  17.395 -38.288  1.00  0.00     0.402 A 
ATOM      2  O   UNL     1     -23.441  18.671 -38.050  1.00  0.00    -0.202 OA
ATOM      3  C   UNL     1     -23.171  19.546 -39.013  1.00  0.00     0.368 A 
ATOM      4  C   UNL     1     -22.868  20.870 -38.681  1.00  0.00     0.162 A 
ATOM      5  C   UNL     1     -22.586  21.803 -39.687  1.00  0.00     0.128 A 
ATOM      6  C   UNL     1     -22.607  21.410 -41.029  1.00  0.00     0.093 A 
ATOM      7  C   UNL     1     -22.908  20.085 -41.378  1.00  0.00     0.136 A 
ATOM      8  C   UNL     1     -23.192  19.147 -40.368  1.00  0.00     0.125 A 
ATOM      9  C   UNL     1     -23.491  17.810 -40.656  1.00  0.00     0.078 A 
ATOM     10  C   UNL     1     -23.759  16.918 -39.615  1.00  0.00     0.223 A 
ENDROOT
BRANCH   1  11
ATOM     11  C   UNL     1     -24.032  16.516 -37.132  1.00  0.00     0.091 A 
ATOM     12  C   UNL     1     -25.293  15.917 -36.966  1.00  0.00     0.068 A 
ATOM     13  C   UNL     1     -25.555  15.107 -35.853  1.00  0.00     0.162 A 
ATOM     14  C   UNL     1     -23.050  16.322 -36.150  1.00  0.00     0.068 A 
ATOM     15  C   UNL     1     -24.557  14.899 -34.886  1.00  0.00     0.200 A 
ATOM     16  C   UNL     1     -23.302  15.514 -35.036  1.00  0.00     0.162 A 
BRANCH  13  17
ATOM     17  O   UNL     1     -26.807  14.511 -35.702  1.00  0.00    -0.504 OA
ATOM     18  H   UNL     1     -27.269  14.043 -36.473  1.00  0.00     0.293 HD
ENDBRANCH  13  17
BRANCH  15  19
ATOM     19  O   UNL     1     -24.800  14.092 -33.774  1.00  0.00    -0.502 OA
ATOM     20  H   UNL     1     -25.459  13.323 -33.798  1.00  0.00     0.293 HD
ENDBRANCH  15  19
BRANCH  16  21
ATOM     21  O   UNL     1     -22.294  15.334 -34.091  1.00  0.00    -0.504 OA
ATOM     22  H   UNL     1     -22.446  15.497 -33.103  1.00  0.00     0.293 HD
ENDBRANCH  16  21
ENDBRANCH   1  11
BRANCH  10  23
ATOM     23  O   UNL     1     -24.008  15.574 -39.893  1.00  0.00    -0.500 OA
ATOM     24  H   UNL     1     -24.897  15.264 -40.265  1.00  0.00     0.294 HD
ENDBRANCH  10  23
BRANCH   5  25
ATOM     25  O   UNL     1     -22.283  23.124 -39.364  1.00  0.00    -0.507 OA
ATOM     26  H   UNL     1     -22.735  23.596 -38.590  1.00  0.00     0.293 HD
ENDBRANCH   5  25
BRANCH   7  27
ATOM     27  O   UNL     1     -22.925  19.704 -42.721  1.00  0.00    -0.507 OA
ATOM     28  H   UNL     1     -22.307  20.131 -43.401  1.00  0.00     0.293 HD
ENDBRANCH   7  27
TORSDOF 7
ENDMDL
