MODEL 1
REMARK VINA RESULT:    -4.072      0.000      0.000
REMARK INTER + INTRA:          -9.478
REMARK INTER:                  -7.524
REMARK INTRA:                  -1.954
REMARK UNBOUND:                -1.954
REMARK SMILES CCCCCCCCCCCCCCCCO
REMARK SMILES IDX 9 1 8 2 7 3 6 4 5 5 4 6 3 7 2 8 1 9 10 10 11 11 12 12 13 13
REMARK SMILES IDX 14 14 15 15 16 16 17 17
REMARK H PARENT 17 18
REMARK Flexibility Score: inf
ROOT
ATOM      1  C   UNL     1     175.761 176.399 180.299  1.00  0.00     0.000 C 
ENDROOT
BRANCH   1   2
ATOM      2  C   UNL     1     174.802 176.168 181.477  1.00  0.00    -0.000 C 
BRANCH   2   3
ATOM      3  C   UNL     1     173.460 176.901 181.307  1.00  0.00    -0.000 C 
BRANCH   3   4
ATOM      4  C   UNL     1     173.302 177.503 179.894  1.00  0.00    -0.000 C 
BRANCH   4   5
ATOM      5  C   UNL     1     172.850 178.974 179.898  1.00  0.00    -0.000 C 
BRANCH   5   6
ATOM      6  C   UNL     1     172.142 179.377 181.201  1.00  0.00    -0.000 C 
BRANCH   6   7
ATOM      7  C   UNL     1     170.637 179.053 181.191  1.00  0.00    -0.000 C 
BRANCH   7   8
ATOM      8  C   UNL     1     170.052 178.625 182.550  1.00  0.00    -0.003 C 
ATOM      9  C   UNL     1     170.145 177.120 182.796  1.00  0.00     0.004 C 
ENDBRANCH   7   8
ENDBRANCH   6   7
ENDBRANCH   5   6
ENDBRANCH   4   5
ENDBRANCH   3   4
ENDBRANCH   2   3
ENDBRANCH   1   2
BRANCH   1  10
ATOM     10  C   UNL     1     177.082 177.058 180.732  1.00  0.00     0.000 C 
BRANCH  10  11
ATOM     11  C   UNL     1     176.884 178.098 181.848  1.00  0.00     0.000 C 
BRANCH  11  12
ATOM     12  C   UNL     1     176.293 179.419 181.325  1.00  0.00     0.000 C 
BRANCH  12  13
ATOM     13  C   UNL     1     177.089 179.994 180.142  1.00  0.00     0.000 C 
BRANCH  13  14
ATOM     14  C   UNL     1     176.266 180.048 178.843  1.00  0.00     0.002 C 
BRANCH  14  15
ATOM     15  C   UNL     1     177.063 179.567 177.620  1.00  0.00     0.028 C 
BRANCH  15  16
ATOM     16  C   UNL     1     176.652 178.162 177.161  1.00  0.00     0.156 C 
BRANCH  16  17
ATOM     17  O   UNL     1     177.789 177.363 176.977  1.00  0.00    -0.396 OA
ATOM     18  H   UNL     1     178.473 177.690 177.617  1.00  0.00     0.210 HD
ENDBRANCH  16  17
ENDBRANCH  15  16
ENDBRANCH  14  15
ENDBRANCH  13  14
ENDBRANCH  12  13
ENDBRANCH  11  12
ENDBRANCH  10  11
ENDBRANCH   1  10
TORSDOF 15
ENDMDL
MODEL 2
REMARK VINA RESULT:    -3.985      9.187     12.421
REMARK INTER + INTRA:          -9.318
REMARK INTER:                  -7.713
REMARK INTRA:                  -1.605
REMARK UNBOUND:                -1.954
REMARK SMILES CCCCCCCCCCCCCCCCO
REMARK SMILES IDX 9 1 8 2 7 3 6 4 5 5 4 6 3 7 2 8 1 9 10 10 11 11 12 12 13 13
REMARK SMILES IDX 14 14 15 15 16 16 17 17
REMARK H PARENT 17 18
REMARK Flexibility Score: inf
ROOT
ATOM      1  C   UNL     1     161.443 178.808 178.623  1.00  0.00     0.000 C 
ENDROOT
BRANCH   1   2
ATOM      2  C   UNL     1     162.268 177.514 178.538  1.00  0.00    -0.000 C 
BRANCH   2   3
ATOM      3  C   UNL     1     161.507 176.285 179.065  1.00  0.00    -0.000 C 
BRANCH   3   4
ATOM      4  C   UNL     1     161.580 176.172 180.604  1.00  0.00    -0.000 C 
BRANCH   4   5
ATOM      5  C   UNL     1     160.519 175.233 181.203  1.00  0.00    -0.000 C 
BRANCH   5   6
ATOM      6  C   UNL     1     160.818 173.749 180.939  1.00  0.00    -0.000 C 
BRANCH   6   7
ATOM      7  C   UNL     1     161.242 172.986 182.207  1.00  0.00    -0.000 C 
BRANCH   7   8
ATOM      8  C   UNL     1     162.718 172.549 182.243  1.00  0.00    -0.003 C 
ATOM      9  C   UNL     1     163.285 172.469 183.659  1.00  0.00     0.004 C 
ENDBRANCH   7   8
ENDBRANCH   6   7
ENDBRANCH   5   6
ENDBRANCH   4   5
ENDBRANCH   3   4
ENDBRANCH   2   3
ENDBRANCH   1   2
BRANCH   1  10
ATOM     10  C   UNL     1     162.147 179.906 179.440  1.00  0.00     0.000 C 
BRANCH  10  11
ATOM     11  C   UNL     1     161.704 179.920 180.912  1.00  0.00     0.000 C 
BRANCH  11  12
ATOM     12  C   UNL     1     162.792 179.384 181.861  1.00  0.00     0.000 C 
BRANCH  12  13
ATOM     13  C   UNL     1     164.189 179.391 181.219  1.00  0.00     0.000 C 
BRANCH  13  14
ATOM     14  C   UNL     1     164.815 177.988 181.144  1.00  0.00     0.002 C 
BRANCH  14  15
ATOM     15  C   UNL     1     165.962 177.908 180.125  1.00  0.00     0.028 C 
BRANCH  15  16
ATOM     16  C   UNL     1     165.679 178.714 178.851  1.00  0.00     0.156 C 
BRANCH  16  17
ATOM     17  O   UNL     1     166.707 178.517 177.918  1.00  0.00    -0.396 OA
ATOM     18  H   UNL     1     167.174 177.682 178.181  1.00  0.00     0.210 HD
ENDBRANCH  16  17
ENDBRANCH  15  16
ENDBRANCH  14  15
ENDBRANCH  13  14
ENDBRANCH  12  13
ENDBRANCH  11  12
ENDBRANCH  10  11
ENDBRANCH   1  10
TORSDOF 15
ENDMDL
MODEL 3
REMARK VINA RESULT:    -3.919     10.869     12.552
REMARK INTER + INTRA:          -9.195
REMARK INTER:                  -7.364
REMARK INTRA:                  -1.831
REMARK UNBOUND:                -1.954
REMARK SMILES CCCCCCCCCCCCCCCCO
REMARK SMILES IDX 9 1 8 2 7 3 6 4 5 5 4 6 3 7 2 8 1 9 10 10 11 11 12 12 13 13
REMARK SMILES IDX 14 14 15 15 16 16 17 17
REMARK H PARENT 17 18
REMARK Flexibility Score: inf
ROOT
ATOM      1  C   UNL     1     163.786 175.825 180.178  1.00  0.00     0.000 C 
ENDROOT
BRANCH   1   2
ATOM      2  C   UNL     1     162.327 175.753 179.700  1.00  0.00    -0.000 C 
BRANCH   2   3
ATOM      3  C   UNL     1     161.325 176.217 180.771  1.00  0.00    -0.000 C 
BRANCH   3   4
ATOM      4  C   UNL     1     160.415 175.066 181.252  1.00  0.00    -0.000 C 
BRANCH   4   5
ATOM      5  C   UNL     1     160.848 173.682 180.739  1.00  0.00    -0.000 C 
BRANCH   5   6
ATOM      6  C   UNL     1     160.890 172.619 181.850  1.00  0.00    -0.000 C 
BRANCH   6   7
ATOM      7  C   UNL     1     162.172 172.688 182.699  1.00  0.00    -0.000 C 
BRANCH   7   8
ATOM      8  C   UNL     1     163.360 171.874 182.153  1.00  0.00    -0.003 C 
ATOM      9  C   UNL     1     164.656 172.680 182.084  1.00  0.00     0.004 C 
ENDBRANCH   7   8
ENDBRANCH   6   7
ENDBRANCH   5   6
ENDBRANCH   4   5
ENDBRANCH   3   4
ENDBRANCH   2   3
ENDBRANCH   1   2
BRANCH   1  10
ATOM     10  C   UNL     1     163.925 176.494 181.556  1.00  0.00     0.000 C 
BRANCH  10  11
ATOM     11  C   UNL     1     164.262 177.991 181.454  1.00  0.00     0.000 C 
BRANCH  11  12
ATOM     12  C   UNL     1     163.117 178.890 181.954  1.00  0.00     0.000 C 
BRANCH  12  13
ATOM     13  C   UNL     1     162.626 179.872 180.877  1.00  0.00     0.000 C 
BRANCH  13  14
ATOM     14  C   UNL     1     163.420 179.758 179.563  1.00  0.00     0.002 C 
BRANCH  14  15
ATOM     15  C   UNL     1     162.551 179.280 178.390  1.00  0.00     0.028 C 
BRANCH  15  16
ATOM     16  C   UNL     1     163.378 178.924 177.148  1.00  0.00     0.156 C 
BRANCH  16  17
ATOM     17  O   UNL     1     164.516 179.741 177.075  1.00  0.00    -0.396 OA
ATOM     18  H   UNL     1     164.993 179.490 176.243  1.00  0.00     0.210 HD
ENDBRANCH  16  17
ENDBRANCH  15  16
ENDBRANCH  14  15
ENDBRANCH  13  14
ENDBRANCH  12  13
ENDBRANCH  11  12
ENDBRANCH  10  11
ENDBRANCH   1  10
TORSDOF 15
ENDMDL
MODEL 4
REMARK VINA RESULT:    -3.918      2.548      5.255
REMARK INTER + INTRA:          -9.194
REMARK INTER:                  -6.830
REMARK INTRA:                  -2.364
REMARK UNBOUND:                -1.954
REMARK SMILES CCCCCCCCCCCCCCCCO
REMARK SMILES IDX 9 1 8 2 7 3 6 4 5 5 4 6 3 7 2 8 1 9 10 10 11 11 12 12 13 13
REMARK SMILES IDX 14 14 15 15 16 16 17 17
REMARK H PARENT 17 18
REMARK Flexibility Score: inf
ROOT
ATOM      1  C   UNL     1     177.110 177.311 181.015  1.00  0.00     0.000 C 
ENDROOT
BRANCH   1   2
ATOM      2  C   UNL     1     176.833 178.530 181.908  1.00  0.00    -0.000 C 
BRANCH   2   3
ATOM      3  C   UNL     1     176.637 179.827 181.104  1.00  0.00    -0.000 C 
BRANCH   3   4
ATOM      4  C   UNL     1     177.353 179.777 179.737  1.00  0.00    -0.000 C 
BRANCH   4   5
ATOM      5  C   UNL     1     176.405 179.952 178.538  1.00  0.00    -0.000 C 
BRANCH   5   6
ATOM      6  C   UNL     1     176.743 179.013 177.368  1.00  0.00    -0.000 C 
BRANCH   6   7
ATOM      7  C   UNL     1     175.523 178.689 176.487  1.00  0.00    -0.000 C 
BRANCH   7   8
ATOM      8  C   UNL     1     174.176 179.212 177.019  1.00  0.00    -0.003 C 
ATOM      9  C   UNL     1     172.973 178.645 176.268  1.00  0.00     0.004 C 
ENDBRANCH   7   8
ENDBRANCH   6   7
ENDBRANCH   5   6
ENDBRANCH   4   5
ENDBRANCH   3   4
ENDBRANCH   2   3
ENDBRANCH   1   2
BRANCH   1  10
ATOM     10  C   UNL     1     175.896 176.373 180.902  1.00  0.00     0.000 C 
BRANCH  10  11
ATOM     11  C   UNL     1     175.099 176.594 179.606  1.00  0.00     0.000 C 
BRANCH  11  12
ATOM     12  C   UNL     1     173.617 176.915 179.871  1.00  0.00     0.000 C 
BRANCH  12  13
ATOM     13  C   UNL     1     173.426 177.871 181.060  1.00  0.00     0.000 C 
BRANCH  13  14
ATOM     14  C   UNL     1     172.912 179.257 180.630  1.00  0.00     0.002 C 
BRANCH  14  15
ATOM     15  C   UNL     1     171.383 179.301 180.489  1.00  0.00     0.028 C 
BRANCH  15  16
ATOM     16  C   UNL     1     170.929 179.603 179.056  1.00  0.00     0.156 C 
BRANCH  16  17
ATOM     17  O   UNL     1     169.531 179.545 178.970  1.00  0.00    -0.396 OA
ATOM     18  H   UNL     1     169.268 178.625 179.234  1.00  0.00     0.210 HD
ENDBRANCH  16  17
ENDBRANCH  15  16
ENDBRANCH  14  15
ENDBRANCH  13  14
ENDBRANCH  12  13
ENDBRANCH  11  12
ENDBRANCH  10  11
ENDBRANCH   1  10
TORSDOF 15
ENDMDL
MODEL 5
REMARK VINA RESULT:    -3.903     10.458     12.798
REMARK INTER + INTRA:          -9.167
REMARK INTER:                  -7.010
REMARK INTRA:                  -2.156
REMARK UNBOUND:                -1.954
REMARK SMILES CCCCCCCCCCCCCCCCO
REMARK SMILES IDX 9 1 8 2 7 3 6 4 5 5 4 6 3 7 2 8 1 9 10 10 11 11 12 12 13 13
REMARK SMILES IDX 14 14 15 15 16 16 17 17
REMARK H PARENT 17 18
REMARK Flexibility Score: inf
ROOT
ATOM      1  C   UNL     1     165.061 177.646 180.759  1.00  0.00     0.000 C 
ENDROOT
BRANCH   1   2
ATOM      2  C   UNL     1     164.374 176.577 181.622  1.00  0.00    -0.000 C 
BRANCH   2   3
ATOM      3  C   UNL     1     163.871 175.378 180.799  1.00  0.00    -0.000 C 
BRANCH   3   4
ATOM      4  C   UNL     1     162.552 175.693 180.060  1.00  0.00    -0.000 C 
BRANCH   4   5
ATOM      5  C   UNL     1     161.373 175.986 181.004  1.00  0.00    -0.000 C 
BRANCH   5   6
ATOM      6  C   UNL     1     160.367 174.826 181.082  1.00  0.00    -0.000 C 
BRANCH   6   7
ATOM      7  C   UNL     1     160.695 173.820 182.200  1.00  0.00    -0.000 C 
BRANCH   7   8
ATOM      8  C   UNL     1     160.922 172.372 181.730  1.00  0.00    -0.003 C 
ATOM      9  C   UNL     1     162.400 172.021 181.563  1.00  0.00     0.004 C 
ENDBRANCH   7   8
ENDBRANCH   6   7
ENDBRANCH   5   6
ENDBRANCH   4   5
ENDBRANCH   3   4
ENDBRANCH   2   3
ENDBRANCH   1   2
BRANCH   1  10
ATOM     10  C   UNL     1     164.461 179.048 180.965  1.00  0.00     0.000 C 
BRANCH  10  11
ATOM     11  C   UNL     1     163.242 179.035 181.901  1.00  0.00     0.000 C 
BRANCH  11  12
ATOM     12  C   UNL     1     162.006 179.700 181.270  1.00  0.00     0.000 C 
BRANCH  12  13
ATOM     13  C   UNL     1     162.234 180.094 179.801  1.00  0.00     0.000 C 
BRANCH  13  14
ATOM     14  C   UNL     1     161.590 179.105 178.814  1.00  0.00     0.002 C 
BRANCH  14  15
ATOM     15  C   UNL     1     162.553 178.677 177.696  1.00  0.00     0.028 C 
BRANCH  15  16
ATOM     16  C   UNL     1     162.045 177.462 176.910  1.00  0.00     0.156 C 
BRANCH  16  17
ATOM     17  O   UNL     1     160.771 177.092 177.364  1.00  0.00    -0.396 OA
ATOM     18  H   UNL     1     160.887 176.256 177.885  1.00  0.00     0.210 HD
ENDBRANCH  16  17
ENDBRANCH  15  16
ENDBRANCH  14  15
ENDBRANCH  13  14
ENDBRANCH  12  13
ENDBRANCH  11  12
ENDBRANCH  10  11
ENDBRANCH   1  10
TORSDOF 15
ENDMDL
MODEL 6
REMARK VINA RESULT:    -3.878      9.258     12.455
REMARK INTER + INTRA:          -9.119
REMARK INTER:                  -7.097
REMARK INTRA:                  -2.022
REMARK UNBOUND:                -1.954
REMARK SMILES CCCCCCCCCCCCCCCCO
REMARK SMILES IDX 9 1 8 2 7 3 6 4 5 5 4 6 3 7 2 8 1 9 10 10 11 11 12 12 13 13
REMARK SMILES IDX 14 14 15 15 16 16 17 17
REMARK H PARENT 17 18
REMARK Flexibility Score: inf
ROOT
ATOM      1  C   UNL     1     163.044 179.799 180.164  1.00  0.00     0.000 C 
ENDROOT
BRANCH   1   2
ATOM      2  C   UNL     1     162.613 178.858 181.299  1.00  0.00    -0.000 C 
BRANCH   2   3
ATOM      3  C   UNL     1     163.509 177.612 181.414  1.00  0.00    -0.000 C 
BRANCH   3   4
ATOM      4  C   UNL     1     162.715 176.304 181.204  1.00  0.00    -0.000 C 
BRANCH   4   5
ATOM      5  C   UNL     1     161.190 176.495 181.256  1.00  0.00    -0.000 C 
BRANCH   5   6
ATOM      6  C   UNL     1     160.420 175.164 181.210  1.00  0.00    -0.000 C 
BRANCH   6   7
ATOM      7  C   UNL     1     161.336 173.949 180.975  1.00  0.00    -0.000 C 
BRANCH   7   8
ATOM      8  C   UNL     1     161.178 172.806 181.995  1.00  0.00    -0.003 C 
ATOM      9  C   UNL     1     162.432 172.576 182.836  1.00  0.00     0.004 C 
ENDBRANCH   7   8
ENDBRANCH   6   7
ENDBRANCH   5   6
ENDBRANCH   4   5
ENDBRANCH   3   4
ENDBRANCH   2   3
ENDBRANCH   1   2
BRANCH   1  10
ATOM     10  C   UNL     1     161.903 180.094 179.175  1.00  0.00     0.000 C 
BRANCH  10  11
ATOM     11  C   UNL     1     161.378 178.824 178.485  1.00  0.00     0.000 C 
BRANCH  11  12
ATOM     12  C   UNL     1     162.294 178.350 177.344  1.00  0.00     0.000 C 
BRANCH  12  13
ATOM     13  C   UNL     1     162.858 176.940 177.587  1.00  0.00     0.000 C 
BRANCH  13  14
ATOM     14  C   UNL     1     164.347 176.823 177.217  1.00  0.00     0.002 C 
BRANCH  14  15
ATOM     15  C   UNL     1     165.262 176.810 178.451  1.00  0.00     0.028 C 
BRANCH  15  16
ATOM     16  C   UNL     1     166.201 178.021 178.505  1.00  0.00     0.156 C 
BRANCH  16  17
ATOM     17  O   UNL     1     165.715 179.045 177.679  1.00  0.00    -0.396 OA
ATOM     18  H   UNL     1     166.504 179.570 177.383  1.00  0.00     0.210 HD
ENDBRANCH  16  17
ENDBRANCH  15  16
ENDBRANCH  14  15
ENDBRANCH  13  14
ENDBRANCH  12  13
ENDBRANCH  11  12
ENDBRANCH  10  11
ENDBRANCH   1  10
TORSDOF 15
ENDMDL
MODEL 7
REMARK VINA RESULT:    -3.835     11.419     13.540
REMARK INTER + INTRA:          -9.041
REMARK INTER:                  -6.928
REMARK INTRA:                  -2.112
REMARK UNBOUND:                -1.954
REMARK SMILES CCCCCCCCCCCCCCCCO
REMARK SMILES IDX 9 1 8 2 7 3 6 4 5 5 4 6 3 7 2 8 1 9 10 10 11 11 12 12 13 13
REMARK SMILES IDX 14 14 15 15 16 16 17 17
REMARK H PARENT 17 18
REMARK Flexibility Score: inf
ROOT
ATOM      1  C   UNL     1     163.835 177.335 181.422  1.00  0.00     0.000 C 
ENDROOT
BRANCH   1   2
ATOM      2  C   UNL     1     163.105 178.608 181.877  1.00  0.00    -0.000 C 
BRANCH   2   3
ATOM      3  C   UNL     1     163.362 179.807 180.947  1.00  0.00    -0.000 C 
BRANCH   3   4
ATOM      4  C   UNL     1     162.158 180.095 180.024  1.00  0.00    -0.000 C 
BRANCH   4   5
ATOM      5  C   UNL     1     162.380 179.653 178.567  1.00  0.00    -0.000 C 
BRANCH   5   6
ATOM      6  C   UNL     1     161.414 178.540 178.127  1.00  0.00    -0.000 C 
BRANCH   6   7
ATOM      7  C   UNL     1     162.105 177.435 177.308  1.00  0.00    -0.000 C 
BRANCH   7   8
ATOM      8  C   UNL     1     161.449 176.045 177.403  1.00  0.00    -0.003 C 
ATOM      9  C   UNL     1     162.440 174.899 177.206  1.00  0.00     0.004 C 
ENDBRANCH   7   8
ENDBRANCH   6   7
ENDBRANCH   5   6
ENDBRANCH   4   5
ENDBRANCH   3   4
ENDBRANCH   2   3
ENDBRANCH   1   2
BRANCH   1  10
ATOM     10  C   UNL     1     162.883 176.297 180.802  1.00  0.00     0.000 C 
BRANCH  10  11
ATOM     11  C   UNL     1     161.407 176.586 181.121  1.00  0.00     0.000 C 
BRANCH  11  12
ATOM     12  C   UNL     1     160.583 175.302 181.316  1.00  0.00     0.000 C 
BRANCH  12  13
ATOM     13  C   UNL     1     161.274 174.062 180.724  1.00  0.00     0.000 C 
BRANCH  13  14
ATOM     14  C   UNL     1     161.010 172.787 181.542  1.00  0.00     0.002 C 
BRANCH  14  15
ATOM     15  C   UNL     1     161.952 172.655 182.749  1.00  0.00     0.028 C 
BRANCH  15  16
ATOM     16  C   UNL     1     163.433 172.689 182.350  1.00  0.00     0.156 C 
BRANCH  16  17
ATOM     17  O   UNL     1     164.071 173.779 182.958  1.00  0.00    -0.396 OA
ATOM     18  H   UNL     1     163.968 174.550 182.342  1.00  0.00     0.210 HD
ENDBRANCH  16  17
ENDBRANCH  15  16
ENDBRANCH  14  15
ENDBRANCH  13  14
ENDBRANCH  12  13
ENDBRANCH  11  12
ENDBRANCH  10  11
ENDBRANCH   1  10
TORSDOF 15
ENDMDL
MODEL 8
REMARK VINA RESULT:    -3.834      2.554      6.242
REMARK INTER + INTRA:          -9.038
REMARK INTER:                  -7.115
REMARK INTRA:                  -1.923
REMARK UNBOUND:                -1.954
REMARK SMILES CCCCCCCCCCCCCCCCO
REMARK SMILES IDX 9 1 8 2 7 3 6 4 5 5 4 6 3 7 2 8 1 9 10 10 11 11 12 12 13 13
REMARK SMILES IDX 14 14 15 15 16 16 17 17
REMARK H PARENT 17 18
REMARK Flexibility Score: inf
ROOT
ATOM      1  C   UNL     1     173.886 177.245 181.087  1.00  0.00     0.000 C 
ENDROOT
BRANCH   1   2
ATOM      2  C   UNL     1     173.497 178.731 181.062  1.00  0.00    -0.000 C 
BRANCH   2   3
ATOM      3  C   UNL     1     173.140 179.231 179.650  1.00  0.00    -0.000 C 
BRANCH   3   4
ATOM      4  C   UNL     1     174.083 178.651 178.574  1.00  0.00    -0.000 C 
BRANCH   4   5
ATOM      5  C   UNL     1     174.972 179.710 177.899  1.00  0.00    -0.000 C 
BRANCH   5   6
ATOM      6  C   UNL     1     176.175 180.119 178.765  1.00  0.00    -0.000 C 
BRANCH   6   7
ATOM      7  C   UNL     1     177.061 178.924 179.164  1.00  0.00    -0.000 C 
BRANCH   7   8
ATOM      8  C   UNL     1     177.239 178.722 180.680  1.00  0.00    -0.003 C 
ATOM      9  C   UNL     1     177.106 180.018 181.478  1.00  0.00     0.004 C 
ENDBRANCH   7   8
ENDBRANCH   6   7
ENDBRANCH   5   6
ENDBRANCH   4   5
ENDBRANCH   3   4
ENDBRANCH   2   3
ENDBRANCH   1   2
BRANCH   1  10
ATOM     10  C   UNL     1     172.898 176.389 181.899  1.00  0.00     0.000 C 
BRANCH  10  11
ATOM     11  C   UNL     1     171.515 176.295 181.235  1.00  0.00     0.000 C 
BRANCH  11  12
ATOM     12  C   UNL     1     170.365 176.335 182.257  1.00  0.00     0.000 C 
BRANCH  12  13
ATOM     13  C   UNL     1     170.075 177.758 182.762  1.00  0.00     0.000 C 
BRANCH  13  14
ATOM     14  C   UNL     1     169.776 178.744 181.619  1.00  0.00     0.002 C 
BRANCH  14  15
ATOM     15  C   UNL     1     168.416 178.482 180.955  1.00  0.00     0.028 C 
BRANCH  15  16
ATOM     16  C   UNL     1     168.465 178.629 179.429  1.00  0.00     0.156 C 
BRANCH  16  17
ATOM     17  O   UNL     1     169.530 179.462 179.058  1.00  0.00    -0.396 OA
ATOM     18  H   UNL     1     170.107 179.559 179.859  1.00  0.00     0.210 HD
ENDBRANCH  16  17
ENDBRANCH  15  16
ENDBRANCH  14  15
ENDBRANCH  13  14
ENDBRANCH  12  13
ENDBRANCH  11  12
ENDBRANCH  10  11
ENDBRANCH   1  10
TORSDOF 15
ENDMDL
MODEL 9
REMARK VINA RESULT:    -3.809     10.211     13.733
REMARK INTER + INTRA:          -8.993
REMARK INTER:                  -6.706
REMARK INTRA:                  -2.286
REMARK UNBOUND:                -1.954
REMARK SMILES CCCCCCCCCCCCCCCCO
REMARK SMILES IDX 9 1 8 2 7 3 6 4 5 5 4 6 3 7 2 8 1 9 10 10 11 11 12 12 13 13
REMARK SMILES IDX 14 14 15 15 16 16 17 17
REMARK H PARENT 17 18
REMARK Flexibility Score: inf
ROOT
ATOM      1  C   UNL     1     161.508 177.997 178.502  1.00  0.00     0.000 C 
ENDROOT
BRANCH   1   2
ATOM      2  C   UNL     1     162.456 179.174 178.224  1.00  0.00    -0.000 C 
BRANCH   2   3
ATOM      3  C   UNL     1     162.709 180.043 179.468  1.00  0.00    -0.000 C 
BRANCH   3   4
ATOM      4  C   UNL     1     161.814 179.631 180.657  1.00  0.00    -0.000 C 
BRANCH   4   5
ATOM      5  C   UNL     1     162.605 179.261 181.924  1.00  0.00    -0.000 C 
BRANCH   5   6
ATOM      6  C   UNL     1     164.019 178.742 181.614  1.00  0.00    -0.000 C 
BRANCH   6   7
ATOM      7  C   UNL     1     164.106 177.205 181.607  1.00  0.00    -0.000 C 
BRANCH   7   8
ATOM      8  C   UNL     1     165.000 176.607 180.505  1.00  0.00    -0.003 C 
ATOM      9  C   UNL     1     165.623 177.667 179.598  1.00  0.00     0.004 C 
ENDBRANCH   7   8
ENDBRANCH   6   7
ENDBRANCH   5   6
ENDBRANCH   4   5
ENDBRANCH   3   4
ENDBRANCH   2   3
ENDBRANCH   1   2
BRANCH   1  10
ATOM     10  C   UNL     1     162.137 176.636 178.156  1.00  0.00     0.000 C 
BRANCH  10  11
ATOM     11  C   UNL     1     161.643 175.507 179.076  1.00  0.00     0.000 C 
BRANCH  11  12
ATOM     12  C   UNL     1     161.136 176.030 180.432  1.00  0.00     0.000 C 
BRANCH  12  13
ATOM     13  C   UNL     1     160.591 174.906 181.330  1.00  0.00     0.000 C 
BRANCH  13  14
ATOM     14  C   UNL     1     161.606 173.770 181.543  1.00  0.00     0.002 C 
BRANCH  14  15
ATOM     15  C   UNL     1     160.929 172.413 181.787  1.00  0.00     0.028 C 
BRANCH  15  16
ATOM     16  C   UNL     1     160.638 171.654 180.486  1.00  0.00     0.156 C 
BRANCH  16  17
ATOM     17  O   UNL     1     160.766 170.273 180.694  1.00  0.00    -0.396 OA
ATOM     18  H   UNL     1     160.593 170.114 181.658  1.00  0.00     0.210 HD
ENDBRANCH  16  17
ENDBRANCH  15  16
ENDBRANCH  14  15
ENDBRANCH  13  14
ENDBRANCH  12  13
ENDBRANCH  11  12
ENDBRANCH  10  11
ENDBRANCH   1  10
TORSDOF 15
ENDMDL
