MODEL 1
REMARK VINA RESULT:    -6.165      0.000      0.000
REMARK INTER + INTRA:         -10.507
REMARK INTER:                  -9.409
REMARK INTRA:                  -1.098
REMARK UNBOUND:                -1.098
REMARK SMILES OC[C@@H]1O[C@](CO)(O[C@@H]2O[C@@H](CO)[C@@H](O)[C@@H](O)[C@H]2O)[C@H](O)[C@@H]1O
REMARK SMILES IDX 8 1 9 2 11 3 14 4 10 5 16 6 18 7 12 8 13 9 15 11 17 13 19 15
REMARK SMILES IDX 5 17 20 18 4 19 22 20 3 21 6 22 7 23 21 25 23 27 2 29 1 30
REMARK H PARENT 13 10 15 12 17 14 19 16 7 24 21 26 23 28 1 31
REMARK Flexibility Score: inf
ROOT
ATOM      1  O   UNL     1     158.508 158.733 157.006  1.00  0.00    -0.313 OA
ENDROOT
BRANCH   1   2
ATOM      2  C   UNL     1     158.561 159.989 156.337  1.00  0.00     0.285 C 
ATOM      3  C   UNL     1     160.895 159.857 156.073  1.00  0.00     0.178 C 
ATOM      4  C   UNL     1     161.169 161.014 157.057  1.00  0.00     0.177 C 
ATOM      5  O   UNL     1     159.646 160.031 155.419  1.00  0.00    -0.341 OA
ATOM      6  C   UNL     1     160.024 161.085 158.087  1.00  0.00     0.179 C 
ATOM      7  C   UNL     1     158.661 161.126 157.376  1.00  0.00     0.202 C 
BRANCH   3   8
ATOM      8  C   UNL     1     162.006 159.763 155.017  1.00  0.00     0.191 C 
BRANCH   8   9
ATOM      9  O   UNL     1     163.257 159.987 155.607  1.00  0.00    -0.394 OA
ATOM     10  H   UNL     1     163.356 160.969 155.705  1.00  0.00     0.210 HD
ENDBRANCH   8   9
ENDBRANCH   3   8
BRANCH   4  11
ATOM     11  O   UNL     1     161.273 162.228 156.354  1.00  0.00    -0.387 OA
ATOM     12  H   UNL     1     162.132 162.204 155.858  1.00  0.00     0.211 HD
ENDBRANCH   4  11
BRANCH   6  13
ATOM     13  O   UNL     1     160.164 162.211 158.913  1.00  0.00    -0.387 OA
ATOM     14  H   UNL     1     161.138 162.340 159.060  1.00  0.00     0.211 HD
ENDBRANCH   6  13
BRANCH   7  15
ATOM     15  O   UNL     1     158.489 162.372 156.746  1.00  0.00    -0.385 OA
ATOM     16  H   UNL     1     157.754 162.265 156.089  1.00  0.00     0.211 HD
ENDBRANCH   7  15
ENDBRANCH   1   2
BRANCH   1  17
ATOM     17  C   UNL     1     157.575 157.820 156.433  1.00  0.00     0.224 C 
ATOM     18  C   UNL     1     158.348 156.605 155.882  1.00  0.00     0.208 C 
ATOM     19  O   UNL     1     156.891 158.396 155.332  1.00  0.00    -0.337 OA
ATOM     20  C   UNL     1     157.458 156.130 154.746  1.00  0.00     0.180 C 
ATOM     21  C   UNL     1     156.598 157.366 154.406  1.00  0.00     0.179 C 
BRANCH  17  22
ATOM     22  C   UNL     1     156.548 157.375 157.512  1.00  0.00     0.225 C 
BRANCH  22  23
ATOM     23  O   UNL     1     156.800 156.058 157.931  1.00  0.00    -0.391 OA
ATOM     24  H   UNL     1     156.987 155.524 157.116  1.00  0.00     0.210 HD
ENDBRANCH  22  23
ENDBRANCH  17  22
BRANCH  18  25
ATOM     25  O   UNL     1     159.639 156.961 155.439  1.00  0.00    -0.385 OA
ATOM     26  H   UNL     1     159.818 157.896 155.720  1.00  0.00     0.211 HD
ENDBRANCH  18  25
BRANCH  20  27
ATOM     27  O   UNL     1     158.156 155.556 153.663  1.00  0.00    -0.387 OA
ATOM     28  H   UNL     1     157.600 154.851 153.251  1.00  0.00     0.211 HD
ENDBRANCH  20  27
BRANCH  21  29
ATOM     29  C   UNL     1     156.738 157.905 152.975  1.00  0.00     0.191 C 
BRANCH  29  30
ATOM     30  O   UNL     1     155.909 157.196 152.096  1.00  0.00    -0.394 OA
ATOM     31  H   UNL     1     155.775 157.785 151.309  1.00  0.00     0.210 HD
ENDBRANCH  29  30
ENDBRANCH  21  29
ENDBRANCH   1  17
TORSDOF 13
ENDMDL
MODEL 2
REMARK VINA RESULT:    -6.163      1.817      5.674
REMARK INTER + INTRA:         -10.504
REMARK INTER:                  -9.418
REMARK INTRA:                  -1.086
REMARK UNBOUND:                -1.098
REMARK SMILES OC[C@@H]1O[C@](CO)(O[C@@H]2O[C@@H](CO)[C@@H](O)[C@@H](O)[C@H]2O)[C@H](O)[C@@H]1O
REMARK SMILES IDX 8 1 9 2 11 3 14 4 10 5 16 6 18 7 12 8 13 9 15 11 17 13 19 15
REMARK SMILES IDX 5 17 20 18 4 19 22 20 3 21 6 22 7 23 21 25 23 27 2 29 1 30
REMARK H PARENT 13 10 15 12 17 14 19 16 7 24 21 26 23 28 1 31
REMARK Flexibility Score: inf
ROOT
ATOM      1  O   UNL     1     159.497 159.256 156.998  1.00  0.00    -0.313 OA
ENDROOT
BRANCH   1   2
ATOM      2  C   UNL     1     159.443 157.999 156.332  1.00  0.00     0.285 C 
ATOM      3  C   UNL     1     157.108 158.130 156.072  1.00  0.00     0.178 C 
ATOM      4  C   UNL     1     156.836 156.975 157.059  1.00  0.00     0.177 C 
ATOM      5  O   UNL     1     158.355 157.954 155.416  1.00  0.00    -0.341 OA
ATOM      6  C   UNL     1     157.983 156.907 158.088  1.00  0.00     0.179 C 
ATOM      7  C   UNL     1     159.344 156.864 157.375  1.00  0.00     0.202 C 
BRANCH   3   8
ATOM      8  C   UNL     1     155.995 158.221 155.018  1.00  0.00     0.191 C 
BRANCH   8   9
ATOM      9  O   UNL     1     154.746 157.982 155.608  1.00  0.00    -0.394 OA
ATOM     10  H   UNL     1     154.062 158.172 154.916  1.00  0.00     0.210 HD
ENDBRANCH   8   9
ENDBRANCH   3   8
BRANCH   4  11
ATOM     11  O   UNL     1     156.731 155.759 156.359  1.00  0.00    -0.387 OA
ATOM     12  H   UNL     1     156.584 155.048 157.035  1.00  0.00     0.211 HD
ENDBRANCH   4  11
BRANCH   6  13
ATOM     13  O   UNL     1     157.845 155.782 158.917  1.00  0.00    -0.387 OA
ATOM     14  H   UNL     1     157.620 155.016 158.325  1.00  0.00     0.211 HD
ENDBRANCH   6  13
BRANCH   7  15
ATOM     15  O   UNL     1     159.515 155.617 156.747  1.00  0.00    -0.385 OA
ATOM     16  H   UNL     1     158.611 155.229 156.622  1.00  0.00     0.211 HD
ENDBRANCH   7  15
ENDBRANCH   1   2
BRANCH   1  17
ATOM     17  C   UNL     1     160.419 160.173 156.414  1.00  0.00     0.224 C 
ATOM     18  C   UNL     1     159.636 161.388 155.879  1.00  0.00     0.208 C 
ATOM     19  O   UNL     1     161.087 159.601 155.300  1.00  0.00    -0.337 OA
ATOM     20  C   UNL     1     160.507 161.869 154.730  1.00  0.00     0.180 C 
ATOM     21  C   UNL     1     161.363 160.635 154.373  1.00  0.00     0.179 C 
BRANCH  17  22
ATOM     22  C   UNL     1     161.462 160.616 157.478  1.00  0.00     0.225 C 
BRANCH  22  23
ATOM     23  O   UNL     1     161.214 161.931 157.905  1.00  0.00    -0.391 OA
ATOM     24  H   UNL     1     161.398 162.528 157.134  1.00  0.00     0.210 HD
ENDBRANCH  22  23
ENDBRANCH  17  22
BRANCH  18  25
ATOM     25  O   UNL     1     158.339 161.031 155.454  1.00  0.00    -0.385 OA
ATOM     26  H   UNL     1     158.099 160.166 155.878  1.00  0.00     0.211 HD
ENDBRANCH  18  25
BRANCH  20  27
ATOM     27  O   UNL     1     159.791 162.444 153.661  1.00  0.00    -0.387 OA
ATOM     28  H   UNL     1     159.185 161.768 153.270  1.00  0.00     0.211 HD
ENDBRANCH  20  27
BRANCH  21  29
ATOM     29  C   UNL     1     161.202 160.100 152.942  1.00  0.00     0.191 C 
BRANCH  29  30
ATOM     30  O   UNL     1     162.032 160.799 152.057  1.00  0.00    -0.394 OA
ATOM     31  H   UNL     1     161.566 161.652 151.858  1.00  0.00     0.210 HD
ENDBRANCH  29  30
ENDBRANCH  21  29
ENDBRANCH   1  17
TORSDOF 13
ENDMDL
MODEL 3
REMARK VINA RESULT:    -6.162      1.344      5.759
REMARK INTER + INTRA:         -10.502
REMARK INTER:                  -9.215
REMARK INTRA:                  -1.287
REMARK UNBOUND:                -1.098
REMARK SMILES OC[C@@H]1O[C@](CO)(O[C@@H]2O[C@@H](CO)[C@@H](O)[C@@H](O)[C@H]2O)[C@H](O)[C@@H]1O
REMARK SMILES IDX 8 1 9 2 11 3 14 4 10 5 16 6 18 7 12 8 13 9 15 11 17 13 19 15
REMARK SMILES IDX 5 17 20 18 4 19 22 20 3 21 6 22 7 23 21 25 23 27 2 29 1 30
REMARK H PARENT 13 10 15 12 17 14 19 16 7 24 21 26 23 28 1 31
REMARK Flexibility Score: inf
ROOT
ATOM      1  O   UNL     1     158.321 159.520 156.381  1.00  0.00    -0.313 OA
ENDROOT
BRANCH   1   2
ATOM      2  C   UNL     1     158.999 158.276 156.244  1.00  0.00     0.285 C 
ATOM      3  C   UNL     1     157.581 157.588 154.497  1.00  0.00     0.178 C 
ATOM      4  C   UNL     1     156.916 156.481 155.343  1.00  0.00     0.177 C 
ATOM      5  O   UNL     1     158.924 157.801 154.905  1.00  0.00    -0.341 OA
ATOM      6  C   UNL     1     156.972 156.879 156.831  1.00  0.00     0.179 C 
ATOM      7  C   UNL     1     158.408 157.251 157.236  1.00  0.00     0.202 C 
BRANCH   3   8
ATOM      8  C   UNL     1     157.561 157.222 153.006  1.00  0.00     0.191 C 
BRANCH   8   9
ATOM      9  O   UNL     1     156.396 156.509 152.696  1.00  0.00    -0.394 OA
ATOM     10  H   UNL     1     156.683 155.660 152.271  1.00  0.00     0.210 HD
ENDBRANCH   8   9
ENDBRANCH   3   8
BRANCH   4  11
ATOM     11  O   UNL     1     157.576 155.257 155.136  1.00  0.00    -0.387 OA
ATOM     12  H   UNL     1     157.432 154.709 155.950  1.00  0.00     0.211 HD
ENDBRANCH   4  11
BRANCH   6  13
ATOM     13  O   UNL     1     156.504 155.835 157.646  1.00  0.00    -0.387 OA
ATOM     14  H   UNL     1     155.644 155.529 157.253  1.00  0.00     0.211 HD
ENDBRANCH   6  13
BRANCH   7  15
ATOM     15  O   UNL     1     159.209 156.095 157.269  1.00  0.00    -0.385 OA
ATOM     16  H   UNL     1     160.081 156.358 157.662  1.00  0.00     0.211 HD
ENDBRANCH   7  15
ENDBRANCH   1   2
BRANCH   1  17
ATOM     17  C   UNL     1     159.189 160.615 156.662  1.00  0.00     0.224 C 
ATOM     18  C   UNL     1     159.434 161.399 155.357  1.00  0.00     0.208 C 
ATOM     19  O   UNL     1     160.460 160.172 157.110  1.00  0.00    -0.337 OA
ATOM     20  C   UNL     1     160.813 161.997 155.579  1.00  0.00     0.180 C 
ATOM     21  C   UNL     1     161.431 161.105 156.676  1.00  0.00     0.179 C 
BRANCH  17  22
ATOM     22  C   UNL     1     158.545 161.532 157.740  1.00  0.00     0.225 C 
BRANCH  22  23
ATOM     23  O   UNL     1     157.917 162.638 157.146  1.00  0.00    -0.391 OA
ATOM     24  H   UNL     1     156.948 162.569 157.350  1.00  0.00     0.210 HD
ENDBRANCH  22  23
ENDBRANCH  17  22
BRANCH  18  25
ATOM     25  O   UNL     1     159.391 160.558 154.225  1.00  0.00    -0.385 OA
ATOM     26  H   UNL     1     159.859 161.016 153.478  1.00  0.00     0.211 HD
ENDBRANCH  18  25
BRANCH  20  27
ATOM     27  O   UNL     1     161.580 162.140 154.405  1.00  0.00    -0.387 OA
ATOM     28  H   UNL     1     161.028 162.564 153.702  1.00  0.00     0.211 HD
ENDBRANCH  20  27
BRANCH  21  29
ATOM     29  C   UNL     1     162.720 160.364 156.288  1.00  0.00     0.191 C 
BRANCH  29  30
ATOM     30  O   UNL     1     162.552 159.681 155.077  1.00  0.00    -0.394 OA
ATOM     31  H   UNL     1     162.650 160.361 154.362  1.00  0.00     0.210 HD
ENDBRANCH  29  30
ENDBRANCH  21  29
ENDBRANCH   1  17
TORSDOF 13
ENDMDL
MODEL 4
REMARK VINA RESULT:    -6.159      5.336      7.947
REMARK INTER + INTRA:         -10.498
REMARK INTER:                  -9.392
REMARK INTRA:                  -1.106
REMARK UNBOUND:                -1.098
REMARK SMILES OC[C@@H]1O[C@](CO)(O[C@@H]2O[C@@H](CO)[C@@H](O)[C@@H](O)[C@H]2O)[C@H](O)[C@@H]1O
REMARK SMILES IDX 8 1 9 2 11 3 14 4 10 5 16 6 18 7 12 8 13 9 15 11 17 13 19 15
REMARK SMILES IDX 5 17 20 18 4 19 22 20 3 21 6 22 7 23 21 25 23 27 2 29 1 30
REMARK H PARENT 13 10 15 12 17 14 19 16 7 24 21 26 23 28 1 31
REMARK Flexibility Score: inf
ROOT
ATOM      1  O   UNL     1     159.502 158.729 161.007  1.00  0.00    -0.313 OA
ENDROOT
BRANCH   1   2
ATOM      2  C   UNL     1     159.459 159.986 161.676  1.00  0.00     0.285 C 
ATOM      3  C   UNL     1     157.125 159.871 161.944  1.00  0.00     0.178 C 
ATOM      4  C   UNL     1     156.857 161.030 160.960  1.00  0.00     0.177 C 
ATOM      5  O   UNL     1     158.376 160.036 162.595  1.00  0.00    -0.341 OA
ATOM      6  C   UNL     1     158.000 161.092 159.928  1.00  0.00     0.179 C 
ATOM      7  C   UNL     1     159.365 161.124 160.636  1.00  0.00     0.202 C 
BRANCH   3   8
ATOM      8  C   UNL     1     156.015 159.786 163.002  1.00  0.00     0.191 C 
BRANCH   8   9
ATOM      9  O   UNL     1     154.762 159.999 162.411  1.00  0.00    -0.394 OA
ATOM     10  H   UNL     1     154.363 159.105 162.255  1.00  0.00     0.210 HD
ENDBRANCH   8   9
ENDBRANCH   3   8
BRANCH   4  11
ATOM     11  O   UNL     1     156.764 162.245 161.663  1.00  0.00    -0.387 OA
ATOM     12  H   UNL     1     157.477 162.839 161.312  1.00  0.00     0.211 HD
ENDBRANCH   4  11
BRANCH   6  13
ATOM     13  O   UNL     1     157.868 162.219 159.102  1.00  0.00    -0.387 OA
ATOM     14  H   UNL     1     157.480 161.902 158.244  1.00  0.00     0.211 HD
ENDBRANCH   6  13
BRANCH   7  15
ATOM     15  O   UNL     1     159.547 162.368 161.266  1.00  0.00    -0.385 OA
ATOM     16  H   UNL     1     159.984 162.965 160.605  1.00  0.00     0.211 HD
ENDBRANCH   7  15
ENDBRANCH   1   2
BRANCH   1  17
ATOM     17  C   UNL     1     160.421 157.806 161.584  1.00  0.00     0.224 C 
ATOM     18  C   UNL     1     159.630 156.604 162.140  1.00  0.00     0.208 C 
ATOM     19  O   UNL     1     161.112 158.377 162.684  1.00  0.00    -0.337 OA
ATOM     20  C   UNL     1     160.513 156.121 163.279  1.00  0.00     0.180 C 
ATOM     21  C   UNL     1     161.389 157.347 163.614  1.00  0.00     0.179 C 
BRANCH  17  22
ATOM     22  C   UNL     1     161.442 157.342 160.509  1.00  0.00     0.225 C 
BRANCH  22  23
ATOM     23  O   UNL     1     161.157 156.036 160.078  1.00  0.00    -0.391 OA
ATOM     24  H   UNL     1     160.879 155.518 160.878  1.00  0.00     0.210 HD
ENDBRANCH  22  23
ENDBRANCH  17  22
BRANCH  18  25
ATOM     25  O   UNL     1     158.344 156.981 162.580  1.00  0.00    -0.385 OA
ATOM     26  H   UNL     1     158.272 156.769 163.548  1.00  0.00     0.211 HD
ENDBRANCH  18  25
BRANCH  20  27
ATOM     27  O   UNL     1     159.805 155.563 164.364  1.00  0.00    -0.387 OA
ATOM     28  H   UNL     1     158.846 155.783 164.278  1.00  0.00     0.211 HD
ENDBRANCH  20  27
BRANCH  21  29
ATOM     29  C   UNL     1     161.256 157.894 165.043  1.00  0.00     0.191 C 
BRANCH  29  30
ATOM     30  O   UNL     1     162.036 157.147 165.934  1.00  0.00    -0.394 OA
ATOM     31  H   UNL     1     161.449 156.424 166.275  1.00  0.00     0.210 HD
ENDBRANCH  29  30
ENDBRANCH  21  29
ENDBRANCH   1  17
TORSDOF 13
ENDMDL
MODEL 5
REMARK VINA RESULT:    -6.158      1.698      2.104
REMARK INTER + INTRA:         -10.496
REMARK INTER:                  -9.198
REMARK INTRA:                  -1.299
REMARK UNBOUND:                -1.098
REMARK SMILES OC[C@@H]1O[C@](CO)(O[C@@H]2O[C@@H](CO)[C@@H](O)[C@@H](O)[C@H]2O)[C@H](O)[C@@H]1O
REMARK SMILES IDX 8 1 9 2 11 3 14 4 10 5 16 6 18 7 12 8 13 9 15 11 17 13 19 15
REMARK SMILES IDX 5 17 20 18 4 19 22 20 3 21 6 22 7 23 21 25 23 27 2 29 1 30
REMARK H PARENT 13 10 15 12 17 14 19 16 7 24 21 26 23 28 1 31
REMARK Flexibility Score: inf
ROOT
ATOM      1  O   UNL     1     159.663 158.464 156.348  1.00  0.00    -0.313 OA
ENDROOT
BRANCH   1   2
ATOM      2  C   UNL     1     158.983 159.709 156.226  1.00  0.00     0.285 C 
ATOM      3  C   UNL     1     160.427 160.437 154.517  1.00  0.00     0.178 C 
ATOM      4  C   UNL     1     161.076 161.528 155.396  1.00  0.00     0.177 C 
ATOM      5  O   UNL     1     159.078 160.212 154.899  1.00  0.00    -0.341 OA
ATOM      6  C   UNL     1     160.997 161.098 156.874  1.00  0.00     0.179 C 
ATOM      7  C   UNL     1     159.556 160.715 157.249  1.00  0.00     0.202 C 
BRANCH   3   8
ATOM      8  C   UNL     1     160.469 160.835 153.034  1.00  0.00     0.191 C 
BRANCH   8   9
ATOM      9  O   UNL     1     161.607 161.609 152.770  1.00  0.00    -0.394 OA
ATOM     10  H   UNL     1     162.135 161.638 153.610  1.00  0.00     0.210 HD
ENDBRANCH   8   9
ENDBRANCH   3   8
BRANCH   4  11
ATOM     11  O   UNL     1     160.415 162.755 155.205  1.00  0.00    -0.387 OA
ATOM     12  H   UNL     1     159.902 162.940 156.033  1.00  0.00     0.211 HD
ENDBRANCH   4  11
BRANCH   6  13
ATOM     13  O   UNL     1     161.449 162.126 157.718  1.00  0.00    -0.387 OA
ATOM     14  H   UNL     1     162.332 162.417 157.367  1.00  0.00     0.211 HD
ENDBRANCH   6  13
BRANCH   7  15
ATOM     15  O   UNL     1     158.751 161.867 157.294  1.00  0.00    -0.385 OA
ATOM     16  H   UNL     1     157.877 161.595 157.674  1.00  0.00     0.211 HD
ENDBRANCH   7  15
ENDBRANCH   1   2
BRANCH   1  17
ATOM     17  C   UNL     1     158.799 157.366 156.628  1.00  0.00     0.224 C 
ATOM     18  C   UNL     1     158.554 156.584 155.322  1.00  0.00     0.208 C 
ATOM     19  O   UNL     1     157.527 157.806 157.079  1.00  0.00    -0.337 OA
ATOM     20  C   UNL     1     157.177 155.982 155.546  1.00  0.00     0.180 C 
ATOM     21  C   UNL     1     156.557 156.871 156.644  1.00  0.00     0.179 C 
BRANCH  17  22
ATOM     22  C   UNL     1     159.446 156.450 157.704  1.00  0.00     0.225 C 
BRANCH  22  23
ATOM     23  O   UNL     1     160.065 155.339 157.109  1.00  0.00    -0.391 OA
ATOM     24  H   UNL     1     159.430 154.975 156.438  1.00  0.00     0.210 HD
ENDBRANCH  22  23
ENDBRANCH  17  22
BRANCH  18  25
ATOM     25  O   UNL     1     158.593 157.426 154.191  1.00  0.00    -0.385 OA
ATOM     26  H   UNL     1     159.513 157.789 154.105  1.00  0.00     0.211 HD
ENDBRANCH  18  25
BRANCH  20  27
ATOM     27  O   UNL     1     156.408 155.839 154.372  1.00  0.00    -0.387 OA
ATOM     28  H   UNL     1     156.212 156.733 153.998  1.00  0.00     0.211 HD
ENDBRANCH  20  27
BRANCH  21  29
ATOM     29  C   UNL     1     155.266 157.610 156.259  1.00  0.00     0.191 C 
BRANCH  29  30
ATOM     30  O   UNL     1     155.436 158.309 155.058  1.00  0.00    -0.394 OA
ATOM     31  H   UNL     1     154.642 158.898 154.967  1.00  0.00     0.210 HD
ENDBRANCH  29  30
ENDBRANCH  21  29
ENDBRANCH   1  17
TORSDOF 13
ENDMDL
MODEL 6
REMARK VINA RESULT:    -6.155      5.412      7.669
REMARK INTER + INTRA:         -10.492
REMARK INTER:                  -9.210
REMARK INTRA:                  -1.283
REMARK UNBOUND:                -1.098
REMARK SMILES OC[C@@H]1O[C@](CO)(O[C@@H]2O[C@@H](CO)[C@@H](O)[C@@H](O)[C@H]2O)[C@H](O)[C@@H]1O
REMARK SMILES IDX 8 1 9 2 11 3 14 4 10 5 16 6 18 7 12 8 13 9 15 11 17 13 19 15
REMARK SMILES IDX 5 17 20 18 4 19 22 20 3 21 6 22 7 23 21 25 23 27 2 29 1 30
REMARK H PARENT 13 10 15 12 17 14 19 16 7 24 21 26 23 28 1 31
REMARK Flexibility Score: inf
ROOT
ATOM      1  O   UNL     1     158.351 158.472 161.646  1.00  0.00    -0.313 OA
ENDROOT
BRANCH   1   2
ATOM      2  C   UNL     1     159.024 159.719 161.787  1.00  0.00     0.285 C 
ATOM      3  C   UNL     1     157.566 160.421 163.494  1.00  0.00     0.178 C 
ATOM      4  C   UNL     1     156.919 161.519 162.623  1.00  0.00     0.177 C 
ATOM      5  O   UNL     1     158.919 160.206 163.118  1.00  0.00    -0.341 OA
ATOM      6  C   UNL     1     157.009 161.107 161.140  1.00  0.00     0.179 C 
ATOM      7  C   UNL     1     158.454 160.733 160.771  1.00  0.00     0.202 C 
BRANCH   3   8
ATOM      8  C   UNL     1     157.512 160.802 164.981  1.00  0.00     0.191 C 
BRANCH   8   9
ATOM      9  O   UNL     1     156.332 161.504 165.261  1.00  0.00    -0.394 OA
ATOM     10  H   UNL     1     156.273 161.583 166.248  1.00  0.00     0.210 HD
ENDBRANCH   8   9
ENDBRANCH   3   8
BRANCH   4  11
ATOM     11  O   UNL     1     157.573 162.747 162.833  1.00  0.00    -0.387 OA
ATOM     12  H   UNL     1     158.388 162.554 163.363  1.00  0.00     0.211 HD
ENDBRANCH   4  11
BRANCH   6  13
ATOM     13  O   UNL     1     156.559 162.142 160.305  1.00  0.00    -0.387 OA
ATOM     14  H   UNL     1     157.324 162.395 159.725  1.00  0.00     0.211 HD
ENDBRANCH   6  13
BRANCH   7  15
ATOM     15  O   UNL     1     159.255 161.890 160.745  1.00  0.00    -0.385 OA
ATOM     16  H   UNL     1     160.198 161.589 160.797  1.00  0.00     0.211 HD
ENDBRANCH   7  15
ENDBRANCH   1   2
BRANCH   1  17
ATOM     17  C   UNL     1     159.223 157.380 161.367  1.00  0.00     0.224 C 
ATOM     18  C   UNL     1     159.472 156.600 162.673  1.00  0.00     0.208 C 
ATOM     19  O   UNL     1     160.492 157.828 160.916  1.00  0.00    -0.337 OA
ATOM     20  C   UNL     1     160.853 156.007 162.450  1.00  0.00     0.180 C 
ATOM     21  C   UNL     1     161.468 156.900 161.352  1.00  0.00     0.179 C 
BRANCH  17  22
ATOM     22  C   UNL     1     158.582 156.460 160.291  1.00  0.00     0.225 C 
BRANCH  22  23
ATOM     23  O   UNL     1     157.942 155.361 160.888  1.00  0.00    -0.391 OA
ATOM     24  H   UNL     1     158.618 154.900 161.450  1.00  0.00     0.210 HD
ENDBRANCH  22  23
ENDBRANCH  17  22
BRANCH  18  25
ATOM     25  O   UNL     1     159.426 157.442 163.804  1.00  0.00    -0.385 OA
ATOM     26  H   UNL     1     159.437 156.872 164.617  1.00  0.00     0.211 HD
ENDBRANCH  18  25
BRANCH  20  27
ATOM     27  O   UNL     1     161.622 155.869 163.624  1.00  0.00    -0.387 OA
ATOM     28  H   UNL     1     161.346 156.557 164.279  1.00  0.00     0.211 HD
ENDBRANCH  20  27
BRANCH  21  29
ATOM     29  C   UNL     1     162.753 157.647 161.737  1.00  0.00     0.191 C 
BRANCH  29  30
ATOM     30  O   UNL     1     162.583 158.332 162.947  1.00  0.00    -0.394 OA
ATOM     31  H   UNL     1     161.621 158.568 162.997  1.00  0.00     0.210 HD
ENDBRANCH  29  30
ENDBRANCH  21  29
ENDBRANCH   1  17
TORSDOF 13
ENDMDL
MODEL 7
REMARK VINA RESULT:    -6.152      5.285      8.085
REMARK INTER + INTRA:         -10.487
REMARK INTER:                  -9.446
REMARK INTRA:                  -1.041
REMARK UNBOUND:                -1.098
REMARK SMILES OC[C@@H]1O[C@](CO)(O[C@@H]2O[C@@H](CO)[C@@H](O)[C@@H](O)[C@H]2O)[C@H](O)[C@@H]1O
REMARK SMILES IDX 8 1 9 2 11 3 14 4 10 5 16 6 18 7 12 8 13 9 15 11 17 13 19 15
REMARK SMILES IDX 5 17 20 18 4 19 22 20 3 21 6 22 7 23 21 25 23 27 2 29 1 30
REMARK H PARENT 13 10 15 12 17 14 19 16 7 24 21 26 23 28 1 31
REMARK Flexibility Score: inf
ROOT
ATOM      1  O   UNL     1     158.485 159.247 160.967  1.00  0.00    -0.313 OA
ENDROOT
BRANCH   1   2
ATOM      2  C   UNL     1     158.539 157.999 161.652  1.00  0.00     0.285 C 
ATOM      3  C   UNL     1     160.871 158.144 161.929  1.00  0.00     0.178 C 
ATOM      4  C   UNL     1     161.156 156.976 160.961  1.00  0.00     0.177 C 
ATOM      5  O   UNL     1     159.618 157.973 162.577  1.00  0.00    -0.341 OA
ATOM      6  C   UNL     1     160.018 156.889 159.924  1.00  0.00     0.179 C 
ATOM      7  C   UNL     1     158.650 156.850 160.626  1.00  0.00     0.202 C 
BRANCH   3   8
ATOM      8  C   UNL     1     161.974 158.255 162.991  1.00  0.00     0.191 C 
BRANCH   8   9
ATOM      9  O   UNL     1     163.225 157.981 162.422  1.00  0.00    -0.394 OA
ATOM     10  H   UNL     1     163.904 158.164 163.122  1.00  0.00     0.210 HD
ENDBRANCH   8   9
ENDBRANCH   3   8
BRANCH   4  11
ATOM     11  O   UNL     1     161.260 155.771 161.680  1.00  0.00    -0.387 OA
ATOM     12  H   UNL     1     160.526 155.767 162.347  1.00  0.00     0.211 HD
ENDBRANCH   4  11
BRANCH   6  13
ATOM     13  O   UNL     1     160.167 155.752 159.113  1.00  0.00    -0.387 OA
ATOM     14  H   UNL     1     160.557 156.063 158.254  1.00  0.00     0.211 HD
ENDBRANCH   6  13
BRANCH   7  15
ATOM     15  O   UNL     1     158.480 155.611 161.271  1.00  0.00    -0.385 OA
ATOM     16  H   UNL     1     158.262 154.947 160.568  1.00  0.00     0.211 HD
ENDBRANCH   7  15
ENDBRANCH   1   2
BRANCH   1  17
ATOM     17  C   UNL     1     157.572 160.176 161.545  1.00  0.00     0.224 C 
ATOM     18  C   UNL     1     158.369 161.379 162.088  1.00  0.00     0.208 C 
ATOM     19  O   UNL     1     156.886 159.614 162.652  1.00  0.00    -0.337 OA
ATOM     20  C   UNL     1     157.495 161.871 163.230  1.00  0.00     0.180 C 
ATOM     21  C   UNL     1     156.617 160.650 163.578  1.00  0.00     0.179 C 
BRANCH  17  22
ATOM     22  C   UNL     1     156.545 160.637 160.472  1.00  0.00     0.225 C 
BRANCH  22  23
ATOM     23  O   UNL     1     156.791 161.963 160.081  1.00  0.00    -0.391 OA
ATOM     24  H   UNL     1     157.088 162.456 160.889  1.00  0.00     0.210 HD
ENDBRANCH  22  23
ENDBRANCH  17  22
BRANCH  18  25
ATOM     25  O   UNL     1     159.657 161.001 162.523  1.00  0.00    -0.385 OA
ATOM     26  H   UNL     1     159.558 160.413 163.317  1.00  0.00     0.211 HD
ENDBRANCH  18  25
BRANCH  20  27
ATOM     27  O   UNL     1     158.211 162.434 164.307  1.00  0.00    -0.387 OA
ATOM     28  H   UNL     1     157.790 162.160 165.158  1.00  0.00     0.211 HD
ENDBRANCH  20  27
BRANCH  21  29
ATOM     29  C   UNL     1     156.758 160.111 165.009  1.00  0.00     0.191 C 
BRANCH  29  30
ATOM     30  O   UNL     1     155.938 160.826 165.890  1.00  0.00    -0.394 OA
ATOM     31  H   UNL     1     156.381 160.781 166.777  1.00  0.00     0.210 HD
ENDBRANCH  29  30
ENDBRANCH  21  29
ENDBRANCH   1  17
TORSDOF 13
ENDMDL
MODEL 8
REMARK VINA RESULT:    -6.148      5.406      8.088
REMARK INTER + INTRA:         -10.481
REMARK INTER:                  -9.216
REMARK INTRA:                  -1.265
REMARK UNBOUND:                -1.098
REMARK SMILES OC[C@@H]1O[C@](CO)(O[C@@H]2O[C@@H](CO)[C@@H](O)[C@@H](O)[C@H]2O)[C@H](O)[C@@H]1O
REMARK SMILES IDX 8 1 9 2 11 3 14 4 10 5 16 6 18 7 12 8 13 9 15 11 17 13 19 15
REMARK SMILES IDX 5 17 20 18 4 19 22 20 3 21 6 22 7 23 21 25 23 27 2 29 1 30
REMARK H PARENT 13 10 15 12 17 14 19 16 7 24 21 26 23 28 1 31
REMARK Flexibility Score: inf
ROOT
ATOM      1  O   UNL     1     159.624 159.526 161.562  1.00  0.00    -0.313 OA
ENDROOT
BRANCH   1   2
ATOM      2  C   UNL     1     158.942 158.285 161.711  1.00  0.00     0.285 C 
ATOM      3  C   UNL     1     160.398 157.582 163.420  1.00  0.00     0.178 C 
ATOM      4  C   UNL     1     161.035 156.474 162.555  1.00  0.00     0.177 C 
ATOM      5  O   UNL     1     159.046 157.805 163.046  1.00  0.00    -0.341 OA
ATOM      6  C   UNL     1     160.945 156.878 161.070  1.00  0.00     0.179 C 
ATOM      7  C   UNL     1     159.502 157.260 160.701  1.00  0.00     0.202 C 
BRANCH   3   8
ATOM      8  C   UNL     1     160.451 157.210 164.909  1.00  0.00     0.191 C 
BRANCH   8   9
ATOM      9  O   UNL     1     161.619 156.487 165.188  1.00  0.00    -0.394 OA
ATOM     10  H   UNL     1     162.217 156.595 164.404  1.00  0.00     0.210 HD
ENDBRANCH   8   9
ENDBRANCH   3   8
BRANCH   4  11
ATOM     11  O   UNL     1     160.373 155.253 162.773  1.00  0.00    -0.387 OA
ATOM     12  H   UNL     1     160.882 154.556 162.284  1.00  0.00     0.211 HD
ENDBRANCH   4  11
BRANCH   6  13
ATOM     13  O   UNL     1     161.387 155.835 160.240  1.00  0.00    -0.387 OA
ATOM     14  H   UNL     1     162.375 155.792 160.335  1.00  0.00     0.211 HD
ENDBRANCH   6  13
BRANCH   7  15
ATOM     15  O   UNL     1     158.693 156.109 160.683  1.00  0.00    -0.385 OA
ATOM     16  H   UNL     1     157.842 156.347 161.133  1.00  0.00     0.211 HD
ENDBRANCH   7  15
ENDBRANCH   1   2
BRANCH   1  17
ATOM     17  C   UNL     1     158.758 160.626 161.296  1.00  0.00     0.224 C 
ATOM     18  C   UNL     1     158.518 161.396 162.609  1.00  0.00     0.208 C 
ATOM     19  O   UNL     1     157.485 160.189 160.846  1.00  0.00    -0.337 OA
ATOM     20  C   UNL     1     157.140 161.999 162.397  1.00  0.00     0.180 C 
ATOM     21  C   UNL     1     156.516 161.120 161.292  1.00  0.00     0.179 C 
BRANCH  17  22
ATOM     22  C   UNL     1     159.401 161.552 160.225  1.00  0.00     0.225 C 
BRANCH  22  23
ATOM     23  O   UNL     1     160.051 162.640 160.830  1.00  0.00    -0.391 OA
ATOM     24  H   UNL     1     160.720 162.979 160.180  1.00  0.00     0.210 HD
ENDBRANCH  22  23
ENDBRANCH  17  22
BRANCH  18  25
ATOM     25  O   UNL     1     158.562 160.543 163.733  1.00  0.00    -0.385 OA
ATOM     26  H   UNL     1     157.630 160.341 164.007  1.00  0.00     0.211 HD
ENDBRANCH  18  25
BRANCH  20  27
ATOM     27  O   UNL     1     156.376 162.131 163.575  1.00  0.00    -0.387 OA
ATOM     28  H   UNL     1     155.658 161.452 163.577  1.00  0.00     0.211 HD
ENDBRANCH  20  27
BRANCH  21  29
ATOM     29  C   UNL     1     155.228 160.377 161.676  1.00  0.00     0.191 C 
BRANCH  29  30
ATOM     30  O   UNL     1     155.393 159.691 162.885  1.00  0.00    -0.394 OA
ATOM     31  H   UNL     1     156.072 158.989 162.713  1.00  0.00     0.210 HD
ENDBRANCH  29  30
ENDBRANCH  21  29
ENDBRANCH   1  17
TORSDOF 13
ENDMDL
MODEL 9
REMARK VINA RESULT:    -6.123      1.637      3.333
REMARK INTER + INTRA:         -10.443
REMARK INTER:                  -9.315
REMARK INTRA:                  -1.128
REMARK UNBOUND:                -1.098
REMARK SMILES OC[C@@H]1O[C@](CO)(O[C@@H]2O[C@@H](CO)[C@@H](O)[C@@H](O)[C@H]2O)[C@H](O)[C@@H]1O
REMARK SMILES IDX 8 1 9 2 11 3 14 4 10 5 16 6 18 7 12 8 13 9 15 11 17 13 19 15
REMARK SMILES IDX 5 17 20 18 4 19 22 20 3 21 6 22 7 23 21 25 23 27 2 29 1 30
REMARK H PARENT 13 10 15 12 17 14 19 16 7 24 21 26 23 28 1 31
REMARK Flexibility Score: inf
ROOT
ATOM      1  O   UNL     1     158.863 158.223 155.391  1.00  0.00    -0.313 OA
ENDROOT
BRANCH   1   2
ATOM      2  C   UNL     1     159.996 158.788 156.042  1.00  0.00     0.285 C 
ATOM      3  C   UNL     1     158.888 160.833 156.399  1.00  0.00     0.178 C 
ATOM      4  C   UNL     1     159.787 161.604 155.409  1.00  0.00     0.177 C 
ATOM      5  O   UNL     1     159.599 159.760 157.001  1.00  0.00    -0.341 OA
ATOM      6  C   UNL     1     160.308 160.630 154.334  1.00  0.00     0.179 C 
ATOM      7  C   UNL     1     160.949 159.396 154.989  1.00  0.00     0.202 C 
BRANCH   3   8
ATOM      8  C   UNL     1     158.362 161.766 157.499  1.00  0.00     0.191 C 
BRANCH   8   9
ATOM      9  O   UNL     1     157.907 162.968 156.941  1.00  0.00    -0.394 OA
ATOM     10  H   UNL     1     158.620 163.642 157.091  1.00  0.00     0.210 HD
ENDBRANCH   8   9
ENDBRANCH   3   8
BRANCH   4  11
ATOM     11  O   UNL     1     160.862 162.197 156.097  1.00  0.00    -0.387 OA
ATOM     12  H   UNL     1     160.731 163.179 156.048  1.00  0.00     0.211 HD
ENDBRANCH   4  11
BRANCH   6  13
ATOM     13  O   UNL     1     161.241 161.262 153.497  1.00  0.00    -0.387 OA
ATOM     14  H   UNL     1     161.461 162.134 153.919  1.00  0.00     0.211 HD
ENDBRANCH   6  13
BRANCH   7  15
ATOM     15  O   UNL     1     162.168 159.755 155.594  1.00  0.00    -0.385 OA
ATOM     16  H   UNL     1     162.882 159.254 155.123  1.00  0.00     0.211 HD
ENDBRANCH   7  15
ENDBRANCH   1   2
BRANCH   1  17
ATOM     17  C   UNL     1     158.281 157.133 156.101  1.00  0.00     0.224 C 
ATOM     18  C   UNL     1     157.684 156.142 155.083  1.00  0.00     0.208 C 
ATOM     19  O   UNL     1     157.207 157.561 156.924  1.00  0.00    -0.337 OA
ATOM     20  C   UNL     1     156.550 155.500 155.865  1.00  0.00     0.180 C 
ATOM     21  C   UNL     1     156.258 156.513 156.992  1.00  0.00     0.179 C 
BRANCH  17  22
ATOM     22  C   UNL     1     159.363 156.439 156.975  1.00  0.00     0.225 C 
BRANCH  22  23
ATOM     23  O   UNL     1     159.878 155.304 156.326  1.00  0.00    -0.391 OA
ATOM     24  H   UNL     1     159.478 154.510 156.767  1.00  0.00     0.210 HD
ENDBRANCH  22  23
ENDBRANCH  17  22
BRANCH  18  25
ATOM     25  O   UNL     1     157.230 156.795 153.918  1.00  0.00    -0.385 OA
ATOM     26  H   UNL     1     156.259 156.611 153.816  1.00  0.00     0.211 HD
ENDBRANCH  18  25
BRANCH  20  27
ATOM     27  O   UNL     1     155.441 155.128 155.077  1.00  0.00    -0.387 OA
ATOM     28  H   UNL     1     154.825 154.576 155.619  1.00  0.00     0.211 HD
ENDBRANCH  20  27
BRANCH  21  29
ATOM     29  C   UNL     1     154.840 157.103 157.012  1.00  0.00     0.191 C 
BRANCH  29  30
ATOM     30  O   UNL     1     154.604 157.863 155.860  1.00  0.00    -0.394 OA
ATOM     31  H   UNL     1     153.801 157.468 155.430  1.00  0.00     0.210 HD
ENDBRANCH  29  30
ENDBRANCH  21  29
ENDBRANCH   1  17
TORSDOF 13
ENDMDL
