MODEL 1
REMARK VINA RESULT:    -9.231      0.000      0.000
REMARK INTER + INTRA:          -8.812
REMARK INTER:                 -10.040
REMARK INTRA:                   1.228
REMARK UNBOUND:                 1.228
REMARK SMILES C[C@H]1[C@H](C)CC[C@@]2(C(=O)[O-])CC[C@@]3(C)C(=CC[C@H]4[C@@]5(C)CC[C@H](O)C(C)(C)[C@H]5CC[C@@]43C)[C@H]12
REMARK SMILES IDX 7 1 6 2 11 3 33 4 5 5 12 6 15 7 2 8 3 9 13 10 16 11 1 12
REMARK SMILES IDX 4 13 14 14 31 15 17 16 18 17 30 18 32 19 19 20 29 21 28 22
REMARK SMILES IDX 21 23 20 24 25 25 22 26 23 27 26 28 27 29 8 30 9 31 10 32
REMARK SMILES IDX 24 33
REMARK H PARENT 24 34
REMARK Flexibility Score: inf
ROOT
ATOM      1  C   UNL     1       6.505  -5.723   4.072  1.00  0.00     0.017 C 
ATOM      2  C   UNL     1       7.528  -5.507   2.899  1.00  0.00     0.014 C 
ATOM      3  C   UNL     1       5.079  -5.763   3.454  1.00  0.00     0.014 C 
ATOM      4  C   UNL     1       6.742  -7.084   4.816  1.00  0.00     0.030 C 
ATOM      5  C   UNL     1       8.694  -6.502   2.875  1.00  0.00     0.004 C 
ATOM      6  C   UNL     1       3.979  -5.958   4.508  1.00  0.00     0.013 C 
ATOM      7  C   UNL     1       5.628  -7.323   5.877  1.00  0.00    -0.063 C 
ATOM      8  C   UNL     1       8.236  -7.289   5.278  1.00  0.00    -0.003 C 
ATOM      9  C   UNL     1       9.294  -6.726   4.267  1.00  0.00    -0.011 C 
ATOM     10  C   UNL     1       4.149  -7.240   5.402  1.00  0.00    -0.006 C 
ATOM     11  C   UNL     1       5.935  -7.658   7.163  1.00  0.00    -0.027 C 
ATOM     12  C   UNL     1       8.525  -8.791   5.505  1.00  0.00     0.008 C 
ATOM     13  C   UNL     1      10.003  -5.465   4.794  1.00  0.00     0.008 C 
ATOM     14  C   UNL     1       3.874  -8.471   4.472  1.00  0.00     0.017 C 
ATOM     15  C   UNL     1       3.129  -7.196   6.665  1.00  0.00    -0.020 C 
ATOM     16  C   UNL     1       4.940  -7.976   8.246  1.00  0.00     0.032 C 
ATOM     17  C   UNL     1       3.545  -8.324   7.685  1.00  0.00     0.006 C 
ATOM     18  C   UNL     1       1.668  -7.450   6.228  1.00  0.00     0.008 C 
ATOM     19  C   UNL     1       3.187  -5.777   7.331  1.00  0.00     0.012 C 
ATOM     20  C   UNL     1       2.500  -8.852   8.793  1.00  0.00    -0.025 C 
ATOM     21  C   UNL     1       0.717  -7.559   7.415  1.00  0.00     0.005 C 
ATOM     22  C   UNL     1       0.998  -8.835   8.254  1.00  0.00     0.003 C 
ATOM     23  C   UNL     1       2.614  -8.044  10.128  1.00  0.00     0.010 C 
ATOM     24  C   UNL     1       2.914 -10.338   9.098  1.00  0.00     0.012 C 
ATOM     25  C   UNL     1      -0.127  -9.090   9.360  1.00  0.00    -0.006 C 
ATOM     26  C   UNL     1       1.544  -8.371  11.175  1.00  0.00     0.033 C 
ATOM     27  C   UNL     1       0.128  -8.204  10.613  1.00  0.00     0.120 C 
ATOM     28  C   UNL     1      -0.202 -10.598   9.745  1.00  0.00     0.014 C 
ATOM     29  C   UNL     1      -1.546  -8.745   8.820  1.00  0.00     0.014 C 
ENDROOT
BRANCH   1  30
ATOM     30  C   UNL     1       6.590  -4.528   5.021  1.00  0.00     0.048 C 
ATOM     31  O   UNL     1       7.659  -3.877   5.168  1.00  0.00    -0.550 OA
ATOM     32  O   UNL     1       5.472  -4.149   5.756  1.00  0.00    -0.550 OA
ENDBRANCH   1  30
BRANCH  27  33
ATOM     33  O   UNL     1      -0.809  -8.503  11.619  1.00  0.00    -0.393 OA
ATOM     34  H   UNL     1      -0.305  -8.895  12.379  1.00  0.00     0.210 HD
ENDBRANCH  27  33
TORSDOF 2
ENDMDL
MODEL 2
REMARK VINA RESULT:    -8.179      1.227      1.438
REMARK INTER + INTRA:          -7.669
REMARK INTER:                  -8.113
REMARK INTRA:                   0.444
REMARK UNBOUND:                 1.228
REMARK SMILES C[C@H]1[C@H](C)CC[C@@]2(C(=O)[O-])CC[C@@]3(C)C(=CC[C@H]4[C@@]5(C)CC[C@H](O)C(C)(C)[C@H]5CC[C@@]43C)[C@H]12
REMARK SMILES IDX 7 1 6 2 11 3 33 4 5 5 12 6 15 7 2 8 3 9 13 10 16 11 1 12
REMARK SMILES IDX 4 13 14 14 31 15 17 16 18 17 30 18 32 19 19 20 29 21 28 22
REMARK SMILES IDX 21 23 20 24 25 25 22 26 23 27 26 28 27 29 8 30 9 31 10 32
REMARK SMILES IDX 24 33
REMARK H PARENT 24 34
REMARK Flexibility Score: inf
ROOT
ATOM      1  C   UNL     1       7.656  -6.694   4.247  1.00  0.00     0.017 C 
ATOM      2  C   UNL     1       8.777  -6.605   3.149  1.00  0.00     0.014 C 
ATOM      3  C   UNL     1       6.361  -6.073   3.653  1.00  0.00     0.014 C 
ATOM      4  C   UNL     1       7.337  -8.180   4.640  1.00  0.00     0.030 C 
ATOM      5  C   UNL     1       9.513  -7.921   2.875  1.00  0.00     0.004 C 
ATOM      6  C   UNL     1       5.186  -6.090   4.641  1.00  0.00     0.013 C 
ATOM      7  C   UNL     1       6.132  -8.232   5.625  1.00  0.00    -0.063 C 
ATOM      8  C   UNL     1       8.621  -9.012   5.024  1.00  0.00    -0.003 C 
ATOM      9  C   UNL     1       9.884  -8.658   4.166  1.00  0.00    -0.011 C 
ATOM     10  C   UNL     1       4.820  -7.513   5.200  1.00  0.00    -0.006 C 
ATOM     11  C   UNL     1       6.200  -8.939   6.789  1.00  0.00    -0.027 C 
ATOM     12  C   UNL     1       8.340 -10.526   4.881  1.00  0.00     0.008 C 
ATOM     13  C   UNL     1      10.952  -7.895   4.972  1.00  0.00     0.008 C 
ATOM     14  C   UNL     1       4.199  -8.314   4.004  1.00  0.00     0.017 C 
ATOM     15  C   UNL     1       3.788  -7.390   6.447  1.00  0.00    -0.020 C 
ATOM     16  C   UNL     1       5.076  -9.111   7.775  1.00  0.00     0.032 C 
ATOM     17  C   UNL     1       3.696  -8.793   7.162  1.00  0.00     0.006 C 
ATOM     18  C   UNL     1       2.370  -6.990   5.977  1.00  0.00     0.008 C 
ATOM     19  C   UNL     1       4.293  -6.280   7.433  1.00  0.00     0.012 C 
ATOM     20  C   UNL     1       2.449  -9.141   8.122  1.00  0.00    -0.025 C 
ATOM     21  C   UNL     1       1.353  -7.013   7.114  1.00  0.00     0.005 C 
ATOM     22  C   UNL     1       1.098  -8.458   7.619  1.00  0.00     0.003 C 
ATOM     23  C   UNL     1       2.739  -8.756   9.611  1.00  0.00     0.010 C 
ATOM     24  C   UNL     1       2.285 -10.704   8.058  1.00  0.00     0.012 C 
ATOM     25  C   UNL     1      -0.127  -8.532   8.644  1.00  0.00    -0.006 C 
ATOM     26  C   UNL     1       1.546  -8.901  10.561  1.00  0.00     0.033 C 
ATOM     27  C   UNL     1       0.329  -8.109  10.070  1.00  0.00     0.120 C 
ATOM     28  C   UNL     1      -0.761  -9.955   8.657  1.00  0.00     0.014 C 
ATOM     29  C   UNL     1      -1.285  -7.583   8.217  1.00  0.00     0.014 C 
ENDROOT
BRANCH   1  30
ATOM     30  C   UNL     1       8.086  -5.861   5.454  1.00  0.00     0.048 C 
ATOM     31  O   UNL     1       8.639  -6.388   6.456  1.00  0.00    -0.550 OA
ATOM     32  O   UNL     1       7.855  -4.491   5.464  1.00  0.00    -0.550 OA
ENDBRANCH   1  30
BRANCH  27  33
ATOM     33  O   UNL     1      -0.728  -8.267  10.985  1.00  0.00    -0.393 OA
ATOM     34  H   UNL     1      -0.392  -7.973  11.872  1.00  0.00     0.210 HD
ENDBRANCH  27  33
TORSDOF 2
ENDMDL
MODEL 3
REMARK VINA RESULT:    -7.646      1.406      8.311
REMARK INTER + INTRA:          -7.088
REMARK INTER:                  -7.810
REMARK INTRA:                   0.722
REMARK UNBOUND:                 1.228
REMARK SMILES C[C@H]1[C@H](C)CC[C@@]2(C(=O)[O-])CC[C@@]3(C)C(=CC[C@H]4[C@@]5(C)CC[C@H](O)C(C)(C)[C@H]5CC[C@@]43C)[C@H]12
REMARK SMILES IDX 7 1 6 2 11 3 33 4 5 5 12 6 15 7 2 8 3 9 13 10 16 11 1 12
REMARK SMILES IDX 4 13 14 14 31 15 17 16 18 17 30 18 32 19 19 20 29 21 28 22
REMARK SMILES IDX 21 23 20 24 25 25 22 26 23 27 26 28 27 29 8 30 9 31 10 32
REMARK SMILES IDX 24 33
REMARK H PARENT 24 34
REMARK Flexibility Score: inf
ROOT
ATOM      1  C   UNL     1       1.583  -9.888  10.072  1.00  0.00     0.017 C 
ATOM      2  C   UNL     1       0.464 -10.800  10.691  1.00  0.00     0.014 C 
ATOM      3  C   UNL     1       2.755 -10.811   9.633  1.00  0.00     0.014 C 
ATOM      4  C   UNL     1       1.078  -9.121   8.800  1.00  0.00     0.030 C 
ATOM      5  C   UNL     1      -0.940 -10.569  10.121  1.00  0.00     0.004 C 
ATOM      6  C   UNL     1       3.927 -10.032   9.017  1.00  0.00     0.013 C 
ATOM      7  C   UNL     1       2.250  -8.338   8.138  1.00  0.00    -0.063 C 
ATOM      8  C   UNL     1      -0.270  -8.336   9.040  1.00  0.00    -0.003 C 
ATOM      9  C   UNL     1      -1.274  -9.080   9.987  1.00  0.00    -0.011 C 
ATOM     10  C   UNL     1       3.541  -9.132   7.788  1.00  0.00    -0.006 C 
ATOM     11  C   UNL     1       2.127  -7.019   7.815  1.00  0.00    -0.027 C 
ATOM     12  C   UNL     1      -0.977  -8.061   7.693  1.00  0.00     0.008 C 
ATOM     13  C   UNL     1      -1.407  -8.399  11.361  1.00  0.00     0.008 C 
ATOM     14  C   UNL     1       3.199 -10.109   6.611  1.00  0.00     0.017 C 
ATOM     15  C   UNL     1       4.760  -8.130   7.406  1.00  0.00    -0.020 C 
ATOM     16  C   UNL     1       3.169  -6.189   7.114  1.00  0.00     0.032 C 
ATOM     17  C   UNL     1       4.224  -7.051   6.390  1.00  0.00     0.006 C 
ATOM     18  C   UNL     1       5.933  -8.886   6.740  1.00  0.00     0.008 C 
ATOM     19  C   UNL     1       5.309  -7.457   8.714  1.00  0.00     0.012 C 
ATOM     20  C   UNL     1       5.249  -6.210   5.473  1.00  0.00    -0.025 C 
ATOM     21  C   UNL     1       7.024  -7.943   6.243  1.00  0.00     0.005 C 
ATOM     22  C   UNL     1       6.526  -7.072   5.059  1.00  0.00     0.003 C 
ATOM     23  C   UNL     1       5.686  -4.877   6.166  1.00  0.00     0.010 C 
ATOM     24  C   UNL     1       4.447  -5.831   4.174  1.00  0.00     0.012 C 
ATOM     25  C   UNL     1       7.712  -6.248   4.374  1.00  0.00    -0.006 C 
ATOM     26  C   UNL     1       6.786  -4.099   5.437  1.00  0.00     0.033 C 
ATOM     27  C   UNL     1       8.028  -4.964   5.192  1.00  0.00     0.120 C 
ATOM     28  C   UNL     1       7.372  -5.900   2.894  1.00  0.00     0.014 C 
ATOM     29  C   UNL     1       9.020  -7.090   4.295  1.00  0.00     0.014 C 
ENDROOT
BRANCH   1  30
ATOM     30  C   UNL     1       2.092  -8.936  11.152  1.00  0.00     0.048 C 
ATOM     31  O   UNL     1       1.495  -7.859  11.417  1.00  0.00    -0.550 OA
ATOM     32  O   UNL     1       3.249  -9.248  11.858  1.00  0.00    -0.550 OA
ENDBRANCH   1  30
BRANCH  27  33
ATOM     33  O   UNL     1       9.006  -4.196   4.534  1.00  0.00    -0.393 OA
ATOM     34  H   UNL     1       9.641  -4.832   4.112  1.00  0.00     0.210 HD
ENDBRANCH  27  33
TORSDOF 2
ENDMDL
