MODEL 1
REMARK VINA RESULT:    -4.189      0.000      0.000
REMARK INTER + INTRA:          -8.840
REMARK INTER:                  -7.862
REMARK INTRA:                  -0.978
REMARK UNBOUND:                -0.978
REMARK SMILES O=C([O-])CCCCCCCCCCCCCCC(=O)[O-]
REMARK SMILES IDX 10 1 9 2 8 3 7 4 6 5 5 6 4 7 2 8 1 9 3 10 11 11 12 12 13 13
REMARK SMILES IDX 14 14 15 15 16 16 17 17 18 18 19 19 20 20
REMARK H PARENT
REMARK Flexibility Score: inf
ROOT
ATOM      1  C   UNL     1     159.657 158.995 150.302  1.00  0.00     0.000 C 
ENDROOT
BRANCH   1   2
ATOM      2  C   UNL     1     160.716 157.891 150.139  1.00  0.00     0.000 C 
BRANCH   2   3
ATOM      3  C   UNL     1     162.147 158.446 150.012  1.00  0.00     0.000 C 
BRANCH   3   4
ATOM      4  C   UNL     1     162.790 158.919 151.329  1.00  0.00     0.000 C 
BRANCH   4   5
ATOM      5  C   UNL     1     163.725 160.125 151.140  1.00  0.00     0.000 C 
BRANCH   5   6
ATOM      6  C   UNL     1     165.137 159.877 151.705  1.00  0.00     0.006 C 
BRANCH   6   7
ATOM      7  C   UNL     1     165.297 158.545 152.456  1.00  0.00     0.053 C 
BRANCH   7   8
ATOM      8  C   UNL     1     166.735 158.211 152.710  1.00  0.00     0.041 C 
ATOM      9  O   UNL     1     167.081 157.020 152.928  1.00  0.00    -0.550 OA
ATOM     10  O   UNL     1     167.688 159.221 152.738  1.00  0.00    -0.550 OA
ENDBRANCH   7   8
ENDBRANCH   6   7
ENDBRANCH   5   6
ENDBRANCH   4   5
ENDBRANCH   3   4
ENDBRANCH   2   3
ENDBRANCH   1   2
BRANCH   1  11
ATOM     11  C   UNL     1     158.259 158.431 150.607  1.00  0.00     0.000 C 
BRANCH  11  12
ATOM     12  C   UNL     1     158.128 156.946 150.225  1.00  0.00     0.000 C 
BRANCH  12  13
ATOM     13  C   UNL     1     157.080 156.208 151.075  1.00  0.00     0.000 C 
BRANCH  13  14
ATOM     14  C   UNL     1     157.377 156.288 152.583  1.00  0.00     0.000 C 
BRANCH  14  15
ATOM     15  C   UNL     1     157.621 154.906 153.210  1.00  0.00     0.000 C 
BRANCH  15  16
ATOM     16  C   UNL     1     158.483 153.995 152.324  1.00  0.00     0.006 C 
BRANCH  16  17
ATOM     17  C   UNL     1     159.687 153.455 153.101  1.00  0.00     0.053 C 
BRANCH  17  18
ATOM     18  C   UNL     1     160.372 154.559 153.842  1.00  0.00     0.041 C 
ATOM     19  O   UNL     1     160.924 155.497 153.211  1.00  0.00    -0.550 OA
ATOM     20  O   UNL     1     160.442 154.526 155.229  1.00  0.00    -0.550 OA
ENDBRANCH  17  18
ENDBRANCH  16  17
ENDBRANCH  15  16
ENDBRANCH  14  15
ENDBRANCH  13  14
ENDBRANCH  12  13
ENDBRANCH  11  12
ENDBRANCH   1  11
TORSDOF 15
ENDMDL
MODEL 2
REMARK VINA RESULT:    -3.996     12.010     14.731
REMARK INTER + INTRA:          -8.478
REMARK INTER:                  -7.524
REMARK INTRA:                  -0.954
REMARK UNBOUND:                -0.978
REMARK SMILES O=C([O-])CCCCCCCCCCCCCCC(=O)[O-]
REMARK SMILES IDX 10 1 9 2 8 3 7 4 6 5 5 6 4 7 2 8 1 9 3 10 11 11 12 12 13 13
REMARK SMILES IDX 14 14 15 15 16 16 17 17 18 18 19 19 20 20
REMARK H PARENT
REMARK Flexibility Score: inf
ROOT
ATOM      1  C   UNL     1     154.382 159.965 164.647  1.00  0.00     0.000 C 
ENDROOT
BRANCH   1   2
ATOM      2  C   UNL     1     153.030 159.339 164.265  1.00  0.00     0.000 C 
BRANCH   2   3
ATOM      3  C   UNL     1     152.812 157.950 164.894  1.00  0.00     0.000 C 
BRANCH   3   4
ATOM      4  C   UNL     1     153.087 156.755 163.963  1.00  0.00     0.000 C 
BRANCH   4   5
ATOM      5  C   UNL     1     152.057 156.631 162.828  1.00  0.00     0.000 C 
BRANCH   5   6
ATOM      6  C   UNL     1     152.707 156.638 161.431  1.00  0.00     0.006 C 
BRANCH   6   7
ATOM      7  C   UNL     1     153.420 157.950 161.068  1.00  0.00     0.053 C 
BRANCH   7   8
ATOM      8  C   UNL     1     152.500 158.924 160.399  1.00  0.00     0.041 C 
ATOM      9  O   UNL     1     152.761 159.353 159.244  1.00  0.00    -0.550 OA
ATOM     10  O   UNL     1     151.370 159.383 161.063  1.00  0.00    -0.550 OA
ENDBRANCH   7   8
ENDBRANCH   6   7
ENDBRANCH   5   6
ENDBRANCH   4   5
ENDBRANCH   3   4
ENDBRANCH   2   3
ENDBRANCH   1   2
BRANCH   1  11
ATOM     11  C   UNL     1     155.442 159.798 163.544  1.00  0.00     0.000 C 
BRANCH  11  12
ATOM     12  C   UNL     1     156.862 160.125 164.039  1.00  0.00     0.000 C 
BRANCH  12  13
ATOM     13  C   UNL     1     157.638 158.870 164.473  1.00  0.00     0.000 C 
BRANCH  13  14
ATOM     14  C   UNL     1     159.122 158.921 164.067  1.00  0.00     0.000 C 
BRANCH  14  15
ATOM     15  C   UNL     1     159.966 159.778 165.024  1.00  0.00     0.000 C 
BRANCH  15  16
ATOM     16  C   UNL     1     161.358 159.183 165.284  1.00  0.00     0.006 C 
BRANCH  16  17
ATOM     17  C   UNL     1     161.395 157.696 164.917  1.00  0.00     0.053 C 
BRANCH  17  18
ATOM     18  C   UNL     1     162.638 157.056 165.446  1.00  0.00     0.041 C 
ATOM     19  O   UNL     1     163.760 157.356 164.962  1.00  0.00    -0.550 OA
ATOM     20  O   UNL     1     162.554 156.090 166.441  1.00  0.00    -0.550 OA
ENDBRANCH  17  18
ENDBRANCH  16  17
ENDBRANCH  15  16
ENDBRANCH  14  15
ENDBRANCH  13  14
ENDBRANCH  12  13
ENDBRANCH  11  12
ENDBRANCH   1  11
TORSDOF 15
ENDMDL
MODEL 3
REMARK VINA RESULT:    -3.949     10.154     12.764
REMARK INTER + INTRA:          -8.390
REMARK INTER:                  -6.150
REMARK INTRA:                  -2.240
REMARK UNBOUND:                -0.978
REMARK SMILES O=C([O-])CCCCCCCCCCCCCCC(=O)[O-]
REMARK SMILES IDX 10 1 9 2 8 3 7 4 6 5 5 6 4 7 2 8 1 9 3 10 11 11 12 12 13 13
REMARK SMILES IDX 14 14 15 15 16 16 17 17 18 18 19 19 20 20
REMARK H PARENT
REMARK Flexibility Score: inf
ROOT
ATOM      1  C   UNL     1     161.069 153.236 161.443  1.00  0.00     0.000 C 
ENDROOT
BRANCH   1   2
ATOM      2  C   UNL     1     162.273 152.839 162.315  1.00  0.00     0.000 C 
BRANCH   2   3
ATOM      3  C   UNL     1     162.183 153.391 163.749  1.00  0.00     0.000 C 
BRANCH   3   4
ATOM      4  C   UNL     1     160.899 154.176 164.074  1.00  0.00     0.000 C 
BRANCH   4   5
ATOM      5  C   UNL     1     161.180 155.596 164.593  1.00  0.00     0.000 C 
BRANCH   5   6
ATOM      6  C   UNL     1     162.497 156.180 164.046  1.00  0.00     0.006 C 
BRANCH   6   7
ATOM      7  C   UNL     1     163.262 157.068 165.042  1.00  0.00     0.053 C 
BRANCH   7   8
ATOM      8  C   UNL     1     163.477 156.382 166.356  1.00  0.00     0.041 C 
ATOM      9  O   UNL     1     164.243 155.385 166.433  1.00  0.00    -0.550 OA
ATOM     10  O   UNL     1     162.808 156.824 167.489  1.00  0.00    -0.550 OA
ENDBRANCH   7   8
ENDBRANCH   6   7
ENDBRANCH   5   6
ENDBRANCH   4   5
ENDBRANCH   3   4
ENDBRANCH   2   3
ENDBRANCH   1   2
BRANCH   1  11
ATOM     11  C   UNL     1     161.464 154.153 160.273  1.00  0.00     0.000 C 
BRANCH  11  12
ATOM     12  C   UNL     1     162.781 154.905 160.536  1.00  0.00     0.000 C 
BRANCH  12  13
ATOM     13  C   UNL     1     163.684 154.964 159.291  1.00  0.00     0.000 C 
BRANCH  13  14
ATOM     14  C   UNL     1     165.179 154.855 159.639  1.00  0.00     0.000 C 
BRANCH  14  15
ATOM     15  C   UNL     1     165.422 154.146 160.981  1.00  0.00     0.000 C 
BRANCH  15  16
ATOM     16  C   UNL     1     166.381 154.921 161.898  1.00  0.00     0.006 C 
BRANCH  16  17
ATOM     17  C   UNL     1     165.892 154.895 163.349  1.00  0.00     0.053 C 
BRANCH  17  18
ATOM     18  C   UNL     1     166.380 153.664 164.045  1.00  0.00     0.041 C 
ATOM     19  O   UNL     1     165.559 152.802 164.457  1.00  0.00    -0.550 OA
ATOM     20  O   UNL     1     167.737 153.492 164.284  1.00  0.00    -0.550 OA
ENDBRANCH  17  18
ENDBRANCH  16  17
ENDBRANCH  15  16
ENDBRANCH  14  15
ENDBRANCH  13  14
ENDBRANCH  12  13
ENDBRANCH  11  12
ENDBRANCH   1  11
TORSDOF 15
ENDMDL
MODEL 4
REMARK VINA RESULT:    -3.942     12.529     13.290
REMARK INTER + INTRA:          -8.378
REMARK INTER:                  -7.582
REMARK INTRA:                  -0.796
REMARK UNBOUND:                -0.978
REMARK SMILES O=C([O-])CCCCCCCCCCCCCCC(=O)[O-]
REMARK SMILES IDX 10 1 9 2 8 3 7 4 6 5 5 6 4 7 2 8 1 9 3 10 11 11 12 12 13 13
REMARK SMILES IDX 14 14 15 15 16 16 17 17 18 18 19 19 20 20
REMARK H PARENT
REMARK Flexibility Score: inf
ROOT
ATOM      1  C   UNL     1     157.812 159.019 164.136  1.00  0.00     0.000 C 
ENDROOT
BRANCH   1   2
ATOM      2  C   UNL     1     159.152 159.774 164.109  1.00  0.00     0.000 C 
BRANCH   2   3
ATOM      3  C   UNL     1     160.081 159.390 165.275  1.00  0.00     0.000 C 
BRANCH   3   4
ATOM      4  C   UNL     1     161.327 158.574 164.883  1.00  0.00     0.000 C 
BRANCH   4   5
ATOM      5  C   UNL     1     160.981 157.172 164.351  1.00  0.00     0.000 C 
BRANCH   5   6
ATOM      6  C   UNL     1     161.569 156.044 165.220  1.00  0.00     0.006 C 
BRANCH   6   7
ATOM      7  C   UNL     1     162.830 155.384 164.638  1.00  0.00     0.053 C 
BRANCH   7   8
ATOM      8  C   UNL     1     164.082 155.897 165.280  1.00  0.00     0.041 C 
ATOM      9  O   UNL     1     164.748 156.814 164.729  1.00  0.00    -0.550 OA
ATOM     10  O   UNL     1     164.531 155.341 166.470  1.00  0.00    -0.550 OA
ENDBRANCH   7   8
ENDBRANCH   6   7
ENDBRANCH   5   6
ENDBRANCH   4   5
ENDBRANCH   3   4
ENDBRANCH   2   3
ENDBRANCH   1   2
BRANCH   1  11
ATOM     11  C   UNL     1     156.624 159.909 163.730  1.00  0.00     0.000 C 
BRANCH  11  12
ATOM     12  C   UNL     1     155.267 159.229 163.982  1.00  0.00     0.000 C 
BRANCH  12  13
ATOM     13  C   UNL     1     154.424 159.102 162.702  1.00  0.00     0.000 C 
BRANCH  13  14
ATOM     14  C   UNL     1     153.053 159.790 162.825  1.00  0.00     0.000 C 
BRANCH  14  15
ATOM     15  C   UNL     1     152.075 159.001 163.711  1.00  0.00     0.000 C 
BRANCH  15  16
ATOM     16  C   UNL     1     151.009 158.251 162.898  1.00  0.00     0.006 C 
BRANCH  16  17
ATOM     17  C   UNL     1     151.021 156.755 163.227  1.00  0.00     0.053 C 
BRANCH  17  18
ATOM     18  C   UNL     1     152.314 156.135 162.803  1.00  0.00     0.041 C 
ATOM     19  O   UNL     1     153.055 155.573 163.651  1.00  0.00    -0.550 OA
ATOM     20  O   UNL     1     152.724 156.220 161.479  1.00  0.00    -0.550 OA
ENDBRANCH  17  18
ENDBRANCH  16  17
ENDBRANCH  15  16
ENDBRANCH  14  15
ENDBRANCH  13  14
ENDBRANCH  12  13
ENDBRANCH  11  12
ENDBRANCH   1  11
TORSDOF 15
ENDMDL
MODEL 5
REMARK VINA RESULT:    -3.934     11.840     13.398
REMARK INTER + INTRA:          -8.361
REMARK INTER:                  -6.227
REMARK INTRA:                  -2.134
REMARK UNBOUND:                -0.978
REMARK SMILES O=C([O-])CCCCCCCCCCCCCCC(=O)[O-]
REMARK SMILES IDX 10 1 9 2 8 3 7 4 6 5 5 6 4 7 2 8 1 9 3 10 11 11 12 12 13 13
REMARK SMILES IDX 14 14 15 15 16 16 17 17 18 18 19 19 20 20
REMARK H PARENT
REMARK Flexibility Score: inf
ROOT
ATOM      1  C   UNL     1     162.766 157.773 165.589  1.00  0.00     0.000 C 
ENDROOT
BRANCH   1   2
ATOM      2  C   UNL     1     162.907 156.657 166.638  1.00  0.00     0.000 C 
BRANCH   2   3
ATOM      3  C   UNL     1     164.034 155.661 166.307  1.00  0.00     0.000 C 
BRANCH   3   4
ATOM      4  C   UNL     1     164.933 156.054 165.120  1.00  0.00     0.000 C 
BRANCH   4   5
ATOM      5  C   UNL     1     165.631 154.846 164.472  1.00  0.00     0.000 C 
BRANCH   5   6
ATOM      6  C   UNL     1     165.164 153.502 165.062  1.00  0.00     0.006 C 
BRANCH   6   7
ATOM      7  C   UNL     1     165.326 152.301 164.115  1.00  0.00     0.053 C 
BRANCH   7   8
ATOM      8  C   UNL     1     165.459 151.010 164.862  1.00  0.00     0.041 C 
ATOM      9  O   UNL     1     164.890 149.969 164.437  1.00  0.00    -0.550 OA
ATOM     10  O   UNL     1     166.183 150.962 166.046  1.00  0.00    -0.550 OA
ENDBRANCH   7   8
ENDBRANCH   6   7
ENDBRANCH   5   6
ENDBRANCH   4   5
ENDBRANCH   3   4
ENDBRANCH   2   3
ENDBRANCH   1   2
BRANCH   1  11
ATOM     11  C   UNL     1     161.402 157.744 164.877  1.00  0.00     0.000 C 
BRANCH  11  12
ATOM     12  C   UNL     1     161.059 156.351 164.320  1.00  0.00     0.000 C 
BRANCH  12  13
ATOM     13  C   UNL     1     161.854 156.012 163.048  1.00  0.00     0.000 C 
BRANCH  13  14
ATOM     14  C   UNL     1     162.258 154.529 162.979  1.00  0.00     0.000 C 
BRANCH  14  15
ATOM     15  C   UNL     1     161.530 153.670 164.027  1.00  0.00     0.000 C 
BRANCH  15  16
ATOM     16  C   UNL     1     160.578 152.644 163.395  1.00  0.00     0.006 C 
BRANCH  16  17
ATOM     17  C   UNL     1     159.116 153.003 163.682  1.00  0.00     0.053 C 
BRANCH  17  18
ATOM     18  C   UNL     1     158.217 152.414 162.643  1.00  0.00     0.041 C 
ATOM     19  O   UNL     1     158.669 151.583 161.812  1.00  0.00    -0.550 OA
ATOM     20  O   UNL     1     156.892 152.820 162.560  1.00  0.00    -0.550 OA
ENDBRANCH  17  18
ENDBRANCH  16  17
ENDBRANCH  15  16
ENDBRANCH  14  15
ENDBRANCH  13  14
ENDBRANCH  12  13
ENDBRANCH  11  12
ENDBRANCH   1  11
TORSDOF 15
ENDMDL
MODEL 6
REMARK VINA RESULT:    -3.920      3.858      5.564
REMARK INTER + INTRA:          -8.335
REMARK INTER:                  -6.076
REMARK INTRA:                  -2.259
REMARK UNBOUND:                -0.978
REMARK SMILES O=C([O-])CCCCCCCCCCCCCCC(=O)[O-]
REMARK SMILES IDX 10 1 9 2 8 3 7 4 6 5 5 6 4 7 2 8 1 9 3 10 11 11 12 12 13 13
REMARK SMILES IDX 14 14 15 15 16 16 17 17 18 18 19 19 20 20
REMARK H PARENT
REMARK Flexibility Score: inf
ROOT
ATOM      1  C   UNL     1     159.892 156.889 150.197  1.00  0.00     0.000 C 
ENDROOT
BRANCH   1   2
ATOM      2  C   UNL     1     159.409 155.459 149.901  1.00  0.00     0.000 C 
BRANCH   2   3
ATOM      3  C   UNL     1     159.473 154.536 151.132  1.00  0.00     0.000 C 
BRANCH   3   4
ATOM      4  C   UNL     1     159.891 155.220 152.447  1.00  0.00     0.000 C 
BRANCH   4   5
ATOM      5  C   UNL     1     158.758 155.265 153.486  1.00  0.00     0.000 C 
BRANCH   5   6
ATOM      6  C   UNL     1     158.948 154.237 154.618  1.00  0.00     0.006 C 
BRANCH   6   7
ATOM      7  C   UNL     1     160.355 153.621 154.688  1.00  0.00     0.053 C 
BRANCH   7   8
ATOM      8  C   UNL     1     161.204 154.276 155.733  1.00  0.00     0.041 C 
ATOM      9  O   UNL     1     162.260 154.879 155.407  1.00  0.00    -0.550 OA
ATOM     10  O   UNL     1     160.846 154.192 157.073  1.00  0.00    -0.550 OA
ENDBRANCH   7   8
ENDBRANCH   6   7
ENDBRANCH   5   6
ENDBRANCH   4   5
ENDBRANCH   3   4
ENDBRANCH   2   3
ENDBRANCH   1   2
BRANCH   1  11
ATOM     11  C   UNL     1     158.781 157.937 150.016  1.00  0.00     0.000 C 
BRANCH  11  12
ATOM     12  C   UNL     1     158.094 158.301 151.345  1.00  0.00     0.000 C 
BRANCH  12  13
ATOM     13  C   UNL     1     156.748 157.581 151.530  1.00  0.00     0.000 C 
BRANCH  13  14
ATOM     14  C   UNL     1     156.165 157.064 150.202  1.00  0.00     0.000 C 
BRANCH  14  15
ATOM     15  C   UNL     1     155.256 155.840 150.394  1.00  0.00     0.000 C 
BRANCH  15  16
ATOM     16  C   UNL     1     155.501 155.122 151.730  1.00  0.00     0.006 C 
BRANCH  16  17
ATOM     17  C   UNL     1     155.993 153.689 151.499  1.00  0.00     0.053 C 
BRANCH  17  18
ATOM     18  C   UNL     1     154.946 152.703 151.908  1.00  0.00     0.041 C 
ATOM     19  O   UNL     1     153.784 152.777 151.428  1.00  0.00    -0.550 OA
ATOM     20  O   UNL     1     155.238 151.731 152.855  1.00  0.00    -0.550 OA
ENDBRANCH  17  18
ENDBRANCH  16  17
ENDBRANCH  15  16
ENDBRANCH  14  15
ENDBRANCH  13  14
ENDBRANCH  12  13
ENDBRANCH  11  12
ENDBRANCH   1  11
TORSDOF 15
ENDMDL
MODEL 7
REMARK VINA RESULT:    -3.913      9.897     12.435
REMARK INTER + INTRA:          -8.323
REMARK INTER:                  -6.613
REMARK INTRA:                  -1.710
REMARK UNBOUND:                -0.978
REMARK SMILES O=C([O-])CCCCCCCCCCCCCCC(=O)[O-]
REMARK SMILES IDX 10 1 9 2 8 3 7 4 6 5 5 6 4 7 2 8 1 9 3 10 11 11 12 12 13 13
REMARK SMILES IDX 14 14 15 15 16 16 17 17 18 18 19 19 20 20
REMARK H PARENT
REMARK Flexibility Score: inf
ROOT
ATOM      1  C   UNL     1     164.587 152.298 164.283  1.00  0.00     0.000 C 
ENDROOT
BRANCH   1   2
ATOM      2  C   UNL     1     165.483 153.402 164.871  1.00  0.00     0.000 C 
BRANCH   2   3
ATOM      3  C   UNL     1     165.453 154.702 164.047  1.00  0.00     0.000 C 
BRANCH   3   4
ATOM      4  C   UNL     1     164.983 155.955 164.809  1.00  0.00     0.000 C 
BRANCH   4   5
ATOM      5  C   UNL     1     164.076 155.623 166.006  1.00  0.00     0.000 C 
BRANCH   5   6
ATOM      6  C   UNL     1     162.697 156.305 165.915  1.00  0.00     0.006 C 
BRANCH   6   7
ATOM      7  C   UNL     1     162.674 157.761 166.409  1.00  0.00     0.053 C 
BRANCH   7   8
ATOM      8  C   UNL     1     162.446 158.731 165.292  1.00  0.00     0.041 C 
ATOM      9  O   UNL     1     163.423 159.270 164.709  1.00  0.00    -0.550 OA
ATOM     10  O   UNL     1     161.152 159.065 164.915  1.00  0.00    -0.550 OA
ENDBRANCH   7   8
ENDBRANCH   6   7
ENDBRANCH   5   6
ENDBRANCH   4   5
ENDBRANCH   3   4
ENDBRANCH   2   3
ENDBRANCH   1   2
BRANCH   1  11
ATOM     11  C   UNL     1     163.582 152.840 163.253  1.00  0.00     0.000 C 
BRANCH  11  12
ATOM     12  C   UNL     1     162.192 153.091 163.864  1.00  0.00     0.000 C 
BRANCH  12  13
ATOM     13  C   UNL     1     161.345 154.063 163.024  1.00  0.00     0.000 C 
BRANCH  13  14
ATOM     14  C   UNL     1     162.187 155.181 162.384  1.00  0.00     0.000 C 
BRANCH  14  15
ATOM     15  C   UNL     1     162.502 154.908 160.904  1.00  0.00     0.000 C 
BRANCH  15  16
ATOM     16  C   UNL     1     161.351 154.199 160.173  1.00  0.00     0.006 C 
BRANCH  16  17
ATOM     17  C   UNL     1     161.396 154.491 158.670  1.00  0.00     0.053 C 
BRANCH  17  18
ATOM     18  C   UNL     1     160.336 153.716 157.953  1.00  0.00     0.041 C 
ATOM     19  O   UNL     1     160.645 152.945 157.007  1.00  0.00    -0.550 OA
ATOM     20  O   UNL     1     159.001 153.883 158.298  1.00  0.00    -0.550 OA
ENDBRANCH  17  18
ENDBRANCH  16  17
ENDBRANCH  15  16
ENDBRANCH  14  15
ENDBRANCH  13  14
ENDBRANCH  12  13
ENDBRANCH  11  12
ENDBRANCH   1  11
TORSDOF 15
ENDMDL
MODEL 8
REMARK VINA RESULT:    -3.861      1.499      2.524
REMARK INTER + INTRA:          -8.226
REMARK INTER:                  -7.580
REMARK INTRA:                  -0.646
REMARK UNBOUND:                -0.978
REMARK SMILES O=C([O-])CCCCCCCCCCCCCCC(=O)[O-]
REMARK SMILES IDX 10 1 9 2 8 3 7 4 6 5 5 6 4 7 2 8 1 9 3 10 11 11 12 12 13 13
REMARK SMILES IDX 14 14 15 15 16 16 17 17 18 18 19 19 20 20
REMARK H PARENT
REMARK Flexibility Score: inf
ROOT
ATOM      1  C   UNL     1     161.906 159.228 150.018  1.00  0.00     0.000 C 
ENDROOT
BRANCH   1   2
ATOM      2  C   UNL     1     163.251 158.898 150.688  1.00  0.00     0.000 C 
BRANCH   2   3
ATOM      3  C   UNL     1     163.898 160.117 151.371  1.00  0.00     0.000 C 
BRANCH   3   4
ATOM      4  C   UNL     1     165.355 159.921 151.828  1.00  0.00     0.000 C 
BRANCH   4   5
ATOM      5  C   UNL     1     165.585 158.573 152.533  1.00  0.00     0.000 C 
BRANCH   5   6
ATOM      6  C   UNL     1     166.238 158.731 153.919  1.00  0.00     0.006 C 
BRANCH   6   7
ATOM      7  C   UNL     1     167.410 157.771 154.183  1.00  0.00     0.053 C 
BRANCH   7   8
ATOM      8  C   UNL     1     166.982 156.556 154.947  1.00  0.00     0.041 C 
ATOM      9  O   UNL     1     166.247 155.690 154.402  1.00  0.00    -0.550 OA
ATOM     10  O   UNL     1     167.367 156.396 156.271  1.00  0.00    -0.550 OA
ENDBRANCH   7   8
ENDBRANCH   6   7
ENDBRANCH   5   6
ENDBRANCH   4   5
ENDBRANCH   3   4
ENDBRANCH   2   3
ENDBRANCH   1   2
BRANCH   1  11
ATOM     11  C   UNL     1     160.835 158.157 150.286  1.00  0.00     0.000 C 
BRANCH  11  12
ATOM     12  C   UNL     1     159.420 158.634 149.912  1.00  0.00     0.000 C 
BRANCH  12  13
ATOM     13  C   UNL     1     158.372 157.513 150.020  1.00  0.00     0.000 C 
BRANCH  13  14
ATOM     14  C   UNL     1     157.520 157.620 151.297  1.00  0.00     0.000 C 
BRANCH  14  15
ATOM     15  C   UNL     1     156.652 156.374 151.533  1.00  0.00     0.000 C 
BRANCH  15  16
ATOM     16  C   UNL     1     157.461 155.175 152.051  1.00  0.00     0.006 C 
BRANCH  16  17
ATOM     17  C   UNL     1     158.500 155.622 153.084  1.00  0.00     0.053 C 
BRANCH  17  18
ATOM     18  C   UNL     1     159.268 154.446 153.597  1.00  0.00     0.041 C 
ATOM     19  O   UNL     1     159.346 153.392 152.913  1.00  0.00    -0.550 OA
ATOM     20  O   UNL     1     159.857 154.496 154.854  1.00  0.00    -0.550 OA
ENDBRANCH  17  18
ENDBRANCH  16  17
ENDBRANCH  15  16
ENDBRANCH  14  15
ENDBRANCH  13  14
ENDBRANCH  12  13
ENDBRANCH  11  12
ENDBRANCH   1  11
TORSDOF 15
ENDMDL
