MODEL 1
REMARK VINA RESULT:    -2.498      0.000      0.000
REMARK INTER + INTRA:          -2.498
REMARK INTER:                  -2.498
REMARK INTRA:                   0.000
REMARK UNBOUND:                 0.000
REMARK SMILES CC(=O)[O-]
REMARK SMILES IDX 1 1 2 2 3 3 4 4
REMARK H PARENT
REMARK Flexibility Score: inf
ROOT
ATOM      1  C   UNL     1       9.730   0.059  18.965  1.00  0.00     0.063 C 
ATOM      2  C   UNL     1      10.251   0.268  17.583  1.00  0.00     0.038 C 
ATOM      3  O   UNL     1       9.841  -0.455  16.638  1.00  0.00    -0.550 OA
ATOM      4  O   UNL     1      11.230   1.225  17.346  1.00  0.00    -0.550 OA
ENDROOT
TORSDOF 0
ENDMDL
MODEL 2
REMARK VINA RESULT:    -2.496      0.085      1.620
REMARK INTER + INTRA:          -2.496
REMARK INTER:                  -2.496
REMARK INTRA:                   0.000
REMARK UNBOUND:                 0.000
REMARK SMILES CC(=O)[O-]
REMARK SMILES IDX 1 1 2 2 3 3 4 4
REMARK H PARENT
REMARK Flexibility Score: inf
ROOT
ATOM      1  C   UNL     1       9.757   0.131  18.978  1.00  0.00     0.063 C 
ATOM      2  C   UNL     1      10.330   0.309  17.612  1.00  0.00     0.038 C 
ATOM      3  O   UNL     1      11.218   1.176  17.409  1.00  0.00    -0.550 OA
ATOM      4  O   UNL     1       9.845  -0.445  16.551  1.00  0.00    -0.550 OA
ENDROOT
TORSDOF 0
ENDMDL
MODEL 3
REMARK VINA RESULT:    -2.332      1.348      2.039
REMARK INTER + INTRA:          -2.332
REMARK INTER:                  -2.332
REMARK INTRA:                   0.000
REMARK UNBOUND:                 0.000
REMARK SMILES CC(=O)[O-]
REMARK SMILES IDX 1 1 2 2 3 3 4 4
REMARK H PARENT
REMARK Flexibility Score: inf
ROOT
ATOM      1  C   UNL     1       9.734   0.058  18.922  1.00  0.00     0.063 C 
ATOM      2  C   UNL     1      10.531   1.252  18.519  1.00  0.00     0.038 C 
ATOM      3  O   UNL     1      10.512   2.292  19.228  1.00  0.00    -0.550 OA
ATOM      4  O   UNL     1      11.252   1.239  17.332  1.00  0.00    -0.550 OA
ENDROOT
TORSDOF 0
ENDMDL
MODEL 4
REMARK VINA RESULT:    -2.145      1.374      1.767
REMARK INTER + INTRA:          -2.145
REMARK INTER:                  -2.145
REMARK INTRA:                   0.000
REMARK UNBOUND:                 0.000
REMARK SMILES CC(=O)[O-]
REMARK SMILES IDX 1 1 2 2 3 3 4 4
REMARK H PARENT
REMARK Flexibility Score: inf
ROOT
ATOM      1  C   UNL     1      11.188   1.262  17.490  1.00  0.00     0.063 C 
ATOM      2  C   UNL     1      10.199   0.166  17.704  1.00  0.00     0.038 C 
ATOM      3  O   UNL     1       9.762  -0.490  16.723  1.00  0.00    -0.550 OA
ATOM      4  O   UNL     1       9.717  -0.095  18.980  1.00  0.00    -0.550 OA
ENDROOT
TORSDOF 0
ENDMDL
MODEL 5
REMARK VINA RESULT:    -2.089      1.386      1.701
REMARK INTER + INTRA:          -2.089
REMARK INTER:                  -2.089
REMARK INTRA:                   0.000
REMARK UNBOUND:                 0.000
REMARK SMILES CC(=O)[O-]
REMARK SMILES IDX 1 1 2 2 3 3 4 4
REMARK H PARENT
REMARK Flexibility Score: inf
ROOT
ATOM      1  C   UNL     1       9.845  -0.430  16.644  1.00  0.00     0.063 C 
ATOM      2  C   UNL     1      10.360   0.316  17.828  1.00  0.00     0.038 C 
ATOM      3  O   UNL     1       9.939   0.039  18.981  1.00  0.00    -0.550 OA
ATOM      4  O   UNL     1      11.266   1.355  17.655  1.00  0.00    -0.550 OA
ENDROOT
TORSDOF 0
ENDMDL
MODEL 6
REMARK VINA RESULT:    -1.228     21.359     21.788
REMARK INTER + INTRA:          -1.228
REMARK INTER:                  -1.228
REMARK INTRA:                   0.000
REMARK UNBOUND:                 0.000
REMARK SMILES CC(=O)[O-]
REMARK SMILES IDX 1 1 2 2 3 3 4 4
REMARK H PARENT
REMARK Flexibility Score: inf
ROOT
ATOM      1  C   UNL     1      -6.606  -9.774   8.026  1.00  0.00     0.063 C 
ATOM      2  C   UNL     1      -5.964  -9.270   6.778  1.00  0.00     0.038 C 
ATOM      3  O   UNL     1      -4.717  -9.354   6.631  1.00  0.00    -0.550 OA
ATOM      4  O   UNL     1      -6.735  -8.656   5.798  1.00  0.00    -0.550 OA
ENDROOT
TORSDOF 0
ENDMDL
MODEL 7
REMARK VINA RESULT:    -1.214     21.382     21.806
REMARK INTER + INTRA:          -1.214
REMARK INTER:                  -1.214
REMARK INTRA:                   0.000
REMARK UNBOUND:                 0.000
REMARK SMILES CC(=O)[O-]
REMARK SMILES IDX 1 1 2 2 3 3 4 4
REMARK H PARENT
REMARK Flexibility Score: inf
ROOT
ATOM      1  C   UNL     1      -5.696  -9.318   4.320  1.00  0.00     0.063 C 
ATOM      2  C   UNL     1      -4.575  -9.604   5.261  1.00  0.00     0.038 C 
ATOM      3  O   UNL     1      -3.505 -10.109   4.833  1.00  0.00    -0.550 OA
ATOM      4  O   UNL     1      -4.729  -9.364   6.620  1.00  0.00    -0.550 OA
ENDROOT
TORSDOF 0
ENDMDL
MODEL 8
REMARK VINA RESULT:    -1.196     21.414     21.656
REMARK INTER + INTRA:          -1.196
REMARK INTER:                  -1.196
REMARK INTRA:                   0.000
REMARK UNBOUND:                 0.000
REMARK SMILES CC(=O)[O-]
REMARK SMILES IDX 1 1 2 2 3 3 4 4
REMARK H PARENT
REMARK Flexibility Score: inf
ROOT
ATOM      1  C   UNL     1      -4.485  -9.750   5.384  1.00  0.00     0.063 C 
ATOM      2  C   UNL     1      -5.435  -9.495   6.505  1.00  0.00     0.038 C 
ATOM      3  O   UNL     1      -6.376  -8.672   6.361  1.00  0.00    -0.550 OA
ATOM      4  O   UNL     1      -5.251 -10.125   7.729  1.00  0.00    -0.550 OA
ENDROOT
TORSDOF 0
ENDMDL
MODEL 9
REMARK VINA RESULT:    -1.077     22.018     22.465
REMARK INTER + INTRA:          -1.077
REMARK INTER:                  -1.077
REMARK INTRA:                   0.000
REMARK UNBOUND:                 0.000
REMARK SMILES CC(=O)[O-]
REMARK SMILES IDX 1 1 2 2 3 3 4 4
REMARK H PARENT
REMARK Flexibility Score: inf
ROOT
ATOM      1  C   UNL     1      -4.092  -9.831   5.067  1.00  0.00     0.063 C 
ATOM      2  C   UNL     1      -5.484  -9.342   4.850  1.00  0.00     0.038 C 
ATOM      3  O   UNL     1      -5.904  -9.129   3.683  1.00  0.00    -0.550 OA
ATOM      4  O   UNL     1      -6.303  -9.069   5.938  1.00  0.00    -0.550 OA
ENDROOT
TORSDOF 0
ENDMDL
