MODEL 1
REMARK VINA RESULT:    -4.899      0.000      0.000
REMARK INTER + INTRA:         -16.734
REMARK INTER:                 -12.919
REMARK INTRA:                  -3.815
REMARK UNBOUND:                -3.815
REMARK SMILES CCCCCCCCCCCCCCCCCCCCCCCCCCCCCC(=O)[O-]
REMARK SMILES IDX 16 1 17 2 18 3 19 4 20 5 21 6 22 7 23 8 24 9 25 10 26 11
REMARK SMILES IDX 27 12 28 13 29 14 30 15 31 16 32 17 15 18 14 19 13 20 12 21
REMARK SMILES IDX 11 22 10 23 9 24 8 25 7 26 6 27 5 28 4 29 3 30 2 31 1 32
REMARK H PARENT
REMARK Flexibility Score: inf
ROOT
ATOM      1  C   UNL     1       0.161  48.080  22.967  1.00  0.00     0.000 C 
ENDROOT
BRANCH   1   2
ATOM      2  C   UNL     1       1.077  48.108  21.735  1.00  0.00     0.000 C 
BRANCH   2   3
ATOM      3  C   UNL     1       2.082  49.274  21.766  1.00  0.00     0.000 C 
BRANCH   3   4
ATOM      4  C   UNL     1       1.474  50.589  21.257  1.00  0.00     0.000 C 
BRANCH   4   5
ATOM      5  C   UNL     1       0.319  51.085  22.142  1.00  0.00     0.000 C 
BRANCH   5   6
ATOM      6  C   UNL     1       0.112  52.606  22.049  1.00  0.00     0.000 C 
BRANCH   6   7
ATOM      7  C   UNL     1       1.336  53.351  21.471  1.00  0.00     0.000 C 
BRANCH   7   8
ATOM      8  C   UNL     1       2.054  54.195  22.542  1.00  0.00     0.000 C 
BRANCH   8   9
ATOM      9  C   UNL     1       3.455  53.656  22.892  1.00  0.00     0.000 C 
BRANCH   9  10
ATOM     10  C   UNL     1       3.446  52.401  23.783  1.00  0.00     0.000 C 
BRANCH  10  11
ATOM     11  C   UNL     1       2.611  52.577  25.063  1.00  0.00     0.000 C 
BRANCH  11  12
ATOM     12  C   UNL     1       1.745  51.348  25.381  1.00  0.00     0.000 C 
BRANCH  12  13
ATOM     13  C   UNL     1       2.504  50.026  25.179  1.00  0.00     0.006 C 
BRANCH  13  14
ATOM     14  C   UNL     1       1.988  48.917  26.105  1.00  0.00     0.053 C 
BRANCH  14  15
ATOM     15  C   UNL     1       2.704  48.912  27.423  1.00  0.00     0.041 C 
ATOM     16  O   UNL     1       2.052  48.862  28.500  1.00  0.00    -0.550 OA
ATOM     17  O   UNL     1       4.092  48.981  27.461  1.00  0.00    -0.550 OA
ENDBRANCH  14  15
ENDBRANCH  13  14
ENDBRANCH  12  13
ENDBRANCH  11  12
ENDBRANCH  10  11
ENDBRANCH   9  10
ENDBRANCH   8   9
ENDBRANCH   7   8
ENDBRANCH   6   7
ENDBRANCH   5   6
ENDBRANCH   4   5
ENDBRANCH   3   4
ENDBRANCH   2   3
ENDBRANCH   1   2
BRANCH   1  18
ATOM     18  C   UNL     1      -0.525  46.717  23.165  1.00  0.00     0.000 C 
BRANCH  18  19
ATOM     19  C   UNL     1      -0.642  46.313  24.646  1.00  0.00     0.000 C 
BRANCH  19  20
ATOM     20  C   UNL     1      -1.785  46.996  25.419  1.00  0.00     0.000 C 
BRANCH  20  21
ATOM     21  C   UNL     1      -2.908  47.593  24.546  1.00  0.00     0.000 C 
BRANCH  21  22
ATOM     22  C   UNL     1      -4.329  47.157  24.964  1.00  0.00     0.000 C 
BRANCH  22  23
ATOM     23  C   UNL     1      -4.429  45.654  25.277  1.00  0.00     0.000 C 
BRANCH  23  24
ATOM     24  C   UNL     1      -4.036  44.762  24.084  1.00  0.00    -0.000 C 
BRANCH  24  25
ATOM     25  C   UNL     1      -5.157  43.855  23.545  1.00  0.00    -0.000 C 
BRANCH  25  26
ATOM     26  C   UNL     1      -5.952  43.155  24.660  1.00  0.00    -0.000 C 
BRANCH  26  27
ATOM     27  C   UNL     1      -7.475  43.294  24.480  1.00  0.00    -0.000 C 
BRANCH  27  28
ATOM     28  C   UNL     1      -7.921  44.005  23.187  1.00  0.00    -0.000 C 
BRANCH  28  29
ATOM     29  C   UNL     1      -8.709  45.314  23.396  1.00  0.00    -0.000 C 
BRANCH  29  30
ATOM     30  C   UNL     1      -7.840  46.553  23.672  1.00  0.00    -0.000 C 
BRANCH  30  31
ATOM     31  C   UNL     1      -6.996  46.971  22.458  1.00  0.00    -0.003 C 
ATOM     32  C   UNL     1      -7.857  47.077  21.204  1.00  0.00     0.004 C 
ENDBRANCH  30  31
ENDBRANCH  29  30
ENDBRANCH  28  29
ENDBRANCH  27  28
ENDBRANCH  26  27
ENDBRANCH  25  26
ENDBRANCH  24  25
ENDBRANCH  23  24
ENDBRANCH  22  23
ENDBRANCH  21  22
ENDBRANCH  20  21
ENDBRANCH  19  20
ENDBRANCH  18  19
ENDBRANCH   1  18
TORSDOF 28
ENDMDL
MODEL 2
REMARK VINA RESULT:    -4.853      1.345      2.412
REMARK INTER + INTRA:         -16.611
REMARK INTER:                 -12.381
REMARK INTRA:                  -4.231
REMARK UNBOUND:                -3.815
REMARK SMILES CCCCCCCCCCCCCCCCCCCCCCCCCCCCCC(=O)[O-]
REMARK SMILES IDX 16 1 17 2 18 3 19 4 20 5 21 6 22 7 23 8 24 9 25 10 26 11
REMARK SMILES IDX 27 12 28 13 29 14 30 15 31 16 32 17 15 18 14 19 13 20 12 21
REMARK SMILES IDX 11 22 10 23 9 24 8 25 7 26 6 27 5 28 4 29 3 30 2 31 1 32
REMARK H PARENT
REMARK Flexibility Score: inf
ROOT
ATOM      1  C   UNL     1      -0.500  46.775  23.079  1.00  0.00     0.000 C 
ENDROOT
BRANCH   1   2
ATOM      2  C   UNL     1       0.153  48.146  22.846  1.00  0.00     0.000 C 
BRANCH   2   3
ATOM      3  C   UNL     1       1.229  48.114  21.745  1.00  0.00     0.000 C 
BRANCH   3   4
ATOM      4  C   UNL     1       1.997  49.439  21.634  1.00  0.00     0.000 C 
BRANCH   4   5
ATOM      5  C   UNL     1       1.071  50.664  21.700  1.00  0.00     0.000 C 
BRANCH   5   6
ATOM      6  C   UNL     1       1.824  51.960  22.042  1.00  0.00     0.000 C 
BRANCH   6   7
ATOM      7  C   UNL     1       0.949  52.992  22.787  1.00  0.00     0.000 C 
BRANCH   7   8
ATOM      8  C   UNL     1      -0.488  52.479  23.003  1.00  0.00     0.000 C 
BRANCH   8   9
ATOM      9  C   UNL     1      -0.826  52.248  24.490  1.00  0.00     0.000 C 
BRANCH   9  10
ATOM     10  C   UNL     1      -1.017  50.770  24.873  1.00  0.00     0.000 C 
BRANCH  10  11
ATOM     11  C   UNL     1       0.001  50.281  25.917  1.00  0.00     0.000 C 
BRANCH  11  12
ATOM     12  C   UNL     1       1.443  50.689  25.576  1.00  0.00     0.000 C 
BRANCH  12  13
ATOM     13  C   UNL     1       2.368  49.476  25.382  1.00  0.00     0.006 C 
BRANCH  13  14
ATOM     14  C   UNL     1       2.185  48.427  26.487  1.00  0.00     0.053 C 
BRANCH  14  15
ATOM     15  C   UNL     1       2.803  48.866  27.780  1.00  0.00     0.041 C 
ATOM     16  O   UNL     1       4.045  49.067  27.855  1.00  0.00    -0.550 OA
ATOM     17  O   UNL     1       2.010  49.034  28.909  1.00  0.00    -0.550 OA
ENDBRANCH  14  15
ENDBRANCH  13  14
ENDBRANCH  12  13
ENDBRANCH  11  12
ENDBRANCH  10  11
ENDBRANCH   9  10
ENDBRANCH   8   9
ENDBRANCH   7   8
ENDBRANCH   6   7
ENDBRANCH   5   6
ENDBRANCH   4   5
ENDBRANCH   3   4
ENDBRANCH   2   3
ENDBRANCH   1   2
BRANCH   1  18
ATOM     18  C   UNL     1      -0.566  46.397  24.569  1.00  0.00     0.000 C 
BRANCH  18  19
ATOM     19  C   UNL     1      -1.906  46.775  25.225  1.00  0.00     0.000 C 
BRANCH  19  20
ATOM     20  C   UNL     1      -3.140  46.059  24.647  1.00  0.00     0.000 C 
BRANCH  20  21
ATOM     21  C   UNL     1      -2.937  44.569  24.301  1.00  0.00     0.000 C 
BRANCH  21  22
ATOM     22  C   UNL     1      -4.131  43.926  23.564  1.00  0.00     0.000 C 
BRANCH  22  23
ATOM     23  C   UNL     1      -4.762  42.760  24.346  1.00  0.00     0.000 C 
BRANCH  23  24
ATOM     24  C   UNL     1      -6.228  43.021  24.741  1.00  0.00    -0.000 C 
BRANCH  24  25
ATOM     25  C   UNL     1      -6.501  44.396  25.378  1.00  0.00    -0.000 C 
BRANCH  25  26
ATOM     26  C   UNL     1      -7.682  44.378  26.363  1.00  0.00    -0.000 C 
BRANCH  26  27
ATOM     27  C   UNL     1      -8.637  45.570  26.165  1.00  0.00    -0.000 C 
BRANCH  27  28
ATOM     28  C   UNL     1      -8.336  46.456  24.940  1.00  0.00    -0.000 C 
BRANCH  28  29
ATOM     29  C   UNL     1      -9.293  46.271  23.745  1.00  0.00    -0.000 C 
BRANCH  29  30
ATOM     30  C   UNL     1      -8.691  46.628  22.375  1.00  0.00    -0.000 C 
BRANCH  30  31
ATOM     31  C   UNL     1      -7.348  45.926  22.114  1.00  0.00    -0.003 C 
ATOM     32  C   UNL     1      -7.561  44.480  21.681  1.00  0.00     0.004 C 
ENDBRANCH  30  31
ENDBRANCH  29  30
ENDBRANCH  28  29
ENDBRANCH  27  28
ENDBRANCH  26  27
ENDBRANCH  25  26
ENDBRANCH  24  25
ENDBRANCH  23  24
ENDBRANCH  22  23
ENDBRANCH  21  22
ENDBRANCH  20  21
ENDBRANCH  19  20
ENDBRANCH  18  19
ENDBRANCH   1  18
TORSDOF 28
ENDMDL
MODEL 3
REMARK VINA RESULT:    -4.829      2.778      8.624
REMARK INTER + INTRA:         -16.548
REMARK INTER:                 -10.779
REMARK INTRA:                  -5.770
REMARK UNBOUND:                -3.815
REMARK SMILES CCCCCCCCCCCCCCCCCCCCCCCCCCCCCC(=O)[O-]
REMARK SMILES IDX 16 1 17 2 18 3 19 4 20 5 21 6 22 7 23 8 24 9 25 10 26 11
REMARK SMILES IDX 27 12 28 13 29 14 30 15 31 16 32 17 15 18 14 19 13 20 12 21
REMARK SMILES IDX 11 22 10 23 9 24 8 25 7 26 6 27 5 28 4 29 3 30 2 31 1 32
REMARK H PARENT
REMARK Flexibility Score: inf
ROOT
ATOM      1  C   UNL     1       1.350  50.755  21.489  1.00  0.00     0.000 C 
ENDROOT
BRANCH   1   2
ATOM      2  C   UNL     1       1.969  49.376  21.762  1.00  0.00     0.000 C 
BRANCH   2   3
ATOM      3  C   UNL     1       0.937  48.236  21.696  1.00  0.00     0.000 C 
BRANCH   3   4
ATOM      4  C   UNL     1       0.494  47.762  23.088  1.00  0.00     0.000 C 
BRANCH   4   5
ATOM      5  C   UNL     1      -0.557  46.642  23.022  1.00  0.00     0.000 C 
BRANCH   5   6
ATOM      6  C   UNL     1      -1.088  46.244  24.409  1.00  0.00     0.000 C 
BRANCH   6   7
ATOM      7  C   UNL     1      -2.397  45.426  24.346  1.00  0.00     0.000 C 
BRANCH   7   8
ATOM      8  C   UNL     1      -3.631  46.290  24.672  1.00  0.00     0.000 C 
BRANCH   8   9
ATOM      9  C   UNL     1      -3.263  47.653  25.291  1.00  0.00     0.000 C 
BRANCH   9  10
ATOM     10  C   UNL     1      -3.550  48.860  24.378  1.00  0.00     0.000 C 
BRANCH  10  11
ATOM     11  C   UNL     1      -2.718  50.101  24.742  1.00  0.00     0.000 C 
BRANCH  11  12
ATOM     12  C   UNL     1      -1.450  49.754  25.536  1.00  0.00     0.000 C 
BRANCH  12  13
ATOM     13  C   UNL     1      -1.366  50.511  26.872  1.00  0.00     0.006 C 
BRANCH  13  14
ATOM     14  C   UNL     1      -1.078  49.572  28.051  1.00  0.00     0.053 C 
BRANCH  14  15
ATOM     15  C   UNL     1      -2.339  49.051  28.672  1.00  0.00     0.041 C 
ATOM     16  O   UNL     1      -2.294  48.113  29.512  1.00  0.00    -0.550 OA
ATOM     17  O   UNL     1      -3.568  49.590  28.307  1.00  0.00    -0.550 OA
ENDBRANCH  14  15
ENDBRANCH  13  14
ENDBRANCH  12  13
ENDBRANCH  11  12
ENDBRANCH  10  11
ENDBRANCH   9  10
ENDBRANCH   8   9
ENDBRANCH   7   8
ENDBRANCH   6   7
ENDBRANCH   5   6
ENDBRANCH   4   5
ENDBRANCH   3   4
ENDBRANCH   2   3
ENDBRANCH   1   2
BRANCH   1  18
ATOM     18  C   UNL     1       0.112  51.031  22.361  1.00  0.00     0.000 C 
BRANCH  18  19
ATOM     19  C   UNL     1      -0.328  52.506  22.327  1.00  0.00     0.000 C 
BRANCH  19  20
ATOM     20  C   UNL     1       0.695  53.478  21.712  1.00  0.00     0.000 C 
BRANCH  20  21
ATOM     21  C   UNL     1       0.958  54.761  22.527  1.00  0.00     0.000 C 
BRANCH  21  22
ATOM     22  C   UNL     1       2.375  54.838  23.138  1.00  0.00     0.000 C 
BRANCH  22  23
ATOM     23  C   UNL     1       3.264  53.645  22.745  1.00  0.00     0.000 C 
BRANCH  23  24
ATOM     24  C   UNL     1       3.487  52.653  23.902  1.00  0.00    -0.000 C 
BRANCH  24  25
ATOM     25  C   UNL     1       2.593  52.872  25.136  1.00  0.00    -0.000 C 
BRANCH  25  26
ATOM     26  C   UNL     1       1.759  51.633  25.503  1.00  0.00    -0.000 C 
BRANCH  26  27
ATOM     27  C   UNL     1       2.481  50.313  25.173  1.00  0.00    -0.000 C 
BRANCH  27  28
ATOM     28  C   UNL     1       2.090  49.112  26.057  1.00  0.00    -0.000 C 
BRANCH  28  29
ATOM     29  C   UNL     1       3.243  48.496  26.873  1.00  0.00    -0.000 C 
BRANCH  29  30
ATOM     30  C   UNL     1       3.714  49.344  28.067  1.00  0.00    -0.000 C 
BRANCH  30  31
ATOM     31  C   UNL     1       2.576  49.681  29.043  1.00  0.00    -0.003 C 
ATOM     32  C   UNL     1       2.389  51.189  29.166  1.00  0.00     0.004 C 
ENDBRANCH  30  31
ENDBRANCH  29  30
ENDBRANCH  28  29
ENDBRANCH  27  28
ENDBRANCH  26  27
ENDBRANCH  25  26
ENDBRANCH  24  25
ENDBRANCH  23  24
ENDBRANCH  22  23
ENDBRANCH  21  22
ENDBRANCH  20  21
ENDBRANCH  19  20
ENDBRANCH  18  19
ENDBRANCH   1  18
TORSDOF 28
ENDMDL
MODEL 4
REMARK VINA RESULT:    -4.761      2.807     10.262
REMARK INTER + INTRA:         -16.368
REMARK INTER:                 -12.417
REMARK INTRA:                  -3.951
REMARK UNBOUND:                -3.815
REMARK SMILES CCCCCCCCCCCCCCCCCCCCCCCCCCCCCC(=O)[O-]
REMARK SMILES IDX 16 1 17 2 18 3 19 4 20 5 21 6 22 7 23 8 24 9 25 10 26 11
REMARK SMILES IDX 27 12 28 13 29 14 30 15 31 16 32 17 15 18 14 19 13 20 12 21
REMARK SMILES IDX 11 22 10 23 9 24 8 25 7 26 6 27 5 28 4 29 3 30 2 31 1 32
REMARK H PARENT
REMARK Flexibility Score: inf
ROOT
ATOM      1  C   UNL     1      -1.480  47.889  24.603  1.00  0.00     0.000 C 
ENDROOT
BRANCH   1   2
ATOM      2  C   UNL     1      -1.121  46.402  24.748  1.00  0.00     0.000 C 
BRANCH   2   3
ATOM      3  C   UNL     1      -2.321  45.472  24.491  1.00  0.00     0.000 C 
BRANCH   3   4
ATOM      4  C   UNL     1      -3.649  46.081  24.965  1.00  0.00     0.000 C 
BRANCH   4   5
ATOM      5  C   UNL     1      -4.865  45.466  24.254  1.00  0.00     0.000 C 
BRANCH   5   6
ATOM      6  C   UNL     1      -4.668  43.979  23.920  1.00  0.00     0.000 C 
BRANCH   6   7
ATOM      7  C   UNL     1      -5.921  43.121  24.206  1.00  0.00     0.000 C 
BRANCH   7   8
ATOM      8  C   UNL     1      -7.193  43.738  23.593  1.00  0.00     0.000 C 
BRANCH   8   9
ATOM      9  C   UNL     1      -8.289  44.017  24.640  1.00  0.00     0.000 C 
BRANCH   9  10
ATOM     10  C   UNL     1      -7.966  43.490  26.050  1.00  0.00     0.000 C 
BRANCH  10  11
ATOM     11  C   UNL     1      -7.788  44.612  27.087  1.00  0.00     0.000 C 
BRANCH  11  12
ATOM     12  C   UNL     1      -8.212  45.988  26.550  1.00  0.00     0.000 C 
BRANCH  12  13
ATOM     13  C   UNL     1      -7.103  47.044  26.695  1.00  0.00     0.006 C 
BRANCH  13  14
ATOM     14  C   UNL     1      -6.046  46.633  27.728  1.00  0.00     0.053 C 
BRANCH  14  15
ATOM     15  C   UNL     1      -6.204  47.384  29.017  1.00  0.00     0.041 C 
ATOM     16  O   UNL     1      -5.201  47.903  29.576  1.00  0.00    -0.550 OA
ATOM     17  O   UNL     1      -7.456  47.493  29.610  1.00  0.00    -0.550 OA
ENDBRANCH  14  15
ENDBRANCH  13  14
ENDBRANCH  12  13
ENDBRANCH  11  12
ENDBRANCH  10  11
ENDBRANCH   9  10
ENDBRANCH   8   9
ENDBRANCH   7   8
ENDBRANCH   6   7
ENDBRANCH   5   6
ENDBRANCH   4   5
ENDBRANCH   3   4
ENDBRANCH   2   3
ENDBRANCH   1   2
BRANCH   1  18
ATOM     18  C   UNL     1      -0.680  48.585  23.489  1.00  0.00     0.000 C 
BRANCH  18  19
ATOM     19  C   UNL     1       0.232  47.619  22.712  1.00  0.00     0.000 C 
BRANCH  19  20
ATOM     20  C   UNL     1       0.981  48.245  21.521  1.00  0.00     0.000 C 
BRANCH  20  21
ATOM     21  C   UNL     1       2.086  49.255  21.894  1.00  0.00     0.000 C 
BRANCH  21  22
ATOM     22  C   UNL     1       1.764  50.713  21.499  1.00  0.00     0.000 C 
BRANCH  22  23
ATOM     23  C   UNL     1       2.079  51.721  22.618  1.00  0.00     0.000 C 
BRANCH  23  24
ATOM     24  C   UNL     1       1.045  51.698  23.760  1.00  0.00    -0.000 C 
BRANCH  24  25
ATOM     25  C   UNL     1       1.636  51.647  25.180  1.00  0.00    -0.000 C 
BRANCH  25  26
ATOM     26  C   UNL     1       2.692  50.540  25.352  1.00  0.00    -0.000 C 
BRANCH  26  27
ATOM     27  C   UNL     1       2.065  49.158  25.610  1.00  0.00    -0.000 C 
BRANCH  27  28
ATOM     28  C   UNL     1       2.507  48.471  26.918  1.00  0.00    -0.000 C 
BRANCH  28  29
ATOM     29  C   UNL     1       3.623  49.198  27.696  1.00  0.00    -0.000 C 
BRANCH  29  30
ATOM     30  C   UNL     1       3.308  49.464  29.178  1.00  0.00    -0.000 C 
BRANCH  30  31
ATOM     31  C   UNL     1       3.498  50.937  29.572  1.00  0.00    -0.003 C 
ATOM     32  C   UNL     1       2.511  51.833  28.832  1.00  0.00     0.004 C 
ENDBRANCH  30  31
ENDBRANCH  29  30
ENDBRANCH  28  29
ENDBRANCH  27  28
ENDBRANCH  26  27
ENDBRANCH  25  26
ENDBRANCH  24  25
ENDBRANCH  23  24
ENDBRANCH  22  23
ENDBRANCH  21  22
ENDBRANCH  20  21
ENDBRANCH  19  20
ENDBRANCH  18  19
ENDBRANCH   1  18
TORSDOF 28
ENDMDL
MODEL 5
REMARK VINA RESULT:    -4.741      1.355      2.190
REMARK INTER + INTRA:         -16.317
REMARK INTER:                 -12.371
REMARK INTRA:                  -3.946
REMARK UNBOUND:                -3.815
REMARK SMILES CCCCCCCCCCCCCCCCCCCCCCCCCCCCCC(=O)[O-]
REMARK SMILES IDX 16 1 17 2 18 3 19 4 20 5 21 6 22 7 23 8 24 9 25 10 26 11
REMARK SMILES IDX 27 12 28 13 29 14 30 15 31 16 32 17 15 18 14 19 13 20 12 21
REMARK SMILES IDX 11 22 10 23 9 24 8 25 7 26 6 27 5 28 4 29 3 30 2 31 1 32
REMARK H PARENT
REMARK Flexibility Score: inf
ROOT
ATOM      1  C   UNL     1       0.183  48.068  23.005  1.00  0.00     0.000 C 
ENDROOT
BRANCH   1   2
ATOM      2  C   UNL     1       1.189  48.080  21.844  1.00  0.00     0.000 C 
BRANCH   2   3
ATOM      3  C   UNL     1       1.224  49.428  21.101  1.00  0.00     0.000 C 
BRANCH   3   4
ATOM      4  C   UNL     1       1.525  50.608  22.036  1.00  0.00     0.000 C 
BRANCH   4   5
ATOM      5  C   UNL     1       0.376  51.628  22.085  1.00  0.00     0.000 C 
BRANCH   5   6
ATOM      6  C   UNL     1       0.871  53.082  22.015  1.00  0.00     0.000 C 
BRANCH   6   7
ATOM      7  C   UNL     1       2.376  53.227  22.330  1.00  0.00     0.000 C 
BRANCH   7   8
ATOM      8  C   UNL     1       2.621  53.626  23.798  1.00  0.00     0.000 C 
BRANCH   8   9
ATOM      9  C   UNL     1       3.018  52.432  24.688  1.00  0.00     0.000 C 
BRANCH   9  10
ATOM     10  C   UNL     1       1.991  52.090  25.783  1.00  0.00     0.000 C 
BRANCH  10  11
ATOM     11  C   UNL     1       1.396  50.679  25.633  1.00  0.00     0.000 C 
BRANCH  11  12
ATOM     12  C   UNL     1       2.462  49.616  25.322  1.00  0.00     0.000 C 
BRANCH  12  13
ATOM     13  C   UNL     1       2.597  48.573  26.443  1.00  0.00     0.006 C 
BRANCH  13  14
ATOM     14  C   UNL     1       3.702  48.939  27.443  1.00  0.00     0.053 C 
BRANCH  14  15
ATOM     15  C   UNL     1       3.146  49.584  28.677  1.00  0.00     0.041 C 
ATOM     16  O   UNL     1       3.837  50.416  29.325  1.00  0.00    -0.550 OA
ATOM     17  O   UNL     1       1.872  49.252  29.123  1.00  0.00    -0.550 OA
ENDBRANCH  14  15
ENDBRANCH  13  14
ENDBRANCH  12  13
ENDBRANCH  11  12
ENDBRANCH  10  11
ENDBRANCH   9  10
ENDBRANCH   8   9
ENDBRANCH   7   8
ENDBRANCH   6   7
ENDBRANCH   5   6
ENDBRANCH   4   5
ENDBRANCH   3   4
ENDBRANCH   2   3
ENDBRANCH   1   2
BRANCH   1  18
ATOM     18  C   UNL     1      -0.506  46.702  23.177  1.00  0.00     0.000 C 
BRANCH  18  19
ATOM     19  C   UNL     1      -1.179  46.539  24.552  1.00  0.00     0.000 C 
BRANCH  19  20
ATOM     20  C   UNL     1      -1.824  47.818  25.118  1.00  0.00     0.000 C 
BRANCH  20  21
ATOM     21  C   UNL     1      -2.530  47.653  26.479  1.00  0.00     0.000 C 
BRANCH  21  22
ATOM     22  C   UNL     1      -3.684  46.627  26.469  1.00  0.00     0.000 C 
BRANCH  22  23
ATOM     23  C   UNL     1      -4.906  47.106  25.666  1.00  0.00     0.000 C 
BRANCH  23  24
ATOM     24  C   UNL     1      -5.145  46.285  24.384  1.00  0.00    -0.000 C 
BRANCH  24  25
ATOM     25  C   UNL     1      -4.477  44.898  24.360  1.00  0.00    -0.000 C 
BRANCH  25  26
ATOM     26  C   UNL     1      -5.406  43.793  23.827  1.00  0.00    -0.000 C 
BRANCH  26  27
ATOM     27  C   UNL     1      -6.785  44.330  23.405  1.00  0.00    -0.000 C 
BRANCH  27  28
ATOM     28  C   UNL     1      -7.984  43.729  24.165  1.00  0.00    -0.000 C 
BRANCH  28  29
ATOM     29  C   UNL     1      -7.715  43.376  25.642  1.00  0.00    -0.000 C 
BRANCH  29  30
ATOM     30  C   UNL     1      -7.681  44.581  26.598  1.00  0.00    -0.000 C 
BRANCH  30  31
ATOM     31  C   UNL     1      -8.673  45.685  26.198  1.00  0.00    -0.003 C 
ATOM     32  C   UNL     1      -8.972  46.605  27.377  1.00  0.00     0.004 C 
ENDBRANCH  30  31
ENDBRANCH  29  30
ENDBRANCH  28  29
ENDBRANCH  27  28
ENDBRANCH  26  27
ENDBRANCH  25  26
ENDBRANCH  24  25
ENDBRANCH  23  24
ENDBRANCH  22  23
ENDBRANCH  21  22
ENDBRANCH  20  21
ENDBRANCH  19  20
ENDBRANCH  18  19
ENDBRANCH   1  18
TORSDOF 28
ENDMDL
MODEL 6
REMARK VINA RESULT:    -4.683      2.972      8.941
REMARK INTER + INTRA:         -16.162
REMARK INTER:                 -11.417
REMARK INTRA:                  -4.745
REMARK UNBOUND:                -3.815
REMARK SMILES CCCCCCCCCCCCCCCCCCCCCCCCCCCCCC(=O)[O-]
REMARK SMILES IDX 16 1 17 2 18 3 19 4 20 5 21 6 22 7 23 8 24 9 25 10 26 11
REMARK SMILES IDX 27 12 28 13 29 14 30 15 31 16 32 17 15 18 14 19 13 20 12 21
REMARK SMILES IDX 11 22 10 23 9 24 8 25 7 26 6 27 5 28 4 29 3 30 2 31 1 32
REMARK H PARENT
REMARK Flexibility Score: inf
ROOT
ATOM      1  C   UNL     1       0.170  48.061  22.938  1.00  0.00     0.000 C 
ENDROOT
BRANCH   1   2
ATOM      2  C   UNL     1      -0.500  46.687  23.100  1.00  0.00     0.000 C 
BRANCH   2   3
ATOM      3  C   UNL     1      -0.794  46.338  24.569  1.00  0.00     0.000 C 
BRANCH   3   4
ATOM      4  C   UNL     1      -1.996  47.113  25.129  1.00  0.00     0.000 C 
BRANCH   4   5
ATOM      5  C   UNL     1      -1.622  47.990  26.335  1.00  0.00     0.000 C 
BRANCH   5   6
ATOM      6  C   UNL     1      -2.209  49.408  26.243  1.00  0.00     0.000 C 
BRANCH   6   7
ATOM      7  C   UNL     1      -1.624  50.233  25.075  1.00  0.00     0.000 C 
BRANCH   7   8
ATOM      8  C   UNL     1      -2.695  50.581  24.023  1.00  0.00     0.000 C 
BRANCH   8   9
ATOM      9  C   UNL     1      -4.127  50.560  24.594  1.00  0.00     0.000 C 
BRANCH   9  10
ATOM     10  C   UNL     1      -5.080  49.587  23.877  1.00  0.00     0.000 C 
BRANCH  10  11
ATOM     11  C   UNL     1      -5.397  48.332  24.707  1.00  0.00     0.000 C 
BRANCH  11  12
ATOM     12  C   UNL     1      -5.603  47.082  23.837  1.00  0.00     0.000 C 
BRANCH  12  13
ATOM     13  C   UNL     1      -5.766  45.803  24.675  1.00  0.00     0.006 C 
BRANCH  13  14
ATOM     14  C   UNL     1      -5.820  44.543  23.801  1.00  0.00     0.053 C 
BRANCH  14  15
ATOM     15  C   UNL     1      -4.610  43.679  23.992  1.00  0.00     0.041 C 
ATOM     16  O   UNL     1      -3.461  44.127  23.731  1.00  0.00    -0.550 OA
ATOM     17  O   UNL     1      -4.753  42.371  24.443  1.00  0.00    -0.550 OA
ENDBRANCH  14  15
ENDBRANCH  13  14
ENDBRANCH  12  13
ENDBRANCH  11  12
ENDBRANCH  10  11
ENDBRANCH   9  10
ENDBRANCH   8   9
ENDBRANCH   7   8
ENDBRANCH   6   7
ENDBRANCH   5   6
ENDBRANCH   4   5
ENDBRANCH   3   4
ENDBRANCH   2   3
ENDBRANCH   1   2
BRANCH   1  18
ATOM     18  C   UNL     1       1.081  48.133  21.700  1.00  0.00     0.000 C 
BRANCH  18  19
ATOM     19  C   UNL     1       2.106  49.279  21.776  1.00  0.00     0.000 C 
BRANCH  19  20
ATOM     20  C   UNL     1       1.607  50.637  21.249  1.00  0.00     0.000 C 
BRANCH  20  21
ATOM     21  C   UNL     1       1.076  51.607  22.324  1.00  0.00     0.000 C 
BRANCH  21  22
ATOM     22  C   UNL     1       2.142  52.580  22.875  1.00  0.00     0.000 C 
BRANCH  22  23
ATOM     23  C   UNL     1       2.910  52.010  24.080  1.00  0.00     0.000 C 
BRANCH  23  24
ATOM     24  C   UNL     1       2.012  51.212  25.045  1.00  0.00    -0.000 C 
BRANCH  24  25
ATOM     25  C   UNL     1       2.445  49.756  25.291  1.00  0.00    -0.000 C 
BRANCH  25  26
ATOM     26  C   UNL     1       1.657  49.078  26.425  1.00  0.00    -0.000 C 
BRANCH  26  27
ATOM     27  C   UNL     1       2.572  48.475  27.506  1.00  0.00    -0.000 C 
BRANCH  27  28
ATOM     28  C   UNL     1       3.588  49.456  28.127  1.00  0.00    -0.000 C 
BRANCH  28  29
ATOM     29  C   UNL     1       3.239  49.950  29.546  1.00  0.00    -0.000 C 
BRANCH  29  30
ATOM     30  C   UNL     1       3.243  51.479  29.715  1.00  0.00    -0.000 C 
BRANCH  30  31
ATOM     31  C   UNL     1       2.477  52.204  28.598  1.00  0.00    -0.003 C 
ATOM     32  C   UNL     1       0.973  52.010  28.751  1.00  0.00     0.004 C 
ENDBRANCH  30  31
ENDBRANCH  29  30
ENDBRANCH  28  29
ENDBRANCH  27  28
ENDBRANCH  26  27
ENDBRANCH  25  26
ENDBRANCH  24  25
ENDBRANCH  23  24
ENDBRANCH  22  23
ENDBRANCH  21  22
ENDBRANCH  20  21
ENDBRANCH  19  20
ENDBRANCH  18  19
ENDBRANCH   1  18
TORSDOF 28
ENDMDL
MODEL 7
REMARK VINA RESULT:    -4.631      3.406      8.983
REMARK INTER + INTRA:         -16.027
REMARK INTER:                 -11.705
REMARK INTRA:                  -4.322
REMARK UNBOUND:                -3.815
REMARK SMILES CCCCCCCCCCCCCCCCCCCCCCCCCCCCCC(=O)[O-]
REMARK SMILES IDX 16 1 17 2 18 3 19 4 20 5 21 6 22 7 23 8 24 9 25 10 26 11
REMARK SMILES IDX 27 12 28 13 29 14 30 15 31 16 32 17 15 18 14 19 13 20 12 21
REMARK SMILES IDX 11 22 10 23 9 24 8 25 7 26 6 27 5 28 4 29 3 30 2 31 1 32
REMARK H PARENT
REMARK Flexibility Score: inf
ROOT
ATOM      1  C   UNL     1       1.123  52.338  21.496  1.00  0.00     0.000 C 
ENDROOT
BRANCH   1   2
ATOM      2  C   UNL     1       2.243  51.785  22.391  1.00  0.00     0.000 C 
BRANCH   2   3
ATOM      3  C   UNL     1       2.196  50.253  22.526  1.00  0.00     0.000 C 
BRANCH   3   4
ATOM      4  C   UNL     1       1.484  49.579  21.343  1.00  0.00     0.000 C 
BRANCH   4   5
ATOM      5  C   UNL     1       1.021  48.151  21.671  1.00  0.00     0.000 C 
BRANCH   5   6
ATOM      6  C   UNL     1       0.014  48.105  22.832  1.00  0.00     0.000 C 
BRANCH   6   7
ATOM      7  C   UNL     1      -0.447  46.672  23.180  1.00  0.00     0.000 C 
BRANCH   7   8
ATOM      8  C   UNL     1      -0.947  46.566  24.633  1.00  0.00     0.000 C 
BRANCH   8   9
ATOM      9  C   UNL     1      -1.804  47.773  25.063  1.00  0.00     0.000 C 
BRANCH   9  10
ATOM     10  C   UNL     1      -2.502  47.600  26.425  1.00  0.00     0.000 C 
BRANCH  10  11
ATOM     11  C   UNL     1      -3.690  46.624  26.373  1.00  0.00     0.000 C 
BRANCH  11  12
ATOM     12  C   UNL     1      -4.420  46.649  25.022  1.00  0.00     0.000 C 
BRANCH  12  13
ATOM     13  C   UNL     1      -4.565  45.247  24.406  1.00  0.00     0.006 C 
BRANCH  13  14
ATOM     14  C   UNL     1      -5.774  44.491  24.972  1.00  0.00     0.053 C 
BRANCH  14  15
ATOM     15  C   UNL     1      -6.619  43.896  23.885  1.00  0.00     0.041 C 
ATOM     16  O   UNL     1      -7.383  42.925  24.134  1.00  0.00    -0.550 OA
ATOM     17  O   UNL     1      -6.548  44.402  22.592  1.00  0.00    -0.550 OA
ENDBRANCH  14  15
ENDBRANCH  13  14
ENDBRANCH  12  13
ENDBRANCH  11  12
ENDBRANCH  10  11
ENDBRANCH   9  10
ENDBRANCH   8   9
ENDBRANCH   7   8
ENDBRANCH   6   7
ENDBRANCH   5   6
ENDBRANCH   4   5
ENDBRANCH   3   4
ENDBRANCH   2   3
ENDBRANCH   1   2
BRANCH   1  18
ATOM     18  C   UNL     1       0.671  53.748  21.915  1.00  0.00     0.000 C 
BRANCH  18  19
ATOM     19  C   UNL     1      -0.484  54.288  21.054  1.00  0.00     0.000 C 
BRANCH  19  20
ATOM     20  C   UNL     1      -1.895  53.972  21.583  1.00  0.00     0.000 C 
BRANCH  20  21
ATOM     21  C   UNL     1      -1.957  53.483  23.044  1.00  0.00     0.000 C 
BRANCH  21  22
ATOM     22  C   UNL     1      -2.270  51.977  23.191  1.00  0.00     0.000 C 
BRANCH  22  23
ATOM     23  C   UNL     1      -1.247  51.234  24.067  1.00  0.00     0.000 C 
BRANCH  23  24
ATOM     24  C   UNL     1      -0.607  52.133  25.143  1.00  0.00    -0.000 C 
BRANCH  24  25
ATOM     25  C   UNL     1       0.733  51.629  25.707  1.00  0.00    -0.000 C 
BRANCH  25  26
ATOM     26  C   UNL     1       0.611  50.277  26.430  1.00  0.00    -0.000 C 
BRANCH  26  27
ATOM     27  C   UNL     1       1.464  49.175  25.775  1.00  0.00    -0.000 C 
BRANCH  27  28
ATOM     28  C   UNL     1       2.769  48.827  26.518  1.00  0.00    -0.000 C 
BRANCH  28  29
ATOM     29  C   UNL     1       2.688  48.899  28.056  1.00  0.00    -0.000 C 
BRANCH  29  30
ATOM     30  C   UNL     1       3.886  49.586  28.734  1.00  0.00    -0.000 C 
BRANCH  30  31
ATOM     31  C   UNL     1       3.460  50.623  29.786  1.00  0.00    -0.003 C 
ATOM     32  C   UNL     1       2.660  51.753  29.148  1.00  0.00     0.004 C 
ENDBRANCH  30  31
ENDBRANCH  29  30
ENDBRANCH  28  29
ENDBRANCH  27  28
ENDBRANCH  26  27
ENDBRANCH  25  26
ENDBRANCH  24  25
ENDBRANCH  23  24
ENDBRANCH  22  23
ENDBRANCH  21  22
ENDBRANCH  20  21
ENDBRANCH  19  20
ENDBRANCH  18  19
ENDBRANCH   1  18
TORSDOF 28
ENDMDL
MODEL 8
REMARK VINA RESULT:    -4.620      3.571     10.453
REMARK INTER + INTRA:         -15.996
REMARK INTER:                 -11.995
REMARK INTRA:                  -4.001
REMARK UNBOUND:                -3.815
REMARK SMILES CCCCCCCCCCCCCCCCCCCCCCCCCCCCCC(=O)[O-]
REMARK SMILES IDX 16 1 17 2 18 3 19 4 20 5 21 6 22 7 23 8 24 9 25 10 26 11
REMARK SMILES IDX 27 12 28 13 29 14 30 15 31 16 32 17 15 18 14 19 13 20 12 21
REMARK SMILES IDX 11 22 10 23 9 24 8 25 7 26 6 27 5 28 4 29 3 30 2 31 1 32
REMARK H PARENT
REMARK Flexibility Score: inf
ROOT
ATOM      1  C   UNL     1      -0.545  46.453  24.679  1.00  0.00     0.000 C 
ENDROOT
BRANCH   1   2
ATOM      2  C   UNL     1      -1.615  47.253  25.438  1.00  0.00     0.000 C 
BRANCH   2   3
ATOM      3  C   UNL     1      -2.905  46.447  25.674  1.00  0.00     0.000 C 
BRANCH   3   4
ATOM      4  C   UNL     1      -4.140  47.119  25.055  1.00  0.00     0.000 C 
BRANCH   4   5
ATOM      5  C   UNL     1      -5.040  46.122  24.308  1.00  0.00     0.000 C 
BRANCH   5   6
ATOM      6  C   UNL     1      -4.475  44.693  24.313  1.00  0.00     0.000 C 
BRANCH   6   7
ATOM      7  C   UNL     1      -5.536  43.619  23.986  1.00  0.00     0.000 C 
BRANCH   7   8
ATOM      8  C   UNL     1      -6.756  44.218  23.261  1.00  0.00     0.000 C 
BRANCH   8   9
ATOM      9  C   UNL     1      -8.088  43.920  23.978  1.00  0.00     0.000 C 
BRANCH   9  10
ATOM     10  C   UNL     1      -7.927  43.373  25.408  1.00  0.00     0.000 C 
BRANCH  10  11
ATOM     11  C   UNL     1      -8.327  44.389  26.491  1.00  0.00     0.000 C 
BRANCH  11  12
ATOM     12  C   UNL     1      -7.121  45.149  27.066  1.00  0.00     0.000 C 
BRANCH  12  13
ATOM     13  C   UNL     1      -7.371  46.663  27.163  1.00  0.00     0.006 C 
BRANCH  13  14
ATOM     14  C   UNL     1      -8.267  47.174  26.027  1.00  0.00     0.053 C 
BRANCH  14  15
ATOM     15  C   UNL     1      -9.513  47.824  26.549  1.00  0.00     0.041 C 
ATOM     16  O   UNL     1     -10.038  47.422  27.622  1.00  0.00    -0.550 OA
ATOM     17  O   UNL     1     -10.106  48.862  25.839  1.00  0.00    -0.550 OA
ENDBRANCH  14  15
ENDBRANCH  13  14
ENDBRANCH  12  13
ENDBRANCH  11  12
ENDBRANCH  10  11
ENDBRANCH   9  10
ENDBRANCH   8   9
ENDBRANCH   7   8
ENDBRANCH   6   7
ENDBRANCH   5   6
ENDBRANCH   4   5
ENDBRANCH   3   4
ENDBRANCH   2   3
ENDBRANCH   1   2
BRANCH   1  18
ATOM     18  C   UNL     1      -0.502  46.795  23.179  1.00  0.00     0.000 C 
BRANCH  18  19
ATOM     19  C   UNL     1       0.189  48.140  22.891  1.00  0.00     0.000 C 
BRANCH  19  20
ATOM     20  C   UNL     1       1.082  48.158  21.637  1.00  0.00     0.000 C 
BRANCH  20  21
ATOM     21  C   UNL     1       1.722  49.521  21.303  1.00  0.00     0.000 C 
BRANCH  21  22
ATOM     22  C   UNL     1       0.919  50.736  21.817  1.00  0.00     0.000 C 
BRANCH  22  23
ATOM     23  C   UNL     1       1.557  52.083  21.433  1.00  0.00     0.000 C 
BRANCH  23  24
ATOM     24  C   UNL     1       0.895  53.285  22.133  1.00  0.00    -0.000 C 
BRANCH  24  25
ATOM     25  C   UNL     1       1.170  53.397  23.644  1.00  0.00    -0.000 C 
BRANCH  25  26
ATOM     26  C   UNL     1       0.017  52.856  24.506  1.00  0.00    -0.000 C 
BRANCH  26  27
ATOM     27  C   UNL     1       0.482  51.795  25.520  1.00  0.00    -0.000 C 
BRANCH  27  28
ATOM     28  C   UNL     1       1.994  51.494  25.509  1.00  0.00    -0.000 C 
BRANCH  28  29
ATOM     29  C   UNL     1       2.370  50.035  25.182  1.00  0.00    -0.000 C 
BRANCH  29  30
ATOM     30  C   UNL     1       1.712  48.980  26.088  1.00  0.00    -0.000 C 
BRANCH  30  31
ATOM     31  C   UNL     1       2.297  48.967  27.509  1.00  0.00    -0.003 C 
ATOM     32  C   UNL     1       3.821  48.939  27.473  1.00  0.00     0.004 C 
ENDBRANCH  30  31
ENDBRANCH  29  30
ENDBRANCH  28  29
ENDBRANCH  27  28
ENDBRANCH  26  27
ENDBRANCH  25  26
ENDBRANCH  24  25
ENDBRANCH  23  24
ENDBRANCH  22  23
ENDBRANCH  21  22
ENDBRANCH  20  21
ENDBRANCH  19  20
ENDBRANCH  18  19
ENDBRANCH   1  18
TORSDOF 28
ENDMDL
MODEL 9
REMARK VINA RESULT:    -4.560      3.372      9.834
REMARK INTER + INTRA:         -15.839
REMARK INTER:                 -11.059
REMARK INTRA:                  -4.779
REMARK UNBOUND:                -3.815
REMARK SMILES CCCCCCCCCCCCCCCCCCCCCCCCCCCCCC(=O)[O-]
REMARK SMILES IDX 16 1 17 2 18 3 19 4 20 5 21 6 22 7 23 8 24 9 25 10 26 11
REMARK SMILES IDX 27 12 28 13 29 14 30 15 31 16 32 17 15 18 14 19 13 20 12 21
REMARK SMILES IDX 11 22 10 23 9 24 8 25 7 26 6 27 5 28 4 29 3 30 2 31 1 32
REMARK H PARENT
REMARK Flexibility Score: inf
ROOT
ATOM      1  C   UNL     1      -3.737  48.911  24.995  1.00  0.00     0.000 C 
ENDROOT
BRANCH   1   2
ATOM      2  C   UNL     1      -3.767  48.115  26.308  1.00  0.00     0.000 C 
BRANCH   2   3
ATOM      3  C   UNL     1      -3.635  46.597  26.087  1.00  0.00     0.000 C 
BRANCH   3   4
ATOM      4  C   UNL     1      -3.741  46.207  24.605  1.00  0.00     0.000 C 
BRANCH   4   5
ATOM      5  C   UNL     1      -2.776  45.073  24.224  1.00  0.00     0.000 C 
BRANCH   5   6
ATOM      6  C   UNL     1      -3.507  43.785  23.812  1.00  0.00     0.000 C 
BRANCH   6   7
ATOM      7  C   UNL     1      -5.038  43.963  23.706  1.00  0.00     0.000 C 
BRANCH   7   8
ATOM      8  C   UNL     1      -5.798  42.915  24.542  1.00  0.00     0.000 C 
BRANCH   8   9
ATOM      9  C   UNL     1      -7.319  43.165  24.581  1.00  0.00     0.000 C 
BRANCH   9  10
ATOM     10  C   UNL     1      -7.773  44.123  25.697  1.00  0.00     0.000 C 
BRANCH  10  11
ATOM     11  C   UNL     1      -8.362  45.439  25.160  1.00  0.00     0.000 C 
BRANCH  11  12
ATOM     12  C   UNL     1      -7.332  46.578  25.121  1.00  0.00     0.000 C 
BRANCH  12  13
ATOM     13  C   UNL     1      -7.518  47.580  26.272  1.00  0.00     0.006 C 
BRANCH  13  14
ATOM     14  C   UNL     1      -8.874  47.412  26.970  1.00  0.00     0.053 C 
BRANCH  14  15
ATOM     15  C   UNL     1      -8.717  47.113  28.431  1.00  0.00     0.041 C 
ATOM     16  O   UNL     1      -8.784  45.926  28.848  1.00  0.00    -0.550 OA
ATOM     17  O   UNL     1      -8.515  48.150  29.335  1.00  0.00    -0.550 OA
ENDBRANCH  14  15
ENDBRANCH  13  14
ENDBRANCH  12  13
ENDBRANCH  11  12
ENDBRANCH  10  11
ENDBRANCH   9  10
ENDBRANCH   8   9
ENDBRANCH   7   8
ENDBRANCH   6   7
ENDBRANCH   5   6
ENDBRANCH   4   5
ENDBRANCH   3   4
ENDBRANCH   2   3
ENDBRANCH   1   2
BRANCH   1  18
ATOM     18  C   UNL     1      -3.183  50.335  25.179  1.00  0.00     0.000 C 
BRANCH  18  19
ATOM     19  C   UNL     1      -2.474  50.870  23.921  1.00  0.00     0.000 C 
BRANCH  19  20
ATOM     20  C   UNL     1      -1.242  51.752  24.192  1.00  0.00     0.000 C 
BRANCH  20  21
ATOM     21  C   UNL     1      -0.270  51.910  23.005  1.00  0.00     0.000 C 
BRANCH  21  22
ATOM     22  C   UNL     1       1.214  52.025  23.416  1.00  0.00     0.000 C 
BRANCH  22  23
ATOM     23  C   UNL     1       2.155  51.227  22.497  1.00  0.00     0.000 C 
BRANCH  23  24
ATOM     24  C   UNL     1       1.416  50.188  21.632  1.00  0.00    -0.000 C 
BRANCH  24  25
ATOM     25  C   UNL     1       1.898  48.736  21.796  1.00  0.00    -0.000 C 
BRANCH  25  26
ATOM     26  C   UNL     1       0.753  47.752  22.093  1.00  0.00    -0.000 C 
BRANCH  26  27
ATOM     27  C   UNL     1      -0.218  48.280  23.164  1.00  0.00    -0.000 C 
BRANCH  27  28
ATOM     28  C   UNL     1      -0.114  47.593  24.541  1.00  0.00    -0.000 C 
BRANCH  28  29
ATOM     29  C   UNL     1       0.222  48.532  25.718  1.00  0.00    -0.000 C 
BRANCH  29  30
ATOM     30  C   UNL     1       1.645  49.114  25.694  1.00  0.00    -0.000 C 
BRANCH  30  31
ATOM     31  C   UNL     1       2.610  48.366  26.627  1.00  0.00    -0.003 C 
ATOM     32  C   UNL     1       3.246  49.318  27.634  1.00  0.00     0.004 C 
ENDBRANCH  30  31
ENDBRANCH  29  30
ENDBRANCH  28  29
ENDBRANCH  27  28
ENDBRANCH  26  27
ENDBRANCH  25  26
ENDBRANCH  24  25
ENDBRANCH  23  24
ENDBRANCH  22  23
ENDBRANCH  21  22
ENDBRANCH  20  21
ENDBRANCH  19  20
ENDBRANCH  18  19
ENDBRANCH   1  18
TORSDOF 28
ENDMDL
