MODEL 1
REMARK VINA RESULT:    -2.483      0.000      0.000
REMARK INTER + INTRA:          -2.900
REMARK INTER:                  -2.701
REMARK INTRA:                  -0.199
REMARK UNBOUND:                -0.199
REMARK SMILES O=C([O-])c1ccccc1O
REMARK SMILES IDX 4 1 9 2 5 3 8 4 6 5 7 6 2 7 1 8 3 9 10 10
REMARK H PARENT 10 11
REMARK Flexibility Score: inf
ROOT
ATOM      1  C   UNL     1     -32.408 -35.662  14.595  1.00  0.00     0.039 A 
ATOM      2  C   UNL     1     -33.505 -35.624  13.697  1.00  0.00     0.124 A 
ATOM      3  C   UNL     1     -31.111 -35.446  14.096  1.00  0.00     0.014 A 
ATOM      4  C   UNL     1     -33.285 -35.311  12.350  1.00  0.00     0.047 A 
ATOM      5  C   UNL     1     -30.907 -35.156  12.745  1.00  0.00     0.001 A 
ATOM      6  C   UNL     1     -31.993 -35.079  11.875  1.00  0.00     0.004 A 
ENDROOT
BRANCH   1   7
ATOM      7  C   UNL     1     -32.580 -35.884  16.048  1.00  0.00     0.075 C 
ATOM      8  O   UNL     1     -31.589 -35.805  16.822  1.00  0.00    -0.545 OA
ATOM      9  O   UNL     1     -33.840 -36.115  16.589  1.00  0.00    -0.545 OA
ENDBRANCH   1   7
BRANCH   2  10
ATOM     10  O   UNL     1     -34.811 -35.922  14.090  1.00  0.00    -0.507 OA
ATOM     11  H   UNL     1     -35.103 -35.971  15.057  1.00  0.00     0.293 HD
ENDBRANCH   2  10
TORSDOF 2
ENDMDL
MODEL 2
REMARK VINA RESULT:    -2.392     25.105     26.432
REMARK INTER + INTRA:          -2.801
REMARK INTER:                  -2.602
REMARK INTRA:                  -0.198
REMARK UNBOUND:                -0.199
REMARK SMILES O=C([O-])c1ccccc1O
REMARK SMILES IDX 4 1 9 2 5 3 8 4 6 5 7 6 2 7 1 8 3 9 10 10
REMARK H PARENT 10 11
REMARK Flexibility Score: inf
ROOT
ATOM      1  C   UNL     1     -16.958 -22.858  31.628  1.00  0.00     0.039 A 
ATOM      2  C   UNL     1     -17.577 -23.970  31.002  1.00  0.00     0.124 A 
ATOM      3  C   UNL     1     -15.649 -23.000  32.125  1.00  0.00     0.014 A 
ATOM      4  C   UNL     1     -16.858 -25.160  30.834  1.00  0.00     0.047 A 
ATOM      5  C   UNL     1     -14.953 -24.200  31.968  1.00  0.00     0.001 A 
ATOM      6  C   UNL     1     -15.553 -25.275  31.315  1.00  0.00     0.004 A 
ENDROOT
BRANCH   1   7
ATOM      7  C   UNL     1     -17.622 -21.541  31.746  1.00  0.00     0.075 C 
ATOM      8  O   UNL     1     -16.966 -20.534  32.124  1.00  0.00    -0.545 OA
ATOM      9  O   UNL     1     -18.953 -21.380  31.380  1.00  0.00    -0.545 OA
ENDBRANCH   1   7
BRANCH   2  10
ATOM     10  O   UNL     1     -18.905 -23.945  30.569  1.00  0.00    -0.507 OA
ATOM     11  H   UNL     1     -19.295 -23.196  30.015  1.00  0.00     0.293 HD
ENDBRANCH   2  10
TORSDOF 2
ENDMDL
MODEL 3
REMARK VINA RESULT:    -2.382      2.843      3.621
REMARK INTER + INTRA:          -2.789
REMARK INTER:                  -2.545
REMARK INTRA:                  -0.245
REMARK UNBOUND:                -0.199
REMARK SMILES O=C([O-])c1ccccc1O
REMARK SMILES IDX 4 1 9 2 5 3 8 4 6 5 7 6 2 7 1 8 3 9 10 10
REMARK H PARENT 10 11
REMARK Flexibility Score: inf
ROOT
ATOM      1  C   UNL     1     -32.716 -34.110  12.461  1.00  0.00     0.039 A 
ATOM      2  C   UNL     1     -34.030 -34.624  12.323  1.00  0.00     0.124 A 
ATOM      3  C   UNL     1     -32.536 -32.718  12.565  1.00  0.00     0.014 A 
ATOM      4  C   UNL     1     -35.123 -33.749  12.356  1.00  0.00     0.047 A 
ATOM      5  C   UNL     1     -33.636 -31.857  12.576  1.00  0.00     0.001 A 
ATOM      6  C   UNL     1     -34.928 -32.372  12.481  1.00  0.00     0.004 A 
ENDROOT
BRANCH   1   7
ATOM      7  C   UNL     1     -31.525 -34.985  12.539  1.00  0.00     0.075 C 
ATOM      8  O   UNL     1     -31.609 -36.122  13.075  1.00  0.00    -0.545 OA
ATOM      9  O   UNL     1     -30.319 -34.599  11.966  1.00  0.00    -0.545 OA
ENDBRANCH   1   7
BRANCH   2  10
ATOM     10  O   UNL     1     -34.289 -35.981  12.117  1.00  0.00    -0.507 OA
ATOM     11  H   UNL     1     -34.835 -36.330  11.341  1.00  0.00     0.293 HD
ENDBRANCH   2  10
TORSDOF 2
ENDMDL
MODEL 4
REMARK VINA RESULT:    -2.335      2.049      3.507
REMARK INTER + INTRA:          -2.738
REMARK INTER:                  -2.524
REMARK INTRA:                  -0.215
REMARK UNBOUND:                -0.199
REMARK SMILES O=C([O-])c1ccccc1O
REMARK SMILES IDX 4 1 9 2 5 3 8 4 6 5 7 6 2 7 1 8 3 9 10 10
REMARK H PARENT 10 11
REMARK Flexibility Score: inf
ROOT
ATOM      1  C   UNL     1     -32.717 -35.437  14.122  1.00  0.00     0.039 A 
ATOM      2  C   UNL     1     -34.131 -35.342  14.077  1.00  0.00     0.124 A 
ATOM      3  C   UNL     1     -32.090 -35.681  15.358  1.00  0.00     0.014 A 
ATOM      4  C   UNL     1     -34.876 -35.554  15.243  1.00  0.00     0.047 A 
ATOM      5  C   UNL     1     -32.847 -35.869  16.516  1.00  0.00     0.001 A 
ATOM      6  C   UNL     1     -34.239 -35.816  16.457  1.00  0.00     0.004 A 
ENDROOT
BRANCH   1   7
ATOM      7  C   UNL     1     -31.874 -35.327  12.910  1.00  0.00     0.075 C 
ATOM      8  O   UNL     1     -32.326 -34.769  11.875  1.00  0.00    -0.545 OA
ATOM      9  O   UNL     1     -30.558 -35.773  12.915  1.00  0.00    -0.545 OA
ENDBRANCH   1   7
BRANCH   2  10
ATOM     10  O   UNL     1     -34.826 -35.007  12.913  1.00  0.00    -0.507 OA
ATOM     11  H   UNL     1     -35.351 -35.676  12.368  1.00  0.00     0.293 HD
ENDBRANCH   2  10
TORSDOF 2
ENDMDL
MODEL 5
REMARK VINA RESULT:    -2.304      3.149      3.975
REMARK INTER + INTRA:          -2.704
REMARK INTER:                  -2.467
REMARK INTRA:                  -0.238
REMARK UNBOUND:                -0.199
REMARK SMILES O=C([O-])c1ccccc1O
REMARK SMILES IDX 4 1 9 2 5 3 8 4 6 5 7 6 2 7 1 8 3 9 10 10
REMARK H PARENT 10 11
REMARK Flexibility Score: inf
ROOT
ATOM      1  C   UNL     1     -32.682 -33.203  12.446  1.00  0.00     0.039 A 
ATOM      2  C   UNL     1     -33.832 -34.022  12.315  1.00  0.00     0.124 A 
ATOM      3  C   UNL     1     -31.426 -33.816  12.612  1.00  0.00     0.014 A 
ATOM      4  C   UNL     1     -33.692 -35.415  12.291  1.00  0.00     0.047 A 
ATOM      5  C   UNL     1     -31.306 -35.207  12.607  1.00  0.00     0.001 A 
ATOM      6  C   UNL     1     -32.435 -36.006  12.436  1.00  0.00     0.004 A 
ENDROOT
BRANCH   1   7
ATOM      7  C   UNL     1     -32.746 -31.727  12.376  1.00  0.00     0.075 C 
ATOM      8  O   UNL     1     -33.751 -31.115  12.825  1.00  0.00    -0.545 OA
ATOM      9  O   UNL     1     -31.677 -30.990  11.879  1.00  0.00    -0.545 OA
ENDBRANCH   1   7
BRANCH   2  10
ATOM     10  O   UNL     1     -35.125 -33.497  12.244  1.00  0.00    -0.507 OA
ATOM     11  H   UNL     1     -35.898 -33.981  11.809  1.00  0.00     0.293 HD
ENDBRANCH   2  10
TORSDOF 2
ENDMDL
MODEL 6
REMARK VINA RESULT:    -2.295     25.250     26.493
REMARK INTER + INTRA:          -2.694
REMARK INTER:                  -2.454
REMARK INTRA:                  -0.240
REMARK UNBOUND:                -0.199
REMARK SMILES O=C([O-])c1ccccc1O
REMARK SMILES IDX 4 1 9 2 5 3 8 4 6 5 7 6 2 7 1 8 3 9 10 10
REMARK H PARENT 10 11
REMARK Flexibility Score: inf
ROOT
ATOM      1  C   UNL     1     -18.672 -21.945  31.494  1.00  0.00     0.039 A 
ATOM      2  C   UNL     1     -17.740 -20.965  31.922  1.00  0.00     0.124 A 
ATOM      3  C   UNL     1     -18.212 -23.246  31.218  1.00  0.00     0.014 A 
ATOM      4  C   UNL     1     -16.401 -21.323  32.122  1.00  0.00     0.047 A 
ATOM      5  C   UNL     1     -16.869 -23.581  31.402  1.00  0.00     0.001 A 
ATOM      6  C   UNL     1     -15.967 -22.624  31.863  1.00  0.00     0.004 A 
ENDROOT
BRANCH   1   7
ATOM      7  C   UNL     1     -20.118 -21.661  31.363  1.00  0.00     0.075 C 
ATOM      8  O   UNL     1     -20.513 -20.711  30.637  1.00  0.00    -0.545 OA
ATOM      9  O   UNL     1     -21.062 -22.474  31.980  1.00  0.00    -0.545 OA
ENDBRANCH   1   7
BRANCH   2  10
ATOM     10  O   UNL     1     -18.093 -19.628  32.124  1.00  0.00    -0.507 OA
ATOM     11  H   UNL     1     -18.759 -19.329  32.823  1.00  0.00     0.293 HD
ENDBRANCH   2  10
TORSDOF 2
ENDMDL
MODEL 7
REMARK VINA RESULT:    -2.276     24.828     26.181
REMARK INTER + INTRA:          -2.674
REMARK INTER:                  -2.422
REMARK INTRA:                  -0.252
REMARK UNBOUND:                -0.199
REMARK SMILES O=C([O-])c1ccccc1O
REMARK SMILES IDX 4 1 9 2 5 3 8 4 6 5 7 6 2 7 1 8 3 9 10 10
REMARK H PARENT 10 11
REMARK Flexibility Score: inf
ROOT
ATOM      1  C   UNL     1     -17.325 -23.788  31.165  1.00  0.00     0.039 A 
ATOM      2  C   UNL     1     -16.282 -23.074  31.807  1.00  0.00     0.124 A 
ATOM      3  C   UNL     1     -17.104 -25.126  30.790  1.00  0.00     0.014 A 
ATOM      4  C   UNL     1     -15.081 -23.728  32.111  1.00  0.00     0.047 A 
ATOM      5  C   UNL     1     -15.893 -25.757  31.082  1.00  0.00     0.001 A 
ATOM      6  C   UNL     1     -14.886 -25.062  31.750  1.00  0.00     0.004 A 
ENDROOT
BRANCH   1   7
ATOM      7  C   UNL     1     -18.654 -23.191  30.908  1.00  0.00     0.075 C 
ATOM      8  O   UNL     1     -19.700 -23.799  31.260  1.00  0.00    -0.545 OA
ATOM      9  O   UNL     1     -18.769 -21.928  30.339  1.00  0.00    -0.545 OA
ENDBRANCH   1   7
BRANCH   2  10
ATOM     10  O   UNL     1     -16.382 -21.718  32.125  1.00  0.00    -0.507 OA
ATOM     11  H   UNL     1     -15.848 -20.997  31.660  1.00  0.00     0.293 HD
ENDBRANCH   2  10
TORSDOF 2
ENDMDL
MODEL 8
REMARK VINA RESULT:    -2.237     25.195     26.494
REMARK INTER + INTRA:          -2.632
REMARK INTER:                  -2.380
REMARK INTRA:                  -0.252
REMARK UNBOUND:                -0.199
REMARK SMILES O=C([O-])c1ccccc1O
REMARK SMILES IDX 4 1 9 2 5 3 8 4 6 5 7 6 2 7 1 8 3 9 10 10
REMARK H PARENT 10 11
REMARK Flexibility Score: inf
ROOT
ATOM      1  C   UNL     1     -16.837 -22.784  31.397  1.00  0.00     0.039 A 
ATOM      2  C   UNL     1     -18.206 -23.033  31.123  1.00  0.00     0.124 A 
ATOM      3  C   UNL     1     -16.460 -21.517  31.878  1.00  0.00     0.014 A 
ATOM      4  C   UNL     1     -19.158 -22.043  31.393  1.00  0.00     0.047 A 
ATOM      5  C   UNL     1     -17.419 -20.532  32.122  1.00  0.00     0.001 A 
ATOM      6  C   UNL     1     -18.768 -20.798  31.889  1.00  0.00     0.004 A 
ENDROOT
BRANCH   1   7
ATOM      7  C   UNL     1     -15.793 -23.820  31.234  1.00  0.00     0.075 C 
ATOM      8  O   UNL     1     -14.895 -23.956  32.106  1.00  0.00    -0.545 OA
ATOM      9  O   UNL     1     -15.824 -24.698  30.157  1.00  0.00    -0.545 OA
ENDBRANCH   1   7
BRANCH   2  10
ATOM     10  O   UNL     1     -18.654 -24.228  30.553  1.00  0.00    -0.507 OA
ATOM     11  H   UNL     1     -19.365 -24.269  29.836  1.00  0.00     0.293 HD
ENDBRANCH   2  10
TORSDOF 2
ENDMDL
MODEL 9
REMARK VINA RESULT:    -2.236     25.133     26.222
REMARK INTER + INTRA:          -2.631
REMARK INTER:                  -2.378
REMARK INTRA:                  -0.253
REMARK UNBOUND:                -0.199
REMARK SMILES O=C([O-])c1ccccc1O
REMARK SMILES IDX 4 1 9 2 5 3 8 4 6 5 7 6 2 7 1 8 3 9 10 10
REMARK H PARENT 10 11
REMARK Flexibility Score: inf
ROOT
ATOM      1  C   UNL     1     -18.649 -21.684  31.424  1.00  0.00     0.039 A 
ATOM      2  C   UNL     1     -18.304 -23.058  31.374  1.00  0.00     0.124 A 
ATOM      3  C   UNL     1     -17.674 -20.751  31.823  1.00  0.00     0.014 A 
ATOM      4  C   UNL     1     -16.991 -23.454  31.659  1.00  0.00     0.047 A 
ATOM      5  C   UNL     1     -16.375 -21.164  32.125  1.00  0.00     0.001 A 
ATOM      6  C   UNL     1     -16.031 -22.512  32.034  1.00  0.00     0.004 A 
ENDROOT
BRANCH   1   7
ATOM      7  C   UNL     1     -19.988 -21.187  31.035  1.00  0.00     0.075 C 
ATOM      8  O   UNL     1     -20.475 -20.172  31.601  1.00  0.00    -0.545 OA
ATOM      9  O   UNL     1     -20.696 -21.785  30.000  1.00  0.00    -0.545 OA
ENDBRANCH   1   7
BRANCH   2  10
ATOM     10  O   UNL     1     -19.235 -24.058  31.082  1.00  0.00    -0.507 OA
ATOM     11  H   UNL     1     -19.076 -24.783  30.397  1.00  0.00     0.293 HD
ENDBRANCH   2  10
TORSDOF 2
ENDMDL
