MODEL 1
REMARK VINA RESULT:     6.595      0.000      0.000
REMARK INTER + INTRA:           6.788
REMARK INTER:                   6.788
REMARK INTRA:                   0.000
REMARK UNBOUND:                 0.000
REMARK SMILES Nc1ncnc2nc[nH]c12
REMARK SMILES IDX 8 1 7 2 6 3 5 4 4 5 3 6 2 7 10 8 9 9 1 11
REMARK H PARENT 9 10 1 12 1 13
REMARK Flexibility Score: inf
ROOT
ATOM      1  C   UNL     1      21.784  -3.478  11.698  1.00  0.00     0.199 A 
ATOM      2  N   UNL     1      20.710  -4.116  12.237  1.00  0.00    -0.217 NA
ATOM      3  C   UNL     1      19.701  -3.282  11.934  1.00  0.00     0.182 A 
ATOM      4  N   UNL     1      18.393  -3.449  12.246  1.00  0.00    -0.215 NA
ATOM      5  C   UNL     1      17.507  -2.486  11.849  1.00  0.00     0.226 A 
ATOM      6  N   UNL     1      17.941  -1.385  11.154  1.00  0.00    -0.217 NA
ATOM      7  C   UNL     1      19.260  -1.216  10.838  1.00  0.00     0.152 A 
ATOM      8  C   UNL     1      20.148  -2.205  11.250  1.00  0.00     0.127 A 
ATOM      9  N   UNL     1      21.474  -2.307  11.086  1.00  0.00    -0.340 N 
ATOM     10  H   UNL     1      22.125  -1.649  10.605  1.00  0.00     0.168 HD
ENDROOT
BRANCH   7  11
ATOM     11  N   UNL     1      19.688  -0.062  10.112  1.00  0.00    -0.382 N 
ATOM     12  H   UNL     1      20.227  -0.147   9.223  1.00  0.00     0.158 HD
ATOM     13  H   UNL     1      19.461   0.892  10.469  1.00  0.00     0.158 HD
ENDBRANCH   7  11
TORSDOF 1
ENDMDL
MODEL 2
REMARK VINA RESULT:     6.762      1.031      2.412
REMARK INTER + INTRA:           6.960
REMARK INTER:                   6.960
REMARK INTRA:                   0.000
REMARK UNBOUND:                 0.000
REMARK SMILES Nc1ncnc2nc[nH]c12
REMARK SMILES IDX 8 1 7 2 6 3 5 4 4 5 3 6 2 7 10 8 9 9 1 11
REMARK H PARENT 9 10 1 12 1 13
REMARK Flexibility Score: inf
ROOT
ATOM      1  C   UNL     1      21.063  -4.146  12.226  1.00  0.00     0.199 A 
ATOM      2  N   UNL     1      21.676  -3.121  11.572  1.00  0.00    -0.217 NA
ATOM      3  C   UNL     1      20.644  -2.314  11.275  1.00  0.00     0.182 A 
ATOM      4  N   UNL     1      20.707  -1.133  10.614  1.00  0.00    -0.215 NA
ATOM      5  C   UNL     1      19.542  -0.448  10.405  1.00  0.00     0.226 A 
ATOM      6  N   UNL     1      18.348  -0.952  10.857  1.00  0.00    -0.217 NA
ATOM      7  C   UNL     1      18.284  -2.143  11.524  1.00  0.00     0.152 A 
ATOM      8  C   UNL     1      19.478  -2.827  11.728  1.00  0.00     0.127 A 
ATOM      9  N   UNL     1      19.719  -3.995  12.338  1.00  0.00    -0.340 N 
ATOM     10  H   UNL     1      19.043  -4.645  12.795  1.00  0.00     0.168 HD
ENDROOT
BRANCH   7  11
ATOM     11  N   UNL     1      17.029  -2.647  11.985  1.00  0.00    -0.382 N 
ATOM     12  H   UNL     1      16.821  -2.739  13.004  1.00  0.00     0.158 HD
ATOM     13  H   UNL     1      16.297  -2.932  11.298  1.00  0.00     0.158 HD
ENDBRANCH   7  11
TORSDOF 1
ENDMDL
MODEL 3
REMARK VINA RESULT:     7.658      3.947      5.395
REMARK INTER + INTRA:           7.882
REMARK INTER:                   7.882
REMARK INTRA:                   0.000
REMARK UNBOUND:                 0.000
REMARK SMILES Nc1ncnc2nc[nH]c12
REMARK SMILES IDX 8 1 7 2 6 3 5 4 4 5 3 6 2 7 10 8 9 9 1 11
REMARK H PARENT 9 10 1 12 1 13
REMARK Flexibility Score: inf
ROOT
ATOM      1  C   UNL     1      18.165  -0.044  10.773  1.00  0.00     0.199 A 
ATOM      2  N   UNL     1      16.868   0.136  11.143  1.00  0.00    -0.217 NA
ATOM      3  C   UNL     1      16.616   1.380  10.703  1.00  0.00     0.182 A 
ATOM      4  N   UNL     1      15.447   2.057  10.819  1.00  0.00    -0.215 NA
ATOM      5  C   UNL     1      15.381   3.323  10.305  1.00  0.00     0.226 A 
ATOM      6  N   UNL     1      16.473   3.882   9.692  1.00  0.00    -0.217 NA
ATOM      7  C   UNL     1      17.652   3.201   9.574  1.00  0.00     0.152 A 
ATOM      8  C   UNL     1      17.703   1.914  10.102  1.00  0.00     0.127 A 
ATOM      9  N   UNL     1      18.704   1.025  10.133  1.00  0.00    -0.340 N 
ATOM     10  H   UNL     1      19.674   1.120   9.759  1.00  0.00     0.168 HD
ENDROOT
BRANCH   7  11
ATOM     11  N   UNL     1      18.776   3.805   8.930  1.00  0.00    -0.382 N 
ATOM     12  H   UNL     1      19.054   3.540   7.960  1.00  0.00     0.158 HD
ATOM     13  H   UNL     1      19.338   4.527   9.432  1.00  0.00     0.158 HD
ENDBRANCH   7  11
TORSDOF 1
ENDMDL
MODEL 4
REMARK VINA RESULT:     7.718      4.825      6.283
REMARK INTER + INTRA:           7.944
REMARK INTER:                   7.944
REMARK INTRA:                   0.000
REMARK UNBOUND:                 0.000
REMARK SMILES Nc1ncnc2nc[nH]c12
REMARK SMILES IDX 8 1 7 2 6 3 5 4 4 5 3 6 2 7 10 8 9 9 1 11
REMARK H PARENT 9 10 1 12 1 13
REMARK Flexibility Score: inf
ROOT
ATOM      1  C   UNL     1      22.151   1.086  15.877  1.00  0.00     0.199 A 
ATOM      2  N   UNL     1      23.507   1.106  16.002  1.00  0.00    -0.217 NA
ATOM      3  C   UNL     1      23.874   0.026  15.292  1.00  0.00     0.182 A 
ATOM      4  N   UNL     1      25.139  -0.418  15.092  1.00  0.00    -0.215 NA
ATOM      5  C   UNL     1      25.316  -1.543  14.335  1.00  0.00     0.226 A 
ATOM      6  N   UNL     1      24.236  -2.196  13.797  1.00  0.00    -0.217 NA
ATOM      7  C   UNL     1      22.960  -1.750  13.997  1.00  0.00     0.152 A 
ATOM      8  C   UNL     1      22.798  -0.604  14.770  1.00  0.00     0.127 A 
ATOM      9  N   UNL     1      21.687   0.053  15.129  1.00  0.00    -0.340 N 
ATOM     10  H   UNL     1      20.694  -0.167  14.896  1.00  0.00     0.168 HD
ENDROOT
BRANCH   7  11
ATOM     11  N   UNL     1      21.852  -2.447  13.426  1.00  0.00    -0.382 N 
ATOM     12  H   UNL     1      21.897  -3.470  13.228  1.00  0.00     0.158 HD
ATOM     13  H   UNL     1      20.973  -1.932  13.199  1.00  0.00     0.158 HD
ENDBRANCH   7  11
TORSDOF 1
ENDMDL
MODEL 5
REMARK VINA RESULT:     8.052      1.139      3.059
REMARK INTER + INTRA:           8.288
REMARK INTER:                   8.288
REMARK INTRA:                   0.000
REMARK UNBOUND:                 0.000
REMARK SMILES Nc1ncnc2nc[nH]c12
REMARK SMILES IDX 8 1 7 2 6 3 5 4 4 5 3 6 2 7 10 8 9 9 1 11
REMARK H PARENT 9 10 1 12 1 13
REMARK Flexibility Score: inf
ROOT
ATOM      1  C   UNL     1      18.122   0.055  10.597  1.00  0.00     0.199 A 
ATOM      2  N   UNL     1      17.711  -0.724  11.634  1.00  0.00    -0.217 NA
ATOM      3  C   UNL     1      18.601  -1.731  11.605  1.00  0.00     0.182 A 
ATOM      4  N   UNL     1      18.643  -2.796  12.441  1.00  0.00    -0.215 NA
ATOM      5  C   UNL     1      19.631  -3.724  12.255  1.00  0.00     0.226 A 
ATOM      6  N   UNL     1      20.549  -3.570  11.247  1.00  0.00    -0.217 NA
ATOM      7  C   UNL     1      20.508  -2.495  10.403  1.00  0.00     0.152 A 
ATOM      8  C   UNL     1      19.496  -1.561  10.606  1.00  0.00     0.127 A 
ATOM      9  N   UNL     1      19.212  -0.429   9.949  1.00  0.00    -0.340 N 
ATOM     10  H   UNL     1      19.704  -0.008   9.130  1.00  0.00     0.168 HD
ENDROOT
BRANCH   7  11
ATOM     11  N   UNL     1      21.474  -2.356   9.360  1.00  0.00    -0.382 N 
ATOM     12  H   UNL     1      21.691  -1.426   8.940  1.00  0.00     0.158 HD
ATOM     13  H   UNL     1      21.982  -3.196   9.004  1.00  0.00     0.158 HD
ENDBRANCH   7  11
TORSDOF 1
ENDMDL
MODEL 6
REMARK VINA RESULT:     8.067      4.680      6.676
REMARK INTER + INTRA:           8.303
REMARK INTER:                   8.303
REMARK INTRA:                   0.000
REMARK UNBOUND:                 0.000
REMARK SMILES Nc1ncnc2nc[nH]c12
REMARK SMILES IDX 8 1 7 2 6 3 5 4 4 5 3 6 2 7 10 8 9 9 1 11
REMARK H PARENT 9 10 1 12 1 13
REMARK Flexibility Score: inf
ROOT
ATOM      1  C   UNL     1      19.052   4.649   8.891  1.00  0.00     0.199 A 
ATOM      2  N   UNL     1      17.742   5.017   8.929  1.00  0.00    -0.217 NA
ATOM      3  C   UNL     1      17.148   3.909   9.404  1.00  0.00     0.182 A 
ATOM      4  N   UNL     1      15.824   3.739   9.637  1.00  0.00    -0.215 NA
ATOM      5  C   UNL     1      15.405   2.533  10.126  1.00  0.00     0.226 A 
ATOM      6  N   UNL     1      16.309   1.529  10.369  1.00  0.00    -0.217 NA
ATOM      7  C   UNL     1      17.644   1.700  10.135  1.00  0.00     0.152 A 
ATOM      8  C   UNL     1      18.054   2.933   9.638  1.00  0.00     0.127 A 
ATOM      9  N   UNL     1      19.275   3.380   9.319  1.00  0.00    -0.340 N 
ATOM     10  H   UNL     1      20.190   2.882   9.379  1.00  0.00     0.168 HD
ENDROOT
BRANCH   7  11
ATOM     11  N   UNL     1      18.566   0.640  10.397  1.00  0.00    -0.382 N 
ATOM     12  H   UNL     1      19.580   0.732  10.168  1.00  0.00     0.158 HD
ATOM     13  H   UNL     1      18.230  -0.250  10.828  1.00  0.00     0.158 HD
ENDBRANCH   7  11
TORSDOF 1
ENDMDL
MODEL 7
REMARK VINA RESULT:     8.122      1.045      3.780
REMARK INTER + INTRA:           8.360
REMARK INTER:                   8.360
REMARK INTRA:                   0.000
REMARK UNBOUND:                 0.000
REMARK SMILES Nc1ncnc2nc[nH]c12
REMARK SMILES IDX 8 1 7 2 6 3 5 4 4 5 3 6 2 7 10 8 9 9 1 11
REMARK H PARENT 9 10 1 12 1 13
REMARK Flexibility Score: inf
ROOT
ATOM      1  C   UNL     1      18.120  -1.010  11.058  1.00  0.00     0.199 A 
ATOM      2  N   UNL     1      19.232  -0.918  10.279  1.00  0.00    -0.217 NA
ATOM      3  C   UNL     1      20.001  -1.909  10.760  1.00  0.00     0.182 A 
ATOM      4  N   UNL     1      21.238  -2.255  10.328  1.00  0.00    -0.215 NA
ATOM      5  C   UNL     1      21.869  -3.300  10.946  1.00  0.00     0.226 A 
ATOM      6  N   UNL     1      21.257  -3.972  11.974  1.00  0.00    -0.217 NA
ATOM      7  C   UNL     1      20.010  -3.624  12.411  1.00  0.00     0.152 A 
ATOM      8  C   UNL     1      19.382  -2.559  11.772  1.00  0.00     0.127 A 
ATOM      9  N   UNL     1      18.181  -2.005  11.980  1.00  0.00    -0.340 N 
ATOM     10  H   UNL     1      17.454  -2.265  12.682  1.00  0.00     0.168 HD
ENDROOT
BRANCH   7  11
ATOM     11  N   UNL     1      19.393  -4.339  13.483  1.00  0.00    -0.382 N 
ATOM     12  H   UNL     1      19.825  -5.201  13.882  1.00  0.00     0.158 HD
ATOM     13  H   UNL     1      18.491  -4.001  13.885  1.00  0.00     0.158 HD
ENDBRANCH   7  11
TORSDOF 1
ENDMDL
MODEL 8
REMARK VINA RESULT:     8.178      5.352      5.852
REMARK INTER + INTRA:           8.417
REMARK INTER:                   8.417
REMARK INTRA:                   0.000
REMARK UNBOUND:                 0.000
REMARK SMILES Nc1ncnc2nc[nH]c12
REMARK SMILES IDX 8 1 7 2 6 3 5 4 4 5 3 6 2 7 10 8 9 9 1 11
REMARK H PARENT 9 10 1 12 1 13
REMARK Flexibility Score: inf
ROOT
ATOM      1  C   UNL     1      25.256  -1.738  14.507  1.00  0.00     0.199 A 
ATOM      2  N   UNL     1      24.044  -2.281  14.806  1.00  0.00    -0.217 NA
ATOM      3  C   UNL     1      23.314  -1.196  15.115  1.00  0.00     0.182 A 
ATOM      4  N   UNL     1      22.012  -1.179  15.491  1.00  0.00    -0.215 NA
ATOM      5  C   UNL     1      21.437   0.031  15.766  1.00  0.00     0.226 A 
ATOM      6  N   UNL     1      22.166   1.188  15.661  1.00  0.00    -0.217 NA
ATOM      7  C   UNL     1      23.479   1.172  15.282  1.00  0.00     0.152 A 
ATOM      8  C   UNL     1      24.049  -0.067  15.006  1.00  0.00     0.127 A 
ATOM      9  N   UNL     1      25.291  -0.386  14.619  1.00  0.00    -0.340 N 
ATOM     10  H   UNL     1      26.103   0.246  14.443  1.00  0.00     0.168 HD
ENDROOT
BRANCH   7  11
ATOM     11  N   UNL     1      24.218   2.391  15.180  1.00  0.00    -0.382 N 
ATOM     12  H   UNL     1      24.788   2.612  14.335  1.00  0.00     0.158 HD
ATOM     13  H   UNL     1      24.193   3.083  15.961  1.00  0.00     0.158 HD
ENDBRANCH   7  11
TORSDOF 1
ENDMDL
MODEL 9
REMARK VINA RESULT:     8.219      5.773      6.331
REMARK INTER + INTRA:           8.459
REMARK INTER:                   8.459
REMARK INTRA:                   0.000
REMARK UNBOUND:                 0.000
REMARK SMILES Nc1ncnc2nc[nH]c12
REMARK SMILES IDX 8 1 7 2 6 3 5 4 4 5 3 6 2 7 10 8 9 9 1 11
REMARK H PARENT 9 10 1 12 1 13
REMARK Flexibility Score: inf
ROOT
ATOM      1  C   UNL     1      25.215  -0.558  14.385  1.00  0.00     0.199 A 
ATOM      2  N   UNL     1      24.407   0.530  14.257  1.00  0.00    -0.217 NA
ATOM      3  C   UNL     1      23.372   0.212  15.052  1.00  0.00     0.182 A 
ATOM      4  N   UNL     1      22.270   0.966  15.285  1.00  0.00    -0.215 NA
ATOM      5  C   UNL     1      21.317   0.471  16.131  1.00  0.00     0.226 A 
ATOM      6  N   UNL     1      21.481  -0.756  16.722  1.00  0.00    -0.217 NA
ATOM      7  C   UNL     1      22.591  -1.518  16.488  1.00  0.00     0.152 A 
ATOM      8  C   UNL     1      23.551  -1.000  15.624  1.00  0.00     0.127 A 
ATOM      9  N   UNL     1      24.720  -1.511  15.215  1.00  0.00    -0.340 N 
ATOM     10  H   UNL     1      25.157  -2.424  15.467  1.00  0.00     0.168 HD
ENDROOT
BRANCH   7  11
ATOM     11  N   UNL     1      22.740  -2.793  17.115  1.00  0.00    -0.382 N 
ATOM     12  H   UNL     1      22.895  -3.660  16.555  1.00  0.00     0.158 HD
ATOM     13  H   UNL     1      22.694  -2.871  18.155  1.00  0.00     0.158 HD
ENDBRANCH   7  11
TORSDOF 1
ENDMDL
