MODEL 1
REMARK VINA RESULT:    -5.273      0.000      0.000
REMARK INTER + INTRA:          -7.282
REMARK INTER:                  -7.431
REMARK INTRA:                   0.149
REMARK UNBOUND:                 0.149
REMARK SMILES CC1=CCC(=C(C)C)C(=O)CC(C)=CCC1
REMARK SMILES IDX 12 1 14 2 13 3 15 4 16 5 2 6 1 7 3 8 11 10 9 11 10 12 5 13
REMARK SMILES IDX 6 14 7 15 8 16 4 17
REMARK H PARENT
REMARK Flexibility Score: 60.00
ROOT
ATOM      1  C   UNL     1     -13.100 -37.457  30.922  1.00  0.00    -0.070 C 
ATOM      2  C   UNL     1     -12.937 -37.458  29.578  1.00  0.00    -0.027 C 
ATOM      3  C   UNL     1     -12.484 -38.583  31.712  1.00  0.00     0.039 C 
ENDROOT
BRANCH   2   4
ATOM      4  C   UNL     1     -13.604 -36.498  28.627  1.00  0.00     0.032 C 
BRANCH   4   5
ATOM      5  C   UNL     1     -12.598 -35.434  28.172  1.00  0.00     0.034 C 
BRANCH   5   6
ATOM      6  C   UNL     1     -13.261 -34.111  27.846  1.00  0.00    -0.077 C 
ATOM      7  C   UNL     1     -13.856 -33.920  26.472  1.00  0.00     0.039 C 
ATOM      8  C   UNL     1     -13.416 -33.107  28.744  1.00  0.00    -0.023 CG0
ATOM      9  G   UNL     1     -12.861 -33.038  30.155  1.00  0.00     0.000 G0
ENDBRANCH   5   6
ENDBRANCH   4   5
ENDBRANCH   2   4
BRANCH   1  10
ATOM     10  C   UNL     1     -13.850 -36.373  31.669  1.00  0.00     0.111 C 
BRANCH  10  11
ATOM     11  C   UNL     1     -13.073 -35.080  31.714  1.00  0.00     0.163 C 
ATOM     12  O   UNL     1     -11.890 -35.134  32.150  1.00  0.00    -0.294 OA
BRANCH  11  13
ATOM     13  C   UNL     1     -13.621 -33.760  31.253  1.00  0.00    -0.002 C 
ATOM     14  C   UNL     1     -14.670 -33.176  31.909  1.00  0.00    -0.069 C 
ATOM     15  C   UNL     1     -15.100 -31.754  31.627  1.00  0.00     0.039 C 
ATOM     16  C   UNL     1     -15.494 -33.941  32.921  1.00  0.00     0.039 C 
BRANCH  13  17
ATOM     17  C   UNL     1     -12.862 -33.017  30.159  1.00  0.00     0.066 CG0
ATOM     18  G   UNL     1     -13.420 -33.131  28.752  1.00  0.00     0.000 G0
ENDBRANCH  13  17
ENDBRANCH  11  13
ENDBRANCH  10  11
ENDBRANCH   1  10
TORSDOF 0
ENDMDL
MODEL 2
REMARK VINA RESULT:    -5.103      2.137      3.796
REMARK INTER + INTRA:          -7.042
REMARK INTER:                  -7.101
REMARK INTRA:                   0.059
REMARK UNBOUND:                 0.149
REMARK SMILES CC1=CCC(=C(C)C)C(=O)CC(C)=CCC1
REMARK SMILES IDX 12 1 14 2 13 3 15 4 16 5 2 6 1 7 3 8 11 10 9 11 10 12 5 13
REMARK SMILES IDX 6 14 7 15 8 16 4 17
REMARK H PARENT
REMARK Flexibility Score: 60.00
ROOT
ATOM      1  C   UNL     1     -10.406 -33.873  31.885  1.00  0.00    -0.070 C 
ATOM      2  C   UNL     1     -10.079 -33.302  30.703  1.00  0.00    -0.027 C 
ATOM      3  C   UNL     1     -10.215 -33.061  33.141  1.00  0.00     0.039 C 
ENDROOT
BRANCH   2   4
ATOM      4  C   UNL     1     -10.067 -34.015  29.374  1.00  0.00     0.032 C 
BRANCH   4   5
ATOM      5  C   UNL     1     -11.146 -33.426  28.458  1.00  0.00     0.034 C 
BRANCH   5   6
ATOM      6  C   UNL     1     -11.811 -34.479  27.595  1.00  0.00    -0.077 C 
ATOM      7  C   UNL     1     -11.277 -34.713  26.203  1.00  0.00     0.039 C 
ATOM      8  C   UNL     1     -12.818 -35.279  28.026  1.00  0.00    -0.023 CG0
ATOM      9  G   UNL     1     -13.555 -35.200  29.351  1.00  0.00     0.000 G0
ENDBRANCH   5   6
ENDBRANCH   4   5
ENDBRANCH   2   4
BRANCH   1  10
ATOM     10  C   UNL     1     -10.971 -35.273  32.007  1.00  0.00     0.111 C 
BRANCH  10  11
ATOM     11  C   UNL     1     -12.443 -35.317  31.679  1.00  0.00     0.163 C 
ATOM     12  O   UNL     1     -13.222 -34.685  32.445  1.00  0.00    -0.294 OA
BRANCH  11  13
ATOM     13  C   UNL     1     -13.014 -36.043  30.496  1.00  0.00    -0.002 C 
ATOM     14  C   UNL     1     -13.179 -37.402  30.527  1.00  0.00    -0.069 C 
ATOM     15  C   UNL     1     -13.957 -38.139  29.461  1.00  0.00     0.039 C 
ATOM     16  C   UNL     1     -12.545 -38.249  31.608  1.00  0.00     0.039 C 
BRANCH  13  17
ATOM     17  C   UNL     1     -13.567 -35.208  29.346  1.00  0.00     0.066 CG0
ATOM     18  G   UNL     1     -12.813 -35.285  28.031  1.00  0.00     0.000 G0
ENDBRANCH  13  17
ENDBRANCH  11  13
ENDBRANCH  10  11
ENDBRANCH   1  10
TORSDOF 0
ENDMDL
MODEL 3
REMARK VINA RESULT:    -4.859      1.766      3.697
REMARK INTER + INTRA:          -6.698
REMARK INTER:                  -6.566
REMARK INTRA:                  -0.132
REMARK UNBOUND:                 0.149
REMARK SMILES CC1=CCC(=C(C)C)C(=O)CC(C)=CCC1
REMARK SMILES IDX 12 1 14 2 13 3 15 4 16 5 2 6 1 7 3 8 11 10 9 11 10 12 5 13
REMARK SMILES IDX 6 14 7 15 8 16 4 17
REMARK H PARENT
REMARK Flexibility Score: 60.00
ROOT
ATOM      1  C   UNL     1     -12.091 -34.387  32.202  1.00  0.00    -0.070 C 
ATOM      2  C   UNL     1     -12.084 -35.740  32.243  1.00  0.00    -0.027 C 
ATOM      3  C   UNL     1     -11.129 -33.645  33.095  1.00  0.00     0.039 C 
ENDROOT
BRANCH   2   4
ATOM      4  C   UNL     1     -13.071 -36.631  31.534  1.00  0.00     0.032 C 
BRANCH   4   5
ATOM      5  C   UNL     1     -12.427 -37.219  30.272  1.00  0.00     0.034 C 
BRANCH   5   6
ATOM      6  C   UNL     1     -13.374 -37.231  29.090  1.00  0.00    -0.077 C 
ATOM      7  C   UNL     1     -14.372 -38.357  28.974  1.00  0.00     0.039 C 
ATOM      8  C   UNL     1     -13.427 -36.244  28.161  1.00  0.00    -0.023 CG0
ATOM      9  G   UNL     1     -12.501 -35.049  28.030  1.00  0.00     0.000 G0
ENDBRANCH   5   6
ENDBRANCH   4   5
ENDBRANCH   2   4
BRANCH   1  10
ATOM     10  C   UNL     1     -13.000 -33.586  31.293  1.00  0.00     0.111 C 
BRANCH  10  11
ATOM     11  C   UNL     1     -12.366 -33.330  29.947  1.00  0.00     0.163 C 
ATOM     12  O   UNL     1     -11.245 -32.750  29.941  1.00  0.00    -0.294 OA
BRANCH  11  13
ATOM     13  C   UNL     1     -12.981 -33.744  28.642  1.00  0.00    -0.002 C 
ATOM     14  C   UNL     1     -13.815 -32.895  27.966  1.00  0.00    -0.069 C 
ATOM     15  C   UNL     1     -14.268 -33.175  26.551  1.00  0.00     0.039 C 
ATOM     16  C   UNL     1     -14.374 -31.651  28.620  1.00  0.00     0.039 C 
BRANCH  13  17
ATOM     17  C   UNL     1     -12.506 -35.049  28.013  1.00  0.00     0.066 CG0
ATOM     18  G   UNL     1     -13.429 -36.245  28.159  1.00  0.00     0.000 G0
ENDBRANCH  13  17
ENDBRANCH  11  13
ENDBRANCH  10  11
ENDBRANCH   1  10
TORSDOF 0
ENDMDL
MODEL 4
REMARK VINA RESULT:    -4.735      2.008      3.833
REMARK INTER + INTRA:          -6.524
REMARK INTER:                  -7.117
REMARK INTRA:                   0.594
REMARK UNBOUND:                 0.149
REMARK SMILES CC1=CCC(=C(C)C)C(=O)CC(C)=CCC1
REMARK SMILES IDX 12 1 14 2 13 3 15 4 16 5 2 6 1 7 3 8 11 10 9 11 10 12 5 13
REMARK SMILES IDX 6 14 7 15 8 16 4 17
REMARK H PARENT
REMARK Flexibility Score: 60.00
ROOT
ATOM      1  C   UNL     1     -11.186 -34.457  28.811  1.00  0.00    -0.070 C 
ATOM      2  C   UNL     1     -10.631 -35.331  29.683  1.00  0.00    -0.027 C 
ATOM      3  C   UNL     1     -11.240 -34.846  27.356  1.00  0.00     0.039 C 
ENDROOT
BRANCH   2   4
ATOM      4  C   UNL     1     -10.364 -35.046  31.139  1.00  0.00     0.032 C 
BRANCH   4   5
ATOM      5  C   UNL     1     -10.975 -36.152  32.007  1.00  0.00     0.034 C 
BRANCH   5   6
ATOM      6  C   UNL     1     -12.404 -36.472  31.616  1.00  0.00    -0.077 C 
ATOM      7  C   UNL     1     -12.748 -37.892  31.237  1.00  0.00     0.039 C 
ATOM      8  C   UNL     1     -13.414 -35.568  31.655  1.00  0.00    -0.023 CG0
ATOM      9  G   UNL     1     -13.311 -34.082  31.946  1.00  0.00     0.000 G0
ENDBRANCH   5   6
ENDBRANCH   4   5
ENDBRANCH   2   4
BRANCH   1  10
ATOM     10  C   UNL     1     -11.771 -33.123  29.227  1.00  0.00     0.111 C 
BRANCH  10  11
ATOM     11  C   UNL     1     -13.250 -33.220  29.510  1.00  0.00     0.163 C 
ATOM     12  O   UNL     1     -14.013 -33.411  28.523  1.00  0.00    -0.294 OA
BRANCH  11  13
ATOM     13  C   UNL     1     -13.845 -33.125  30.885  1.00  0.00    -0.002 C 
ATOM     14  C   UNL     1     -14.931 -32.326  31.118  1.00  0.00    -0.069 C 
ATOM     15  C   UNL     1     -15.698 -32.377  32.420  1.00  0.00     0.039 C 
ATOM     16  C   UNL     1     -15.394 -31.305  30.102  1.00  0.00     0.039 C 
BRANCH  13  17
ATOM     17  C   UNL     1     -13.320 -34.076  31.955  1.00  0.00     0.066 CG0
ATOM     18  G   UNL     1     -13.412 -35.560  31.645  1.00  0.00     0.000 G0
ENDBRANCH  13  17
ENDBRANCH  11  13
ENDBRANCH  10  11
ENDBRANCH   1  10
TORSDOF 0
ENDMDL
MODEL 5
REMARK VINA RESULT:    -4.643      1.821      3.772
REMARK INTER + INTRA:          -6.393
REMARK INTER:                  -6.703
REMARK INTRA:                   0.310
REMARK UNBOUND:                 0.149
REMARK SMILES CC1=CCC(=C(C)C)C(=O)CC(C)=CCC1
REMARK SMILES IDX 12 1 14 2 13 3 15 4 16 5 2 6 1 7 3 8 11 10 9 11 10 12 5 13
REMARK SMILES IDX 6 14 7 15 8 16 4 17
REMARK H PARENT
REMARK Flexibility Score: 60.00
ROOT
ATOM      1  C   UNL     1     -13.309 -33.383  31.027  1.00  0.00    -0.070 C 
ATOM      2  C   UNL     1     -13.946 -33.157  29.854  1.00  0.00    -0.027 C 
ATOM      3  C   UNL     1     -14.148 -33.633  32.254  1.00  0.00     0.039 C 
ENDROOT
BRANCH   2   4
ATOM      4  C   UNL     1     -13.272 -32.747  28.570  1.00  0.00     0.032 C 
BRANCH   4   5
ATOM      5  C   UNL     1     -13.647 -33.725  27.450  1.00  0.00     0.034 C 
BRANCH   5   6
ATOM      6  C   UNL     1     -12.484 -34.602  27.033  1.00  0.00    -0.077 C 
ATOM      7  C   UNL     1     -11.736 -34.256  25.768  1.00  0.00     0.039 C 
ATOM      8  C   UNL     1     -12.027 -35.645  27.770  1.00  0.00    -0.023 CG0
ATOM      9  G   UNL     1     -12.639 -36.219  29.035  1.00  0.00     0.000 G0
ENDBRANCH   5   6
ENDBRANCH   4   5
ENDBRANCH   2   4
BRANCH   1  10
ATOM     10  C   UNL     1     -11.800 -33.417  31.162  1.00  0.00     0.111 C 
BRANCH  10  11
ATOM     11  C   UNL     1     -11.201 -34.621  30.476  1.00  0.00     0.163 C 
ATOM     12  O   UNL     1     -10.036 -34.495  30.008  1.00  0.00    -0.294 OA
BRANCH  11  13
ATOM     13  C   UNL     1     -11.900 -35.943  30.347  1.00  0.00    -0.002 C 
ATOM     14  C   UNL     1     -12.002 -36.783  31.423  1.00  0.00    -0.069 C 
ATOM     15  C   UNL     1     -12.888 -38.008  31.401  1.00  0.00     0.039 C 
ATOM     16  C   UNL     1     -11.188 -36.561  32.678  1.00  0.00     0.039 C 
BRANCH  13  17
ATOM     17  C   UNL     1     -12.642 -36.232  29.047  1.00  0.00     0.066 CG0
ATOM     18  G   UNL     1     -12.035 -35.656  27.780  1.00  0.00     0.000 G0
ENDBRANCH  13  17
ENDBRANCH  11  13
ENDBRANCH  10  11
ENDBRANCH   1  10
TORSDOF 0
ENDMDL
MODEL 6
REMARK VINA RESULT:    -4.588      2.451      4.906
REMARK INTER + INTRA:          -6.317
REMARK INTER:                  -6.532
REMARK INTRA:                   0.215
REMARK UNBOUND:                 0.149
REMARK SMILES CC1=CCC(=C(C)C)C(=O)CC(C)=CCC1
REMARK SMILES IDX 12 1 14 2 13 3 15 4 16 5 2 6 1 7 3 8 11 10 9 11 10 12 5 13
REMARK SMILES IDX 6 14 7 15 8 16 4 17
REMARK H PARENT
REMARK Flexibility Score: 60.00
ROOT
ATOM      1  C   UNL     1     -14.056 -33.068  31.479  1.00  0.00    -0.070 C 
ATOM      2  C   UNL     1     -13.209 -33.070  32.533  1.00  0.00    -0.027 C 
ATOM      3  C   UNL     1     -15.203 -32.090  31.493  1.00  0.00     0.039 C 
ENDROOT
BRANCH   2   4
ATOM      4  C   UNL     1     -12.104 -34.073  32.752  1.00  0.00     0.032 C 
BRANCH   4   5
ATOM      5  C   UNL     1     -10.893 -33.709  31.885  1.00  0.00     0.034 C 
BRANCH   5   6
ATOM      6  C   UNL     1     -10.380 -34.888  31.082  1.00  0.00    -0.077 C 
ATOM      7  C   UNL     1      -9.899 -36.111  31.822  1.00  0.00     0.039 C 
ATOM      8  C   UNL     1     -10.395 -34.937  29.726  1.00  0.00    -0.023 CG0
ATOM      9  G   UNL     1     -10.774 -33.822  28.767  1.00  0.00     0.000 G0
ENDBRANCH   5   6
ENDBRANCH   4   5
ENDBRANCH   2   4
BRANCH   1  10
ATOM     10  C   UNL     1     -13.898 -33.982  30.281  1.00  0.00     0.111 C 
BRANCH  10  11
ATOM     11  C   UNL     1     -13.286 -33.264  29.102  1.00  0.00     0.163 C 
ATOM     12  O   UNL     1     -13.704 -32.100  28.857  1.00  0.00    -0.294 OA
BRANCH  11  13
ATOM     13  C   UNL     1     -12.206 -33.849  28.238  1.00  0.00    -0.002 C 
ATOM     14  C   UNL     1     -12.476 -34.232  26.952  1.00  0.00    -0.069 C 
ATOM     15  C   UNL     1     -11.379 -34.606  25.981  1.00  0.00     0.039 C 
ATOM     16  C   UNL     1     -13.896 -34.354  26.446  1.00  0.00     0.039 C 
BRANCH  13  17
ATOM     17  C   UNL     1     -10.778 -33.831  28.773  1.00  0.00     0.066 CG0
ATOM     18  G   UNL     1     -10.400 -34.948  29.729  1.00  0.00     0.000 G0
ENDBRANCH  13  17
ENDBRANCH  11  13
ENDBRANCH  10  11
ENDBRANCH   1  10
TORSDOF 0
ENDMDL
MODEL 7
REMARK VINA RESULT:    -4.579      2.288      4.253
REMARK INTER + INTRA:          -6.304
REMARK INTER:                  -6.635
REMARK INTRA:                   0.331
REMARK UNBOUND:                 0.149
REMARK SMILES CC1=CCC(=C(C)C)C(=O)CC(C)=CCC1
REMARK SMILES IDX 12 1 14 2 13 3 15 4 16 5 2 6 1 7 3 8 11 10 9 11 10 12 5 13
REMARK SMILES IDX 6 14 7 15 8 16 4 17
REMARK H PARENT
REMARK Flexibility Score: 60.00
ROOT
ATOM      1  C   UNL     1     -10.532 -33.883  29.403  1.00  0.00    -0.070 C 
ATOM      2  C   UNL     1      -9.958 -34.686  30.328  1.00  0.00    -0.027 C 
ATOM      3  C   UNL     1     -10.147 -32.426  29.391  1.00  0.00     0.039 C 
ENDROOT
BRANCH   2   4
ATOM      4  C   UNL     1     -10.334 -36.125  30.576  1.00  0.00     0.032 C 
BRANCH   4   5
ATOM      5  C   UNL     1     -11.092 -36.243  31.903  1.00  0.00     0.034 C 
BRANCH   5   6
ATOM      6  C   UNL     1     -11.282 -34.903  32.584  1.00  0.00    -0.077 C 
ATOM      7  C   UNL     1     -10.217 -34.419  33.537  1.00  0.00     0.039 C 
ATOM      8  C   UNL     1     -12.325 -34.073  32.331  1.00  0.00    -0.023 CG0
ATOM      9  G   UNL     1     -13.540 -34.356  31.466  1.00  0.00     0.000 G0
ENDBRANCH   5   6
ENDBRANCH   4   5
ENDBRANCH   2   4
BRANCH   1  10
ATOM     10  C   UNL     1     -11.523 -34.378  28.369  1.00  0.00     0.111 C 
BRANCH  10  11
ATOM     11  C   UNL     1     -12.882 -34.641  28.972  1.00  0.00     0.163 C 
ATOM     12  O   UNL     1     -13.511 -35.651  28.553  1.00  0.00    -0.294 OA
BRANCH  11  13
ATOM     13  C   UNL     1     -13.499 -33.789  30.043  1.00  0.00    -0.002 C 
ATOM     14  C   UNL     1     -14.142 -32.625  29.721  1.00  0.00    -0.069 C 
ATOM     15  C   UNL     1     -14.970 -31.862  30.730  1.00  0.00     0.039 C 
ATOM     16  C   UNL     1     -14.017 -32.008  28.346  1.00  0.00     0.039 C 
BRANCH  13  17
ATOM     17  C   UNL     1     -13.543 -34.349  31.461  1.00  0.00     0.066 CG0
ATOM     18  G   UNL     1     -12.334 -34.072  32.336  1.00  0.00     0.000 G0
ENDBRANCH  13  17
ENDBRANCH  11  13
ENDBRANCH  10  11
ENDBRANCH   1  10
TORSDOF 0
ENDMDL
MODEL 8
REMARK VINA RESULT:    -4.462      2.188      4.960
REMARK INTER + INTRA:          -6.138
REMARK INTER:                  -6.926
REMARK INTRA:                   0.787
REMARK UNBOUND:                 0.149
REMARK SMILES CC1=CCC(=C(C)C)C(=O)CC(C)=CCC1
REMARK SMILES IDX 12 1 14 2 13 3 15 4 16 5 2 6 1 7 3 8 11 10 9 11 10 12 5 13
REMARK SMILES IDX 6 14 7 15 8 16 4 17
REMARK H PARENT
REMARK Flexibility Score: 60.00
ROOT
ATOM      1  C   UNL     1     -13.313 -33.014  28.967  1.00  0.00    -0.070 C 
ATOM      2  C   UNL     1     -14.054 -32.766  30.071  1.00  0.00    -0.027 C 
ATOM      3  C   UNL     1     -14.002 -32.978  27.627  1.00  0.00     0.039 C 
ENDROOT
BRANCH   2   4
ATOM      4  C   UNL     1     -13.563 -32.905  31.490  1.00  0.00     0.032 C 
BRANCH   4   5
ATOM      5  C   UNL     1     -13.083 -34.340  31.736  1.00  0.00     0.034 C 
BRANCH   5   6
ATOM      6  C   UNL     1     -11.689 -34.391  32.328  1.00  0.00    -0.077 C 
ATOM      7  C   UNL     1     -11.372 -33.501  33.505  1.00  0.00     0.039 C 
ATOM      8  C   UNL     1     -10.725 -35.247  31.907  1.00  0.00    -0.023 CG0
ATOM      9  G   UNL     1     -10.783 -36.190  30.718  1.00  0.00     0.000 G0
ENDBRANCH   5   6
ENDBRANCH   4   5
ENDBRANCH   2   4
BRANCH   1  10
ATOM     10  C   UNL     1     -11.827 -33.305  29.008  1.00  0.00     0.111 C 
BRANCH  10  11
ATOM     11  C   UNL     1     -11.527 -34.751  28.699  1.00  0.00     0.163 C 
ATOM     12  O   UNL     1     -10.987 -35.001  27.587  1.00  0.00    -0.294 OA
BRANCH  11  13
ATOM     13  C   UNL     1     -11.812 -35.883  29.643  1.00  0.00    -0.002 C 
ATOM     14  C   UNL     1     -12.891 -36.701  29.442  1.00  0.00    -0.069 C 
ATOM     15  C   UNL     1     -13.084 -37.980  30.225  1.00  0.00     0.039 C 
ATOM     16  C   UNL     1     -13.982 -36.341  28.458  1.00  0.00     0.039 C 
BRANCH  13  17
ATOM     17  C   UNL     1     -10.771 -36.199  30.712  1.00  0.00     0.066 CG0
ATOM     18  G   UNL     1     -10.717 -35.258  31.902  1.00  0.00     0.000 G0
ENDBRANCH  13  17
ENDBRANCH  11  13
ENDBRANCH  10  11
ENDBRANCH   1  10
TORSDOF 0
ENDMDL
MODEL 9
REMARK VINA RESULT:    -4.387      1.639      4.645
REMARK INTER + INTRA:          -6.033
REMARK INTER:                  -6.262
REMARK INTRA:                   0.228
REMARK UNBOUND:                 0.149
REMARK SMILES CC1=CCC(=C(C)C)C(=O)CC(C)=CCC1
REMARK SMILES IDX 12 1 14 2 13 3 15 4 16 5 2 6 1 7 3 8 11 10 9 11 10 12 5 13
REMARK SMILES IDX 6 14 7 15 8 16 4 17
REMARK H PARENT
REMARK Flexibility Score: 60.00
ROOT
ATOM      1  C   UNL     1     -13.370 -33.895  27.566  1.00  0.00    -0.070 C 
ATOM      2  C   UNL     1     -13.637 -32.709  28.159  1.00  0.00    -0.027 C 
ATOM      3  C   UNL     1     -12.792 -33.879  26.173  1.00  0.00     0.039 C 
ENDROOT
BRANCH   2   4
ATOM      4  C   UNL     1     -14.347 -32.542  29.478  1.00  0.00     0.032 C 
BRANCH   4   5
ATOM      5  C   UNL     1     -13.353 -32.731  30.631  1.00  0.00     0.034 C 
BRANCH   5   6
ATOM      6  C   UNL     1     -13.978 -33.421  31.826  1.00  0.00    -0.077 C 
ATOM      7  C   UNL     1     -15.138 -32.751  32.522  1.00  0.00     0.039 C 
ATOM      8  C   UNL     1     -13.601 -34.646  32.268  1.00  0.00    -0.023 CG0
ATOM      9  G   UNL     1     -12.436 -35.486  31.776  1.00  0.00     0.000 G0
ENDBRANCH   5   6
ENDBRANCH   4   5
ENDBRANCH   2   4
BRANCH   1  10
ATOM     10  C   UNL     1     -13.603 -35.233  28.237  1.00  0.00     0.111 C 
BRANCH  10  11
ATOM     11  C   UNL     1     -12.475 -35.599  29.171  1.00  0.00     0.163 C 
ATOM     12  O   UNL     1     -11.308 -35.282  28.813  1.00  0.00    -0.294 OA
BRANCH  11  13
ATOM     13  C   UNL     1     -12.673 -36.288  30.490  1.00  0.00    -0.002 C 
ATOM     14  C   UNL     1     -12.901 -37.637  30.543  1.00  0.00    -0.069 C 
ATOM     15  C   UNL     1     -12.875 -38.403  31.845  1.00  0.00     0.039 C 
ATOM     16  C   UNL     1     -13.244 -38.429  29.300  1.00  0.00     0.039 C 
BRANCH  13  17
ATOM     17  C   UNL     1     -12.432 -35.478  31.759  1.00  0.00     0.066 CG0
ATOM     18  G   UNL     1     -13.599 -34.648  32.264  1.00  0.00     0.000 G0
ENDBRANCH  13  17
ENDBRANCH  11  13
ENDBRANCH  10  11
ENDBRANCH   1  10
TORSDOF 0
ENDMDL
