MODEL 1
REMARK VINA RESULT:    -3.604      0.000      0.000
REMARK INTER + INTRA:          -5.847
REMARK INTER:                  -5.500
REMARK INTRA:                  -0.347
REMARK UNBOUND:                -0.347
REMARK SMILES O=C([O-])CCCCCCCCC(=O)[O-]
REMARK SMILES IDX 7 1 6 2 5 3 4 4 2 5 1 6 3 7 8 8 9 9 10 10 11 11 12 12 13 13
REMARK SMILES IDX 14 14
REMARK H PARENT
REMARK Flexibility Score: inf
ROOT
ATOM      1  C   UNL     1      -4.880  -9.369  29.047  1.00  0.00     0.000 C 
ENDROOT
BRANCH   1   2
ATOM      2  C   UNL     1      -4.019  -9.212  30.310  1.00  0.00     0.000 C 
BRANCH   2   3
ATOM      3  C   UNL     1      -3.710  -7.733  30.582  1.00  0.00     0.006 C 
BRANCH   3   4
ATOM      4  C   UNL     1      -2.330  -7.537  31.225  1.00  0.00     0.053 C 
BRANCH   4   5
ATOM      5  C   UNL     1      -1.805  -6.152  31.006  1.00  0.00     0.041 C 
ATOM      6  O   UNL     1      -1.606  -5.388  31.987  1.00  0.00    -0.550 OA
ATOM      7  O   UNL     1      -1.503  -5.717  29.721  1.00  0.00    -0.550 OA
ENDBRANCH   4   5
ENDBRANCH   3   4
ENDBRANCH   2   3
ENDBRANCH   1   2
BRANCH   1   8
ATOM      8  C   UNL     1      -4.041  -9.464  27.760  1.00  0.00     0.000 C 
BRANCH   8   9
ATOM      9  C   UNL     1      -4.066 -10.841  27.064  1.00  0.00     0.000 C 
BRANCH   9  10
ATOM     10  C   UNL     1      -2.926 -11.084  26.055  1.00  0.00     0.006 C 
BRANCH  10  11
ATOM     11  C   UNL     1      -3.308 -10.824  24.590  1.00  0.00     0.053 C 
BRANCH  11  12
ATOM     12  C   UNL     1      -2.550  -9.670  24.009  1.00  0.00     0.041 C 
ATOM     13  O   UNL     1      -2.986  -8.496  24.138  1.00  0.00    -0.550 OA
ATOM     14  O   UNL     1      -1.343  -9.888  23.356  1.00  0.00    -0.550 OA
ENDBRANCH  11  12
ENDBRANCH  10  11
ENDBRANCH   9  10
ENDBRANCH   8   9
ENDBRANCH   1   8
TORSDOF 9
ENDMDL
MODEL 2
REMARK VINA RESULT:    -3.531      1.522      2.588
REMARK INTER + INTRA:          -5.736
REMARK INTER:                  -5.402
REMARK INTRA:                  -0.334
REMARK UNBOUND:                -0.347
REMARK SMILES O=C([O-])CCCCCCCCC(=O)[O-]
REMARK SMILES IDX 7 1 6 2 5 3 4 4 2 5 1 6 3 7 8 8 9 9 10 10 11 11 12 12 13 13
REMARK SMILES IDX 14 14
REMARK H PARENT
REMARK Flexibility Score: inf
ROOT
ATOM      1  C   UNL     1      -3.426  -7.770  29.954  1.00  0.00     0.000 C 
ENDROOT
BRANCH   1   2
ATOM      2  C   UNL     1      -2.459  -7.555  31.128  1.00  0.00     0.000 C 
BRANCH   2   3
ATOM      3  C   UNL     1      -1.410  -6.486  30.786  1.00  0.00     0.006 C 
BRANCH   3   4
ATOM      4  C   UNL     1      -1.867  -5.076  31.185  1.00  0.00     0.053 C 
BRANCH   4   5
ATOM      5  C   UNL     1      -2.163  -4.981  32.649  1.00  0.00     0.041 C 
ATOM      6  O   UNL     1      -3.285  -4.565  33.042  1.00  0.00    -0.550 OA
ATOM      7  O   UNL     1      -1.214  -5.384  33.580  1.00  0.00    -0.550 OA
ENDBRANCH   4   5
ENDBRANCH   3   4
ENDBRANCH   2   3
ENDBRANCH   1   2
BRANCH   1   8
ATOM      8  C   UNL     1      -4.124  -9.141  29.998  1.00  0.00     0.000 C 
BRANCH   8   9
ATOM      9  C   UNL     1      -4.980  -9.479  28.760  1.00  0.00     0.000 C 
BRANCH   9  10
ATOM     10  C   UNL     1      -4.250  -9.355  27.407  1.00  0.00     0.006 C 
BRANCH  10  11
ATOM     11  C   UNL     1      -3.529 -10.634  26.955  1.00  0.00     0.053 C 
BRANCH  11  12
ATOM     12  C   UNL     1      -3.546 -10.790  25.465  1.00  0.00     0.041 C 
ATOM     13  O   UNL     1      -2.753 -10.125  24.750  1.00  0.00    -0.550 OA
ATOM     14  O   UNL     1      -4.414 -11.698  24.870  1.00  0.00    -0.550 OA
ENDBRANCH  11  12
ENDBRANCH  10  11
ENDBRANCH   9  10
ENDBRANCH   8   9
ENDBRANCH   1   8
TORSDOF 9
ENDMDL
MODEL 3
REMARK VINA RESULT:    -3.505      4.701      7.655
REMARK INTER + INTRA:          -5.696
REMARK INTER:                  -5.111
REMARK INTRA:                  -0.585
REMARK UNBOUND:                -0.347
REMARK SMILES O=C([O-])CCCCCCCCC(=O)[O-]
REMARK SMILES IDX 7 1 6 2 5 3 4 4 2 5 1 6 3 7 8 8 9 9 10 10 11 11 12 12 13 13
REMARK SMILES IDX 14 14
REMARK H PARENT
REMARK Flexibility Score: inf
ROOT
ATOM      1  C   UNL     1      -3.257  -3.383  31.839  1.00  0.00     0.000 C 
ENDROOT
BRANCH   1   2
ATOM      2  C   UNL     1      -3.522  -1.902  32.148  1.00  0.00     0.000 C 
BRANCH   2   3
ATOM      3  C   UNL     1      -3.498  -1.645  33.662  1.00  0.00     0.006 C 
BRANCH   3   4
ATOM      4  C   UNL     1      -2.655  -0.416  34.030  1.00  0.00     0.053 C 
BRANCH   4   5
ATOM      5  C   UNL     1      -3.143   0.239  35.284  1.00  0.00     0.041 C 
ATOM      6  O   UNL     1      -2.468   1.155  35.823  1.00  0.00    -0.550 OA
ATOM      7  O   UNL     1      -4.360  -0.138  35.839  1.00  0.00    -0.550 OA
ENDBRANCH   4   5
ENDBRANCH   3   4
ENDBRANCH   2   3
ENDBRANCH   1   2
BRANCH   1   8
ATOM      8  C   UNL     1      -3.100  -4.240  33.108  1.00  0.00     0.000 C 
BRANCH   8   9
ATOM      9  C   UNL     1      -1.974  -5.293  33.050  1.00  0.00     0.000 C 
BRANCH   9  10
ATOM     10  C   UNL     1      -1.239  -5.391  31.698  1.00  0.00     0.006 C 
BRANCH  10  11
ATOM     11  C   UNL     1      -1.205  -6.804  31.096  1.00  0.00     0.053 C 
BRANCH  11  12
ATOM     12  C   UNL     1      -2.572  -7.284  30.716  1.00  0.00     0.041 C 
ATOM     13  O   UNL     1      -3.031  -8.345  31.213  1.00  0.00    -0.550 OA
ATOM     14  O   UNL     1      -3.353  -6.541  29.839  1.00  0.00    -0.550 OA
ENDBRANCH  11  12
ENDBRANCH  10  11
ENDBRANCH   9  10
ENDBRANCH   8   9
ENDBRANCH   1   8
TORSDOF 9
ENDMDL
MODEL 4
REMARK VINA RESULT:    -3.489      6.214      9.420
REMARK INTER + INTRA:          -5.672
REMARK INTER:                  -5.288
REMARK INTRA:                  -0.384
REMARK UNBOUND:                -0.347
REMARK SMILES O=C([O-])CCCCCCCCC(=O)[O-]
REMARK SMILES IDX 7 1 6 2 5 3 4 4 2 5 1 6 3 7 8 8 9 9 10 10 11 11 12 12 13 13
REMARK SMILES IDX 14 14
REMARK H PARENT
REMARK Flexibility Score: inf
ROOT
ATOM      1  C   UNL     1      -4.152  -1.170  34.127  1.00  0.00     0.000 C 
ENDROOT
BRANCH   1   2
ATOM      2  C   UNL     1      -2.926  -0.248  34.200  1.00  0.00     0.000 C 
BRANCH   2   3
ATOM      3  C   UNL     1      -2.685   0.232  35.640  1.00  0.00     0.006 C 
BRANCH   3   4
ATOM      4  C   UNL     1      -3.975   0.721  36.312  1.00  0.00     0.053 C 
BRANCH   4   5
ATOM      5  C   UNL     1      -4.045   0.306  37.750  1.00  0.00     0.041 C 
ATOM      6  O   UNL     1      -3.335   0.889  38.611  1.00  0.00    -0.550 OA
ATOM      7  O   UNL     1      -4.918  -0.700  38.143  1.00  0.00    -0.550 OA
ENDBRANCH   4   5
ENDBRANCH   3   4
ENDBRANCH   2   3
ENDBRANCH   1   2
BRANCH   1   8
ATOM      8  C   UNL     1      -4.196  -2.005  32.834  1.00  0.00     0.000 C 
BRANCH   8   9
ATOM      9  C   UNL     1      -3.892  -3.506  33.016  1.00  0.00     0.000 C 
BRANCH   9  10
ATOM     10  C   UNL     1      -2.395  -3.876  33.008  1.00  0.00     0.006 C 
BRANCH  10  11
ATOM     11  C   UNL     1      -2.113  -5.384  33.078  1.00  0.00     0.053 C 
BRANCH  11  12
ATOM     12  C   UNL     1      -2.007  -5.998  31.716  1.00  0.00     0.041 C 
ATOM     13  O   UNL     1      -2.342  -7.198  31.534  1.00  0.00    -0.550 OA
ATOM     14  O   UNL     1      -1.572  -5.235  30.639  1.00  0.00    -0.550 OA
ENDBRANCH  11  12
ENDBRANCH  10  11
ENDBRANCH   9  10
ENDBRANCH   8   9
ENDBRANCH   1   8
TORSDOF 9
ENDMDL
MODEL 5
REMARK VINA RESULT:    -3.466      2.317      7.460
REMARK INTER + INTRA:          -5.637
REMARK INTER:                  -5.199
REMARK INTRA:                  -0.438
REMARK UNBOUND:                -0.347
REMARK SMILES O=C([O-])CCCCCCCCC(=O)[O-]
REMARK SMILES IDX 7 1 6 2 5 3 4 4 2 5 1 6 3 7 8 8 9 9 10 10 11 11 12 12 13 13
REMARK SMILES IDX 14 14
REMARK H PARENT
REMARK Flexibility Score: inf
ROOT
ATOM      1  C   UNL     1      -3.298  -8.513  30.818  1.00  0.00     0.000 C 
ENDROOT
BRANCH   1   2
ATOM      2  C   UNL     1      -4.148  -8.209  29.575  1.00  0.00     0.000 C 
BRANCH   2   3
ATOM      3  C   UNL     1      -4.476  -9.498  28.806  1.00  0.00     0.006 C 
BRANCH   3   4
ATOM      4  C   UNL     1      -4.130  -9.387  27.315  1.00  0.00     0.053 C 
BRANCH   4   5
ATOM      5  C   UNL     1      -3.946 -10.733  26.685  1.00  0.00     0.041 C 
ATOM      6  O   UNL     1      -4.947 -11.401  26.315  1.00  0.00    -0.550 OA
ATOM      7  O   UNL     1      -2.667 -11.235  26.477  1.00  0.00    -0.550 OA
ENDBRANCH   4   5
ENDBRANCH   3   4
ENDBRANCH   2   3
ENDBRANCH   1   2
BRANCH   1   8
ATOM      8  C   UNL     1      -2.360  -7.353  31.199  1.00  0.00     0.000 C 
BRANCH   8   9
ATOM      9  C   UNL     1      -2.397  -6.143  30.244  1.00  0.00     0.000 C 
BRANCH   9  10
ATOM     10  C   UNL     1      -1.946  -4.805  30.865  1.00  0.00     0.006 C 
BRANCH  10  11
ATOM     11  C   UNL     1      -2.013  -4.763  32.399  1.00  0.00     0.053 C 
BRANCH  11  12
ATOM     12  C   UNL     1      -3.226  -4.031  32.887  1.00  0.00     0.041 C 
ATOM     13  O   UNL     1      -4.345  -4.605  32.912  1.00  0.00    -0.550 OA
ATOM     14  O   UNL     1      -3.113  -2.725  33.348  1.00  0.00    -0.550 OA
ENDBRANCH  11  12
ENDBRANCH  10  11
ENDBRANCH   9  10
ENDBRANCH   8   9
ENDBRANCH   1   8
TORSDOF 9
ENDMDL
MODEL 6
REMARK VINA RESULT:    -3.463      6.813     10.274
REMARK INTER + INTRA:          -5.633
REMARK INTER:                  -5.239
REMARK INTRA:                  -0.393
REMARK UNBOUND:                -0.347
REMARK SMILES O=C([O-])CCCCCCCCC(=O)[O-]
REMARK SMILES IDX 7 1 6 2 5 3 4 4 2 5 1 6 3 7 8 8 9 9 10 10 11 11 12 12 13 13
REMARK SMILES IDX 14 14
REMARK H PARENT
REMARK Flexibility Score: inf
ROOT
ATOM      1  C   UNL     1      -3.176   0.287  34.575  1.00  0.00     0.000 C 
ENDROOT
BRANCH   1   2
ATOM      2  C   UNL     1      -2.847   0.358  36.074  1.00  0.00     0.000 C 
BRANCH   2   3
ATOM      3  C   UNL     1      -4.052   0.873  36.876  1.00  0.00     0.006 C 
BRANCH   3   4
ATOM      4  C   UNL     1      -4.278   0.070  38.164  1.00  0.00     0.053 C 
BRANCH   4   5
ATOM      5  C   UNL     1      -5.518  -0.767  38.087  1.00  0.00     0.041 C 
ATOM      6  O   UNL     1      -6.048  -1.009  36.971  1.00  0.00    -0.550 OA
ATOM      7  O   UNL     1      -6.066  -1.307  39.243  1.00  0.00    -0.550 OA
ENDBRANCH   4   5
ENDBRANCH   3   4
ENDBRANCH   2   3
ENDBRANCH   1   2
BRANCH   1   8
ATOM      8  C   UNL     1      -3.862  -1.032  34.175  1.00  0.00     0.000 C 
BRANCH   8   9
ATOM      9  C   UNL     1      -3.081  -1.894  33.162  1.00  0.00     0.000 C 
BRANCH   9  10
ATOM     10  C   UNL     1      -3.616  -3.328  32.974  1.00  0.00     0.006 C 
BRANCH  10  11
ATOM     11  C   UNL     1      -2.856  -4.157  31.928  1.00  0.00     0.053 C 
BRANCH  11  12
ATOM     12  C   UNL     1      -2.265  -5.400  32.519  1.00  0.00     0.041 C 
ATOM     13  O   UNL     1      -1.772  -5.379  33.677  1.00  0.00    -0.550 OA
ATOM     14  O   UNL     1      -2.291  -6.591  31.804  1.00  0.00    -0.550 OA
ENDBRANCH  11  12
ENDBRANCH  10  11
ENDBRANCH   9  10
ENDBRANCH   8   9
ENDBRANCH   1   8
TORSDOF 9
ENDMDL
MODEL 7
REMARK VINA RESULT:    -3.455      4.406      8.361
REMARK INTER + INTRA:          -5.621
REMARK INTER:                  -5.068
REMARK INTRA:                  -0.552
REMARK UNBOUND:                -0.347
REMARK SMILES O=C([O-])CCCCCCCCC(=O)[O-]
REMARK SMILES IDX 7 1 6 2 5 3 4 4 2 5 1 6 3 7 8 8 9 9 10 10 11 11 12 12 13 13
REMARK SMILES IDX 14 14
REMARK H PARENT
REMARK Flexibility Score: inf
ROOT
ATOM      1  C   UNL     1      -1.969  -4.936  31.131  1.00  0.00     0.000 C 
ENDROOT
BRANCH   1   2
ATOM      2  C   UNL     1      -1.393  -6.303  30.731  1.00  0.00     0.000 C 
BRANCH   2   3
ATOM      3  C   UNL     1      -2.272  -7.446  31.259  1.00  0.00     0.006 C 
BRANCH   3   4
ATOM      4  C   UNL     1      -3.548  -7.629  30.427  1.00  0.00     0.053 C 
BRANCH   4   5
ATOM      5  C   UNL     1      -4.048  -9.040  30.478  1.00  0.00     0.041 C 
ATOM      6  O   UNL     1      -3.530  -9.866  31.274  1.00  0.00    -0.550 OA
ATOM      7  O   UNL     1      -5.107  -9.433  29.670  1.00  0.00    -0.550 OA
ENDBRANCH   4   5
ENDBRANCH   3   4
ENDBRANCH   2   3
ENDBRANCH   1   2
BRANCH   1   8
ATOM      8  C   UNL     1      -2.077  -4.756  32.656  1.00  0.00     0.000 C 
BRANCH   8   9
ATOM      9  C   UNL     1      -3.259  -3.885  33.129  1.00  0.00     0.000 C 
BRANCH   9  10
ATOM     10  C   UNL     1      -4.656  -4.413  32.745  1.00  0.00     0.006 C 
BRANCH  10  11
ATOM     11  C   UNL     1      -5.815  -3.481  33.127  1.00  0.00     0.053 C 
BRANCH  11  12
ATOM     12  C   UNL     1      -6.650  -4.049  34.233  1.00  0.00     0.041 C 
ATOM     13  O   UNL     1      -6.992  -5.260  34.211  1.00  0.00    -0.550 OA
ATOM     14  O   UNL     1      -7.022  -3.248  35.307  1.00  0.00    -0.550 OA
ENDBRANCH  11  12
ENDBRANCH  10  11
ENDBRANCH   9  10
ENDBRANCH   8   9
ENDBRANCH   1   8
TORSDOF 9
ENDMDL
MODEL 8
REMARK VINA RESULT:    -3.435      1.105      6.327
REMARK INTER + INTRA:          -5.590
REMARK INTER:                  -5.002
REMARK INTRA:                  -0.587
REMARK UNBOUND:                -0.347
REMARK SMILES O=C([O-])CCCCCCCCC(=O)[O-]
REMARK SMILES IDX 7 1 6 2 5 3 4 4 2 5 1 6 3 7 8 8 9 9 10 10 11 11 12 12 13 13
REMARK SMILES IDX 14 14
REMARK H PARENT
REMARK Flexibility Score: inf
ROOT
ATOM      1  C   UNL     1      -5.525  -9.256  28.198  1.00  0.00     0.000 C 
ENDROOT
BRANCH   1   2
ATOM      2  C   UNL     1      -4.243  -9.390  27.362  1.00  0.00     0.000 C 
BRANCH   2   3
ATOM      3  C   UNL     1      -4.046 -10.838  26.889  1.00  0.00     0.006 C 
BRANCH   3   4
ATOM      4  C   UNL     1      -2.830 -10.986  25.963  1.00  0.00     0.053 C 
BRANCH   4   5
ATOM      5  C   UNL     1      -3.111 -10.463  24.588  1.00  0.00     0.041 C 
ATOM      6  O   UNL     1      -2.206  -9.877  23.937  1.00  0.00    -0.550 OA
ATOM      7  O   UNL     1      -4.361 -10.652  24.013  1.00  0.00    -0.550 OA
ENDBRANCH   4   5
ENDBRANCH   3   4
ENDBRANCH   2   3
ENDBRANCH   1   2
BRANCH   1   8
ATOM      8  C   UNL     1      -5.293  -9.527  29.695  1.00  0.00     0.000 C 
BRANCH   8   9
ATOM      9  C   UNL     1      -3.878  -9.190  30.208  1.00  0.00     0.000 C 
BRANCH   9  10
ATOM     10  C   UNL     1      -3.717  -7.777  30.804  1.00  0.00     0.006 C 
BRANCH  10  11
ATOM     11  C   UNL     1      -3.000  -6.778  29.883  1.00  0.00     0.053 C 
BRANCH  11  12
ATOM     12  C   UNL     1      -1.758  -6.226  30.514  1.00  0.00     0.041 C 
ATOM     13  O   UNL     1      -1.511  -4.993  30.454  1.00  0.00    -0.550 OA
ATOM     14  O   UNL     1      -0.890  -7.069  31.198  1.00  0.00    -0.550 OA
ENDBRANCH  11  12
ENDBRANCH  10  11
ENDBRANCH   9  10
ENDBRANCH   8   9
ENDBRANCH   1   8
TORSDOF 9
ENDMDL
MODEL 9
REMARK VINA RESULT:    -3.401      3.883      7.335
REMARK INTER + INTRA:          -5.538
REMARK INTER:                  -4.655
REMARK INTRA:                  -0.883
REMARK UNBOUND:                -0.347
REMARK SMILES O=C([O-])CCCCCCCCC(=O)[O-]
REMARK SMILES IDX 7 1 6 2 5 3 4 4 2 5 1 6 3 7 8 8 9 9 10 10 11 11 12 12 13 13
REMARK SMILES IDX 14 14
REMARK H PARENT
REMARK Flexibility Score: inf
ROOT
ATOM      1  C   UNL     1      -1.620  -5.096  30.476  1.00  0.00     0.000 C 
ENDROOT
BRANCH   1   2
ATOM      2  C   UNL     1      -2.596  -5.788  29.513  1.00  0.00     0.000 C 
BRANCH   2   3
ATOM      3  C   UNL     1      -3.125  -7.098  30.116  1.00  0.00     0.006 C 
BRANCH   3   4
ATOM      4  C   UNL     1      -4.175  -7.767  29.218  1.00  0.00     0.053 C 
BRANCH   4   5
ATOM      5  C   UNL     1      -4.450  -9.178  29.640  1.00  0.00     0.041 C 
ATOM      6  O   UNL     1      -5.229  -9.900  28.964  1.00  0.00    -0.550 OA
ATOM      7  O   UNL     1      -3.820  -9.704  30.761  1.00  0.00    -0.550 OA
ENDBRANCH   4   5
ENDBRANCH   3   4
ENDBRANCH   2   3
ENDBRANCH   1   2
BRANCH   1   8
ATOM      8  C   UNL     1      -1.481  -5.834  31.820  1.00  0.00     0.000 C 
BRANCH   8   9
ATOM      9  C   UNL     1      -2.010  -5.063  33.047  1.00  0.00     0.000 C 
BRANCH   9  10
ATOM     10  C   UNL     1      -2.697  -3.720  32.729  1.00  0.00     0.006 C 
BRANCH  10  11
ATOM     11  C   UNL     1      -4.202  -3.689  33.035  1.00  0.00     0.053 C 
BRANCH  11  12
ATOM     12  C   UNL     1      -5.005  -4.370  31.969  1.00  0.00     0.041 C 
ATOM     13  O   UNL     1      -5.520  -5.498  32.187  1.00  0.00    -0.550 OA
ATOM     14  O   UNL     1      -5.215  -3.743  30.747  1.00  0.00    -0.550 OA
ENDBRANCH  11  12
ENDBRANCH  10  11
ENDBRANCH   9  10
ENDBRANCH   8   9
ENDBRANCH   1   8
TORSDOF 9
ENDMDL
