MODEL 1
REMARK VINA RESULT:    -3.410      0.000      0.000
REMARK INTER + INTRA:          -3.818
REMARK INTER:                  -3.809
REMARK INTRA:                  -0.009
REMARK UNBOUND:                -0.009
REMARK SMILES CCCC(=O)[O-]
REMARK SMILES IDX 3 1 4 2 5 3 6 4 2 5 1 6
REMARK H PARENT
REMARK Flexibility Score: inf
ROOT
ATOM      1  C   UNL     1      16.696  34.775   1.970  1.00  0.00     0.052 C 
ENDROOT
BRANCH   1   2
ATOM      2  C   UNL     1      16.282  34.038   0.735  1.00  0.00     0.041 C 
ATOM      3  O   UNL     1      15.490  34.571  -0.086  1.00  0.00    -0.550 OA
ATOM      4  O   UNL     1      16.810  32.782   0.466  1.00  0.00    -0.550 OA
ENDBRANCH   1   2
BRANCH   1   5
ATOM      5  C   UNL     1      16.847  36.270   1.676  1.00  0.00     0.003 C 
ATOM      6  C   UNL     1      17.347  37.025   2.904  1.00  0.00     0.004 C 
ENDBRANCH   1   5
TORSDOF 2
ENDMDL
MODEL 2
REMARK VINA RESULT:    -3.347     11.915     12.425
REMARK INTER + INTRA:          -3.747
REMARK INTER:                  -3.686
REMARK INTRA:                  -0.061
REMARK UNBOUND:                -0.009
REMARK SMILES CCCC(=O)[O-]
REMARK SMILES IDX 3 1 4 2 5 3 6 4 2 5 1 6
REMARK H PARENT
REMARK Flexibility Score: inf
ROOT
ATOM      1  C   UNL     1       4.627  40.103  -0.585  1.00  0.00     0.052 C 
ENDROOT
BRANCH   1   2
ATOM      2  C   UNL     1       5.969  39.712  -1.118  1.00  0.00     0.041 C 
ATOM      3  O   UNL     1       6.503  38.630  -0.760  1.00  0.00    -0.550 OA
ATOM      4  O   UNL     1       6.608  40.520  -2.050  1.00  0.00    -0.550 OA
ENDBRANCH   1   2
BRANCH   1   5
ATOM      5  C   UNL     1       4.739  40.539   0.879  1.00  0.00     0.003 C 
ATOM      6  C   UNL     1       5.396  41.911   0.996  1.00  0.00     0.004 C 
ENDBRANCH   1   5
TORSDOF 2
ENDMDL
MODEL 3
REMARK VINA RESULT:    -3.208      9.198      9.817
REMARK INTER + INTRA:          -3.592
REMARK INTER:                  -3.545
REMARK INTRA:                  -0.047
REMARK UNBOUND:                -0.009
REMARK SMILES CCCC(=O)[O-]
REMARK SMILES IDX 3 1 4 2 5 3 6 4 2 5 1 6
REMARK H PARENT
REMARK Flexibility Score: inf
ROOT
ATOM      1  C   UNL     1      16.753  43.329   4.128  1.00  0.00     0.052 C 
ENDROOT
BRANCH   1   2
ATOM      2  C   UNL     1      16.850  43.193   5.615  1.00  0.00     0.041 C 
ATOM      3  O   UNL     1      15.965  42.567   6.254  1.00  0.00    -0.550 OA
ATOM      4  O   UNL     1      17.946  43.718   6.290  1.00  0.00    -0.550 OA
ENDBRANCH   1   2
BRANCH   1   5
ATOM      5  C   UNL     1      15.318  43.663   3.714  1.00  0.00     0.003 C 
ATOM      6  C   UNL     1      15.080  45.171   3.719  1.00  0.00     0.004 C 
ENDBRANCH   1   5
TORSDOF 2
ENDMDL
MODEL 4
REMARK VINA RESULT:    -3.068     12.479     13.020
REMARK INTER + INTRA:          -3.436
REMARK INTER:                  -3.398
REMARK INTRA:                  -0.038
REMARK UNBOUND:                -0.009
REMARK SMILES CCCC(=O)[O-]
REMARK SMILES IDX 3 1 4 2 5 3 6 4 2 5 1 6
REMARK H PARENT
REMARK Flexibility Score: inf
ROOT
ATOM      1  C   UNL     1       4.710  39.916  -0.956  1.00  0.00     0.052 C 
ENDROOT
BRANCH   1   2
ATOM      2  C   UNL     1       4.675  40.598   0.375  1.00  0.00     0.041 C 
ATOM      3  O   UNL     1       4.174  40.015   1.373  1.00  0.00    -0.550 OA
ATOM      4  O   UNL     1       5.240  41.858   0.526  1.00  0.00    -0.550 OA
ENDBRANCH   1   2
BRANCH   1   5
ATOM      5  C   UNL     1       6.129  39.437  -1.275  1.00  0.00     0.003 C 
ATOM      6  C   UNL     1       6.751  40.265  -2.396  1.00  0.00     0.004 C 
ENDBRANCH   1   5
TORSDOF 2
ENDMDL
MODEL 5
REMARK VINA RESULT:    -3.039      9.888     11.023
REMARK INTER + INTRA:          -3.403
REMARK INTER:                  -3.393
REMARK INTRA:                  -0.011
REMARK UNBOUND:                -0.009
REMARK SMILES CCCC(=O)[O-]
REMARK SMILES IDX 3 1 4 2 5 3 6 4 2 5 1 6
REMARK H PARENT
REMARK Flexibility Score: inf
ROOT
ATOM      1  C   UNL     1      15.047  45.238   3.573  1.00  0.00     0.052 C 
ENDROOT
BRANCH   1   2
ATOM      2  C   UNL     1      13.745  45.638   4.191  1.00  0.00     0.041 C 
ATOM      3  O   UNL     1      12.695  44.995   3.928  1.00  0.00    -0.550 OA
ATOM      4  O   UNL     1      13.699  46.691   5.096  1.00  0.00    -0.550 OA
ENDBRANCH   1   2
BRANCH   1   5
ATOM      5  C   UNL     1      15.228  43.720   3.638  1.00  0.00     0.003 C 
ATOM      6  C   UNL     1      16.605  43.352   4.183  1.00  0.00     0.004 C 
ENDBRANCH   1   5
TORSDOF 2
ENDMDL
MODEL 6
REMARK VINA RESULT:    -3.036     10.253     11.279
REMARK INTER + INTRA:          -3.400
REMARK INTER:                  -3.340
REMARK INTRA:                  -0.059
REMARK UNBOUND:                -0.009
REMARK SMILES CCCC(=O)[O-]
REMARK SMILES IDX 3 1 4 2 5 3 6 4 2 5 1 6
REMARK H PARENT
REMARK Flexibility Score: inf
ROOT
ATOM      1  C   UNL     1      14.879  45.251   3.618  1.00  0.00     0.052 C 
ENDROOT
BRANCH   1   2
ATOM      2  C   UNL     1      14.491  45.657   5.005  1.00  0.00     0.041 C 
ATOM      3  O   UNL     1      15.011  45.089   6.001  1.00  0.00    -0.550 OA
ATOM      4  O   UNL     1      13.589  46.696   5.198  1.00  0.00    -0.550 OA
ENDBRANCH   1   2
BRANCH   1   5
ATOM      5  C   UNL     1      14.849  43.727   3.478  1.00  0.00     0.003 C 
ATOM      6  C   UNL     1      13.417  43.212   3.366  1.00  0.00     0.004 C 
ENDBRANCH   1   5
TORSDOF 2
ENDMDL
MODEL 7
REMARK VINA RESULT:    -2.984      9.413      9.725
REMARK INTER + INTRA:          -3.342
REMARK INTER:                  -3.299
REMARK INTRA:                  -0.043
REMARK UNBOUND:                -0.009
REMARK SMILES CCCC(=O)[O-]
REMARK SMILES IDX 3 1 4 2 5 3 6 4 2 5 1 6
REMARK H PARENT
REMARK Flexibility Score: inf
ROOT
ATOM      1  C   UNL     1      13.428  43.168   3.487  1.00  0.00     0.052 C 
ENDROOT
BRANCH   1   2
ATOM      2  C   UNL     1      12.985  42.855   4.881  1.00  0.00     0.041 C 
ATOM      3  O   UNL     1      11.759  42.783   5.156  1.00  0.00    -0.550 OA
ATOM      4  O   UNL     1      13.928  42.596   5.868  1.00  0.00    -0.550 OA
ENDBRANCH   1   2
BRANCH   1   5
ATOM      5  C   UNL     1      14.868  43.686   3.486  1.00  0.00     0.003 C 
ATOM      6  C   UNL     1      14.908  45.204   3.634  1.00  0.00     0.004 C 
ENDBRANCH   1   5
TORSDOF 2
ENDMDL
MODEL 8
REMARK VINA RESULT:    -2.982      9.901     10.375
REMARK INTER + INTRA:          -3.340
REMARK INTER:                  -3.307
REMARK INTRA:                  -0.033
REMARK UNBOUND:                -0.009
REMARK SMILES CCCC(=O)[O-]
REMARK SMILES IDX 3 1 4 2 5 3 6 4 2 5 1 6
REMARK H PARENT
REMARK Flexibility Score: inf
ROOT
ATOM      1  C   UNL     1      16.456  42.892   6.116  1.00  0.00     0.052 C 
ENDROOT
BRANCH   1   2
ATOM      2  C   UNL     1      17.325  43.617   7.095  1.00  0.00     0.041 C 
ATOM      3  O   UNL     1      17.535  44.851   6.963  1.00  0.00    -0.550 OA
ATOM      4  O   UNL     1      17.864  42.939   8.181  1.00  0.00    -0.550 OA
ENDBRANCH   1   2
BRANCH   1   5
ATOM      5  C   UNL     1      16.845  43.257   4.682  1.00  0.00     0.003 C 
ATOM      6  C   UNL     1      15.623  43.682   3.871  1.00  0.00     0.004 C 
ENDBRANCH   1   5
TORSDOF 2
ENDMDL
MODEL 9
REMARK VINA RESULT:    -2.893      9.546     10.326
REMARK INTER + INTRA:          -3.240
REMARK INTER:                  -3.170
REMARK INTRA:                  -0.070
REMARK UNBOUND:                -0.009
REMARK SMILES CCCC(=O)[O-]
REMARK SMILES IDX 3 1 4 2 5 3 6 4 2 5 1 6
REMARK H PARENT
REMARK Flexibility Score: inf
ROOT
ATOM      1  C   UNL     1      14.641  43.694   3.862  1.00  0.00     0.052 C 
ENDROOT
BRANCH   1   2
ATOM      2  C   UNL     1      14.621  43.354   5.319  1.00  0.00     0.041 C 
ATOM      3  O   UNL     1      15.486  43.839   6.095  1.00  0.00    -0.550 OA
ATOM      4  O   UNL     1      13.617  42.540   5.829  1.00  0.00    -0.550 OA
ENDBRANCH   1   2
BRANCH   1   5
ATOM      5  C   UNL     1      14.541  45.209   3.665  1.00  0.00     0.003 C 
ATOM      6  C   UNL     1      13.133  45.713   3.968  1.00  0.00     0.004 C 
ENDBRANCH   1   5
TORSDOF 2
ENDMDL
