MODEL 1
REMARK VINA RESULT:    -3.701      0.000      0.000
REMARK INTER + INTRA:          -6.738
REMARK INTER:                  -5.649
REMARK INTRA:                  -1.089
REMARK UNBOUND:                -1.089
REMARK SMILES CCCCCCCCCCC(=O)[O-]
REMARK SMILES IDX 7 1 8 2 9 3 10 4 11 5 12 6 13 7 6 8 5 9 4 10 3 11 2 12 1 13
REMARK H PARENT
REMARK Flexibility Score: inf
ROOT
ATOM      1  C   UNL     1      51.357 -48.291  -8.900  1.00  0.00     0.000 C 
ENDROOT
BRANCH   1   2
ATOM      2  C   UNL     1      52.024 -47.650 -10.134  1.00  0.00     0.000 C 
BRANCH   2   3
ATOM      3  C   UNL     1      51.052 -47.000 -11.140  1.00  0.00     0.006 C 
BRANCH   3   4
ATOM      4  C   UNL     1      49.775 -47.814 -11.405  1.00  0.00     0.053 C 
BRANCH   4   5
ATOM      5  C   UNL     1      48.542 -46.972 -11.285  1.00  0.00     0.041 C 
ATOM      6  O   UNL     1      47.412 -47.460 -11.554  1.00  0.00    -0.550 OA
ATOM      7  O   UNL     1      48.636 -45.660 -10.843  1.00  0.00    -0.550 OA
ENDBRANCH   4   5
ENDBRANCH   3   4
ENDBRANCH   2   3
ENDBRANCH   1   2
BRANCH   1   8
ATOM      8  C   UNL     1      52.187 -49.389  -8.211  1.00  0.00     0.000 C 
BRANCH   8   9
ATOM      9  C   UNL     1      51.440 -50.731  -8.122  1.00  0.00    -0.000 C 
BRANCH   9  10
ATOM     10  C   UNL     1      51.869 -51.719  -9.217  1.00  0.00    -0.000 C 
BRANCH  10  11
ATOM     11  C   UNL     1      53.169 -51.297  -9.917  1.00  0.00    -0.000 C 
BRANCH  11  12
ATOM     12  C   UNL     1      52.975 -51.223 -11.437  1.00  0.00    -0.003 C 
ATOM     13  C   UNL     1      51.493 -51.196 -11.801  1.00  0.00     0.004 C 
ENDBRANCH  11  12
ENDBRANCH  10  11
ENDBRANCH   9  10
ENDBRANCH   8   9
ENDBRANCH   1   8
TORSDOF 9
ENDMDL
MODEL 2
REMARK VINA RESULT:    -3.644      2.591      3.343
REMARK INTER + INTRA:          -6.651
REMARK INTER:                  -5.696
REMARK INTRA:                  -0.955
REMARK UNBOUND:                -1.089
REMARK SMILES CCCCCCCCCCC(=O)[O-]
REMARK SMILES IDX 7 1 8 2 9 3 10 4 11 5 12 6 13 7 6 8 5 9 4 10 3 11 2 12 1 13
REMARK H PARENT
REMARK Flexibility Score: inf
ROOT
ATOM      1  C   UNL     1      50.663 -47.907  -9.994  1.00  0.00     0.000 C 
ENDROOT
BRANCH   1   2
ATOM      2  C   UNL     1      51.560 -47.167 -11.006  1.00  0.00     0.000 C 
BRANCH   2   3
ATOM      3  C   UNL     1      51.565 -47.758 -12.431  1.00  0.00     0.006 C 
BRANCH   3   4
ATOM      4  C   UNL     1      50.552 -48.893 -12.651  1.00  0.00     0.053 C 
BRANCH   4   5
ATOM      5  C   UNL     1      51.227 -50.220 -12.811  1.00  0.00     0.041 C 
ATOM      6  O   UNL     1      52.426 -50.281 -13.189  1.00  0.00    -0.550 OA
ATOM      7  O   UNL     1      50.541 -51.389 -12.510  1.00  0.00    -0.550 OA
ENDBRANCH   4   5
ENDBRANCH   3   4
ENDBRANCH   2   3
ENDBRANCH   1   2
BRANCH   1   8
ATOM      8  C   UNL     1      51.400 -48.476  -8.768  1.00  0.00     0.000 C 
BRANCH   8   9
ATOM      9  C   UNL     1      52.788 -49.038  -9.118  1.00  0.00    -0.000 C 
BRANCH   9  10
ATOM     10  C   UNL     1      52.990 -50.473  -8.609  1.00  0.00    -0.000 C 
BRANCH  10  11
ATOM     11  C   UNL     1      52.390 -51.525  -9.555  1.00  0.00    -0.000 C 
BRANCH  11  12
ATOM     12  C   UNL     1      51.107 -52.123  -8.966  1.00  0.00    -0.003 C 
ATOM     13  C   UNL     1      51.034 -51.895  -7.458  1.00  0.00     0.004 C 
ENDBRANCH  11  12
ENDBRANCH  10  11
ENDBRANCH   9  10
ENDBRANCH   8   9
ENDBRANCH   1   8
TORSDOF 9
ENDMDL
MODEL 3
REMARK VINA RESULT:    -3.619      2.625      5.185
REMARK INTER + INTRA:          -6.612
REMARK INTER:                  -5.770
REMARK INTRA:                  -0.842
REMARK UNBOUND:                -1.089
REMARK SMILES CCCCCCCCCCC(=O)[O-]
REMARK SMILES IDX 7 1 8 2 9 3 10 4 11 5 12 6 13 7 6 8 5 9 4 10 3 11 2 12 1 13
REMARK H PARENT
REMARK Flexibility Score: inf
ROOT
ATOM      1  C   UNL     1      51.843 -48.860  -8.164  1.00  0.00     0.000 C 
ENDROOT
BRANCH   1   2
ATOM      2  C   UNL     1      53.044 -49.609  -8.775  1.00  0.00     0.000 C 
BRANCH   2   3
ATOM      3  C   UNL     1      52.901 -51.144  -8.830  1.00  0.00     0.006 C 
BRANCH   3   4
ATOM      4  C   UNL     1      51.854 -51.647  -9.836  1.00  0.00     0.053 C 
BRANCH   4   5
ATOM      5  C   UNL     1      52.168 -51.213 -11.235  1.00  0.00     0.041 C 
ATOM      6  O   UNL     1      51.335 -50.534 -11.890  1.00  0.00    -0.550 OA
ATOM      7  O   UNL     1      53.395 -51.530 -11.801  1.00  0.00    -0.550 OA
ENDBRANCH   4   5
ENDBRANCH   3   4
ENDBRANCH   2   3
ENDBRANCH   1   2
BRANCH   1   8
ATOM      8  C   UNL     1      50.985 -48.076  -9.173  1.00  0.00     0.000 C 
BRANCH   8   9
ATOM      9  C   UNL     1      51.830 -47.358 -10.239  1.00  0.00    -0.000 C 
BRANCH   9  10
ATOM     10  C   UNL     1      51.086 -46.179 -10.886  1.00  0.00    -0.000 C 
BRANCH  10  11
ATOM     11  C   UNL     1      49.969 -45.623  -9.991  1.00  0.00    -0.000 C 
BRANCH  11  12
ATOM     12  C   UNL     1      48.657 -45.486 -10.773  1.00  0.00    -0.003 C 
ATOM     13  C   UNL     1      48.020 -46.851 -11.021  1.00  0.00     0.004 C 
ENDBRANCH  11  12
ENDBRANCH  10  11
ENDBRANCH   9  10
ENDBRANCH   8   9
ENDBRANCH   1   8
TORSDOF 9
ENDMDL
MODEL 4
REMARK VINA RESULT:    -3.593      2.765      4.034
REMARK INTER + INTRA:          -6.573
REMARK INTER:                  -5.468
REMARK INTRA:                  -1.105
REMARK UNBOUND:                -1.089
REMARK SMILES CCCCCCCCCCC(=O)[O-]
REMARK SMILES IDX 7 1 8 2 9 3 10 4 11 5 12 6 13 7 6 8 5 9 4 10 3 11 2 12 1 13
REMARK H PARENT
REMARK Flexibility Score: inf
ROOT
ATOM      1  C   UNL     1      53.249 -51.339 -10.781  1.00  0.00     0.000 C 
ENDROOT
BRANCH   1   2
ATOM      2  C   UNL     1      51.850 -51.378 -11.429  1.00  0.00     0.000 C 
BRANCH   2   3
ATOM      3  C   UNL     1      51.741 -50.668 -12.794  1.00  0.00     0.006 C 
BRANCH   3   4
ATOM      4  C   UNL     1      50.338 -50.128 -13.118  1.00  0.00     0.053 C 
BRANCH   4   5
ATOM      5  C   UNL     1      49.543 -51.098 -13.936  1.00  0.00     0.041 C 
ATOM      6  O   UNL     1      49.528 -51.006 -15.192  1.00  0.00    -0.550 OA
ATOM      7  O   UNL     1      48.844 -52.124 -13.313  1.00  0.00    -0.550 OA
ENDBRANCH   4   5
ENDBRANCH   3   4
ENDBRANCH   2   3
ENDBRANCH   1   2
BRANCH   1   8
ATOM      8  C   UNL     1      53.253 -51.413  -9.243  1.00  0.00     0.000 C 
BRANCH   8   9
ATOM      9  C   UNL     1      51.852 -51.649  -8.656  1.00  0.00    -0.000 C 
BRANCH   9  10
ATOM     10  C   UNL     1      51.377 -50.485  -7.773  1.00  0.00    -0.000 C 
BRANCH  10  11
ATOM     11  C   UNL     1      52.037 -49.150  -8.152  1.00  0.00    -0.000 C 
BRANCH  11  12
ATOM     12  C   UNL     1      51.198 -48.401  -9.194  1.00  0.00    -0.003 C 
ATOM     13  C   UNL     1      52.084 -47.778 -10.270  1.00  0.00     0.004 C 
ENDBRANCH  11  12
ENDBRANCH  10  11
ENDBRANCH   9  10
ENDBRANCH   8   9
ENDBRANCH   1   8
TORSDOF 9
ENDMDL
MODEL 5
REMARK VINA RESULT:    -3.554      2.171      4.395
REMARK INTER + INTRA:          -6.513
REMARK INTER:                  -5.597
REMARK INTRA:                  -0.916
REMARK UNBOUND:                -1.089
REMARK SMILES CCCCCCCCCCC(=O)[O-]
REMARK SMILES IDX 7 1 8 2 9 3 10 4 11 5 12 6 13 7 6 8 5 9 4 10 3 11 2 12 1 13
REMARK H PARENT
REMARK Flexibility Score: inf
ROOT
ATOM      1  C   UNL     1      52.059 -51.467  -8.933  1.00  0.00     0.000 C 
ENDROOT
BRANCH   1   2
ATOM      2  C   UNL     1      53.305 -51.428  -9.840  1.00  0.00     0.000 C 
BRANCH   2   3
ATOM      3  C   UNL     1      53.012 -51.360 -11.353  1.00  0.00     0.006 C 
BRANCH   3   4
ATOM      4  C   UNL     1      51.522 -51.227 -11.705  1.00  0.00     0.053 C 
BRANCH   4   5
ATOM      5  C   UNL     1      51.304 -50.324 -12.880  1.00  0.00     0.041 C 
ATOM      6  O   UNL     1      51.810 -49.171 -12.896  1.00  0.00    -0.550 OA
ATOM      7  O   UNL     1      50.570 -50.768 -13.971  1.00  0.00    -0.550 OA
ENDBRANCH   4   5
ENDBRANCH   3   4
ENDBRANCH   2   3
ENDBRANCH   1   2
BRANCH   1   8
ATOM      8  C   UNL     1      51.740 -50.144  -8.212  1.00  0.00     0.000 C 
BRANCH   8   9
ATOM      9  C   UNL     1      52.739 -49.026  -8.553  1.00  0.00    -0.000 C 
BRANCH   9  10
ATOM     10  C   UNL     1      52.192 -48.045  -9.602  1.00  0.00    -0.000 C 
BRANCH  10  11
ATOM     11  C   UNL     1      50.664 -47.898  -9.532  1.00  0.00    -0.000 C 
BRANCH  11  12
ATOM     12  C   UNL     1      50.157 -46.939 -10.616  1.00  0.00    -0.003 C 
ATOM     13  C   UNL     1      49.896 -45.549 -10.043  1.00  0.00     0.004 C 
ENDBRANCH  11  12
ENDBRANCH  10  11
ENDBRANCH   9  10
ENDBRANCH   8   9
ENDBRANCH   1   8
TORSDOF 9
ENDMDL
MODEL 6
REMARK VINA RESULT:    -3.482      1.486      3.076
REMARK INTER + INTRA:          -6.404
REMARK INTER:                  -5.294
REMARK INTRA:                  -1.110
REMARK UNBOUND:                -1.089
REMARK SMILES CCCCCCCCCCC(=O)[O-]
REMARK SMILES IDX 7 1 8 2 9 3 10 4 11 5 12 6 13 7 6 8 5 9 4 10 3 11 2 12 1 13
REMARK H PARENT
REMARK Flexibility Score: inf
ROOT
ATOM      1  C   UNL     1      50.761 -50.063 -12.706  1.00  0.00     0.000 C 
ENDROOT
BRANCH   1   2
ATOM      2  C   UNL     1      51.750 -48.934 -13.061  1.00  0.00     0.000 C 
BRANCH   2   3
ATOM      3  C   UNL     1      51.349 -47.531 -12.562  1.00  0.00     0.006 C 
BRANCH   3   4
ATOM      4  C   UNL     1      51.662 -47.271 -11.080  1.00  0.00     0.053 C 
BRANCH   4   5
ATOM      5  C   UNL     1      50.421 -47.246 -10.243  1.00  0.00     0.041 C 
ATOM      6  O   UNL     1      50.479 -46.908  -9.032  1.00  0.00    -0.550 OA
ATOM      7  O   UNL     1      49.194 -47.564 -10.810  1.00  0.00    -0.550 OA
ENDBRANCH   4   5
ENDBRANCH   3   4
ENDBRANCH   2   3
ENDBRANCH   1   2
BRANCH   1   8
ATOM      8  C   UNL     1      51.385 -51.265 -11.974  1.00  0.00     0.000 C 
BRANCH   8   9
ATOM      9  C   UNL     1      52.803 -50.973 -11.453  1.00  0.00    -0.000 C 
BRANCH   9  10
ATOM     10  C   UNL     1      52.981 -51.359  -9.977  1.00  0.00    -0.000 C 
BRANCH  10  11
ATOM     11  C   UNL     1      52.952 -50.142  -9.041  1.00  0.00    -0.000 C 
BRANCH  11  12
ATOM     12  C   UNL     1      51.674 -50.135  -8.192  1.00  0.00    -0.003 C 
ATOM     13  C   UNL     1      51.144 -51.551  -7.984  1.00  0.00     0.004 C 
ENDBRANCH  11  12
ENDBRANCH  10  11
ENDBRANCH   9  10
ENDBRANCH   8   9
ENDBRANCH   1   8
TORSDOF 9
ENDMDL
MODEL 7
REMARK VINA RESULT:    -3.473      3.102      4.366
REMARK INTER + INTRA:          -6.390
REMARK INTER:                  -5.358
REMARK INTRA:                  -1.032
REMARK UNBOUND:                -1.089
REMARK SMILES CCCCCCCCCCC(=O)[O-]
REMARK SMILES IDX 7 1 8 2 9 3 10 4 11 5 12 6 13 7 6 8 5 9 4 10 3 11 2 12 1 13
REMARK H PARENT
REMARK Flexibility Score: inf
ROOT
ATOM      1  C   UNL     1      50.505 -47.336 -11.162  1.00  0.00     0.000 C 
ENDROOT
BRANCH   1   2
ATOM      2  C   UNL     1      50.483 -48.555 -12.106  1.00  0.00     0.000 C 
BRANCH   2   3
ATOM      3  C   UNL     1      51.790 -49.371 -12.153  1.00  0.00     0.006 C 
BRANCH   3   4
ATOM      4  C   UNL     1      51.587 -50.887 -12.314  1.00  0.00     0.053 C 
BRANCH   4   5
ATOM      5  C   UNL     1      52.651 -51.505 -13.167  1.00  0.00     0.041 C 
ATOM      6  O   UNL     1      53.692 -51.978 -12.640  1.00  0.00    -0.550 OA
ATOM      7  O   UNL     1      52.478 -51.589 -14.542  1.00  0.00    -0.550 OA
ENDBRANCH   4   5
ENDBRANCH   3   4
ENDBRANCH   2   3
ENDBRANCH   1   2
BRANCH   1   8
ATOM      8  C   UNL     1      51.591 -47.379 -10.072  1.00  0.00     0.000 C 
BRANCH   8   9
ATOM      9  C   UNL     1      51.150 -48.165  -8.825  1.00  0.00    -0.000 C 
BRANCH   9  10
ATOM     10  C   UNL     1      52.139 -49.279  -8.449  1.00  0.00    -0.000 C 
BRANCH  10  11
ATOM     11  C   UNL     1      51.438 -50.611  -8.142  1.00  0.00    -0.000 C 
BRANCH  11  12
ATOM     12  C   UNL     1      52.196 -51.786  -8.773  1.00  0.00    -0.003 C 
ATOM     13  C   UNL     1      53.606 -51.374  -9.187  1.00  0.00     0.004 C 
ENDBRANCH  11  12
ENDBRANCH  10  11
ENDBRANCH   9  10
ENDBRANCH   8   9
ENDBRANCH   1   8
TORSDOF 9
ENDMDL
MODEL 8
REMARK VINA RESULT:    -3.461      1.972      2.547
REMARK INTER + INTRA:          -6.371
REMARK INTER:                  -5.258
REMARK INTRA:                  -1.113
REMARK UNBOUND:                -1.089
REMARK SMILES CCCCCCCCCCC(=O)[O-]
REMARK SMILES IDX 7 1 8 2 9 3 10 4 11 5 12 6 13 7 6 8 5 9 4 10 3 11 2 12 1 13
REMARK H PARENT
REMARK Flexibility Score: inf
ROOT
ATOM      1  C   UNL     1      51.165 -47.615  -9.412  1.00  0.00     0.000 C 
ENDROOT
BRANCH   1   2
ATOM      2  C   UNL     1      49.952 -47.640 -10.363  1.00  0.00     0.000 C 
BRANCH   2   3
ATOM      3  C   UNL     1      50.296 -47.769 -11.861  1.00  0.00     0.006 C 
BRANCH   3   4
ATOM      4  C   UNL     1      51.776 -47.522 -12.195  1.00  0.00     0.053 C 
BRANCH   4   5
ATOM      5  C   UNL     1      51.983 -46.203 -12.873  1.00  0.00     0.041 C 
ATOM      6  O   UNL     1      51.158 -45.266 -12.704  1.00  0.00    -0.550 OA
ATOM      7  O   UNL     1      53.105 -45.996 -13.664  1.00  0.00    -0.550 OA
ENDBRANCH   4   5
ENDBRANCH   3   4
ENDBRANCH   2   3
ENDBRANCH   1   2
BRANCH   1   8
ATOM      8  C   UNL     1      51.426 -48.932  -8.659  1.00  0.00     0.000 C 
BRANCH   8   9
ATOM      9  C   UNL     1      52.922 -49.279  -8.571  1.00  0.00    -0.000 C 
BRANCH   9  10
ATOM     10  C   UNL     1      53.208 -50.751  -8.907  1.00  0.00    -0.000 C 
BRANCH  10  11
ATOM     11  C   UNL     1      52.227 -51.320  -9.943  1.00  0.00    -0.000 C 
BRANCH  11  12
ATOM     12  C   UNL     1      52.753 -51.111 -11.368  1.00  0.00    -0.003 C 
ATOM     13  C   UNL     1      51.627 -51.225 -12.393  1.00  0.00     0.004 C 
ENDBRANCH  11  12
ENDBRANCH  10  11
ENDBRANCH   9  10
ENDBRANCH   8   9
ENDBRANCH   1   8
TORSDOF 9
ENDMDL
MODEL 9
REMARK VINA RESULT:    -3.385      1.627      2.803
REMARK INTER + INTRA:          -6.255
REMARK INTER:                  -5.223
REMARK INTRA:                  -1.032
REMARK UNBOUND:                -1.089
REMARK SMILES CCCCCCCCCCC(=O)[O-]
REMARK SMILES IDX 7 1 8 2 9 3 10 4 11 5 12 6 13 7 6 8 5 9 4 10 3 11 2 12 1 13
REMARK H PARENT
REMARK Flexibility Score: inf
ROOT
ATOM      1  C   UNL     1      51.796 -50.569  -8.462  1.00  0.00     0.000 C 
ENDROOT
BRANCH   1   2
ATOM      2  C   UNL     1      51.780 -49.067  -8.112  1.00  0.00     0.000 C 
BRANCH   2   3
ATOM      3  C   UNL     1      51.188 -48.147  -9.199  1.00  0.00     0.006 C 
BRANCH   3   4
ATOM      4  C   UNL     1      52.218 -47.612 -10.207  1.00  0.00     0.053 C 
BRANCH   4   5
ATOM      5  C   UNL     1      51.560 -46.965 -11.387  1.00  0.00     0.041 C 
ATOM      6  O   UNL     1      50.498 -46.306 -11.238  1.00  0.00    -0.550 OA
ATOM      7  O   UNL     1      52.139 -47.063 -12.645  1.00  0.00    -0.550 OA
ENDBRANCH   4   5
ENDBRANCH   3   4
ENDBRANCH   2   3
ENDBRANCH   1   2
BRANCH   1   8
ATOM      8  C   UNL     1      53.169 -51.123  -8.884  1.00  0.00     0.000 C 
BRANCH   8   9
ATOM      9  C   UNL     1      53.279 -51.345 -10.402  1.00  0.00    -0.000 C 
BRANCH   9  10
ATOM     10  C   UNL     1      51.916 -51.282 -11.108  1.00  0.00    -0.000 C 
BRANCH  10  11
ATOM     11  C   UNL     1      51.999 -50.621 -12.493  1.00  0.00    -0.000 C 
BRANCH  11  12
ATOM     12  C   UNL     1      50.600 -50.284 -13.023  1.00  0.00    -0.003 C 
ATOM     13  C   UNL     1      49.877 -51.538 -13.506  1.00  0.00     0.004 C 
ENDBRANCH  11  12
ENDBRANCH  10  11
ENDBRANCH   9  10
ENDBRANCH   8   9
ENDBRANCH   1   8
TORSDOF 9
ENDMDL
