MODEL 1
REMARK VINA RESULT:    -2.813      0.000      0.000
REMARK INTER + INTRA:          -3.977
REMARK INTER:                  -3.635
REMARK INTRA:                  -0.342
REMARK UNBOUND:                -0.342
REMARK SMILES CCCCCCC(=O)[O-]
REMARK SMILES IDX 5 1 6 2 7 3 8 4 9 5 4 6 3 7 2 8 1 9
REMARK H PARENT
REMARK Flexibility Score: inf
ROOT
ATOM      1  C   UNL     1       4.902  25.020   8.119  1.00  0.00     0.006 C 
ENDROOT
BRANCH   1   2
ATOM      2  C   UNL     1       4.061  24.062   8.974  1.00  0.00     0.053 C 
BRANCH   2   3
ATOM      3  C   UNL     1       3.768  24.675  10.308  1.00  0.00     0.041 C 
ATOM      4  O   UNL     1       4.387  24.286  11.333  1.00  0.00    -0.550 OA
ATOM      5  O   UNL     1       2.847  25.710  10.410  1.00  0.00    -0.550 OA
ENDBRANCH   2   3
ENDBRANCH   1   2
BRANCH   1   6
ATOM      6  C   UNL     1       4.486  25.014   6.639  1.00  0.00     0.000 C 
BRANCH   6   7
ATOM      7  C   UNL     1       3.032  24.555   6.437  1.00  0.00    -0.000 C 
BRANCH   7   8
ATOM      8  C   UNL     1       2.069  25.734   6.226  1.00  0.00    -0.003 C 
ATOM      9  C   UNL     1       1.022  25.852   7.332  1.00  0.00     0.004 C 
ENDBRANCH   7   8
ENDBRANCH   6   7
ENDBRANCH   1   6
TORSDOF 5
ENDMDL
MODEL 2
REMARK VINA RESULT:    -2.765      1.892      3.784
REMARK INTER + INTRA:          -3.915
REMARK INTER:                  -3.572
REMARK INTRA:                  -0.344
REMARK UNBOUND:                -0.342
REMARK SMILES CCCCCCC(=O)[O-]
REMARK SMILES IDX 5 1 6 2 7 3 8 4 9 5 4 6 3 7 2 8 1 9
REMARK H PARENT
REMARK Flexibility Score: inf
ROOT
ATOM      1  C   UNL     1       3.045  24.582   6.529  1.00  0.00     0.006 C 
ENDROOT
BRANCH   1   2
ATOM      2  C   UNL     1       2.120  25.681   5.986  1.00  0.00     0.053 C 
BRANCH   2   3
ATOM      3  C   UNL     1       1.055  26.007   6.985  1.00  0.00     0.041 C 
ATOM      4  O   UNL     1       1.301  25.939   8.218  1.00  0.00    -0.550 OA
ATOM      5  O   UNL     1      -0.195  26.433   6.554  1.00  0.00    -0.550 OA
ENDBRANCH   2   3
ENDBRANCH   1   2
BRANCH   1   6
ATOM      6  C   UNL     1       4.510  25.036   6.631  1.00  0.00     0.000 C 
BRANCH   6   7
ATOM      7  C   UNL     1       5.003  25.118   8.085  1.00  0.00    -0.000 C 
BRANCH   7   8
ATOM      8  C   UNL     1       4.314  24.091   8.997  1.00  0.00    -0.003 C 
ATOM      9  C   UNL     1       3.841  24.693  10.320  1.00  0.00     0.004 C 
ENDBRANCH   7   8
ENDBRANCH   6   7
ENDBRANCH   1   6
TORSDOF 5
ENDMDL
MODEL 3
REMARK VINA RESULT:    -2.713      0.974      1.733
REMARK INTER + INTRA:          -3.848
REMARK INTER:                  -3.578
REMARK INTRA:                  -0.270
REMARK UNBOUND:                -0.342
REMARK SMILES CCCCCCC(=O)[O-]
REMARK SMILES IDX 5 1 6 2 7 3 8 4 9 5 4 6 3 7 2 8 1 9
REMARK H PARENT
REMARK Flexibility Score: inf
ROOT
ATOM      1  C   UNL     1       4.030  24.108   8.959  1.00  0.00     0.006 C 
ENDROOT
BRANCH   1   2
ATOM      2  C   UNL     1       4.108  24.452  10.454  1.00  0.00     0.053 C 
BRANCH   2   3
ATOM      3  C   UNL     1       3.026  25.418  10.823  1.00  0.00     0.041 C 
ATOM      4  O   UNL     1       2.078  25.643  10.025  1.00  0.00    -0.550 OA
ATOM      5  O   UNL     1       3.038  26.033  12.068  1.00  0.00    -0.550 OA
ENDBRANCH   2   3
ENDBRANCH   1   2
BRANCH   1   6
ATOM      6  C   UNL     1       4.931  25.007   8.097  1.00  0.00     0.000 C 
BRANCH   6   7
ATOM      7  C   UNL     1       4.487  25.049   6.625  1.00  0.00    -0.000 C 
BRANCH   7   8
ATOM      8  C   UNL     1       3.038  24.572   6.435  1.00  0.00    -0.003 C 
ATOM      9  C   UNL     1       2.049  25.725   6.276  1.00  0.00     0.004 C 
ENDBRANCH   7   8
ENDBRANCH   6   7
ENDBRANCH   1   6
TORSDOF 5
ENDMDL
MODEL 4
REMARK VINA RESULT:    -2.703      1.054      1.869
REMARK INTER + INTRA:          -3.835
REMARK INTER:                  -3.576
REMARK INTRA:                  -0.259
REMARK UNBOUND:                -0.342
REMARK SMILES CCCCCCC(=O)[O-]
REMARK SMILES IDX 5 1 6 2 7 3 8 4 9 5 4 6 3 7 2 8 1 9
REMARK H PARENT
REMARK Flexibility Score: inf
ROOT
ATOM      1  C   UNL     1       3.935  24.262   9.143  1.00  0.00     0.006 C 
ENDROOT
BRANCH   1   2
ATOM      2  C   UNL     1       3.337  25.102  10.281  1.00  0.00     0.053 C 
BRANCH   2   3
ATOM      3  C   UNL     1       3.703  24.516  11.609  1.00  0.00     0.041 C 
ATOM      4  O   UNL     1       2.824  24.365  12.497  1.00  0.00    -0.550 OA
ATOM      5  O   UNL     1       5.004  24.093  11.847  1.00  0.00    -0.550 OA
ENDBRANCH   2   3
ENDBRANCH   1   2
BRANCH   1   6
ATOM      6  C   UNL     1       4.928  25.056   8.279  1.00  0.00     0.000 C 
BRANCH   6   7
ATOM      7  C   UNL     1       4.533  25.075   6.792  1.00  0.00    -0.000 C 
BRANCH   7   8
ATOM      8  C   UNL     1       3.106  24.555   6.558  1.00  0.00    -0.003 C 
ATOM      9  C   UNL     1       2.127  25.661   6.169  1.00  0.00     0.004 C 
ENDBRANCH   7   8
ENDBRANCH   6   7
ENDBRANCH   1   6
TORSDOF 5
ENDMDL
MODEL 5
REMARK VINA RESULT:    -2.684      1.668      2.792
REMARK INTER + INTRA:          -3.810
REMARK INTER:                  -3.685
REMARK INTRA:                  -0.126
REMARK UNBOUND:                -0.342
REMARK SMILES CCCCCCC(=O)[O-]
REMARK SMILES IDX 5 1 6 2 7 3 8 4 9 5 4 6 3 7 2 8 1 9
REMARK H PARENT
REMARK Flexibility Score: inf
ROOT
ATOM      1  C   UNL     1       3.860  24.693  10.496  1.00  0.00     0.006 C 
ENDROOT
BRANCH   1   2
ATOM      2  C   UNL     1       2.832  25.444  11.353  1.00  0.00     0.053 C 
BRANCH   2   3
ATOM      3  C   UNL     1       3.368  25.673  12.731  1.00  0.00     0.041 C 
ATOM      4  O   UNL     1       2.715  26.363  13.558  1.00  0.00    -0.550 OA
ATOM      5  O   UNL     1       4.565  25.084  13.118  1.00  0.00    -0.550 OA
ENDBRANCH   2   3
ENDBRANCH   1   2
BRANCH   1   6
ATOM      6  C   UNL     1       3.547  24.766   8.993  1.00  0.00     0.000 C 
BRANCH   6   7
ATOM      7  C   UNL     1       4.816  24.884   8.131  1.00  0.00    -0.000 C 
BRANCH   7   8
ATOM      8  C   UNL     1       4.497  25.049   6.637  1.00  0.00    -0.003 C 
ATOM      9  C   UNL     1       3.001  25.202   6.361  1.00  0.00     0.004 C 
ENDBRANCH   7   8
ENDBRANCH   6   7
ENDBRANCH   1   6
TORSDOF 5
ENDMDL
MODEL 6
REMARK VINA RESULT:    -2.676     21.913     22.580
REMARK INTER + INTRA:          -3.800
REMARK INTER:                  -3.523
REMARK INTRA:                  -0.277
REMARK UNBOUND:                -0.342
REMARK SMILES CCCCCCC(=O)[O-]
REMARK SMILES IDX 5 1 6 2 7 3 8 4 9 5 4 6 3 7 2 8 1 9
REMARK H PARENT
REMARK Flexibility Score: inf
ROOT
ATOM      1  C   UNL     1      17.251  41.799   4.370  1.00  0.00     0.006 C 
ENDROOT
BRANCH   1   2
ATOM      2  C   UNL     1      18.088  42.913   5.015  1.00  0.00     0.053 C 
BRANCH   2   3
ATOM      3  C   UNL     1      17.721  43.072   6.457  1.00  0.00     0.041 C 
ATOM      4  O   UNL     1      16.772  43.831   6.789  1.00  0.00    -0.550 OA
ATOM      5  O   UNL     1      18.394  42.344   7.430  1.00  0.00    -0.550 OA
ENDBRANCH   2   3
ENDBRANCH   1   2
BRANCH   1   6
ATOM      6  C   UNL     1      16.764  42.164   2.959  1.00  0.00     0.000 C 
BRANCH   6   7
ATOM      7  C   UNL     1      15.968  43.481   2.932  1.00  0.00    -0.000 C 
BRANCH   7   8
ATOM      8  C   UNL     1      14.450  43.248   2.875  1.00  0.00    -0.003 C 
ATOM      9  C   UNL     1      13.803  43.205   4.259  1.00  0.00     0.004 C 
ENDBRANCH   7   8
ENDBRANCH   6   7
ENDBRANCH   1   6
TORSDOF 5
ENDMDL
MODEL 7
REMARK VINA RESULT:    -2.672      1.627      2.307
REMARK INTER + INTRA:          -3.795
REMARK INTER:                  -3.509
REMARK INTRA:                  -0.285
REMARK UNBOUND:                -0.342
REMARK SMILES CCCCCCC(=O)[O-]
REMARK SMILES IDX 5 1 6 2 7 3 8 4 9 5 4 6 3 7 2 8 1 9
REMARK H PARENT
REMARK Flexibility Score: inf
ROOT
ATOM      1  C   UNL     1       3.773  24.994   6.255  1.00  0.00     0.006 C 
ENDROOT
BRANCH   1   2
ATOM      2  C   UNL     1       4.585  24.122   7.222  1.00  0.00     0.053 C 
BRANCH   2   3
ATOM      3  C   UNL     1       5.030  24.928   8.402  1.00  0.00     0.041 C 
ATOM      4  O   UNL     1       4.564  24.685   9.547  1.00  0.00    -0.550 OA
ATOM      5  O   UNL     1       5.996  25.913   8.247  1.00  0.00    -0.550 OA
ENDBRANCH   2   3
ENDBRANCH   1   2
BRANCH   1   6
ATOM      6  C   UNL     1       2.276  24.645   6.257  1.00  0.00     0.000 C 
BRANCH   6   7
ATOM      7  C   UNL     1       1.379  25.893   6.322  1.00  0.00    -0.000 C 
BRANCH   7   8
ATOM      8  C   UNL     1       0.468  25.898   7.560  1.00  0.00    -0.003 C 
ATOM      9  C   UNL     1       1.247  25.810   8.871  1.00  0.00     0.004 C 
ENDBRANCH   7   8
ENDBRANCH   6   7
ENDBRANCH   1   6
TORSDOF 5
ENDMDL
MODEL 8
REMARK VINA RESULT:    -2.467      1.963      3.684
REMARK INTER + INTRA:          -3.530
REMARK INTER:                  -3.260
REMARK INTRA:                  -0.270
REMARK UNBOUND:                -0.342
REMARK SMILES CCCCCCC(=O)[O-]
REMARK SMILES IDX 5 1 6 2 7 3 8 4 9 5 4 6 3 7 2 8 1 9
REMARK H PARENT
REMARK Flexibility Score: inf
ROOT
ATOM      1  C   UNL     1       2.006  25.799   6.378  1.00  0.00     0.006 C 
ENDROOT
BRANCH   1   2
ATOM      2  C   UNL     1       0.517  25.583   6.684  1.00  0.00     0.053 C 
BRANCH   2   3
ATOM      3  C   UNL     1       0.294  25.511   8.163  1.00  0.00     0.041 C 
ATOM      4  O   UNL     1      -0.717  24.916   8.622  1.00  0.00    -0.550 OA
ATOM      5  O   UNL     1       1.228  26.056   9.033  1.00  0.00    -0.550 OA
ENDBRANCH   2   3
ENDBRANCH   1   2
BRANCH   1   6
ATOM      6  C   UNL     1       2.664  24.564   5.741  1.00  0.00     0.000 C 
BRANCH   6   7
ATOM      7  C   UNL     1       4.091  24.321   6.263  1.00  0.00    -0.000 C 
BRANCH   7   8
ATOM      8  C   UNL     1       4.249  24.710   7.741  1.00  0.00    -0.003 C 
ATOM      9  C   UNL     1       5.499  25.548   8.005  1.00  0.00     0.004 C 
ENDBRANCH   7   8
ENDBRANCH   6   7
ENDBRANCH   1   6
TORSDOF 5
ENDMDL
MODEL 9
REMARK VINA RESULT:    -2.460      0.967      2.515
REMARK INTER + INTRA:          -3.522
REMARK INTER:                  -3.262
REMARK INTRA:                  -0.259
REMARK UNBOUND:                -0.342
REMARK SMILES CCCCCCC(=O)[O-]
REMARK SMILES IDX 5 1 6 2 7 3 8 4 9 5 4 6 3 7 2 8 1 9
REMARK H PARENT
REMARK Flexibility Score: inf
ROOT
ATOM      1  C   UNL     1       1.569  25.546   9.037  1.00  0.00     0.006 C 
ENDROOT
BRANCH   1   2
ATOM      2  C   UNL     1       2.382  24.453   9.745  1.00  0.00     0.053 C 
BRANCH   2   3
ATOM      3  C   UNL     1       3.212  25.047  10.839  1.00  0.00     0.041 C 
ATOM      4  O   UNL     1       2.964  26.207  11.263  1.00  0.00    -0.550 OA
ATOM      5  O   UNL     1       4.226  24.302  11.425  1.00  0.00    -0.550 OA
ENDBRANCH   2   3
ENDBRANCH   1   2
BRANCH   1   6
ATOM      6  C   UNL     1       1.121  25.132   7.625  1.00  0.00     0.000 C 
BRANCH   6   7
ATOM      7  C   UNL     1       2.018  25.722   6.525  1.00  0.00    -0.000 C 
BRANCH   7   8
ATOM      8  C   UNL     1       3.114  24.744   6.073  1.00  0.00    -0.003 C 
ATOM      9  C   UNL     1       4.477  25.051   6.693  1.00  0.00     0.004 C 
ENDBRANCH   7   8
ENDBRANCH   6   7
ENDBRANCH   1   6
TORSDOF 5
ENDMDL
