MODEL 1
REMARK VINA RESULT:    -2.272      0.000      0.000
REMARK INTER + INTRA:          -2.272
REMARK INTER:                  -2.272
REMARK INTRA:                   0.000
REMARK UNBOUND:                 0.000
REMARK SMILES CC(=O)[O-]
REMARK SMILES IDX 1 1 2 2 3 3 4 4
REMARK H PARENT
REMARK Flexibility Score: inf
ROOT
ATOM      1  C   UNL     1      23.252 -26.646  19.683  1.00  0.00     0.063 C 
ATOM      2  C   UNL     1      22.601 -25.311  19.555  1.00  0.00     0.038 C 
ATOM      3  O   UNL     1      21.359 -25.192  19.730  1.00  0.00    -0.550 OA
ATOM      4  O   UNL     1      23.370 -24.184  19.293  1.00  0.00    -0.550 OA
ENDROOT
TORSDOF 0
ENDMDL
MODEL 2
REMARK VINA RESULT:    -2.264     11.630     11.977
REMARK INTER + INTRA:          -2.264
REMARK INTER:                  -2.264
REMARK INTRA:                   0.000
REMARK UNBOUND:                 0.000
REMARK SMILES CC(=O)[O-]
REMARK SMILES IDX 1 1 2 2 3 3 4 4
REMARK H PARENT
REMARK Flexibility Score: inf
ROOT
ATOM      1  C   UNL     1      12.544 -27.239  24.623  1.00  0.00     0.063 C 
ATOM      2  C   UNL     1      12.105 -28.427  23.836  1.00  0.00     0.038 C 
ATOM      3  O   UNL     1      12.771 -29.495  23.879  1.00  0.00    -0.550 OA
ATOM      4  O   UNL     1      10.932 -28.376  23.094  1.00  0.00    -0.550 OA
ENDROOT
TORSDOF 0
ENDMDL
MODEL 3
REMARK VINA RESULT:    -2.263      0.146      1.625
REMARK INTER + INTRA:          -2.263
REMARK INTER:                  -2.263
REMARK INTRA:                   0.000
REMARK UNBOUND:                 0.000
REMARK SMILES CC(=O)[O-]
REMARK SMILES IDX 1 1 2 2 3 3 4 4
REMARK H PARENT
REMARK Flexibility Score: inf
ROOT
ATOM      1  C   UNL     1      23.256 -26.666  19.688  1.00  0.00     0.063 C 
ATOM      2  C   UNL     1      22.571 -25.351  19.536  1.00  0.00     0.038 C 
ATOM      3  O   UNL     1      23.227 -24.331  19.196  1.00  0.00    -0.550 OA
ATOM      4  O   UNL     1      21.197 -25.256  19.717  1.00  0.00    -0.550 OA
ENDROOT
TORSDOF 0
ENDMDL
MODEL 4
REMARK VINA RESULT:    -2.229     11.514     11.679
REMARK INTER + INTRA:          -2.229
REMARK INTER:                  -2.229
REMARK INTRA:                   0.000
REMARK UNBOUND:                 0.000
REMARK SMILES CC(=O)[O-]
REMARK SMILES IDX 1 1 2 2 3 3 4 4
REMARK H PARENT
REMARK Flexibility Score: inf
ROOT
ATOM      1  C   UNL     1      12.639 -29.212  23.564  1.00  0.00     0.063 C 
ATOM      2  C   UNL     1      12.139 -27.850  23.911  1.00  0.00     0.038 C 
ATOM      3  O   UNL     1      11.235 -27.313  23.219  1.00  0.00    -0.550 OA
ATOM      4  O   UNL     1      12.633 -27.192  25.030  1.00  0.00    -0.550 OA
ENDROOT
TORSDOF 0
ENDMDL
MODEL 5
REMARK VINA RESULT:    -2.198      1.404      1.759
REMARK INTER + INTRA:          -2.198
REMARK INTER:                  -2.198
REMARK INTRA:                   0.000
REMARK UNBOUND:                 0.000
REMARK SMILES CC(=O)[O-]
REMARK SMILES IDX 1 1 2 2 3 3 4 4
REMARK H PARENT
REMARK Flexibility Score: inf
ROOT
ATOM      1  C   UNL     1      23.383 -24.204  19.670  1.00  0.00     0.063 C 
ATOM      2  C   UNL     1      22.531 -25.427  19.637  1.00  0.00     0.038 C 
ATOM      3  O   UNL     1      21.276 -25.324  19.670  1.00  0.00    -0.550 OA
ATOM      4  O   UNL     1      23.117 -26.680  19.516  1.00  0.00    -0.550 OA
ENDROOT
TORSDOF 0
ENDMDL
MODEL 6
REMARK VINA RESULT:    -2.191     15.827     16.417
REMARK INTER + INTRA:          -2.191
REMARK INTER:                  -2.191
REMARK INTRA:                   0.000
REMARK UNBOUND:                 0.000
REMARK SMILES CC(=O)[O-]
REMARK SMILES IDX 1 1 2 2 3 3 4 4
REMARK H PARENT
REMARK Flexibility Score: inf
ROOT
ATOM      1  C   UNL     1      15.655 -38.125  28.157  1.00  0.00     0.063 C 
ATOM      2  C   UNL     1      16.990 -37.686  28.656  1.00  0.00     0.038 C 
ATOM      3  O   UNL     1      17.275 -37.796  29.878  1.00  0.00    -0.550 OA
ATOM      4  O   UNL     1      17.941 -37.203  27.767  1.00  0.00    -0.550 OA
ENDROOT
TORSDOF 0
ENDMDL
MODEL 7
REMARK VINA RESULT:    -2.142      1.464      2.073
REMARK INTER + INTRA:          -2.142
REMARK INTER:                  -2.142
REMARK INTRA:                   0.000
REMARK UNBOUND:                 0.000
REMARK SMILES CC(=O)[O-]
REMARK SMILES IDX 1 1 2 2 3 3 4 4
REMARK H PARENT
REMARK Flexibility Score: inf
ROOT
ATOM      1  C   UNL     1      23.282 -24.275  19.794  1.00  0.00     0.063 C 
ATOM      2  C   UNL     1      22.404 -25.475  19.683  1.00  0.00     0.038 C 
ATOM      3  O   UNL     1      22.911 -26.625  19.609  1.00  0.00    -0.550 OA
ATOM      4  O   UNL     1      21.023 -25.332  19.713  1.00  0.00    -0.550 OA
ENDROOT
TORSDOF 0
ENDMDL
MODEL 8
REMARK VINA RESULT:    -2.073     10.555     11.086
REMARK INTER + INTRA:          -2.073
REMARK INTER:                  -2.073
REMARK INTRA:                   0.000
REMARK UNBOUND:                 0.000
REMARK SMILES CC(=O)[O-]
REMARK SMILES IDX 1 1 2 2 3 3 4 4
REMARK H PARENT
REMARK Flexibility Score: inf
ROOT
ATOM      1  C   UNL     1      12.349 -30.643  22.065  1.00  0.00     0.063 C 
ATOM      2  C   UNL     1      13.343 -30.982  21.006  1.00  0.00     0.038 C 
ATOM      3  O   UNL     1      13.034 -31.775  20.078  1.00  0.00    -0.550 OA
ATOM      4  O   UNL     1      14.596 -30.383  21.011  1.00  0.00    -0.550 OA
ENDROOT
TORSDOF 0
ENDMDL
MODEL 9
REMARK VINA RESULT:    -2.048     11.622     11.723
REMARK INTER + INTRA:          -2.048
REMARK INTER:                  -2.048
REMARK INTRA:                   0.000
REMARK UNBOUND:                 0.000
REMARK SMILES CC(=O)[O-]
REMARK SMILES IDX 1 1 2 2 3 3 4 4
REMARK H PARENT
REMARK Flexibility Score: inf
ROOT
ATOM      1  C   UNL     1      12.749 -29.250  23.495  1.00  0.00     0.063 C 
ATOM      2  C   UNL     1      12.947 -30.611  22.919  1.00  0.00     0.038 C 
ATOM      3  O   UNL     1      13.428 -31.534  23.628  1.00  0.00    -0.550 OA
ATOM      4  O   UNL     1      12.554 -30.879  21.614  1.00  0.00    -0.550 OA
ENDROOT
TORSDOF 0
ENDMDL
