MODEL 1
REMARK VINA RESULT:    -2.571      0.000      0.000
REMARK INTER + INTRA:          -2.738
REMARK INTER:                  -2.721
REMARK INTRA:                  -0.016
REMARK UNBOUND:                -0.016
REMARK SMILES O=C([O-])c1cccnc1
REMARK SMILES IDX 4 1 5 2 9 3 6 4 8 5 7 6 2 7 1 8 3 9
REMARK H PARENT
REMARK Flexibility Score: inf
ROOT
ATOM      1  C   UNL     1       0.208  13.791  -5.251  1.00  0.00     0.016 A 
ATOM      2  C   UNL     1      -0.564  13.299  -4.186  1.00  0.00     0.013 A 
ATOM      3  C   UNL     1       0.939  14.977  -5.056  1.00  0.00     0.120 A 
ATOM      4  C   UNL     1      -0.594  13.981  -2.968  1.00  0.00     0.021 A 
ATOM      5  N   UNL     1       0.892  15.621  -3.859  1.00  0.00    -0.264 NA
ATOM      6  C   UNL     1       0.148  15.153  -2.822  1.00  0.00     0.111 A 
ENDROOT
BRANCH   1   7
ATOM      7  C   UNL     1       0.248  13.077  -6.545  1.00  0.00     0.073 C 
ATOM      8  O   UNL     1      -0.705  13.181  -7.363  1.00  0.00    -0.545 OA
ATOM      9  O   UNL     1       1.338  12.282  -6.878  1.00  0.00    -0.545 OA
ENDBRANCH   1   7
TORSDOF 1
ENDMDL
MODEL 2
REMARK VINA RESULT:    -2.492      0.914      1.600
REMARK INTER + INTRA:          -2.655
REMARK INTER:                  -2.638
REMARK INTRA:                  -0.016
REMARK UNBOUND:                -0.016
REMARK SMILES O=C([O-])c1cccnc1
REMARK SMILES IDX 4 1 5 2 9 3 6 4 8 5 7 6 2 7 1 8 3 9
REMARK H PARENT
REMARK Flexibility Score: inf
ROOT
ATOM      1  C   UNL     1       0.209  13.781  -5.265  1.00  0.00     0.016 A 
ATOM      2  C   UNL     1       0.942  14.964  -5.078  1.00  0.00     0.013 A 
ATOM      3  C   UNL     1      -0.556  13.291  -4.191  1.00  0.00     0.120 A 
ATOM      4  C   UNL     1       0.902  15.627  -3.850  1.00  0.00     0.021 A 
ATOM      5  N   UNL     1      -0.578  13.957  -3.005  1.00  0.00    -0.264 NA
ATOM      6  C   UNL     1       0.128  15.103  -2.814  1.00  0.00     0.111 A 
ENDROOT
BRANCH   1   7
ATOM      7  C   UNL     1       0.244  13.070  -6.561  1.00  0.00     0.073 C 
ATOM      8  O   UNL     1      -0.711  13.177  -7.376  1.00  0.00    -0.545 OA
ATOM      9  O   UNL     1       1.332  12.273  -6.898  1.00  0.00    -0.545 OA
ENDBRANCH   1   7
TORSDOF 1
ENDMDL
MODEL 3
REMARK VINA RESULT:    -2.436      1.978      2.456
REMARK INTER + INTRA:          -2.595
REMARK INTER:                  -2.577
REMARK INTRA:                  -0.018
REMARK UNBOUND:                -0.016
REMARK SMILES O=C([O-])c1cccnc1
REMARK SMILES IDX 4 1 5 2 9 3 6 4 8 5 7 6 2 7 1 8 3 9
REMARK H PARENT
REMARK Flexibility Score: inf
ROOT
ATOM      1  C   UNL     1       0.475  13.043  -6.633  1.00  0.00     0.016 A 
ATOM      2  C   UNL     1      -0.265  13.470  -5.518  1.00  0.00     0.013 A 
ATOM      3  C   UNL     1       1.759  12.509  -6.419  1.00  0.00     0.120 A 
ATOM      4  C   UNL     1       0.275  13.361  -4.235  1.00  0.00     0.021 A 
ATOM      5  N   UNL     1       2.260  12.413  -5.159  1.00  0.00    -0.264 NA
ATOM      6  C   UNL     1       1.552  12.824  -4.073  1.00  0.00     0.111 A 
ENDROOT
BRANCH   1   7
ATOM      7  C   UNL     1      -0.086  13.154  -7.996  1.00  0.00     0.073 C 
ATOM      8  O   UNL     1       0.550  13.755  -8.903  1.00  0.00    -0.545 OA
ATOM      9  O   UNL     1      -1.323  12.596  -8.296  1.00  0.00    -0.545 OA
ENDBRANCH   1   7
TORSDOF 1
ENDMDL
MODEL 4
REMARK VINA RESULT:    -2.403      1.904      2.217
REMARK INTER + INTRA:          -2.560
REMARK INTER:                  -2.542
REMARK INTRA:                  -0.018
REMARK UNBOUND:                -0.016
REMARK SMILES O=C([O-])c1cccnc1
REMARK SMILES IDX 4 1 5 2 9 3 6 4 8 5 7 6 2 7 1 8 3 9
REMARK H PARENT
REMARK Flexibility Score: inf
ROOT
ATOM      1  C   UNL     1       0.751  13.271  -4.697  1.00  0.00     0.016 A 
ATOM      2  C   UNL     1      -0.218  13.624  -3.742  1.00  0.00     0.013 A 
ATOM      3  C   UNL     1       1.870  12.533  -4.274  1.00  0.00     0.120 A 
ATOM      4  C   UNL     1      -0.058  13.243  -2.409  1.00  0.00     0.021 A 
ATOM      5  N   UNL     1       2.001  12.174  -2.969  1.00  0.00    -0.264 NA
ATOM      6  C   UNL     1       1.070  12.510  -2.037  1.00  0.00     0.111 A 
ENDROOT
BRANCH   1   7
ATOM      7  C   UNL     1       0.592  13.670  -6.112  1.00  0.00     0.073 C 
ATOM      8  O   UNL     1       1.502  14.310  -6.703  1.00  0.00    -0.545 OA
ATOM      9  O   UNL     1      -0.564  13.342  -6.811  1.00  0.00    -0.545 OA
ENDBRANCH   1   7
TORSDOF 1
ENDMDL
MODEL 5
REMARK VINA RESULT:    -2.374      5.064      6.255
REMARK INTER + INTRA:          -2.529
REMARK INTER:                  -2.510
REMARK INTRA:                  -0.019
REMARK UNBOUND:                -0.016
REMARK SMILES O=C([O-])c1cccnc1
REMARK SMILES IDX 4 1 5 2 9 3 6 4 8 5 7 6 2 7 1 8 3 9
REMARK H PARENT
REMARK Flexibility Score: inf
ROOT
ATOM      1  C   UNL     1      -2.098  11.065  -9.255  1.00  0.00     0.016 A 
ATOM      2  C   UNL     1      -2.585  11.430 -10.521  1.00  0.00     0.013 A 
ATOM      3  C   UNL     1      -1.247  11.960  -8.583  1.00  0.00     0.120 A 
ATOM      4  C   UNL     1      -2.223  12.655 -11.085  1.00  0.00     0.021 A 
ATOM      5  N   UNL     1      -0.911  13.147  -9.154  1.00  0.00    -0.264 NA
ATOM      6  C   UNL     1      -1.376  13.510 -10.379  1.00  0.00     0.111 A 
ENDROOT
BRANCH   1   7
ATOM      7  C   UNL     1      -2.474   9.770  -8.648  1.00  0.00     0.073 C 
ATOM      8  O   UNL     1      -1.592   9.003  -8.178  1.00  0.00    -0.545 OA
ATOM      9  O   UNL     1      -3.807   9.382  -8.588  1.00  0.00    -0.545 OA
ENDBRANCH   1   7
TORSDOF 1
ENDMDL
MODEL 6
REMARK VINA RESULT:    -2.362      4.664      6.264
REMARK INTER + INTRA:          -2.517
REMARK INTER:                  -2.499
REMARK INTRA:                  -0.018
REMARK UNBOUND:                -0.016
REMARK SMILES O=C([O-])c1cccnc1
REMARK SMILES IDX 4 1 5 2 9 3 6 4 8 5 7 6 2 7 1 8 3 9
REMARK H PARENT
REMARK Flexibility Score: inf
ROOT
ATOM      1  C   UNL     1      -1.338  12.273  -9.257  1.00  0.00     0.016 A 
ATOM      2  C   UNL     1      -1.501  13.357 -10.135  1.00  0.00     0.013 A 
ATOM      3  C   UNL     1      -2.065  11.095  -9.507  1.00  0.00     0.120 A 
ATOM      4  C   UNL     1      -2.366  13.253 -11.225  1.00  0.00     0.021 A 
ATOM      5  N   UNL     1      -2.900  11.020 -10.577  1.00  0.00    -0.264 NA
ATOM      6  C   UNL     1      -3.065  12.063 -11.433  1.00  0.00     0.111 A 
ENDROOT
BRANCH   1   7
ATOM      7  C   UNL     1      -0.425  12.372  -8.098  1.00  0.00     0.073 C 
ATOM      8  O   UNL     1      -0.620  13.235  -7.201  1.00  0.00    -0.545 OA
ATOM      9  O   UNL     1       0.662  11.513  -7.983  1.00  0.00    -0.545 OA
ENDBRANCH   1   7
TORSDOF 1
ENDMDL
MODEL 7
REMARK VINA RESULT:    -2.338      5.275      6.822
REMARK INTER + INTRA:          -2.491
REMARK INTER:                  -2.467
REMARK INTRA:                  -0.024
REMARK UNBOUND:                -0.016
REMARK SMILES O=C([O-])c1cccnc1
REMARK SMILES IDX 4 1 5 2 9 3 6 4 8 5 7 6 2 7 1 8 3 9
REMARK H PARENT
REMARK Flexibility Score: inf
ROOT
ATOM      1  C   UNL     1      -0.882  13.529 -10.471  1.00  0.00     0.016 A 
ATOM      2  C   UNL     1      -2.249  13.262 -10.653  1.00  0.00     0.013 A 
ATOM      3  C   UNL     1      -0.121  13.916 -11.588  1.00  0.00     0.120 A 
ATOM      4  C   UNL     1      -2.824  13.384 -11.919  1.00  0.00     0.021 A 
ATOM      5  N   UNL     1      -0.706  14.027 -12.810  1.00  0.00    -0.264 NA
ATOM      6  C   UNL     1      -2.029  13.771 -12.997  1.00  0.00     0.111 A 
ENDROOT
BRANCH   1   7
ATOM      7  C   UNL     1      -0.262  13.403  -9.134  1.00  0.00     0.073 C 
ATOM      8  O   UNL     1       0.950  13.700  -8.960  1.00  0.00    -0.545 OA
ATOM      9  O   UNL     1      -1.009  12.956  -8.051  1.00  0.00    -0.545 OA
ENDBRANCH   1   7
TORSDOF 1
ENDMDL
MODEL 8
REMARK VINA RESULT:    -2.313      4.723      6.135
REMARK INTER + INTRA:          -2.465
REMARK INTER:                  -2.448
REMARK INTRA:                  -0.017
REMARK UNBOUND:                -0.016
REMARK SMILES O=C([O-])c1cccnc1
REMARK SMILES IDX 4 1 5 2 9 3 6 4 8 5 7 6 2 7 1 8 3 9
REMARK H PARENT
REMARK Flexibility Score: inf
ROOT
ATOM      1  C   UNL     1      -1.547  11.405  -8.815  1.00  0.00     0.016 A 
ATOM      2  C   UNL     1      -2.148  10.215  -8.372  1.00  0.00     0.013 A 
ATOM      3  C   UNL     1      -1.964  11.948 -10.043  1.00  0.00     0.120 A 
ATOM      4  C   UNL     1      -3.133   9.598  -9.144  1.00  0.00     0.021 A 
ATOM      5  N   UNL     1      -2.927  11.327 -10.775  1.00  0.00    -0.264 NA
ATOM      6  C   UNL     1      -3.515  10.175 -10.356  1.00  0.00     0.111 A 
ENDROOT
BRANCH   1   7
ATOM      7  C   UNL     1      -0.501  12.068  -8.007  1.00  0.00     0.073 C 
ATOM      8  O   UNL     1      -0.731  13.171  -7.442  1.00  0.00    -0.545 OA
ATOM      9  O   UNL     1       0.750  11.481  -7.857  1.00  0.00    -0.545 OA
ENDBRANCH   1   7
TORSDOF 1
ENDMDL
MODEL 9
REMARK VINA RESULT:    -2.284      4.750      5.895
REMARK INTER + INTRA:          -2.434
REMARK INTER:                  -2.417
REMARK INTRA:                  -0.017
REMARK UNBOUND:                -0.016
REMARK SMILES O=C([O-])c1cccnc1
REMARK SMILES IDX 4 1 5 2 9 3 6 4 8 5 7 6 2 7 1 8 3 9
REMARK H PARENT
REMARK Flexibility Score: inf
ROOT
ATOM      1  C   UNL     1      -0.767  11.085  -8.379  1.00  0.00     0.016 A 
ATOM      2  C   UNL     1       0.515  10.512  -8.438  1.00  0.00     0.013 A 
ATOM      3  C   UNL     1      -1.881  10.229  -8.339  1.00  0.00     0.120 A 
ATOM      4  C   UNL     1       0.661   9.124  -8.457  1.00  0.00     0.021 A 
ATOM      5  N   UNL     1      -1.711   8.880  -8.357  1.00  0.00    -0.264 NA
ATOM      6  C   UNL     1      -0.476   8.315  -8.415  1.00  0.00     0.111 A 
ENDROOT
BRANCH   1   7
ATOM      7  C   UNL     1      -0.934  12.554  -8.359  1.00  0.00     0.073 C 
ATOM      8  O   UNL     1      -0.616  13.221  -7.339  1.00  0.00    -0.545 OA
ATOM      9  O   UNL     1      -1.444  13.220  -9.468  1.00  0.00    -0.545 OA
ENDBRANCH   1   7
TORSDOF 1
ENDMDL
