MODEL 1
REMARK VINA RESULT:    -5.680      0.000      0.000
REMARK INTER + INTRA:          -7.113
REMARK INTER:                  -6.843
REMARK INTRA:                  -0.270
REMARK UNBOUND:                -0.270
REMARK SMILES O=c1c(O)c(-c2ccc(O)c(O)c2)oc2cc(O)cc(O)c12
REMARK SMILES IDX 5 1 3 2 2 3 1 4 22 5 20 6 19 7 17 8 16 9 15 10 14 11 6 12
REMARK SMILES IDX 7 13 8 14 9 15 13 16 11 17 10 18 12 20 4 22 21 24 18 26
REMARK H PARENT 10 19 12 21 4 23 21 25 18 27
REMARK Flexibility Score: inf
ROOT
ATOM      1  C   UNL     1      28.038  39.394  30.348  1.00  0.00     0.180 A 
ATOM      2  C   UNL     1      27.973  38.253  31.166  1.00  0.00     0.208 A 
ATOM      3  C   UNL     1      26.799  38.006  31.896  1.00  0.00     0.238 A 
ATOM      4  O   UNL     1      26.718  36.943  32.566  1.00  0.00    -0.285 OA
ATOM      5  C   UNL     1      25.727  38.930  31.844  1.00  0.00     0.111 A 
ATOM      6  C   UNL     1      24.509  38.803  32.577  1.00  0.00     0.134 A 
ATOM      7  C   UNL     1      23.476  39.725  32.364  1.00  0.00     0.093 A 
ATOM      8  C   UNL     1      23.642  40.805  31.494  1.00  0.00     0.123 A 
ATOM      9  C   UNL     1      24.847  40.969  30.817  1.00  0.00     0.094 A 
ATOM     10  C   UNL     1      25.882  40.044  30.978  1.00  0.00     0.146 A 
ATOM     11  O   UNL     1      27.006  40.227  30.295  1.00  0.00    -0.452 OA
ENDROOT
BRANCH   1  12
ATOM     12  C   UNL     1      29.236  39.716  29.538  1.00  0.00     0.025 A 
ATOM     13  C   UNL     1      30.398  40.240  30.127  1.00  0.00     0.016 A 
ATOM     14  C   UNL     1      31.523  40.513  29.346  1.00  0.00     0.051 A 
ATOM     15  C   UNL     1      31.517  40.255  27.970  1.00  0.00     0.157 A 
ATOM     16  C   UNL     1      29.235  39.436  28.163  1.00  0.00     0.062 A 
ATOM     17  C   UNL     1      30.358  39.706  27.371  1.00  0.00     0.158 A 
BRANCH  15  18
ATOM     18  O   UNL     1      32.673  40.554  27.246  1.00  0.00    -0.504 OA
ATOM     19  H   UNL     1      33.226  39.866  26.756  1.00  0.00     0.293 HD
ENDBRANCH  15  18
BRANCH  17  20
ATOM     20  O   UNL     1      30.281  39.415  26.008  1.00  0.00    -0.504 OA
ATOM     21  H   UNL     1      31.078  39.171  25.437  1.00  0.00     0.293 HD
ENDBRANCH  17  20
ENDBRANCH   1  12
BRANCH   2  22
ATOM     22  O   UNL     1      29.069  37.392  31.263  1.00  0.00    -0.502 OA
ATOM     23  H   UNL     1      29.901  37.628  31.790  1.00  0.00     0.293 HD
ENDBRANCH   2  22
BRANCH   6  24
ATOM     24  O   UNL     1      24.271  37.815  33.537  1.00  0.00    -0.507 OA
ATOM     25  H   UNL     1      24.007  36.863  33.333  1.00  0.00     0.293 HD
ENDBRANCH   6  24
BRANCH   8  26
ATOM     26  O   UNL     1      22.615  41.728  31.302  1.00  0.00    -0.508 OA
ATOM     27  H   UNL     1      22.290  41.974  30.375  1.00  0.00     0.293 HD
ENDBRANCH   8  26
TORSDOF 6
ENDMDL
MODEL 2
REMARK VINA RESULT:    -5.432      3.920      7.656
REMARK INTER + INTRA:          -6.813
REMARK INTER:                  -6.595
REMARK INTRA:                  -0.218
REMARK UNBOUND:                -0.270
REMARK SMILES O=c1c(O)c(-c2ccc(O)c(O)c2)oc2cc(O)cc(O)c12
REMARK SMILES IDX 5 1 3 2 2 3 1 4 22 5 20 6 19 7 17 8 16 9 15 10 14 11 6 12
REMARK SMILES IDX 7 13 8 14 9 15 13 16 11 17 10 18 12 20 4 22 21 24 18 26
REMARK H PARENT 10 19 12 21 4 23 21 25 18 27
REMARK Flexibility Score: inf
ROOT
ATOM      1  C   UNL     1      26.656  37.553  34.709  1.00  0.00     0.180 A 
ATOM      2  C   UNL     1      25.415  38.154  34.436  1.00  0.00     0.208 A 
ATOM      3  C   UNL     1      25.215  38.764  33.187  1.00  0.00     0.238 A 
ATOM      4  O   UNL     1      24.079  39.234  32.920  1.00  0.00    -0.285 OA
ATOM      5  C   UNL     1      26.274  38.815  32.248  1.00  0.00     0.111 A 
ATOM      6  C   UNL     1      26.198  39.447  30.970  1.00  0.00     0.134 A 
ATOM      7  C   UNL     1      27.276  39.341  30.083  1.00  0.00     0.093 A 
ATOM      8  C   UNL     1      28.452  38.683  30.451  1.00  0.00     0.123 A 
ATOM      9  C   UNL     1      28.557  38.111  31.716  1.00  0.00     0.094 A 
ATOM     10  C   UNL     1      27.484  38.166  32.610  1.00  0.00     0.146 A 
ATOM     11  O   UNL     1      27.620  37.588  33.798  1.00  0.00    -0.452 OA
ENDROOT
BRANCH   1  12
ATOM     12  C   UNL     1      26.938  36.878  35.997  1.00  0.00     0.025 A 
ATOM     13  C   UNL     1      27.104  35.486  36.073  1.00  0.00     0.016 A 
ATOM     14  C   UNL     1      27.393  34.875  37.294  1.00  0.00     0.051 A 
ATOM     15  C   UNL     1      27.537  35.639  38.458  1.00  0.00     0.157 A 
ATOM     16  C   UNL     1      27.103  37.648  37.158  1.00  0.00     0.062 A 
ATOM     17  C   UNL     1      27.393  37.045  38.389  1.00  0.00     0.158 A 
BRANCH  15  18
ATOM     18  O   UNL     1      27.822  34.966  39.648  1.00  0.00    -0.504 OA
ATOM     19  H   UNL     1      28.571  34.297  39.753  1.00  0.00     0.293 HD
ENDBRANCH  15  18
BRANCH  17  20
ATOM     20  O   UNL     1      27.531  37.873  39.505  1.00  0.00    -0.504 OA
ATOM     21  H   UNL     1      27.345  37.578  40.453  1.00  0.00     0.293 HD
ENDBRANCH  17  20
ENDBRANCH   1  12
BRANCH   2  22
ATOM     22  O   UNL     1      24.407  38.159  35.404  1.00  0.00    -0.502 OA
ATOM     23  H   UNL     1      24.603  38.261  36.392  1.00  0.00     0.293 HD
ENDBRANCH   2  22
BRANCH   6  24
ATOM     24  O   UNL     1      25.107  40.205  30.535  1.00  0.00    -0.507 OA
ATOM     25  H   UNL     1      24.698  40.154  29.615  1.00  0.00     0.293 HD
ENDBRANCH   6  24
BRANCH   8  26
ATOM     26  O   UNL     1      29.526  38.598  29.568  1.00  0.00    -0.508 OA
ATOM     27  H   UNL     1      29.387  38.566  28.565  1.00  0.00     0.293 HD
ENDBRANCH   8  26
TORSDOF 6
ENDMDL
MODEL 3
REMARK VINA RESULT:    -5.385      1.952      7.636
REMARK INTER + INTRA:          -6.757
REMARK INTER:                  -6.456
REMARK INTRA:                  -0.301
REMARK UNBOUND:                -0.270
REMARK SMILES O=c1c(O)c(-c2ccc(O)c(O)c2)oc2cc(O)cc(O)c12
REMARK SMILES IDX 5 1 3 2 2 3 1 4 22 5 20 6 19 7 17 8 16 9 15 10 14 11 6 12
REMARK SMILES IDX 7 13 8 14 9 15 13 16 11 17 10 18 12 20 4 22 21 24 18 26
REMARK H PARENT 10 19 12 21 4 23 21 25 18 27
REMARK Flexibility Score: inf
ROOT
ATOM      1  C   UNL     1      30.003  39.459  28.857  1.00  0.00     0.180 A 
ATOM      2  C   UNL     1      31.012  40.377  29.196  1.00  0.00     0.208 A 
ATOM      3  C   UNL     1      31.985  40.703  28.238  1.00  0.00     0.238 A 
ATOM      4  O   UNL     1      32.840  41.582  28.521  1.00  0.00    -0.285 OA
ATOM      5  C   UNL     1      31.972  40.067  26.973  1.00  0.00     0.111 A 
ATOM      6  C   UNL     1      32.935  40.287  25.942  1.00  0.00     0.134 A 
ATOM      7  C   UNL     1      32.759  39.680  24.692  1.00  0.00     0.093 A 
ATOM      8  C   UNL     1      31.691  38.810  24.457  1.00  0.00     0.123 A 
ATOM      9  C   UNL     1      30.778  38.546  25.473  1.00  0.00     0.094 A 
ATOM     10  C   UNL     1      30.904  39.166  26.719  1.00  0.00     0.146 A 
ATOM     11  O   UNL     1      29.997  38.902  27.652  1.00  0.00    -0.452 OA
ENDROOT
BRANCH   1  12
ATOM     12  C   UNL     1      28.934  39.075  29.808  1.00  0.00     0.025 A 
ATOM     13  C   UNL     1      29.160  38.125  30.816  1.00  0.00     0.016 A 
ATOM     14  C   UNL     1      28.144  37.797  31.716  1.00  0.00     0.051 A 
ATOM     15  C   UNL     1      26.893  38.418  31.638  1.00  0.00     0.157 A 
ATOM     16  C   UNL     1      27.688  39.716  29.742  1.00  0.00     0.062 A 
ATOM     17  C   UNL     1      26.662  39.394  30.639  1.00  0.00     0.158 A 
BRANCH  15  18
ATOM     18  O   UNL     1      25.919  38.043  32.566  1.00  0.00    -0.504 OA
ATOM     19  H   UNL     1      25.094  37.508  32.334  1.00  0.00     0.293 HD
ENDBRANCH  15  18
BRANCH  17  20
ATOM     20  O   UNL     1      25.444  40.063  30.506  1.00  0.00    -0.504 OA
ATOM     21  H   UNL     1      25.015  40.607  31.240  1.00  0.00     0.293 HD
ENDBRANCH  17  20
ENDBRANCH   1  12
BRANCH   2  22
ATOM     22  O   UNL     1      31.052  40.938  30.475  1.00  0.00    -0.502 OA
ATOM     23  H   UNL     1      30.788  40.421  31.305  1.00  0.00     0.293 HD
ENDBRANCH   2  22
BRANCH   6  24
ATOM     24  O   UNL     1      34.085  41.065  26.098  1.00  0.00    -0.507 OA
ATOM     25  H   UNL     1      34.687  41.364  25.346  1.00  0.00     0.293 HD
ENDBRANCH   6  24
BRANCH   8  26
ATOM     26  O   UNL     1      31.535  38.196  23.215  1.00  0.00    -0.508 OA
ATOM     27  H   UNL     1      31.149  38.695  22.423  1.00  0.00     0.293 HD
ENDBRANCH   8  26
TORSDOF 6
ENDMDL
MODEL 4
REMARK VINA RESULT:    -5.339      3.799      7.066
REMARK INTER + INTRA:          -6.702
REMARK INTER:                  -6.577
REMARK INTRA:                  -0.125
REMARK UNBOUND:                -0.270
REMARK SMILES O=c1c(O)c(-c2ccc(O)c(O)c2)oc2cc(O)cc(O)c12
REMARK SMILES IDX 5 1 3 2 2 3 1 4 22 5 20 6 19 7 17 8 16 9 15 10 14 11 6 12
REMARK SMILES IDX 7 13 8 14 9 15 13 16 11 17 10 18 12 20 4 22 21 24 18 26
REMARK H PARENT 10 19 12 21 4 23 21 25 18 27
REMARK Flexibility Score: inf
ROOT
ATOM      1  C   UNL     1      26.935  37.622  34.530  1.00  0.00     0.180 A 
ATOM      2  C   UNL     1      27.886  37.537  33.498  1.00  0.00     0.208 A 
ATOM      3  C   UNL     1      27.661  38.245  32.307  1.00  0.00     0.238 A 
ATOM      4  O   UNL     1      28.551  38.226  31.417  1.00  0.00    -0.285 OA
ATOM      5  C   UNL     1      26.464  38.982  32.138  1.00  0.00     0.111 A 
ATOM      6  C   UNL     1      26.111  39.700  30.955  1.00  0.00     0.134 A 
ATOM      7  C   UNL     1      24.948  40.481  30.943  1.00  0.00     0.093 A 
ATOM      8  C   UNL     1      24.093  40.518  32.046  1.00  0.00     0.123 A 
ATOM      9  C   UNL     1      24.400  39.778  33.184  1.00  0.00     0.094 A 
ATOM     10  C   UNL     1      25.572  39.020  33.242  1.00  0.00     0.146 A 
ATOM     11  O   UNL     1      25.836  38.346  34.356  1.00  0.00    -0.452 OA
ENDROOT
BRANCH   1  12
ATOM     12  C   UNL     1      27.107  36.916  35.821  1.00  0.00     0.025 A 
ATOM     13  C   UNL     1      27.207  35.517  35.881  1.00  0.00     0.016 A 
ATOM     14  C   UNL     1      27.393  34.875  37.107  1.00  0.00     0.051 A 
ATOM     15  C   UNL     1      27.498  35.614  38.291  1.00  0.00     0.157 A 
ATOM     16  C   UNL     1      27.234  37.660  37.003  1.00  0.00     0.062 A 
ATOM     17  C   UNL     1      27.421  37.026  38.238  1.00  0.00     0.158 A 
BRANCH  15  18
ATOM     18  O   UNL     1      27.680  34.912  39.484  1.00  0.00    -0.504 OA
ATOM     19  H   UNL     1      28.406  35.117  40.155  1.00  0.00     0.293 HD
ENDBRANCH  15  18
BRANCH  17  20
ATOM     20  O   UNL     1      27.526  37.830  39.375  1.00  0.00    -0.504 OA
ATOM     21  H   UNL     1      26.757  38.351  39.772  1.00  0.00     0.293 HD
ENDBRANCH  17  20
ENDBRANCH   1  12
BRANCH   2  22
ATOM     22  O   UNL     1      29.025  36.744  33.655  1.00  0.00    -0.502 OA
ATOM     23  H   UNL     1      29.867  37.084  34.103  1.00  0.00     0.293 HD
ENDBRANCH   2  22
BRANCH   6  24
ATOM     24  O   UNL     1      26.846  39.662  29.767  1.00  0.00    -0.507 OA
ATOM     25  H   UNL     1      27.824  39.425  29.700  1.00  0.00     0.293 HD
ENDBRANCH   6  24
BRANCH   8  26
ATOM     26  O   UNL     1      22.929  41.284  32.018  1.00  0.00    -0.508 OA
ATOM     27  H   UNL     1      22.016  40.857  31.923  1.00  0.00     0.293 HD
ENDBRANCH   8  26
TORSDOF 6
ENDMDL
MODEL 5
REMARK VINA RESULT:    -5.316      4.205      6.544
REMARK INTER + INTRA:          -6.674
REMARK INTER:                  -6.905
REMARK INTRA:                   0.230
REMARK UNBOUND:                -0.270
REMARK SMILES O=c1c(O)c(-c2ccc(O)c(O)c2)oc2cc(O)cc(O)c12
REMARK SMILES IDX 5 1 3 2 2 3 1 4 22 5 20 6 19 7 17 8 16 9 15 10 14 11 6 12
REMARK SMILES IDX 7 13 8 14 9 15 13 16 11 17 10 18 12 20 4 22 21 24 18 26
REMARK H PARENT 10 19 12 21 4 23 21 25 18 27
REMARK Flexibility Score: inf
ROOT
ATOM      1  C   UNL     1      25.412  39.394  34.279  1.00  0.00     0.180 A 
ATOM      2  C   UNL     1      25.908  39.310  32.967  1.00  0.00     0.208 A 
ATOM      3  C   UNL     1      25.222  39.975  31.937  1.00  0.00     0.238 A 
ATOM      4  O   UNL     1      25.713  39.958  30.778  1.00  0.00    -0.285 OA
ATOM      5  C   UNL     1      24.021  40.668  32.221  1.00  0.00     0.111 A 
ATOM      6  C   UNL     1      23.221  41.340  31.248  1.00  0.00     0.134 A 
ATOM      7  C   UNL     1      22.108  42.083  31.663  1.00  0.00     0.093 A 
ATOM      8  C   UNL     1      21.731  42.125  33.008  1.00  0.00     0.123 A 
ATOM      9  C   UNL     1      22.473  41.429  33.957  1.00  0.00     0.094 A 
ATOM     10  C   UNL     1      23.610  40.710  33.580  1.00  0.00     0.146 A 
ATOM     11  O   UNL     1      24.301  40.078  34.522  1.00  0.00    -0.452 OA
ENDROOT
BRANCH   1  12
ATOM     12  C   UNL     1      26.086  38.732  35.420  1.00  0.00     0.025 A 
ATOM     13  C   UNL     1      25.352  38.113  36.444  1.00  0.00     0.016 A 
ATOM     14  C   UNL     1      26.010  37.474  37.497  1.00  0.00     0.051 A 
ATOM     15  C   UNL     1      27.408  37.428  37.542  1.00  0.00     0.157 A 
ATOM     16  C   UNL     1      27.488  38.668  35.452  1.00  0.00     0.062 A 
ATOM     17  C   UNL     1      28.157  38.030  36.503  1.00  0.00     0.158 A 
BRANCH  15  18
ATOM     18  O   UNL     1      28.004  36.777  38.624  1.00  0.00    -0.504 OA
ATOM     19  H   UNL     1      27.843  35.808  38.858  1.00  0.00     0.293 HD
ENDBRANCH  15  18
BRANCH  17  20
ATOM     20  O   UNL     1      29.553  38.016  36.476  1.00  0.00    -0.504 OA
ATOM     21  H   UNL     1      30.135  38.644  37.012  1.00  0.00     0.293 HD
ENDBRANCH  17  20
ENDBRANCH   1  12
BRANCH   2  22
ATOM     22  O   UNL     1      27.053  38.557  32.693  1.00  0.00    -0.502 OA
ATOM     23  H   UNL     1      27.263  37.692  33.175  1.00  0.00     0.293 HD
ENDBRANCH   2  22
BRANCH   6  24
ATOM     24  O   UNL     1      23.456  41.290  29.871  1.00  0.00    -0.507 OA
ATOM     25  H   UNL     1      23.370  42.073  29.242  1.00  0.00     0.293 HD
ENDBRANCH   6  24
BRANCH   8  26
ATOM     26  O   UNL     1      20.612  42.853  33.409  1.00  0.00    -0.508 OA
ATOM     27  H   UNL     1      19.799  42.398  33.807  1.00  0.00     0.293 HD
ENDBRANCH   8  26
TORSDOF 6
ENDMDL
MODEL 6
REMARK VINA RESULT:    -5.294      4.839      8.343
REMARK INTER + INTRA:          -6.648
REMARK INTER:                  -6.380
REMARK INTRA:                  -0.268
REMARK UNBOUND:                -0.270
REMARK SMILES O=c1c(O)c(-c2ccc(O)c(O)c2)oc2cc(O)cc(O)c12
REMARK SMILES IDX 5 1 3 2 2 3 1 4 22 5 20 6 19 7 17 8 16 9 15 10 14 11 6 12
REMARK SMILES IDX 7 13 8 14 9 15 13 16 11 17 10 18 12 20 4 22 21 24 18 26
REMARK H PARENT 10 19 12 21 4 23 21 25 18 27
REMARK Flexibility Score: inf
ROOT
ATOM      1  C   UNL     1      26.067  37.702  36.233  1.00  0.00     0.180 A 
ATOM      2  C   UNL     1      26.575  36.706  35.381  1.00  0.00     0.208 A 
ATOM      3  C   UNL     1      26.662  36.969  34.004  1.00  0.00     0.238 A 
ATOM      4  O   UNL     1      27.188  36.103  33.257  1.00  0.00    -0.285 OA
ATOM      5  C   UNL     1      26.187  38.199  33.488  1.00  0.00     0.111 A 
ATOM      6  C   UNL     1      26.184  38.553  32.105  1.00  0.00     0.134 A 
ATOM      7  C   UNL     1      25.788  39.842  31.723  1.00  0.00     0.093 A 
ATOM      8  C   UNL     1      25.334  40.765  32.668  1.00  0.00     0.123 A 
ATOM      9  C   UNL     1      25.281  40.411  34.012  1.00  0.00     0.094 A 
ATOM     10  C   UNL     1      25.706  39.147  34.430  1.00  0.00     0.146 A 
ATOM     11  O   UNL     1      25.659  38.859  35.725  1.00  0.00    -0.452 OA
ENDROOT
BRANCH   1  12
ATOM     12  C   UNL     1      25.957  37.506  37.697  1.00  0.00     0.025 A 
ATOM     13  C   UNL     1      24.728  37.207  38.304  1.00  0.00     0.016 A 
ATOM     14  C   UNL     1      24.653  37.003  39.684  1.00  0.00     0.051 A 
ATOM     15  C   UNL     1      25.802  37.078  40.480  1.00  0.00     0.157 A 
ATOM     16  C   UNL     1      27.114  37.560  38.490  1.00  0.00     0.062 A 
ATOM     17  C   UNL     1      27.050  37.357  39.874  1.00  0.00     0.158 A 
BRANCH  15  18
ATOM     18  O   UNL     1      25.659  36.867  41.853  1.00  0.00    -0.504 OA
ATOM     19  H   UNL     1      25.554  35.957  42.276  1.00  0.00     0.293 HD
ENDBRANCH  15  18
BRANCH  17  20
ATOM     20  O   UNL     1      28.239  37.438  40.601  1.00  0.00    -0.504 OA
ATOM     21  H   UNL     1      28.713  36.641  41.001  1.00  0.00     0.293 HD
ENDBRANCH  17  20
ENDBRANCH   1  12
BRANCH   2  22
ATOM     22  O   UNL     1      26.969  35.470  35.899  1.00  0.00    -0.502 OA
ATOM     23  H   UNL     1      27.725  34.928  35.499  1.00  0.00     0.293 HD
ENDBRANCH   2  22
BRANCH   6  24
ATOM     24  O   UNL     1      26.533  37.679  31.072  1.00  0.00    -0.507 OA
ATOM     25  H   UNL     1      27.123  37.915  30.289  1.00  0.00     0.293 HD
ENDBRANCH   6  24
BRANCH   8  26
ATOM     26  O   UNL     1      24.925  42.039  32.276  1.00  0.00    -0.508 OA
ATOM     27  H   UNL     1      25.506  42.626  31.690  1.00  0.00     0.293 HD
ENDBRANCH   8  26
TORSDOF 6
ENDMDL
MODEL 7
REMARK VINA RESULT:    -5.277      3.683      6.331
REMARK INTER + INTRA:          -6.627
REMARK INTER:                  -6.583
REMARK INTRA:                  -0.044
REMARK UNBOUND:                -0.270
REMARK SMILES O=c1c(O)c(-c2ccc(O)c(O)c2)oc2cc(O)cc(O)c12
REMARK SMILES IDX 5 1 3 2 2 3 1 4 22 5 20 6 19 7 17 8 16 9 15 10 14 11 6 12
REMARK SMILES IDX 7 13 8 14 9 15 13 16 11 17 10 18 12 20 4 22 21 24 18 26
REMARK H PARENT 10 19 12 21 4 23 21 25 18 27
REMARK Flexibility Score: inf
ROOT
ATOM      1  C   UNL     1      26.141  38.758  32.838  1.00  0.00     0.180 A 
ATOM      2  C   UNL     1      26.794  37.702  32.180  1.00  0.00     0.208 A 
ATOM      3  C   UNL     1      27.537  36.784  32.940  1.00  0.00     0.238 A 
ATOM      4  O   UNL     1      28.056  35.798  32.355  1.00  0.00    -0.285 OA
ATOM      5  C   UNL     1      27.664  36.963  34.339  1.00  0.00     0.111 A 
ATOM      6  C   UNL     1      28.428  36.119  35.200  1.00  0.00     0.134 A 
ATOM      7  C   UNL     1      28.394  36.333  36.584  1.00  0.00     0.093 A 
ATOM      8  C   UNL     1      27.675  37.398  37.131  1.00  0.00     0.123 A 
ATOM      9  C   UNL     1      26.971  38.260  36.295  1.00  0.00     0.094 A 
ATOM     10  C   UNL     1      26.954  38.050  34.913  1.00  0.00     0.146 A 
ATOM     11  O   UNL     1      26.251  38.884  34.155  1.00  0.00    -0.452 OA
ENDROOT
BRANCH   1  12
ATOM     12  C   UNL     1      25.328  39.759  32.109  1.00  0.00     0.025 A 
ATOM     13  C   UNL     1      25.858  40.486  31.032  1.00  0.00     0.016 A 
ATOM     14  C   UNL     1      25.065  41.407  30.344  1.00  0.00     0.051 A 
ATOM     15  C   UNL     1      23.728  41.609  30.706  1.00  0.00     0.157 A 
ATOM     16  C   UNL     1      23.982  39.944  32.460  1.00  0.00     0.062 A 
ATOM     17  C   UNL     1      23.178  40.865  31.776  1.00  0.00     0.158 A 
BRANCH  15  18
ATOM     18  O   UNL     1      22.991  42.547  29.980  1.00  0.00    -0.504 OA
ATOM     19  H   UNL     1      22.140  42.332  29.481  1.00  0.00     0.293 HD
ENDBRANCH  15  18
BRANCH  17  20
ATOM     20  O   UNL     1      21.852  41.006  32.188  1.00  0.00    -0.504 OA
ATOM     21  H   UNL     1      21.271  40.238  32.495  1.00  0.00     0.293 HD
ENDBRANCH  17  20
ENDBRANCH   1  12
BRANCH   2  22
ATOM     22  O   UNL     1      26.719  37.585  30.790  1.00  0.00    -0.502 OA
ATOM     23  H   UNL     1      25.857  37.727  30.278  1.00  0.00     0.293 HD
ENDBRANCH   2  22
BRANCH   6  24
ATOM     24  O   UNL     1      29.252  35.082  34.752  1.00  0.00    -0.507 OA
ATOM     25  H   UNL     1      29.065  34.503  33.948  1.00  0.00     0.293 HD
ENDBRANCH   6  24
BRANCH   8  26
ATOM     26  O   UNL     1      27.661  37.614  38.508  1.00  0.00    -0.508 OA
ATOM     27  H   UNL     1      27.174  38.403  38.916  1.00  0.00     0.293 HD
ENDBRANCH   8  26
TORSDOF 6
ENDMDL
MODEL 8
REMARK VINA RESULT:    -5.209      4.363      5.083
REMARK INTER + INTRA:          -6.544
REMARK INTER:                  -6.388
REMARK INTRA:                  -0.156
REMARK UNBOUND:                -0.270
REMARK SMILES O=c1c(O)c(-c2ccc(O)c(O)c2)oc2cc(O)cc(O)c12
REMARK SMILES IDX 5 1 3 2 2 3 1 4 22 5 20 6 19 7 17 8 16 9 15 10 14 11 6 12
REMARK SMILES IDX 7 13 8 14 9 15 13 16 11 17 10 18 12 20 4 22 21 24 18 26
REMARK H PARENT 10 19 12 21 4 23 21 25 18 27
REMARK Flexibility Score: inf
ROOT
ATOM      1  C   UNL     1      26.395  38.896  33.861  1.00  0.00     0.180 A 
ATOM      2  C   UNL     1      25.499  39.137  34.916  1.00  0.00     0.208 A 
ATOM      3  C   UNL     1      24.334  39.879  34.662  1.00  0.00     0.238 A 
ATOM      4  O   UNL     1      23.499  40.026  35.592  1.00  0.00    -0.285 OA
ATOM      5  C   UNL     1      24.107  40.418  33.373  1.00  0.00     0.111 A 
ATOM      6  C   UNL     1      22.983  41.223  33.016  1.00  0.00     0.134 A 
ATOM      7  C   UNL     1      22.810  41.613  31.681  1.00  0.00     0.093 A 
ATOM      8  C   UNL     1      23.752  41.281  30.705  1.00  0.00     0.123 A 
ATOM      9  C   UNL     1      24.880  40.544  31.055  1.00  0.00     0.094 A 
ATOM     10  C   UNL     1      25.062  40.107  32.370  1.00  0.00     0.146 A 
ATOM     11  O   UNL     1      26.141  39.387  32.654  1.00  0.00    -0.452 OA
ENDROOT
BRANCH   1  12
ATOM     12  C   UNL     1      27.638  38.110  34.046  1.00  0.00     0.025 A 
ATOM     13  C   UNL     1      28.661  38.551  34.899  1.00  0.00     0.016 A 
ATOM     14  C   UNL     1      29.813  37.782  35.076  1.00  0.00     0.051 A 
ATOM     15  C   UNL     1      29.960  36.555  34.419  1.00  0.00     0.157 A 
ATOM     16  C   UNL     1      27.773  36.871  33.403  1.00  0.00     0.062 A 
ATOM     17  C   UNL     1      28.925  36.092  33.573  1.00  0.00     0.158 A 
BRANCH  15  18
ATOM     18  O   UNL     1      31.138  35.837  34.636  1.00  0.00    -0.504 OA
ATOM     19  H   UNL     1      31.993  35.985  34.120  1.00  0.00     0.293 HD
ENDBRANCH  15  18
BRANCH  17  20
ATOM     20  O   UNL     1      28.996  34.875  32.892  1.00  0.00    -0.504 OA
ATOM     21  H   UNL     1      29.263  34.786  31.922  1.00  0.00     0.293 HD
ENDBRANCH  17  20
ENDBRANCH   1  12
BRANCH   2  22
ATOM     22  O   UNL     1      25.778  38.660  36.200  1.00  0.00    -0.502 OA
ATOM     23  H   UNL     1      25.380  37.800  36.559  1.00  0.00     0.293 HD
ENDBRANCH   2  22
BRANCH   6  24
ATOM     24  O   UNL     1      22.029  41.686  33.927  1.00  0.00    -0.507 OA
ATOM     25  H   UNL     1      22.238  42.078  34.832  1.00  0.00     0.293 HD
ENDBRANCH   6  24
BRANCH   8  26
ATOM     26  O   UNL     1      23.581  41.688  29.384  1.00  0.00    -0.508 OA
ATOM     27  H   UNL     1      22.852  41.297  28.799  1.00  0.00     0.293 HD
ENDBRANCH   8  26
TORSDOF 6
ENDMDL
MODEL 9
REMARK VINA RESULT:    -5.138     11.730     13.651
REMARK INTER + INTRA:          -6.459
REMARK INTER:                  -6.141
REMARK INTRA:                  -0.318
REMARK UNBOUND:                -0.270
REMARK SMILES O=c1c(O)c(-c2ccc(O)c(O)c2)oc2cc(O)cc(O)c12
REMARK SMILES IDX 5 1 3 2 2 3 1 4 22 5 20 6 19 7 17 8 16 9 15 10 14 11 6 12
REMARK SMILES IDX 7 13 8 14 9 15 13 16 11 17 10 18 12 20 4 22 21 24 18 26
REMARK H PARENT 10 19 12 21 4 23 21 25 18 27
REMARK Flexibility Score: inf
ROOT
ATOM      1  C   UNL     1      19.791  48.942  29.010  1.00  0.00     0.180 A 
ATOM      2  C   UNL     1      20.882  49.554  28.369  1.00  0.00     0.208 A 
ATOM      3  C   UNL     1      21.287  49.076  27.112  1.00  0.00     0.238 A 
ATOM      4  O   UNL     1      22.214  49.676  26.509  1.00  0.00    -0.285 OA
ATOM      5  C   UNL     1      20.635  47.958  26.538  1.00  0.00     0.111 A 
ATOM      6  C   UNL     1      20.991  47.361  25.291  1.00  0.00     0.134 A 
ATOM      7  C   UNL     1      20.206  46.323  24.772  1.00  0.00     0.093 A 
ATOM      8  C   UNL     1      19.117  45.819  25.486  1.00  0.00     0.123 A 
ATOM      9  C   UNL     1      18.794  46.357  26.729  1.00  0.00     0.094 A 
ATOM     10  C   UNL     1      19.535  47.418  27.255  1.00  0.00     0.146 A 
ATOM     11  O   UNL     1      19.179  47.915  28.434  1.00  0.00    -0.452 OA
ENDROOT
BRANCH   1  12
ATOM     12  C   UNL     1      19.296  49.398  30.330  1.00  0.00     0.025 A 
ATOM     13  C   UNL     1      18.203  50.272  30.439  1.00  0.00     0.016 A 
ATOM     14  C   UNL     1      17.739  50.668  31.694  1.00  0.00     0.051 A 
ATOM     15  C   UNL     1      18.345  50.192  32.863  1.00  0.00     0.157 A 
ATOM     16  C   UNL     1      19.891  48.901  31.500  1.00  0.00     0.062 A 
ATOM     17  C   UNL     1      19.434  49.293  32.764  1.00  0.00     0.158 A 
BRANCH  15  18
ATOM     18  O   UNL     1      17.835  50.630  34.087  1.00  0.00    -0.504 OA
ATOM     19  H   UNL     1      17.398  50.025  34.766  1.00  0.00     0.293 HD
ENDBRANCH  15  18
BRANCH  17  20
ATOM     20  O   UNL     1      20.082  48.769  33.884  1.00  0.00    -0.504 OA
ATOM     21  H   UNL     1      19.958  49.119  34.824  1.00  0.00     0.293 HD
ENDBRANCH  17  20
ENDBRANCH   1  12
BRANCH   2  22
ATOM     22  O   UNL     1      21.561  50.608  28.985  1.00  0.00    -0.502 OA
ATOM     23  H   UNL     1      21.108  51.483  29.220  1.00  0.00     0.293 HD
ENDBRANCH   2  22
BRANCH   6  24
ATOM     24  O   UNL     1      22.111  47.728  24.539  1.00  0.00    -0.507 OA
ATOM     25  H   UNL     1      23.038  47.348  24.660  1.00  0.00     0.293 HD
ENDBRANCH   6  24
BRANCH   8  26
ATOM     26  O   UNL     1      18.351  44.774  24.971  1.00  0.00    -0.508 OA
ATOM     27  H   UNL     1      18.349  43.857  25.400  1.00  0.00     0.293 HD
ENDBRANCH   8  26
TORSDOF 6
ENDMDL
