MODEL 1
REMARK VINA RESULT:    27.037      0.000      0.000
REMARK INTER + INTRA:          41.230
REMARK INTER:                  40.472
REMARK INTRA:                   0.758
REMARK UNBOUND:                 0.758
REMARK SMILES C=C(CC[C@@H](C(=O)[O-])[C@@H]1[C@@H](O)C[C@@]2(C)C3=C(CC[C@@]12C)[C@@]1(C)CC[C@@H](OC(C)=O)C(C)(C)[C@H]1CC3)C(C)C
REMARK SMILES IDX 4 1 5 2 6 3 7 4 8 5 9 6 10 7 19 8 12 9 13 10 18 11 20 12
REMARK SMILES IDX 14 13 15 14 17 15 16 16 35 17 21 18 34 19 33 20 23 21 22 22
REMARK SMILES IDX 30 23 24 24 25 25 31 26 32 27 11 28 26 30 27 31 29 32 28 33
REMARK SMILES IDX 3 34 2 35 1 36 36 37 37 38 38 39
REMARK H PARENT 11 29
REMARK Flexibility Score: inf
ROOT
ATOM      1  C   UNL     1      17.455 -30.849  13.257  1.00  0.00     0.014 C 
ENDROOT
BRANCH   1   2
ATOM      2  C   UNL     1      16.422 -31.881  13.788  1.00  0.00     0.042 C 
BRANCH   2   3
ATOM      3  C   UNL     1      16.762 -32.338  15.193  1.00  0.00     0.045 C 
ATOM      4  O   UNL     1      17.471 -33.364  15.368  1.00  0.00    -0.550 OA
ATOM      5  O   UNL     1      16.350 -31.612  16.304  1.00  0.00    -0.550 OA
ENDBRANCH   2   3
BRANCH   2   6
ATOM      6  C   UNL     1      14.910 -31.485  13.545  1.00  0.00     0.033 C 
ATOM      7  C   UNL     1      14.505 -30.067  14.002  1.00  0.00     0.119 C 
ATOM      8  C   UNL     1      13.781 -32.459  14.106  1.00  0.00    -0.017 C 
ATOM      9  C   UNL     1      13.011 -30.149  14.272  1.00  0.00     0.043 C 
ATOM     10  C   UNL     1      12.775 -31.532  14.898  1.00  0.00    -0.003 C 
ATOM     11  C   UNL     1      13.042 -33.081  12.895  1.00  0.00     0.012 C 
ATOM     12  C   UNL     1      14.320 -33.633  14.988  1.00  0.00     0.013 C 
ATOM     13  C   UNL     1      13.134 -31.454  16.415  1.00  0.00     0.017 C 
ATOM     14  C   UNL     1      11.275 -31.912  14.768  1.00  0.00    -0.064 C 
ATOM     15  C   UNL     1      11.815 -33.873  13.323  1.00  0.00     0.032 C 
ATOM     16  C   UNL     1      10.828 -33.028  14.122  1.00  0.00    -0.064 C 
ATOM     17  C   UNL     1      10.256 -30.958  15.335  1.00  0.00     0.032 C 
ATOM     18  C   UNL     1       9.373 -33.584  14.314  1.00  0.00    -0.008 C 
ATOM     19  C   UNL     1       9.178 -31.717  16.077  1.00  0.00     0.009 C 
ATOM     20  C   UNL     1       8.382 -32.591  15.082  1.00  0.00     0.009 C 
ATOM     21  C   UNL     1       9.533 -34.907  15.115  1.00  0.00     0.015 C 
ATOM     22  C   UNL     1       8.809 -33.874  12.895  1.00  0.00     0.016 C 
ATOM     23  C   UNL     1       7.080 -33.256  15.748  1.00  0.00     0.005 C 
ATOM     24  C   UNL     1       8.217 -35.544  15.548  1.00  0.00     0.047 C 
ATOM     25  C   UNL     1       7.415 -34.608  16.453  1.00  0.00     0.182 C 
ATOM     26  C   UNL     1       6.419 -32.308  16.793  1.00  0.00     0.015 C 
ATOM     27  C   UNL     1       5.960 -33.495  14.688  1.00  0.00     0.015 C 
BRANCH   7  28
ATOM     28  O   UNL     1      14.764 -29.108  13.013  1.00  0.00    -0.393 OA
ATOM     29  H   UNL     1      15.751 -29.062  12.911  1.00  0.00     0.210 HD
ENDBRANCH   7  28
BRANCH  25  30
ATOM     30  O   UNL     1       8.165 -34.394  17.657  1.00  0.00    -0.462 OA
BRANCH  30  31
ATOM     31  C   UNL     1       7.707 -34.719  18.940  1.00  0.00     0.302 C 
ATOM     32  O   UNL     1       7.823 -35.889  19.396  1.00  0.00    -0.253 OA
ATOM     33  C   UNL     1       7.018 -33.677  19.752  1.00  0.00     0.139 C 
ENDBRANCH  30  31
ENDBRANCH  25  30
ENDBRANCH   2   6
ENDBRANCH   1   2
BRANCH   1  34
ATOM     34  C   UNL     1      18.911 -31.331  13.149  1.00  0.00     0.031 C 
BRANCH  34  35
ATOM     35  C   UNL     1      19.750 -30.772  14.284  1.00  0.00    -0.075 C 
ATOM     36  C   UNL     1      20.129 -31.591  15.280  1.00  0.00     0.008 C 
BRANCH  35  37
ATOM     37  C   UNL     1      20.195 -29.314  14.290  1.00  0.00     0.008 C 
ATOM     38  C   UNL     1      21.574 -29.160  14.944  1.00  0.00     0.012 C 
ATOM     39  C   UNL     1      20.185 -28.725  12.875  1.00  0.00     0.012 C 
ENDBRANCH  35  37
ENDBRANCH  34  35
ENDBRANCH   1  34
TORSDOF 9
ENDMDL
