MODEL 1
REMARK VINA RESULT:    -4.823      0.000      0.000
REMARK INTER + INTRA:          -7.447
REMARK INTER:                  -7.078
REMARK INTRA:                  -0.369
REMARK UNBOUND:                -0.369
REMARK SMILES O=C([O-])CCCCCCCC(=O)[O-]
REMARK SMILES IDX 7 1 6 2 5 3 4 4 2 5 1 6 3 7 8 8 9 9 10 10 11 11 12 12 13 13
REMARK H PARENT
REMARK Flexibility Score: inf
ROOT
ATOM      1  C   UNL     1      27.523  36.463  33.467  1.00  0.00     0.000 C 
ENDROOT
BRANCH   1   2
ATOM      2  C   UNL     1      26.999  36.424  32.019  1.00  0.00     0.000 C 
BRANCH   2   3
ATOM      3  C   UNL     1      28.055  36.062  30.961  1.00  0.00     0.006 C 
BRANCH   3   4
ATOM      4  C   UNL     1      28.848  34.799  31.321  1.00  0.00     0.053 C 
BRANCH   4   5
ATOM      5  C   UNL     1      27.943  33.609  31.355  1.00  0.00     0.041 C 
ATOM      6  O   UNL     1      27.933  32.850  32.361  1.00  0.00    -0.550 OA
ATOM      7  O   UNL     1      27.146  33.307  30.257  1.00  0.00    -0.550 OA
ENDBRANCH   4   5
ENDBRANCH   3   4
ENDBRANCH   2   3
ENDBRANCH   1   2
BRANCH   1   8
ATOM      8  C   UNL     1      27.309  37.822  34.168  1.00  0.00     0.000 C 
BRANCH   8   9
ATOM      9  C   UNL     1      27.861  38.997  33.342  1.00  0.00     0.006 C 
BRANCH   9  10
ATOM     10  C   UNL     1      27.494  40.356  33.952  1.00  0.00     0.053 C 
BRANCH  10  11
ATOM     11  C   UNL     1      27.717  41.476  32.982  1.00  0.00     0.041 C 
ATOM     12  O   UNL     1      27.896  41.230  31.760  1.00  0.00    -0.550 OA
ATOM     13  O   UNL     1      27.694  42.793  33.422  1.00  0.00    -0.550 OA
ENDBRANCH  10  11
ENDBRANCH   9  10
ENDBRANCH   8   9
ENDBRANCH   1   8
TORSDOF 8
ENDMDL
MODEL 2
REMARK VINA RESULT:    -4.790      3.345      7.806
REMARK INTER + INTRA:          -7.400
REMARK INTER:                  -7.086
REMARK INTRA:                  -0.314
REMARK UNBOUND:                -0.369
REMARK SMILES O=C([O-])CCCCCCCC(=O)[O-]
REMARK SMILES IDX 7 1 6 2 5 3 4 4 2 5 1 6 3 7 8 8 9 9 10 10 11 11 12 12 13 13
REMARK H PARENT
REMARK Flexibility Score: inf
ROOT
ATOM      1  C   UNL     1      27.108  41.507  33.987  1.00  0.00     0.000 C 
ENDROOT
BRANCH   1   2
ATOM      2  C   UNL     1      27.619  42.733  34.768  1.00  0.00     0.000 C 
BRANCH   2   3
ATOM      3  C   UNL     1      26.540  43.489  35.561  1.00  0.00     0.006 C 
BRANCH   3   4
ATOM      4  C   UNL     1      25.201  42.743  35.601  1.00  0.00     0.053 C 
BRANCH   4   5
ATOM      5  C   UNL     1      24.071  43.709  35.768  1.00  0.00     0.041 C 
ATOM      6  O   UNL     1      24.062  44.509  36.741  1.00  0.00    -0.550 OA
ATOM      7  O   UNL     1      23.004  43.694  34.878  1.00  0.00    -0.550 OA
ENDBRANCH   4   5
ENDBRANCH   3   4
ENDBRANCH   2   3
ENDBRANCH   1   2
BRANCH   1   8
ATOM      8  C   UNL     1      27.780  41.322  32.610  1.00  0.00     0.000 C 
BRANCH   8   9
ATOM      9  C   UNL     1      27.999  39.839  32.264  1.00  0.00     0.006 C 
BRANCH   9  10
ATOM     10  C   UNL     1      27.518  38.906  33.383  1.00  0.00     0.053 C 
BRANCH  10  11
ATOM     11  C   UNL     1      27.482  37.477  32.934  1.00  0.00     0.041 C 
ATOM     12  O   UNL     1      27.496  37.197  31.707  1.00  0.00    -0.550 OA
ATOM     13  O   UNL     1      27.464  36.453  33.872  1.00  0.00    -0.550 OA
ENDBRANCH  10  11
ENDBRANCH   9  10
ENDBRANCH   8   9
ENDBRANCH   1   8
TORSDOF 8
ENDMDL
MODEL 3
REMARK VINA RESULT:    -4.715      1.067      6.783
REMARK INTER + INTRA:          -7.289
REMARK INTER:                  -6.953
REMARK INTRA:                  -0.337
REMARK UNBOUND:                -0.369
REMARK SMILES O=C([O-])CCCCCCCC(=O)[O-]
REMARK SMILES IDX 7 1 6 2 5 3 4 4 2 5 1 6 3 7 8 8 9 9 10 10 11 11 12 12 13 13
REMARK H PARENT
REMARK Flexibility Score: inf
ROOT
ATOM      1  C   UNL     1      27.551  37.498  31.975  1.00  0.00     0.000 C 
ENDROOT
BRANCH   1   2
ATOM      2  C   UNL     1      27.433  37.881  33.464  1.00  0.00     0.000 C 
BRANCH   2   3
ATOM      3  C   UNL     1      28.155  39.181  33.855  1.00  0.00     0.006 C 
BRANCH   3   4
ATOM      4  C   UNL     1      27.208  40.384  33.940  1.00  0.00     0.053 C 
BRANCH   4   5
ATOM      5  C   UNL     1      27.644  41.458  32.994  1.00  0.00     0.041 C 
ATOM      6  O   UNL     1      27.892  41.179  31.791  1.00  0.00    -0.550 OA
ATOM      7  O   UNL     1      27.825  42.757  33.452  1.00  0.00    -0.550 OA
ENDBRANCH   4   5
ENDBRANCH   3   4
ENDBRANCH   2   3
ENDBRANCH   1   2
BRANCH   1   8
ATOM      8  C   UNL     1      26.923  36.131  31.634  1.00  0.00     0.000 C 
BRANCH   8   9
ATOM      9  C   UNL     1      27.632  35.443  30.454  1.00  0.00     0.006 C 
BRANCH   9  10
ATOM     10  C   UNL     1      27.813  33.937  30.684  1.00  0.00     0.053 C 
BRANCH  10  11
ATOM     11  C   UNL     1      28.501  33.654  31.984  1.00  0.00     0.041 C 
ATOM     12  O   UNL     1      29.621  34.172  32.234  1.00  0.00    -0.550 OA
ATOM     13  O   UNL     1      27.891  32.845  32.933  1.00  0.00    -0.550 OA
ENDBRANCH  10  11
ENDBRANCH   9  10
ENDBRANCH   8   9
ENDBRANCH   1   8
TORSDOF 8
ENDMDL
MODEL 4
REMARK VINA RESULT:    -4.712      1.892      7.015
REMARK INTER + INTRA:          -7.285
REMARK INTER:                  -6.883
REMARK INTRA:                  -0.402
REMARK UNBOUND:                -0.369
REMARK SMILES O=C([O-])CCCCCCCC(=O)[O-]
REMARK SMILES IDX 7 1 6 2 5 3 4 4 2 5 1 6 3 7 8 8 9 9 10 10 11 11 12 12 13 13
REMARK H PARENT
REMARK Flexibility Score: inf
ROOT
ATOM      1  C   UNL     1      27.972  39.461  33.900  1.00  0.00     0.000 C 
ENDROOT
BRANCH   1   2
ATOM      2  C   UNL     1      27.896  40.388  32.671  1.00  0.00     0.000 C 
BRANCH   2   3
ATOM      3  C   UNL     1      27.619  41.866  32.995  1.00  0.00     0.006 C 
BRANCH   3   4
ATOM      4  C   UNL     1      27.870  42.208  34.469  1.00  0.00     0.053 C 
BRANCH   4   5
ATOM      5  C   UNL     1      26.600  42.647  35.125  1.00  0.00     0.041 C 
ATOM      6  O   UNL     1      25.557  41.951  35.013  1.00  0.00    -0.550 OA
ATOM      7  O   UNL     1      26.555  43.850  35.819  1.00  0.00    -0.550 OA
ENDBRANCH   4   5
ENDBRANCH   3   4
ENDBRANCH   2   3
ENDBRANCH   1   2
BRANCH   1   8
ATOM      8  C   UNL     1      27.482  38.023  33.623  1.00  0.00     0.000 C 
BRANCH   8   9
ATOM      9  C   UNL     1      27.506  37.678  32.124  1.00  0.00     0.006 C 
BRANCH   9  10
ATOM     10  C   UNL     1      26.965  36.269  31.845  1.00  0.00     0.053 C 
BRANCH  10  11
ATOM     11  C   UNL     1      27.989  35.216  32.135  1.00  0.00     0.041 C 
ATOM     12  O   UNL     1      28.911  34.983  31.309  1.00  0.00    -0.550 OA
ATOM     13  O   UNL     1      27.945  34.513  33.332  1.00  0.00    -0.550 OA
ENDBRANCH  10  11
ENDBRANCH   9  10
ENDBRANCH   8   9
ENDBRANCH   1   8
TORSDOF 8
ENDMDL
MODEL 5
REMARK VINA RESULT:    -4.685      1.703      6.648
REMARK INTER + INTRA:          -7.244
REMARK INTER:                  -6.841
REMARK INTRA:                  -0.404
REMARK UNBOUND:                -0.369
REMARK SMILES O=C([O-])CCCCCCCC(=O)[O-]
REMARK SMILES IDX 7 1 6 2 5 3 4 4 2 5 1 6 3 7 8 8 9 9 10 10 11 11 12 12 13 13
REMARK H PARENT
REMARK Flexibility Score: inf
ROOT
ATOM      1  C   UNL     1      27.513  36.369  32.966  1.00  0.00     0.000 C 
ENDROOT
BRANCH   1   2
ATOM      2  C   UNL     1      27.154  37.593  32.101  1.00  0.00     0.000 C 
BRANCH   2   3
ATOM      3  C   UNL     1      27.941  38.871  32.434  1.00  0.00     0.006 C 
BRANCH   3   4
ATOM      4  C   UNL     1      27.386  39.607  33.661  1.00  0.00     0.053 C 
BRANCH   4   5
ATOM      5  C   UNL     1      27.603  41.081  33.526  1.00  0.00     0.041 C 
ATOM      6  O   UNL     1      27.576  41.623  32.389  1.00  0.00    -0.550 OA
ATOM      7  O   UNL     1      27.884  41.849  34.649  1.00  0.00    -0.550 OA
ENDBRANCH   4   5
ENDBRANCH   3   4
ENDBRANCH   2   3
ENDBRANCH   1   2
BRANCH   1   8
ATOM      8  C   UNL     1      28.249  35.255  32.190  1.00  0.00     0.000 C 
BRANCH   8   9
ATOM      9  C   UNL     1      27.735  35.115  30.746  1.00  0.00     0.006 C 
BRANCH   9  10
ATOM     10  C   UNL     1      26.903  33.840  30.549  1.00  0.00     0.053 C 
BRANCH  10  11
ATOM     11  C   UNL     1      25.476  34.157  30.221  1.00  0.00     0.041 C 
ATOM     12  O   UNL     1      24.750  33.297  29.656  1.00  0.00    -0.550 OA
ATOM     13  O   UNL     1      24.939  35.389  30.568  1.00  0.00    -0.550 OA
ENDBRANCH  10  11
ENDBRANCH   9  10
ENDBRANCH   8   9
ENDBRANCH   1   8
TORSDOF 8
ENDMDL
MODEL 6
REMARK VINA RESULT:    -4.624      1.679      2.252
REMARK INTER + INTRA:          -7.156
REMARK INTER:                  -6.824
REMARK INTRA:                  -0.332
REMARK UNBOUND:                -0.369
REMARK SMILES O=C([O-])CCCCCCCC(=O)[O-]
REMARK SMILES IDX 7 1 6 2 5 3 4 4 2 5 1 6 3 7 8 8 9 9 10 10 11 11 12 12 13 13
REMARK H PARENT
REMARK Flexibility Score: inf
ROOT
ATOM      1  C   UNL     1      27.525  38.218  33.726  1.00  0.00     0.000 C 
ENDROOT
BRANCH   1   2
ATOM      2  C   UNL     1      27.470  37.991  32.202  1.00  0.00     0.000 C 
BRANCH   2   3
ATOM      3  C   UNL     1      26.975  36.599  31.775  1.00  0.00     0.006 C 
BRANCH   3   4
ATOM      4  C   UNL     1      28.119  35.601  31.563  1.00  0.00     0.053 C 
BRANCH   4   5
ATOM      5  C   UNL     1      27.977  34.440  32.496  1.00  0.00     0.041 C 
ATOM      6  O   UNL     1      27.856  34.635  33.734  1.00  0.00    -0.550 OA
ATOM      7  O   UNL     1      28.030  33.141  32.005  1.00  0.00    -0.550 OA
ENDBRANCH   4   5
ENDBRANCH   3   4
ENDBRANCH   2   3
ENDBRANCH   1   2
BRANCH   1   8
ATOM      8  C   UNL     1      28.075  39.602  34.128  1.00  0.00     0.000 C 
BRANCH   8   9
ATOM      9  C   UNL     1      27.426  40.743  33.324  1.00  0.00     0.006 C 
BRANCH   9  10
ATOM     10  C   UNL     1      27.753  42.123  33.910  1.00  0.00     0.053 C 
BRANCH  10  11
ATOM     11  C   UNL     1      26.748  42.539  34.941  1.00  0.00     0.041 C 
ATOM     12  O   UNL     1      26.972  43.533  35.679  1.00  0.00    -0.550 OA
ATOM     13  O   UNL     1      25.551  41.846  35.064  1.00  0.00    -0.550 OA
ENDBRANCH  10  11
ENDBRANCH   9  10
ENDBRANCH   8   9
ENDBRANCH   1   8
TORSDOF 8
ENDMDL
MODEL 7
REMARK VINA RESULT:    -4.608      4.848      7.367
REMARK INTER + INTRA:          -7.132
REMARK INTER:                  -6.890
REMARK INTRA:                  -0.241
REMARK UNBOUND:                -0.369
REMARK SMILES O=C([O-])CCCCCCCC(=O)[O-]
REMARK SMILES IDX 7 1 6 2 5 3 4 4 2 5 1 6 3 7 8 8 9 9 10 10 11 11 12 12 13 13
REMARK H PARENT
REMARK Flexibility Score: inf
ROOT
ATOM      1  C   UNL     1      25.539  42.770  35.510  1.00  0.00     0.000 C 
ENDROOT
BRANCH   1   2
ATOM      2  C   UNL     1      26.869  43.440  35.111  1.00  0.00     0.000 C 
BRANCH   2   3
ATOM      3  C   UNL     1      27.749  42.611  34.160  1.00  0.00     0.006 C 
BRANCH   3   4
ATOM      4  C   UNL     1      27.342  41.133  34.112  1.00  0.00     0.053 C 
BRANCH   4   5
ATOM      5  C   UNL     1      27.819  40.502  32.842  1.00  0.00     0.041 C 
ATOM      6  O   UNL     1      27.895  41.185  31.786  1.00  0.00    -0.550 OA
ATOM      7  O   UNL     1      28.133  39.149  32.812  1.00  0.00    -0.550 OA
ENDBRANCH   4   5
ENDBRANCH   3   4
ENDBRANCH   2   3
ENDBRANCH   1   2
BRANCH   1   8
ATOM      8  C   UNL     1      24.501  43.751  36.095  1.00  0.00     0.000 C 
BRANCH   8   9
ATOM      9  C   UNL     1      23.233  43.843  35.228  1.00  0.00     0.006 C 
BRANCH   9  10
ATOM     10  C   UNL     1      22.113  44.629  35.922  1.00  0.00     0.053 C 
BRANCH  10  11
ATOM     11  C   UNL     1      21.641  45.777  35.083  1.00  0.00     0.041 C 
ATOM     12  O   UNL     1      20.788  45.591  34.176  1.00  0.00    -0.550 OA
ATOM     13  O   UNL     1      22.120  47.058  35.324  1.00  0.00    -0.550 OA
ENDBRANCH  10  11
ENDBRANCH   9  10
ENDBRANCH   8   9
ENDBRANCH   1   8
TORSDOF 8
ENDMDL
MODEL 8
REMARK VINA RESULT:    -4.592      1.317      1.513
REMARK INTER + INTRA:          -7.109
REMARK INTER:                  -6.696
REMARK INTRA:                  -0.413
REMARK UNBOUND:                -0.369
REMARK SMILES O=C([O-])CCCCCCCC(=O)[O-]
REMARK SMILES IDX 7 1 6 2 5 3 4 4 2 5 1 6 3 7 8 8 9 9 10 10 11 11 12 12 13 13
REMARK H PARENT
REMARK Flexibility Score: inf
ROOT
ATOM      1  C   UNL     1      26.810  37.507  32.096  1.00  0.00     0.000 C 
ENDROOT
BRANCH   1   2
ATOM      2  C   UNL     1      27.888  36.788  31.261  1.00  0.00     0.000 C 
BRANCH   2   3
ATOM      3  C   UNL     1      27.667  35.276  31.086  1.00  0.00     0.006 C 
BRANCH   3   4
ATOM      4  C   UNL     1      28.925  34.453  31.392  1.00  0.00     0.053 C 
BRANCH   4   5
ATOM      5  C   UNL     1      28.883  33.940  32.796  1.00  0.00     0.041 C 
ATOM      6  O   UNL     1      27.964  34.307  33.577  1.00  0.00    -0.550 OA
ATOM      7  O   UNL     1      29.885  33.097  33.260  1.00  0.00    -0.550 OA
ENDBRANCH   4   5
ENDBRANCH   3   4
ENDBRANCH   2   3
ENDBRANCH   1   2
BRANCH   1   8
ATOM      8  C   UNL     1      27.259  37.838  33.535  1.00  0.00     0.000 C 
BRANCH   8   9
ATOM      9  C   UNL     1      28.221  39.038  33.583  1.00  0.00     0.006 C 
BRANCH   9  10
ATOM     10  C   UNL     1      27.505  40.340  33.967  1.00  0.00     0.053 C 
BRANCH  10  11
ATOM     11  C   UNL     1      27.731  41.417  32.951  1.00  0.00     0.041 C 
ATOM     12  O   UNL     1      27.945  41.117  31.747  1.00  0.00    -0.550 OA
ATOM     13  O   UNL     1      27.676  42.752  33.328  1.00  0.00    -0.550 OA
ENDBRANCH  10  11
ENDBRANCH   9  10
ENDBRANCH   8   9
ENDBRANCH   1   8
TORSDOF 8
ENDMDL
MODEL 9
REMARK VINA RESULT:    -4.507      1.807      2.497
REMARK INTER + INTRA:          -6.983
REMARK INTER:                  -6.657
REMARK INTRA:                  -0.327
REMARK UNBOUND:                -0.369
REMARK SMILES O=C([O-])CCCCCCCC(=O)[O-]
REMARK SMILES IDX 7 1 6 2 5 3 4 4 2 5 1 6 3 7 8 8 9 9 10 10 11 11 12 12 13 13
REMARK H PARENT
REMARK Flexibility Score: inf
ROOT
ATOM      1  C   UNL     1      27.141  38.369  34.182  1.00  0.00     0.000 C 
ENDROOT
BRANCH   1   2
ATOM      2  C   UNL     1      27.514  37.117  33.365  1.00  0.00     0.000 C 
BRANCH   2   3
ATOM      3  C   UNL     1      27.448  37.299  31.839  1.00  0.00     0.006 C 
BRANCH   3   4
ATOM      4  C   UNL     1      27.922  36.058  31.071  1.00  0.00     0.053 C 
BRANCH   4   5
ATOM      5  C   UNL     1      26.749  35.258  30.600  1.00  0.00     0.041 C 
ATOM      6  O   UNL     1      25.583  35.725  30.702  1.00  0.00    -0.550 OA
ATOM      7  O   UNL     1      26.937  33.978  30.095  1.00  0.00    -0.550 OA
ENDBRANCH   4   5
ENDBRANCH   3   4
ENDBRANCH   2   3
ENDBRANCH   1   2
BRANCH   1   8
ATOM      8  C   UNL     1      28.153  39.526  34.042  1.00  0.00     0.000 C 
BRANCH   8   9
ATOM      9  C   UNL     1      27.512  40.791  33.444  1.00  0.00     0.006 C 
BRANCH   9  10
ATOM     10  C   UNL     1      27.845  42.048  34.259  1.00  0.00     0.053 C 
BRANCH  10  11
ATOM     11  C   UNL     1      26.657  42.540  35.028  1.00  0.00     0.041 C 
ATOM     12  O   UNL     1      26.719  43.623  35.666  1.00  0.00    -0.550 OA
ATOM     13  O   UNL     1      25.470  41.818  35.012  1.00  0.00    -0.550 OA
ENDBRANCH  10  11
ENDBRANCH   9  10
ENDBRANCH   8   9
ENDBRANCH   1   8
TORSDOF 8
ENDMDL
