MODEL 1
REMARK VINA RESULT:    -5.242      0.000      0.000
REMARK INTER + INTRA:         -10.931
REMARK INTER:                 -10.145
REMARK INTRA:                  -0.786
REMARK UNBOUND:                -0.786
REMARK SMILES CCCCCCCCCCCCCCCCCC(=O)[O-]
REMARK SMILES IDX 10 1 11 2 12 3 13 4 14 5 15 6 16 7 17 8 18 9 19 10 20 11
REMARK SMILES IDX 9 12 8 13 7 14 6 15 5 16 4 17 3 18 2 19 1 20
REMARK H PARENT
REMARK Flexibility Score: inf
ROOT
ATOM      1  C   UNL     1      19.120  10.351  49.776  1.00  0.00     0.000 C 
ENDROOT
BRANCH   1   2
ATOM      2  C   UNL     1      18.836   9.895  51.219  1.00  0.00     0.000 C 
BRANCH   2   3
ATOM      3  C   UNL     1      17.979   8.618  51.287  1.00  0.00     0.000 C 
BRANCH   3   4
ATOM      4  C   UNL     1      17.057   8.461  50.067  1.00  0.00     0.000 C 
BRANCH   4   5
ATOM      5  C   UNL     1      16.385   7.081  50.002  1.00  0.00     0.000 C 
BRANCH   5   6
ATOM      6  C   UNL     1      14.902   7.212  49.621  1.00  0.00     0.000 C 
BRANCH   6   7
ATOM      7  C   UNL     1      14.617   6.778  48.172  1.00  0.00     0.006 C 
BRANCH   7   8
ATOM      8  C   UNL     1      14.637   7.928  47.151  1.00  0.00     0.053 C 
BRANCH   8   9
ATOM      9  C   UNL     1      15.842   7.870  46.262  1.00  0.00     0.041 C 
ATOM     10  O   UNL     1      15.852   8.489  45.166  1.00  0.00    -0.550 OA
ATOM     11  O   UNL     1      16.967   7.158  46.662  1.00  0.00    -0.550 OA
ENDBRANCH   8   9
ENDBRANCH   7   8
ENDBRANCH   6   7
ENDBRANCH   5   6
ENDBRANCH   4   5
ENDBRANCH   3   4
ENDBRANCH   2   3
ENDBRANCH   1   2
BRANCH   1  12
ATOM     12  C   UNL     1      20.601  10.321  49.358  1.00  0.00     0.000 C 
BRANCH  12  13
ATOM     13  C   UNL     1      21.366  11.591  49.763  1.00  0.00    -0.000 C 
BRANCH  13  14
ATOM     14  C   UNL     1      22.380  11.989  48.682  1.00  0.00    -0.000 C 
BRANCH  14  15
ATOM     15  C   UNL     1      22.836  13.454  48.801  1.00  0.00    -0.000 C 
BRANCH  15  16
ATOM     16  C   UNL     1      24.175  13.782  48.107  1.00  0.00    -0.000 C 
BRANCH  16  17
ATOM     17  C   UNL     1      24.637  12.759  47.054  1.00  0.00    -0.000 C 
BRANCH  17  18
ATOM     18  C   UNL     1      25.881  13.223  46.278  1.00  0.00    -0.000 C 
BRANCH  18  19
ATOM     19  C   UNL     1      26.018  14.753  46.246  1.00  0.00    -0.003 C 
ATOM     20  C   UNL     1      27.248  15.254  47.003  1.00  0.00     0.004 C 
ENDBRANCH  18  19
ENDBRANCH  17  18
ENDBRANCH  16  17
ENDBRANCH  15  16
ENDBRANCH  14  15
ENDBRANCH  13  14
ENDBRANCH  12  13
ENDBRANCH   1  12
TORSDOF 16
ENDMDL
MODEL 2
REMARK VINA RESULT:    -5.205      4.846     10.422
REMARK INTER + INTRA:         -10.858
REMARK INTER:                  -9.945
REMARK INTRA:                  -0.913
REMARK UNBOUND:                -0.786
REMARK SMILES CCCCCCCCCCCCCCCCCC(=O)[O-]
REMARK SMILES IDX 10 1 11 2 12 3 13 4 14 5 15 6 16 7 17 8 18 9 19 10 20 11
REMARK SMILES IDX 9 12 8 13 7 14 6 15 5 16 4 17 3 18 2 19 1 20
REMARK H PARENT
REMARK Flexibility Score: inf
ROOT
ATOM      1  C   UNL     1      20.650  10.902  49.004  1.00  0.00     0.000 C 
ENDROOT
BRANCH   1   2
ATOM      2  C   UNL     1      21.826  11.516  49.785  1.00  0.00     0.000 C 
BRANCH   2   3
ATOM      3  C   UNL     1      22.682  12.468  48.930  1.00  0.00     0.000 C 
BRANCH   3   4
ATOM      4  C   UNL     1      22.996  13.788  49.653  1.00  0.00     0.000 C 
BRANCH   4   5
ATOM      5  C   UNL     1      24.503  14.063  49.766  1.00  0.00     0.000 C 
BRANCH   5   6
ATOM      6  C   UNL     1      24.905  14.315  51.227  1.00  0.00     0.000 C 
BRANCH   6   7
ATOM      7  C   UNL     1      24.049  13.518  52.229  1.00  0.00     0.006 C 
BRANCH   7   8
ATOM      8  C   UNL     1      24.250  13.925  53.698  1.00  0.00     0.053 C 
BRANCH   8   9
ATOM      9  C   UNL     1      25.602  13.533  54.210  1.00  0.00     0.041 C 
ATOM     10  O   UNL     1      25.935  12.320  54.256  1.00  0.00    -0.550 OA
ATOM     11  O   UNL     1      26.506  14.512  54.605  1.00  0.00    -0.550 OA
ENDBRANCH   8   9
ENDBRANCH   7   8
ENDBRANCH   6   7
ENDBRANCH   5   6
ENDBRANCH   4   5
ENDBRANCH   3   4
ENDBRANCH   2   3
ENDBRANCH   1   2
BRANCH   1  12
ATOM     12  C   UNL     1      19.823   9.859  49.776  1.00  0.00     0.000 C 
BRANCH  12  13
ATOM     13  C   UNL     1      18.386  10.322  50.062  1.00  0.00    -0.000 C 
BRANCH  13  14
ATOM     14  C   UNL     1      17.622   9.271  50.878  1.00  0.00    -0.000 C 
BRANCH  14  15
ATOM     15  C   UNL     1      17.471   7.931  50.136  1.00  0.00    -0.000 C 
BRANCH  15  16
ATOM     16  C   UNL     1      16.024   7.410  50.010  1.00  0.00    -0.000 C 
BRANCH  16  17
ATOM     17  C   UNL     1      15.794   6.373  48.897  1.00  0.00    -0.000 C 
BRANCH  17  18
ATOM     18  C   UNL     1      14.618   6.738  47.976  1.00  0.00    -0.000 C 
BRANCH  18  19
ATOM     19  C   UNL     1      14.854   8.051  47.213  1.00  0.00    -0.003 C 
ATOM     20  C   UNL     1      16.047   7.976  46.260  1.00  0.00     0.004 C 
ENDBRANCH  18  19
ENDBRANCH  17  18
ENDBRANCH  16  17
ENDBRANCH  15  16
ENDBRANCH  14  15
ENDBRANCH  13  14
ENDBRANCH  12  13
ENDBRANCH   1  12
TORSDOF 16
ENDMDL
MODEL 3
REMARK VINA RESULT:    -5.192      2.702      3.539
REMARK INTER + INTRA:         -10.833
REMARK INTER:                 -10.179
REMARK INTRA:                  -0.654
REMARK UNBOUND:                -0.786
REMARK SMILES CCCCCCCCCCCCCCCCCC(=O)[O-]
REMARK SMILES IDX 10 1 11 2 12 3 13 4 14 5 15 6 16 7 17 8 18 9 19 10 20 11
REMARK SMILES IDX 9 12 8 13 7 14 6 15 5 16 4 17 3 18 2 19 1 20
REMARK H PARENT
REMARK Flexibility Score: inf
ROOT
ATOM      1  C   UNL     1      20.638  10.579  49.336  1.00  0.00     0.000 C 
ENDROOT
BRANCH   1   2
ATOM      2  C   UNL     1      19.577  10.291  50.414  1.00  0.00     0.000 C 
BRANCH   2   3
ATOM      3  C   UNL     1      19.369   8.787  50.665  1.00  0.00     0.000 C 
BRANCH   3   4
ATOM      4  C   UNL     1      17.947   8.461  51.148  1.00  0.00     0.000 C 
BRANCH   4   5
ATOM      5  C   UNL     1      16.924   8.415  50.003  1.00  0.00     0.000 C 
BRANCH   5   6
ATOM      6  C   UNL     1      16.149   7.088  50.014  1.00  0.00     0.000 C 
BRANCH   6   7
ATOM      7  C   UNL     1      15.223   6.927  48.795  1.00  0.00     0.006 C 
BRANCH   7   8
ATOM      8  C   UNL     1      15.305   8.079  47.780  1.00  0.00     0.053 C 
BRANCH   8   9
ATOM      9  C   UNL     1      16.181   7.738  46.613  1.00  0.00     0.041 C 
ATOM     10  O   UNL     1      17.088   6.873  46.733  1.00  0.00    -0.550 OA
ATOM     11  O   UNL     1      15.972   8.353  45.385  1.00  0.00    -0.550 OA
ENDBRANCH   8   9
ENDBRANCH   7   8
ENDBRANCH   6   7
ENDBRANCH   5   6
ENDBRANCH   4   5
ENDBRANCH   3   4
ENDBRANCH   2   3
ENDBRANCH   1   2
BRANCH   1  12
ATOM     12  C   UNL     1      21.701  11.623  49.724  1.00  0.00     0.000 C 
BRANCH  12  13
ATOM     13  C   UNL     1      22.200  12.447  48.526  1.00  0.00    -0.000 C 
BRANCH  13  14
ATOM     14  C   UNL     1      22.962  13.693  48.996  1.00  0.00    -0.000 C 
BRANCH  14  15
ATOM     15  C   UNL     1      23.009  13.823  50.529  1.00  0.00    -0.000 C 
BRANCH  15  16
ATOM     16  C   UNL     1      24.374  14.249  51.110  1.00  0.00    -0.000 C 
BRANCH  16  17
ATOM     17  C   UNL     1      24.664  13.752  52.537  1.00  0.00    -0.000 C 
BRANCH  17  18
ATOM     18  C   UNL     1      25.981  14.308  53.105  1.00  0.00    -0.000 C 
BRANCH  18  19
ATOM     19  C   UNL     1      26.880  13.207  53.690  1.00  0.00    -0.003 C 
ATOM     20  C   UNL     1      26.098  12.163  54.486  1.00  0.00     0.004 C 
ENDBRANCH  18  19
ENDBRANCH  17  18
ENDBRANCH  16  17
ENDBRANCH  15  16
ENDBRANCH  14  15
ENDBRANCH  13  14
ENDBRANCH  12  13
ENDBRANCH   1  12
TORSDOF 16
ENDMDL
MODEL 4
REMARK VINA RESULT:    -5.169      3.496      9.496
REMARK INTER + INTRA:         -10.790
REMARK INTER:                  -9.715
REMARK INTRA:                  -1.075
REMARK UNBOUND:                -0.786
REMARK SMILES CCCCCCCCCCCCCCCCCC(=O)[O-]
REMARK SMILES IDX 10 1 11 2 12 3 13 4 14 5 15 6 16 7 17 8 18 9 19 10 20 11
REMARK SMILES IDX 9 12 8 13 7 14 6 15 5 16 4 17 3 18 2 19 1 20
REMARK H PARENT
REMARK Flexibility Score: inf
ROOT
ATOM      1  C   UNL     1      20.622  11.055  49.443  1.00  0.00     0.000 C 
ENDROOT
BRANCH   1   2
ATOM      2  C   UNL     1      22.009  11.624  49.091  1.00  0.00     0.000 C 
BRANCH   2   3
ATOM      3  C   UNL     1      22.322  12.939  49.827  1.00  0.00     0.000 C 
BRANCH   3   4
ATOM      4  C   UNL     1      23.420  13.758  49.128  1.00  0.00     0.000 C 
BRANCH   4   5
ATOM      5  C   UNL     1      23.952  13.079  47.857  1.00  0.00     0.000 C 
BRANCH   5   6
ATOM      6  C   UNL     1      25.161  13.842  47.294  1.00  0.00     0.000 C 
BRANCH   6   7
ATOM      7  C   UNL     1      25.708  13.221  45.996  1.00  0.00     0.006 C 
BRANCH   7   8
ATOM      8  C   UNL     1      25.337  11.743  45.795  1.00  0.00     0.053 C 
BRANCH   8   9
ATOM      9  C   UNL     1      26.450  10.824  46.198  1.00  0.00     0.041 C 
ATOM     10  O   UNL     1      27.586  10.936  45.668  1.00  0.00    -0.550 OA
ATOM     11  O   UNL     1      26.239   9.867  47.183  1.00  0.00    -0.550 OA
ENDBRANCH   8   9
ENDBRANCH   7   8
ENDBRANCH   6   7
ENDBRANCH   5   6
ENDBRANCH   4   5
ENDBRANCH   3   4
ENDBRANCH   2   3
ENDBRANCH   1   2
BRANCH   1  12
ATOM     12  C   UNL     1      20.560   9.524  49.597  1.00  0.00     0.000 C 
BRANCH  12  13
ATOM     13  C   UNL     1      19.616   9.071  50.721  1.00  0.00    -0.000 C 
BRANCH  13  14
ATOM     14  C   UNL     1      18.314   9.883  50.704  1.00  0.00    -0.000 C 
BRANCH  14  15
ATOM     15  C   UNL     1      17.256   9.298  49.751  1.00  0.00    -0.000 C 
BRANCH  15  16
ATOM     16  C   UNL     1      16.761   7.881  50.111  1.00  0.00    -0.000 C 
BRANCH  16  17
ATOM     17  C   UNL     1      16.154   7.082  48.944  1.00  0.00    -0.000 C 
BRANCH  17  18
ATOM     18  C   UNL     1      16.918   7.282  47.624  1.00  0.00    -0.000 C 
BRANCH  18  19
ATOM     19  C   UNL     1      16.030   7.862  46.512  1.00  0.00    -0.003 C 
ATOM     20  C   UNL     1      14.600   8.134  46.977  1.00  0.00     0.004 C 
ENDBRANCH  18  19
ENDBRANCH  17  18
ENDBRANCH  16  17
ENDBRANCH  15  16
ENDBRANCH  14  15
ENDBRANCH  13  14
ENDBRANCH  12  13
ENDBRANCH   1  12
TORSDOF 16
ENDMDL
MODEL 5
REMARK VINA RESULT:    -5.011      1.320      2.045
REMARK INTER + INTRA:         -10.484
REMARK INTER:                  -9.409
REMARK INTRA:                  -1.075
REMARK UNBOUND:                -0.786
REMARK SMILES CCCCCCCCCCCCCCCCCC(=O)[O-]
REMARK SMILES IDX 10 1 11 2 12 3 13 4 14 5 15 6 16 7 17 8 18 9 19 10 20 11
REMARK SMILES IDX 9 12 8 13 7 14 6 15 5 16 4 17 3 18 2 19 1 20
REMARK H PARENT
REMARK Flexibility Score: inf
ROOT
ATOM      1  C   UNL     1      20.589  10.765  49.750  1.00  0.00     0.000 C 
ENDROOT
BRANCH   1   2
ATOM      2  C   UNL     1      20.411   9.280  49.386  1.00  0.00     0.000 C 
BRANCH   2   3
ATOM      3  C   UNL     1      19.469   8.535  50.349  1.00  0.00     0.000 C 
BRANCH   3   4
ATOM      4  C   UNL     1      18.249   9.380  50.751  1.00  0.00     0.000 C 
BRANCH   4   5
ATOM      5  C   UNL     1      16.967   8.964  50.013  1.00  0.00     0.000 C 
BRANCH   5   6
ATOM      6  C   UNL     1      16.688   7.465  50.202  1.00  0.00     0.000 C 
BRANCH   6   7
ATOM      7  C   UNL     1      16.240   6.772  48.902  1.00  0.00     0.006 C 
BRANCH   7   8
ATOM      8  C   UNL     1      16.724   7.463  47.616  1.00  0.00     0.053 C 
BRANCH   8   9
ATOM      9  C   UNL     1      15.586   7.832  46.714  1.00  0.00     0.041 C 
ATOM     10  O   UNL     1      14.405   7.826  47.150  1.00  0.00    -0.550 OA
ATOM     11  O   UNL     1      15.836   8.214  45.402  1.00  0.00    -0.550 OA
ENDBRANCH   8   9
ENDBRANCH   7   8
ENDBRANCH   6   7
ENDBRANCH   5   6
ENDBRANCH   4   5
ENDBRANCH   3   4
ENDBRANCH   2   3
ENDBRANCH   1   2
BRANCH   1  12
ATOM     12  C   UNL     1      21.722  11.493  49.002  1.00  0.00     0.000 C 
BRANCH  12  13
ATOM     13  C   UNL     1      22.143  12.806  49.680  1.00  0.00    -0.000 C 
BRANCH  13  14
ATOM     14  C   UNL     1      23.601  12.736  50.154  1.00  0.00    -0.000 C 
BRANCH  14  15
ATOM     15  C   UNL     1      24.534  13.666  49.358  1.00  0.00    -0.000 C 
BRANCH  15  16
ATOM     16  C   UNL     1      24.165  13.850  47.871  1.00  0.00    -0.000 C 
BRANCH  16  17
ATOM     17  C   UNL     1      25.289  13.531  46.871  1.00  0.00    -0.000 C 
BRANCH  17  18
ATOM     18  C   UNL     1      25.542  12.021  46.720  1.00  0.00    -0.000 C 
BRANCH  18  19
ATOM     19  C   UNL     1      25.431  11.548  45.262  1.00  0.00    -0.003 C 
ATOM     20  C   UNL     1      26.180  12.455  44.287  1.00  0.00     0.004 C 
ENDBRANCH  18  19
ENDBRANCH  17  18
ENDBRANCH  16  17
ENDBRANCH  15  16
ENDBRANCH  14  15
ENDBRANCH  13  14
ENDBRANCH  12  13
ENDBRANCH   1  12
TORSDOF 16
ENDMDL
MODEL 6
REMARK VINA RESULT:    -4.959     10.295     11.751
REMARK INTER + INTRA:         -10.383
REMARK INTER:                  -9.291
REMARK INTRA:                  -1.092
REMARK UNBOUND:                -0.786
REMARK SMILES CCCCCCCCCCCCCCCCCC(=O)[O-]
REMARK SMILES IDX 10 1 11 2 12 3 13 4 14 5 15 6 16 7 17 8 18 9 19 10 20 11
REMARK SMILES IDX 9 12 8 13 7 14 6 15 5 16 4 17 3 18 2 19 1 20
REMARK H PARENT
REMARK Flexibility Score: inf
ROOT
ATOM      1  C   UNL     1      16.452   0.497  47.533  1.00  0.00     0.000 C 
ENDROOT
BRANCH   1   2
ATOM      2  C   UNL     1      15.192  -0.328  47.854  1.00  0.00     0.000 C 
BRANCH   2   3
ATOM      3  C   UNL     1      15.421  -1.845  47.731  1.00  0.00     0.000 C 
BRANCH   3   4
ATOM      4  C   UNL     1      14.446  -2.511  46.746  1.00  0.00     0.000 C 
BRANCH   4   5
ATOM      5  C   UNL     1      14.906  -2.399  45.284  1.00  0.00     0.000 C 
BRANCH   5   6
ATOM      6  C   UNL     1      13.743  -1.975  44.375  1.00  0.00     0.000 C 
BRANCH   6   7
ATOM      7  C   UNL     1      12.954  -0.777  44.933  1.00  0.00     0.006 C 
BRANCH   7   8
ATOM      8  C   UNL     1      12.576   0.280  43.882  1.00  0.00     0.053 C 
BRANCH   8   9
ATOM      9  C   UNL     1      12.410   1.640  44.486  1.00  0.00     0.041 C 
ATOM     10  O   UNL     1      12.826   1.871  45.651  1.00  0.00    -0.550 OA
ATOM     11  O   UNL     1      11.823   2.661  43.749  1.00  0.00    -0.550 OA
ENDBRANCH   8   9
ENDBRANCH   7   8
ENDBRANCH   6   7
ENDBRANCH   5   6
ENDBRANCH   4   5
ENDBRANCH   3   4
ENDBRANCH   2   3
ENDBRANCH   1   2
BRANCH   1  12
ATOM     12  C   UNL     1      17.607  -0.292  46.890  1.00  0.00     0.000 C 
BRANCH  12  13
ATOM     13  C   UNL     1      18.776  -0.541  47.856  1.00  0.00    -0.000 C 
BRANCH  13  14
ATOM     14  C   UNL     1      20.118  -0.208  47.190  1.00  0.00    -0.000 C 
BRANCH  14  15
ATOM     15  C   UNL     1      20.820   1.003  47.831  1.00  0.00    -0.000 C 
BRANCH  15  16
ATOM     16  C   UNL     1      22.286   0.765  48.250  1.00  0.00    -0.000 C 
BRANCH  16  17
ATOM     17  C   UNL     1      22.970  -0.443  47.586  1.00  0.00    -0.000 C 
BRANCH  17  18
ATOM     18  C   UNL     1      24.474  -0.524  47.901  1.00  0.00    -0.000 C 
BRANCH  18  19
ATOM     19  C   UNL     1      24.749  -0.914  49.362  1.00  0.00    -0.003 C 
ATOM     20  C   UNL     1      25.216  -2.362  49.510  1.00  0.00     0.004 C 
ENDBRANCH  18  19
ENDBRANCH  17  18
ENDBRANCH  16  17
ENDBRANCH  15  16
ENDBRANCH  14  15
ENDBRANCH  13  14
ENDBRANCH  12  13
ENDBRANCH   1  12
TORSDOF 16
ENDMDL
MODEL 7
REMARK VINA RESULT:    -4.923      8.545     10.128
REMARK INTER + INTRA:         -10.312
REMARK INTER:                  -8.746
REMARK INTRA:                  -1.566
REMARK UNBOUND:                -0.786
REMARK SMILES CCCCCCCCCCCCCCCCCC(=O)[O-]
REMARK SMILES IDX 10 1 11 2 12 3 13 4 14 5 15 6 16 7 17 8 18 9 19 10 20 11
REMARK SMILES IDX 9 12 8 13 7 14 6 15 5 16 4 17 3 18 2 19 1 20
REMARK H PARENT
REMARK Flexibility Score: inf
ROOT
ATOM      1  C   UNL     1      20.574   0.500  47.821  1.00  0.00     0.000 C 
ENDROOT
BRANCH   1   2
ATOM      2  C   UNL     1      20.657  -0.183  46.444  1.00  0.00     0.000 C 
BRANCH   2   3
ATOM      3  C   UNL     1      19.614  -1.300  46.265  1.00  0.00     0.000 C 
BRANCH   3   4
ATOM      4  C   UNL     1      18.193  -0.846  46.635  1.00  0.00     0.000 C 
BRANCH   4   5
ATOM      5  C   UNL     1      17.598  -1.643  47.806  1.00  0.00     0.000 C 
BRANCH   5   6
ATOM      6  C   UNL     1      16.069  -1.735  47.685  1.00  0.00     0.000 C 
BRANCH   6   7
ATOM      7  C   UNL     1      15.373  -0.374  47.866  1.00  0.00     0.006 C 
BRANCH   7   8
ATOM      8  C   UNL     1      14.429   0.013  46.716  1.00  0.00     0.053 C 
BRANCH   8   9
ATOM      9  C   UNL     1      13.771   1.339  46.951  1.00  0.00     0.041 C 
ATOM     10  O   UNL     1      13.055   1.858  46.055  1.00  0.00    -0.550 OA
ATOM     11  O   UNL     1      13.922   1.983  48.172  1.00  0.00    -0.550 OA
ENDBRANCH   8   9
ENDBRANCH   7   8
ENDBRANCH   6   7
ENDBRANCH   5   6
ENDBRANCH   4   5
ENDBRANCH   3   4
ENDBRANCH   2   3
ENDBRANCH   1   2
BRANCH   1  12
ATOM     12  C   UNL     1      21.913   1.013  48.382  1.00  0.00     0.000 C 
BRANCH  12  13
ATOM     13  C   UNL     1      23.070   0.024  48.172  1.00  0.00    -0.000 C 
BRANCH  13  14
ATOM     14  C   UNL     1      24.325   0.480  48.928  1.00  0.00    -0.000 C 
BRANCH  14  15
ATOM     15  C   UNL     1      25.359   1.163  48.015  1.00  0.00    -0.000 C 
BRANCH  15  16
ATOM     16  C   UNL     1      25.218   2.696  47.898  1.00  0.00    -0.000 C 
BRANCH  16  17
ATOM     17  C   UNL     1      25.224   3.247  46.461  1.00  0.00    -0.000 C 
BRANCH  17  18
ATOM     18  C   UNL     1      23.926   3.990  46.102  1.00  0.00    -0.000 C 
BRANCH  18  19
ATOM     19  C   UNL     1      22.796   3.033  45.691  1.00  0.00    -0.003 C 
ATOM     20  C   UNL     1      23.281   1.891  44.799  1.00  0.00     0.004 C 
ENDBRANCH  18  19
ENDBRANCH  17  18
ENDBRANCH  16  17
ENDBRANCH  15  16
ENDBRANCH  14  15
ENDBRANCH  13  14
ENDBRANCH  12  13
ENDBRANCH   1  12
TORSDOF 16
ENDMDL
MODEL 8
REMARK VINA RESULT:    -4.912      9.055     10.613
REMARK INTER + INTRA:         -10.292
REMARK INTER:                  -8.837
REMARK INTRA:                  -1.455
REMARK UNBOUND:                -0.786
REMARK SMILES CCCCCCCCCCCCCCCCCC(=O)[O-]
REMARK SMILES IDX 10 1 11 2 12 3 13 4 14 5 15 6 16 7 17 8 18 9 19 10 20 11
REMARK SMILES IDX 9 12 8 13 7 14 6 15 5 16 4 17 3 18 2 19 1 20
REMARK H PARENT
REMARK Flexibility Score: inf
ROOT
ATOM      1  C   UNL     1      21.676   0.183  47.287  1.00  0.00     0.000 C 
ENDROOT
BRANCH   1   2
ATOM      2  C   UNL     1      20.534   0.598  48.233  1.00  0.00     0.000 C 
BRANCH   2   3
ATOM      3  C   UNL     1      19.140   0.271  47.670  1.00  0.00     0.000 C 
BRANCH   3   4
ATOM      4  C   UNL     1      18.755  -1.204  47.867  1.00  0.00     0.000 C 
BRANCH   4   5
ATOM      5  C   UNL     1      17.275  -1.481  47.560  1.00  0.00     0.000 C 
BRANCH   5   6
ATOM      6  C   UNL     1      16.458  -0.180  47.586  1.00  0.00     0.000 C 
BRANCH   6   7
ATOM      7  C   UNL     1      15.004  -0.397  48.042  1.00  0.00     0.006 C 
BRANCH   7   8
ATOM      8  C   UNL     1      13.950  -0.089  46.965  1.00  0.00     0.053 C 
BRANCH   8   9
ATOM      9  C   UNL     1      13.492   1.337  47.018  1.00  0.00     0.041 C 
ATOM     10  O   UNL     1      13.669   2.020  48.061  1.00  0.00    -0.550 OA
ATOM     11  O   UNL     1      12.902   1.919  45.904  1.00  0.00    -0.550 OA
ENDBRANCH   8   9
ENDBRANCH   7   8
ENDBRANCH   6   7
ENDBRANCH   5   6
ENDBRANCH   4   5
ENDBRANCH   3   4
ENDBRANCH   2   3
ENDBRANCH   1   2
BRANCH   1  12
ATOM     12  C   UNL     1      21.531   0.665  45.832  1.00  0.00     0.000 C 
BRANCH  12  13
ATOM     13  C   UNL     1      22.765   1.426  45.325  1.00  0.00    -0.000 C 
BRANCH  13  14
ATOM     14  C   UNL     1      22.937   2.754  46.075  1.00  0.00    -0.000 C 
BRANCH  14  15
ATOM     15  C   UNL     1      24.378   2.983  46.564  1.00  0.00    -0.000 C 
BRANCH  15  16
ATOM     16  C   UNL     1      24.665   2.506  48.003  1.00  0.00    -0.000 C 
BRANCH  16  17
ATOM     17  C   UNL     1      25.091   1.033  48.134  1.00  0.00    -0.000 C 
BRANCH  17  18
ATOM     18  C   UNL     1      24.624   0.393  49.453  1.00  0.00    -0.000 C 
BRANCH  18  19
ATOM     19  C   UNL     1      24.993  -1.096  49.547  1.00  0.00    -0.003 C 
ATOM     20  C   UNL     1      24.753  -1.850  48.240  1.00  0.00     0.004 C 
ENDBRANCH  18  19
ENDBRANCH  17  18
ENDBRANCH  16  17
ENDBRANCH  15  16
ENDBRANCH  14  15
ENDBRANCH  13  14
ENDBRANCH  12  13
ENDBRANCH   1  12
TORSDOF 16
ENDMDL
MODEL 9
REMARK VINA RESULT:    -4.905      8.753     10.279
REMARK INTER + INTRA:         -10.279
REMARK INTER:                  -8.821
REMARK INTRA:                  -1.458
REMARK UNBOUND:                -0.786
REMARK SMILES CCCCCCCCCCCCCCCCCC(=O)[O-]
REMARK SMILES IDX 10 1 11 2 12 3 13 4 14 5 15 6 16 7 17 8 18 9 19 10 20 11
REMARK SMILES IDX 9 12 8 13 7 14 6 15 5 16 4 17 3 18 2 19 1 20
REMARK H PARENT
REMARK Flexibility Score: inf
ROOT
ATOM      1  C   UNL     1      19.890  -0.125  46.767  1.00  0.00     0.000 C 
ENDROOT
BRANCH   1   2
ATOM      2  C   UNL     1      19.034  -1.405  46.800  1.00  0.00     0.000 C 
BRANCH   2   3
ATOM      3  C   UNL     1      17.934  -1.364  47.875  1.00  0.00     0.000 C 
BRANCH   3   4
ATOM      4  C   UNL     1      16.566  -0.954  47.304  1.00  0.00     0.000 C 
BRANCH   4   5
ATOM      5  C   UNL     1      16.402   0.569  47.188  1.00  0.00     0.000 C 
BRANCH   5   6
ATOM      6  C   UNL     1      15.591   1.124  48.369  1.00  0.00     0.000 C 
BRANCH   6   7
ATOM      7  C   UNL     1      14.348   1.916  47.922  1.00  0.00     0.006 C 
BRANCH   7   8
ATOM      8  C   UNL     1      13.089   1.057  47.718  1.00  0.00     0.053 C 
BRANCH   8   9
ATOM      9  C   UNL     1      12.760   0.878  46.267  1.00  0.00     0.041 C 
ATOM     10  O   UNL     1      12.314   1.844  45.595  1.00  0.00    -0.550 OA
ATOM     11  O   UNL     1      12.978  -0.348  45.651  1.00  0.00    -0.550 OA
ENDBRANCH   8   9
ENDBRANCH   7   8
ENDBRANCH   6   7
ENDBRANCH   5   6
ENDBRANCH   4   5
ENDBRANCH   3   4
ENDBRANCH   2   3
ENDBRANCH   1   2
BRANCH   1  12
ATOM     12  C   UNL     1      20.196   0.494  48.143  1.00  0.00     0.000 C 
BRANCH  12  13
ATOM     13  C   UNL     1      21.649   0.977  48.275  1.00  0.00    -0.000 C 
BRANCH  13  14
ATOM     14  C   UNL     1      22.608   0.040  47.528  1.00  0.00    -0.000 C 
BRANCH  14  15
ATOM     15  C   UNL     1      23.711  -0.534  48.435  1.00  0.00    -0.000 C 
BRANCH  15  16
ATOM     16  C   UNL     1      24.704   0.505  48.998  1.00  0.00    -0.000 C 
BRANCH  16  17
ATOM     17  C   UNL     1      25.421   1.366  47.944  1.00  0.00    -0.000 C 
BRANCH  17  18
ATOM     18  C   UNL     1      24.927   2.823  47.928  1.00  0.00    -0.000 C 
BRANCH  18  19
ATOM     19  C   UNL     1      24.448   3.267  46.537  1.00  0.00    -0.003 C 
ATOM     20  C   UNL     1      24.728   2.227  45.454  1.00  0.00     0.004 C 
ENDBRANCH  18  19
ENDBRANCH  17  18
ENDBRANCH  16  17
ENDBRANCH  15  16
ENDBRANCH  14  15
ENDBRANCH  13  14
ENDBRANCH  12  13
ENDBRANCH   1  12
TORSDOF 16
ENDMDL
