MODEL 1
REMARK VINA RESULT:   125.612      0.000      0.000
REMARK INTER + INTRA:         148.306
REMARK INTER:                 147.642
REMARK INTRA:                   0.664
REMARK UNBOUND:                 0.664
REMARK SMILES CC1(C)CC[C@]2(C(=O)[O-])CC[C@@]3(C)C(=CC[C@@H]4[C@@]5(C)CC[C@H](O)[C@@](C)(CO)[C@H]5CC[C@]43C)[C@@H]2C1
REMARK SMILES IDX 6 1 5 2 10 3 33 4 4 5 11 6 14 7 34 8 2 9 12 10 15 11 1 12
REMARK SMILES IDX 3 13 13 14 31 15 16 16 17 17 30 18 32 19 18 20 29 21 28 22
REMARK SMILES IDX 20 23 19 24 24 25 21 26 22 27 25 28 7 29 8 30 9 31 26 32
REMARK SMILES IDX 27 33 23 35
REMARK H PARENT 27 34 23 36
REMARK Flexibility Score: inf
ROOT
ATOM      1  C   UNL     1     -36.123  30.286 -24.694  1.00  0.00     0.017 C 
ATOM      2  C   UNL     1     -35.596  31.259 -25.785  1.00  0.00     0.014 C 
ATOM      3  C   UNL     1     -37.307  29.453 -25.240  1.00  0.00     0.014 C 
ATOM      4  C   UNL     1     -36.603  31.076 -23.439  1.00  0.00     0.028 C 
ATOM      5  C   UNL     1     -36.566  32.399 -26.125  1.00  0.00     0.007 C 
ATOM      6  C   UNL     1     -37.755  28.369 -24.250  1.00  0.00     0.013 C 
ATOM      7  C   UNL     1     -37.310  30.190 -22.415  1.00  0.00    -0.064 C 
ATOM      8  C   UNL     1     -37.551  32.256 -23.796  1.00  0.00     0.015 C 
ATOM      9  C   UNL     1     -36.997  33.211 -24.881  1.00  0.00    -0.035 C 
ATOM     10  C   UNL     1     -37.968  28.828 -22.749  1.00  0.00    -0.006 C 
ATOM     11  C   UNL     1     -37.481  30.695 -21.168  1.00  0.00    -0.027 C 
ATOM     12  C   UNL     1     -35.818  34.047 -24.329  1.00  0.00     0.011 C 
ATOM     13  C   UNL     1     -38.117  34.189 -25.298  1.00  0.00     0.011 C 
ATOM     14  C   UNL     1     -37.122  27.797 -21.914  1.00  0.00     0.017 C 
ATOM     15  C   UNL     1     -39.552  28.848 -22.312  1.00  0.00    -0.020 C 
ATOM     16  C   UNL     1     -38.635  30.226 -20.315  1.00  0.00     0.032 C 
ATOM     17  C   UNL     1     -39.837  29.992 -21.261  1.00  0.00     0.006 C 
ATOM     18  C   UNL     1     -40.516  29.166 -23.513  1.00  0.00     0.008 C 
ATOM     19  C   UNL     1     -39.929  27.436 -21.765  1.00  0.00     0.012 C 
ATOM     20  C   UNL     1     -41.299  30.043 -20.628  1.00  0.00    -0.025 C 
ATOM     21  C   UNL     1     -41.825  29.941 -23.175  1.00  0.00     0.005 C 
ATOM     22  C   UNL     1     -42.392  29.677 -21.746  1.00  0.00     0.006 C 
ATOM     23  C   UNL     1     -41.506  31.506 -20.096  1.00  0.00     0.010 C 
ATOM     24  C   UNL     1     -41.391  29.065 -19.416  1.00  0.00     0.012 C 
ATOM     25  C   UNL     1     -43.868  30.249 -21.506  1.00  0.00     0.020 C 
ATOM     26  C   UNL     1     -42.947  31.883 -19.774  1.00  0.00     0.033 C 
ATOM     27  C   UNL     1     -43.832  31.723 -21.003  1.00  0.00     0.123 C 
ATOM     28  C   UNL     1     -44.605  29.346 -20.470  1.00  0.00     0.017 C 
ENDROOT
BRANCH   1  29
ATOM     29  C   UNL     1     -34.954  29.365 -24.356  1.00  0.00     0.048 C 
ATOM     30  O   UNL     1     -33.777  29.811 -24.272  1.00  0.00    -0.550 OA
ATOM     31  O   UNL     1     -35.162  27.996 -24.231  1.00  0.00    -0.550 OA
ENDBRANCH   1  29
BRANCH  25  32
ATOM     32  C   UNL     1     -44.762  30.180 -22.793  1.00  0.00     0.165 C 
BRANCH  32  33
ATOM     33  O   UNL     1     -45.076  31.456 -23.296  1.00  0.00    -0.396 OA
ATOM     34  H   UNL     1     -44.239  31.989 -23.311  1.00  0.00     0.210 HD
ENDBRANCH  32  33
ENDBRANCH  25  32
BRANCH  27  35
ATOM     35  O   UNL     1     -45.125  32.175 -20.677  1.00  0.00    -0.392 OA
ATOM     36  H   UNL     1     -45.433  32.758 -21.417  1.00  0.00     0.210 HD
ENDBRANCH  27  35
TORSDOF 4
ENDMDL
