MODEL 1
REMARK VINA RESULT:    -4.003      0.000      0.000
REMARK INTER + INTRA:          -9.855
REMARK INTER:                  -7.748
REMARK INTRA:                  -2.107
REMARK UNBOUND:                -2.107
REMARK SMILES CCCCCCCCCCCCCCCCCC(=O)[O-]
REMARK SMILES IDX 10 1 11 2 12 3 13 4 14 5 15 6 16 7 17 8 18 9 19 10 20 11
REMARK SMILES IDX 9 12 8 13 7 14 6 15 5 16 4 17 3 18 2 19 1 20
REMARK H PARENT
REMARK Flexibility Score: inf
ROOT
ATOM      1  C   UNL     1       6.847  -2.029  -9.993  1.00  0.00     0.000 C 
ENDROOT
BRANCH   1   2
ATOM      2  C   UNL     1       8.129  -1.502  -9.324  1.00  0.00     0.000 C 
BRANCH   2   3
ATOM      3  C   UNL     1       8.395  -2.148  -7.952  1.00  0.00     0.000 C 
BRANCH   3   4
ATOM      4  C   UNL     1       9.634  -3.059  -7.958  1.00  0.00     0.000 C 
BRANCH   4   5
ATOM      5  C   UNL     1       9.577  -4.143  -6.868  1.00  0.00     0.000 C 
BRANCH   5   6
ATOM      6  C   UNL     1       8.151  -4.386  -6.342  1.00  0.00     0.000 C 
BRANCH   6   7
ATOM      7  C   UNL     1       7.820  -5.852  -5.997  1.00  0.00     0.006 C 
BRANCH   7   8
ATOM      8  C   UNL     1       7.242  -6.668  -7.163  1.00  0.00     0.053 C 
BRANCH   8   9
ATOM      9  C   UNL     1       6.280  -7.715  -6.693  1.00  0.00     0.041 C 
ATOM     10  O   UNL     1       5.348  -7.410  -5.902  1.00  0.00    -0.550 OA
ATOM     11  O   UNL     1       6.437  -9.035  -7.095  1.00  0.00    -0.550 OA
ENDBRANCH   8   9
ENDBRANCH   7   8
ENDBRANCH   6   7
ENDBRANCH   5   6
ENDBRANCH   4   5
ENDBRANCH   3   4
ENDBRANCH   2   3
ENDBRANCH   1   2
BRANCH   1  12
ATOM     12  C   UNL     1       6.743  -3.562 -10.083  1.00  0.00     0.000 C 
BRANCH  12  13
ATOM     13  C   UNL     1       5.641  -4.142  -9.178  1.00  0.00    -0.000 C 
BRANCH  13  14
ATOM     14  C   UNL     1       4.753  -3.039  -8.563  1.00  0.00    -0.000 C 
BRANCH  14  15
ATOM     15  C   UNL     1       4.831  -2.971  -7.027  1.00  0.00    -0.000 C 
BRANCH  15  16
ATOM     16  C   UNL     1       4.067  -4.115  -6.341  1.00  0.00    -0.000 C 
BRANCH  16  17
ATOM     17  C   UNL     1       2.668  -3.689  -5.867  1.00  0.00    -0.000 C 
BRANCH  17  18
ATOM     18  C   UNL     1       2.713  -2.599  -4.785  1.00  0.00    -0.000 C 
BRANCH  18  19
ATOM     19  C   UNL     1       1.821  -2.972  -3.595  1.00  0.00    -0.003 C 
ATOM     20  C   UNL     1       2.462  -2.557  -2.273  1.00  0.00     0.004 C 
ENDBRANCH  18  19
ENDBRANCH  17  18
ENDBRANCH  16  17
ENDBRANCH  15  16
ENDBRANCH  14  15
ENDBRANCH  13  14
ENDBRANCH  12  13
ENDBRANCH   1  12
TORSDOF 16
ENDMDL
MODEL 2
REMARK VINA RESULT:    -3.809      2.447      5.233
REMARK INTER + INTRA:          -9.479
REMARK INTER:                  -6.598
REMARK INTRA:                  -2.881
REMARK UNBOUND:                -2.107
REMARK SMILES CCCCCCCCCCCCCCCCCC(=O)[O-]
REMARK SMILES IDX 10 1 11 2 12 3 13 4 14 5 15 6 16 7 17 8 18 9 19 10 20 11
REMARK SMILES IDX 9 12 8 13 7 14 6 15 5 16 4 17 3 18 2 19 1 20
REMARK H PARENT
REMARK Flexibility Score: inf
ROOT
ATOM      1  C   UNL     1       5.852  -4.246  -7.414  1.00  0.00     0.000 C 
ENDROOT
BRANCH   1   2
ATOM      2  C   UNL     1       6.473  -4.340  -6.008  1.00  0.00     0.000 C 
BRANCH   2   3
ATOM      3  C   UNL     1       6.234  -5.706  -5.340  1.00  0.00     0.000 C 
BRANCH   3   4
ATOM      4  C   UNL     1       7.351  -6.718  -5.650  1.00  0.00     0.000 C 
BRANCH   4   5
ATOM      5  C   UNL     1       6.809  -8.041  -6.217  1.00  0.00     0.000 C 
BRANCH   5   6
ATOM      6  C   UNL     1       7.226  -8.279  -7.679  1.00  0.00     0.000 C 
BRANCH   6   7
ATOM      7  C   UNL     1       6.393  -7.519  -8.731  1.00  0.00     0.006 C 
BRANCH   7   8
ATOM      8  C   UNL     1       4.976  -8.074  -8.947  1.00  0.00     0.053 C 
BRANCH   8   9
ATOM      9  C   UNL     1       3.923  -7.125  -8.465  1.00  0.00     0.041 C 
ATOM     10  O   UNL     1       3.395  -7.285  -7.333  1.00  0.00    -0.550 OA
ATOM     11  O   UNL     1       3.495  -6.088  -9.284  1.00  0.00    -0.550 OA
ENDBRANCH   8   9
ENDBRANCH   7   8
ENDBRANCH   6   7
ENDBRANCH   5   6
ENDBRANCH   4   5
ENDBRANCH   3   4
ENDBRANCH   2   3
ENDBRANCH   1   2
BRANCH   1  12
ATOM     12  C   UNL     1       5.017  -2.978  -7.672  1.00  0.00     0.000 C 
BRANCH  12  13
ATOM     13  C   UNL     1       5.186  -2.430  -9.100  1.00  0.00    -0.000 C 
BRANCH  13  14
ATOM     14  C   UNL     1       6.523  -2.868  -9.737  1.00  0.00    -0.000 C 
BRANCH  14  15
ATOM     15  C   UNL     1       7.582  -1.752  -9.775  1.00  0.00    -0.000 C 
BRANCH  15  16
ATOM     16  C   UNL     1       8.466  -1.726  -8.518  1.00  0.00    -0.000 C 
BRANCH  16  17
ATOM     17  C   UNL     1       9.639  -2.716  -8.600  1.00  0.00    -0.000 C 
BRANCH  17  18
ATOM     18  C   UNL     1       9.746  -3.614  -7.357  1.00  0.00    -0.000 C 
BRANCH  18  19
ATOM     19  C   UNL     1       9.777  -5.095  -7.753  1.00  0.00    -0.003 C 
ATOM     20  C   UNL     1       9.300  -5.293  -9.189  1.00  0.00     0.004 C 
ENDBRANCH  18  19
ENDBRANCH  17  18
ENDBRANCH  16  17
ENDBRANCH  15  16
ENDBRANCH  14  15
ENDBRANCH  13  14
ENDBRANCH  12  13
ENDBRANCH   1  12
TORSDOF 16
ENDMDL
MODEL 3
REMARK VINA RESULT:    -3.784      1.210      2.117
REMARK INTER + INTRA:          -9.430
REMARK INTER:                  -7.206
REMARK INTRA:                  -2.224
REMARK UNBOUND:                -2.107
REMARK SMILES CCCCCCCCCCCCCCCCCC(=O)[O-]
REMARK SMILES IDX 10 1 11 2 12 3 13 4 14 5 15 6 16 7 17 8 18 9 19 10 20 11
REMARK SMILES IDX 9 12 8 13 7 14 6 15 5 16 4 17 3 18 2 19 1 20
REMARK H PARENT
REMARK Flexibility Score: inf
ROOT
ATOM      1  C   UNL     1       7.222  -3.212  -6.713  1.00  0.00     0.000 C 
ENDROOT
BRANCH   1   2
ATOM      2  C   UNL     1       8.496  -4.013  -6.386  1.00  0.00     0.000 C 
BRANCH   2   3
ATOM      3  C   UNL     1       9.665  -3.688  -7.333  1.00  0.00     0.000 C 
BRANCH   3   4
ATOM      4  C   UNL     1       9.906  -4.794  -8.374  1.00  0.00     0.000 C 
BRANCH   4   5
ATOM      5  C   UNL     1       9.406  -6.171  -7.902  1.00  0.00     0.000 C 
BRANCH   5   6
ATOM      6  C   UNL     1       8.286  -6.736  -8.792  1.00  0.00     0.000 C 
BRANCH   6   7
ATOM      7  C   UNL     1       7.399  -7.810  -8.129  1.00  0.00     0.006 C 
BRANCH   7   8
ATOM      8  C   UNL     1       7.294  -7.697  -6.600  1.00  0.00     0.053 C 
BRANCH   8   9
ATOM      9  C   UNL     1       6.009  -7.059  -6.172  1.00  0.00     0.041 C 
ATOM     10  O   UNL     1       6.006  -6.183  -5.266  1.00  0.00    -0.550 OA
ATOM     11  O   UNL     1       4.809  -7.461  -6.744  1.00  0.00    -0.550 OA
ENDBRANCH   8   9
ENDBRANCH   7   8
ENDBRANCH   6   7
ENDBRANCH   5   6
ENDBRANCH   4   5
ENDBRANCH   3   4
ENDBRANCH   2   3
ENDBRANCH   1   2
BRANCH   1  12
ATOM     12  C   UNL     1       7.299  -2.365  -7.996  1.00  0.00     0.000 C 
BRANCH  12  13
ATOM     13  C   UNL     1       6.514  -2.980  -9.169  1.00  0.00    -0.000 C 
BRANCH  13  14
ATOM     14  C   UNL     1       5.636  -4.169  -8.721  1.00  0.00    -0.000 C 
BRANCH  14  15
ATOM     15  C   UNL     1       4.141  -3.822  -8.608  1.00  0.00    -0.000 C 
BRANCH  15  16
ATOM     16  C   UNL     1       3.473  -4.459  -7.380  1.00  0.00    -0.000 C 
BRANCH  16  17
ATOM     17  C   UNL     1       3.676  -3.631  -6.101  1.00  0.00    -0.000 C 
BRANCH  17  18
ATOM     18  C   UNL     1       2.398  -3.521  -5.256  1.00  0.00    -0.000 C 
BRANCH  18  19
ATOM     19  C   UNL     1       2.494  -2.352  -4.267  1.00  0.00    -0.003 C 
ATOM     20  C   UNL     1       2.104  -2.788  -2.858  1.00  0.00     0.004 C 
ENDBRANCH  18  19
ENDBRANCH  17  18
ENDBRANCH  16  17
ENDBRANCH  15  16
ENDBRANCH  14  15
ENDBRANCH  13  14
ENDBRANCH  12  13
ENDBRANCH   1  12
TORSDOF 16
ENDMDL
MODEL 4
REMARK VINA RESULT:    -3.755      3.021      5.709
REMARK INTER + INTRA:          -9.375
REMARK INTER:                  -6.193
REMARK INTRA:                  -3.182
REMARK UNBOUND:                -2.107
REMARK SMILES CCCCCCCCCCCCCCCCCC(=O)[O-]
REMARK SMILES IDX 10 1 11 2 12 3 13 4 14 5 15 6 16 7 17 8 18 9 19 10 20 11
REMARK SMILES IDX 9 12 8 13 7 14 6 15 5 16 4 17 3 18 2 19 1 20
REMARK H PARENT
REMARK Flexibility Score: inf
ROOT
ATOM      1  C   UNL     1       3.538  -4.540  -7.558  1.00  0.00     0.000 C 
ENDROOT
BRANCH   1   2
ATOM      2  C   UNL     1       4.544  -3.687  -6.765  1.00  0.00     0.000 C 
BRANCH   2   3
ATOM      3  C   UNL     1       5.306  -4.497  -5.701  1.00  0.00     0.000 C 
BRANCH   3   4
ATOM      4  C   UNL     1       6.800  -4.650  -6.032  1.00  0.00     0.000 C 
BRANCH   4   5
ATOM      5  C   UNL     1       7.469  -3.308  -6.379  1.00  0.00     0.000 C 
BRANCH   5   6
ATOM      6  C   UNL     1       8.454  -3.419  -7.556  1.00  0.00     0.000 C 
BRANCH   6   7
ATOM      7  C   UNL     1       7.885  -4.079  -8.829  1.00  0.00     0.006 C 
BRANCH   7   8
ATOM      8  C   UNL     1       7.831  -3.156 -10.056  1.00  0.00     0.053 C 
BRANCH   8   9
ATOM      9  C   UNL     1       7.175  -1.847  -9.746  1.00  0.00     0.041 C 
ATOM     10  O   UNL     1       7.862  -0.794  -9.671  1.00  0.00    -0.550 OA
ATOM     11  O   UNL     1       5.809  -1.796  -9.498  1.00  0.00    -0.550 OA
ENDBRANCH   8   9
ENDBRANCH   7   8
ENDBRANCH   6   7
ENDBRANCH   5   6
ENDBRANCH   4   5
ENDBRANCH   3   4
ENDBRANCH   2   3
ENDBRANCH   1   2
BRANCH   1  12
ATOM     12  C   UNL     1       3.879  -4.731  -9.047  1.00  0.00     0.000 C 
BRANCH  12  13
ATOM     13  C   UNL     1       4.744  -5.977  -9.309  1.00  0.00    -0.000 C 
BRANCH  13  14
ATOM     14  C   UNL     1       4.488  -7.092  -8.271  1.00  0.00    -0.000 C 
BRANCH  14  15
ATOM     15  C   UNL     1       5.774  -7.646  -7.632  1.00  0.00    -0.000 C 
BRANCH  15  16
ATOM     16  C   UNL     1       6.984  -7.580  -8.577  1.00  0.00    -0.000 C 
BRANCH  16  17
ATOM     17  C   UNL     1       8.321  -7.745  -7.836  1.00  0.00    -0.000 C 
BRANCH  17  18
ATOM     18  C   UNL     1       8.137  -8.056  -6.342  1.00  0.00    -0.000 C 
BRANCH  18  19
ATOM     19  C   UNL     1       9.221  -7.369  -5.503  1.00  0.00    -0.003 C 
ATOM     20  C   UNL     1      10.119  -6.493  -6.372  1.00  0.00     0.004 C 
ENDBRANCH  18  19
ENDBRANCH  17  18
ENDBRANCH  16  17
ENDBRANCH  15  16
ENDBRANCH  14  15
ENDBRANCH  13  14
ENDBRANCH  12  13
ENDBRANCH   1  12
TORSDOF 16
ENDMDL
MODEL 5
REMARK VINA RESULT:    -3.745      2.283      4.072
REMARK INTER + INTRA:          -9.355
REMARK INTER:                  -5.907
REMARK INTRA:                  -3.448
REMARK UNBOUND:                -2.107
REMARK SMILES CCCCCCCCCCCCCCCCCC(=O)[O-]
REMARK SMILES IDX 10 1 11 2 12 3 13 4 14 5 15 6 16 7 17 8 18 9 19 10 20 11
REMARK SMILES IDX 9 12 8 13 7 14 6 15 5 16 4 17 3 18 2 19 1 20
REMARK H PARENT
REMARK Flexibility Score: inf
ROOT
ATOM      1  C   UNL     1       7.119  -2.292  -8.890  1.00  0.00     0.000 C 
ENDROOT
BRANCH   1   2
ATOM      2  C   UNL     1       8.503  -2.894  -9.200  1.00  0.00     0.000 C 
BRANCH   2   3
ATOM      3  C   UNL     1       9.185  -3.492  -7.956  1.00  0.00     0.000 C 
BRANCH   3   4
ATOM      4  C   UNL     1       9.371  -5.015  -8.059  1.00  0.00     0.000 C 
BRANCH   4   5
ATOM      5  C   UNL     1       8.789  -5.595  -9.360  1.00  0.00     0.000 C 
BRANCH   5   6
ATOM      6  C   UNL     1       7.866  -6.801  -9.116  1.00  0.00     0.000 C 
BRANCH   6   7
ATOM      7  C   UNL     1       6.358  -6.513  -9.260  1.00  0.00     0.006 C 
BRANCH   7   8
ATOM      8  C   UNL     1       5.441  -7.621  -8.716  1.00  0.00     0.053 C 
BRANCH   8   9
ATOM      9  C   UNL     1       4.032  -7.147  -8.542  1.00  0.00     0.041 C 
ATOM     10  O   UNL     1       3.464  -6.495  -9.457  1.00  0.00    -0.550 OA
ATOM     11  O   UNL     1       3.359  -7.390  -7.351  1.00  0.00    -0.550 OA
ENDBRANCH   8   9
ENDBRANCH   7   8
ENDBRANCH   6   7
ENDBRANCH   5   6
ENDBRANCH   4   5
ENDBRANCH   3   4
ENDBRANCH   2   3
ENDBRANCH   1   2
BRANCH   1  12
ATOM     12  C   UNL     1       5.952  -2.905  -9.684  1.00  0.00     0.000 C 
BRANCH  12  13
ATOM     13  C   UNL     1       4.738  -3.242  -8.800  1.00  0.00    -0.000 C 
BRANCH  13  14
ATOM     14  C   UNL     1       5.015  -2.975  -7.305  1.00  0.00    -0.000 C 
BRANCH  14  15
ATOM     15  C   UNL     1       4.964  -4.243  -6.433  1.00  0.00    -0.000 C 
BRANCH  15  16
ATOM     16  C   UNL     1       6.355  -4.704  -5.971  1.00  0.00    -0.000 C 
BRANCH  16  17
ATOM     17  C   UNL     1       6.368  -6.170  -5.510  1.00  0.00    -0.000 C 
BRANCH  17  18
ATOM     18  C   UNL     1       7.791  -6.720  -5.321  1.00  0.00    -0.000 C 
BRANCH  18  19
ATOM     19  C   UNL     1       7.855  -8.209  -5.684  1.00  0.00    -0.003 C 
ATOM     20  C   UNL     1       9.227  -8.583  -6.238  1.00  0.00     0.004 C 
ENDBRANCH  18  19
ENDBRANCH  17  18
ENDBRANCH  16  17
ENDBRANCH  15  16
ENDBRANCH  14  15
ENDBRANCH  13  14
ENDBRANCH  12  13
ENDBRANCH   1  12
TORSDOF 16
ENDMDL
MODEL 6
REMARK VINA RESULT:    -3.735      2.331      3.905
REMARK INTER + INTRA:          -9.335
REMARK INTER:                  -7.310
REMARK INTRA:                  -2.025
REMARK UNBOUND:                -2.107
REMARK SMILES CCCCCCCCCCCCCCCCCC(=O)[O-]
REMARK SMILES IDX 10 1 11 2 12 3 13 4 14 5 15 6 16 7 17 8 18 9 19 10 20 11
REMARK SMILES IDX 9 12 8 13 7 14 6 15 5 16 4 17 3 18 2 19 1 20
REMARK H PARENT
REMARK Flexibility Score: inf
ROOT
ATOM      1  C   UNL     1       6.195  -7.222  -7.563  1.00  0.00     0.000 C 
ENDROOT
BRANCH   1   2
ATOM      2  C   UNL     1       6.406  -6.719  -6.123  1.00  0.00     0.000 C 
BRANCH   2   3
ATOM      3  C   UNL     1       7.545  -5.690  -6.011  1.00  0.00     0.000 C 
BRANCH   3   4
ATOM      4  C   UNL     1       8.932  -6.320  -6.221  1.00  0.00     0.000 C 
BRANCH   4   5
ATOM      5  C   UNL     1       9.943  -5.334  -6.834  1.00  0.00     0.000 C 
BRANCH   5   6
ATOM      6  C   UNL     1      10.023  -5.437  -8.367  1.00  0.00     0.000 C 
BRANCH   6   7
ATOM      7  C   UNL     1       9.386  -4.264  -9.139  1.00  0.00     0.006 C 
BRANCH   7   8
ATOM      8  C   UNL     1       9.720  -2.873  -8.576  1.00  0.00     0.053 C 
BRANCH   8   9
ATOM      9  C   UNL     1       8.489  -2.119  -8.179  1.00  0.00     0.041 C 
ATOM     10  O   UNL     1       7.946  -2.333  -7.063  1.00  0.00    -0.550 OA
ATOM     11  O   UNL     1       7.918  -1.209  -9.059  1.00  0.00    -0.550 OA
ENDBRANCH   8   9
ENDBRANCH   7   8
ENDBRANCH   6   7
ENDBRANCH   5   6
ENDBRANCH   4   5
ENDBRANCH   3   4
ENDBRANCH   2   3
ENDBRANCH   1   2
BRANCH   1  12
ATOM     12  C   UNL     1       6.307  -6.139  -8.652  1.00  0.00     0.000 C 
BRANCH  12  13
ATOM     13  C   UNL     1       4.999  -5.354  -8.854  1.00  0.00    -0.000 C 
BRANCH  13  14
ATOM     14  C   UNL     1       5.236  -3.829  -8.894  1.00  0.00    -0.000 C 
BRANCH  14  15
ATOM     15  C   UNL     1       4.603  -3.077  -7.709  1.00  0.00    -0.000 C 
BRANCH  15  16
ATOM     16  C   UNL     1       4.108  -4.019  -6.601  1.00  0.00    -0.000 C 
BRANCH  16  17
ATOM     17  C   UNL     1       2.837  -3.501  -5.909  1.00  0.00    -0.000 C 
BRANCH  17  18
ATOM     18  C   UNL     1       3.118  -2.903  -4.522  1.00  0.00    -0.000 C 
BRANCH  18  19
ATOM     19  C   UNL     1       1.864  -2.952  -3.641  1.00  0.00    -0.003 C 
ATOM     20  C   UNL     1       2.201  -2.650  -2.183  1.00  0.00     0.004 C 
ENDBRANCH  18  19
ENDBRANCH  17  18
ENDBRANCH  16  17
ENDBRANCH  15  16
ENDBRANCH  14  15
ENDBRANCH  13  14
ENDBRANCH  12  13
ENDBRANCH   1  12
TORSDOF 16
ENDMDL
MODEL 7
REMARK VINA RESULT:    -3.719      2.099      5.573
REMARK INTER + INTRA:          -9.305
REMARK INTER:                  -6.493
REMARK INTRA:                  -2.812
REMARK UNBOUND:                -2.107
REMARK SMILES CCCCCCCCCCCCCCCCCC(=O)[O-]
REMARK SMILES IDX 10 1 11 2 12 3 13 4 14 5 15 6 16 7 17 8 18 9 19 10 20 11
REMARK SMILES IDX 9 12 8 13 7 14 6 15 5 16 4 17 3 18 2 19 1 20
REMARK H PARENT
REMARK Flexibility Score: inf
ROOT
ATOM      1  C   UNL     1       4.116  -4.094  -6.912  1.00  0.00     0.000 C 
ENDROOT
BRANCH   1   2
ATOM      2  C   UNL     1       3.093  -4.864  -7.767  1.00  0.00     0.000 C 
BRANCH   2   3
ATOM      3  C   UNL     1       3.127  -4.456  -9.251  1.00  0.00     0.000 C 
BRANCH   3   4
ATOM      4  C   UNL     1       3.945  -5.433 -10.113  1.00  0.00     0.000 C 
BRANCH   4   5
ATOM      5  C   UNL     1       4.218  -6.767  -9.397  1.00  0.00     0.000 C 
BRANCH   5   6
ATOM      6  C   UNL     1       5.711  -7.139  -9.376  1.00  0.00     0.000 C 
BRANCH   6   7
ATOM      7  C   UNL     1       6.493  -6.643  -8.142  1.00  0.00     0.006 C 
BRANCH   7   8
ATOM      8  C   UNL     1       6.015  -7.230  -6.805  1.00  0.00     0.053 C 
BRANCH   8   9
ATOM      9  C   UNL     1       6.663  -6.559  -5.634  1.00  0.00     0.041 C 
ATOM     10  O   UNL     1       5.958  -6.000  -4.752  1.00  0.00    -0.550 OA
ATOM     11  O   UNL     1       8.048  -6.514  -5.538  1.00  0.00    -0.550 OA
ENDBRANCH   8   9
ENDBRANCH   7   8
ENDBRANCH   6   7
ENDBRANCH   5   6
ENDBRANCH   4   5
ENDBRANCH   3   4
ENDBRANCH   2   3
ENDBRANCH   1   2
BRANCH   1  12
ATOM     12  C   UNL     1       4.721  -2.849  -7.587  1.00  0.00     0.000 C 
BRANCH  12  13
ATOM     13  C   UNL     1       6.237  -2.971  -7.818  1.00  0.00    -0.000 C 
BRANCH  13  14
ATOM     14  C   UNL     1       6.599  -2.967  -9.319  1.00  0.00    -0.000 C 
BRANCH  14  15
ATOM     15  C   UNL     1       7.648  -1.906  -9.697  1.00  0.00    -0.000 C 
BRANCH  15  16
ATOM     16  C   UNL     1       8.633  -1.609  -8.556  1.00  0.00    -0.000 C 
BRANCH  16  17
ATOM     17  C   UNL     1       9.871  -2.521  -8.592  1.00  0.00    -0.000 C 
BRANCH  17  18
ATOM     18  C   UNL     1       9.841  -3.605  -7.503  1.00  0.00    -0.000 C 
BRANCH  18  19
ATOM     19  C   UNL     1       9.852  -5.007  -8.126  1.00  0.00    -0.003 C 
ATOM     20  C   UNL     1       9.980  -4.934  -9.645  1.00  0.00     0.004 C 
ENDBRANCH  18  19
ENDBRANCH  17  18
ENDBRANCH  16  17
ENDBRANCH  15  16
ENDBRANCH  14  15
ENDBRANCH  13  14
ENDBRANCH  12  13
ENDBRANCH   1  12
TORSDOF 16
ENDMDL
MODEL 8
REMARK VINA RESULT:    -3.620      2.253      5.978
REMARK INTER + INTRA:          -9.113
REMARK INTER:                  -6.143
REMARK INTRA:                  -2.970
REMARK UNBOUND:                -2.107
REMARK SMILES CCCCCCCCCCCCCCCCCC(=O)[O-]
REMARK SMILES IDX 10 1 11 2 12 3 13 4 14 5 15 6 16 7 17 8 18 9 19 10 20 11
REMARK SMILES IDX 9 12 8 13 7 14 6 15 5 16 4 17 3 18 2 19 1 20
REMARK H PARENT
REMARK Flexibility Score: inf
ROOT
ATOM      1  C   UNL     1       6.682  -7.551  -5.905  1.00  0.00     0.000 C 
ENDROOT
BRANCH   1   2
ATOM      2  C   UNL     1       5.808  -7.244  -7.136  1.00  0.00     0.000 C 
BRANCH   2   3
ATOM      3  C   UNL     1       6.365  -7.860  -8.432  1.00  0.00     0.000 C 
BRANCH   3   4
ATOM      4  C   UNL     1       6.105  -6.976  -9.664  1.00  0.00     0.000 C 
BRANCH   4   5
ATOM      5  C   UNL     1       4.979  -5.954  -9.432  1.00  0.00     0.000 C 
BRANCH   5   6
ATOM      6  C   UNL     1       5.473  -4.498  -9.489  1.00  0.00     0.000 C 
BRANCH   6   7
ATOM      7  C   UNL     1       4.458  -3.440  -9.012  1.00  0.00     0.006 C 
BRANCH   7   8
ATOM      8  C   UNL     1       4.626  -3.010  -7.546  1.00  0.00     0.053 C 
BRANCH   8   9
ATOM      9  C   UNL     1       4.059  -4.019  -6.597  1.00  0.00     0.041 C 
ATOM     10  O   UNL     1       2.921  -4.517  -6.805  1.00  0.00    -0.550 OA
ATOM     11  O   UNL     1       4.770  -4.381  -5.460  1.00  0.00    -0.550 OA
ENDBRANCH   8   9
ENDBRANCH   7   8
ENDBRANCH   6   7
ENDBRANCH   5   6
ENDBRANCH   4   5
ENDBRANCH   3   4
ENDBRANCH   2   3
ENDBRANCH   1   2
BRANCH   1  12
ATOM     12  C   UNL     1       8.095  -8.071  -6.226  1.00  0.00     0.000 C 
BRANCH  12  13
ATOM     13  C   UNL     1       9.186  -7.410  -5.364  1.00  0.00    -0.000 C 
BRANCH  13  14
ATOM     14  C   UNL     1       9.932  -6.293  -6.126  1.00  0.00    -0.000 C 
BRANCH  14  15
ATOM     15  C   UNL     1       9.637  -6.275  -7.636  1.00  0.00    -0.000 C 
BRANCH  15  16
ATOM     16  C   UNL     1       8.825  -5.044  -8.070  1.00  0.00    -0.000 C 
BRANCH  16  17
ATOM     17  C   UNL     1       8.198  -4.300  -6.880  1.00  0.00    -0.000 C 
BRANCH  17  18
ATOM     18  C   UNL     1       8.134  -2.781  -7.097  1.00  0.00    -0.000 C 
BRANCH  18  19
ATOM     19  C   UNL     1       8.940  -2.370  -8.334  1.00  0.00    -0.003 C 
ATOM     20  C   UNL     1       8.114  -1.484  -9.262  1.00  0.00     0.004 C 
ENDBRANCH  18  19
ENDBRANCH  17  18
ENDBRANCH  16  17
ENDBRANCH  15  16
ENDBRANCH  14  15
ENDBRANCH  13  14
ENDBRANCH  12  13
ENDBRANCH   1  12
TORSDOF 16
ENDMDL
MODEL 9
REMARK VINA RESULT:    -3.610      2.422      5.681
REMARK INTER + INTRA:          -9.095
REMARK INTER:                  -5.833
REMARK INTRA:                  -3.262
REMARK UNBOUND:                -2.107
REMARK SMILES CCCCCCCCCCCCCCCCCC(=O)[O-]
REMARK SMILES IDX 10 1 11 2 12 3 13 4 14 5 15 6 16 7 17 8 18 9 19 10 20 11
REMARK SMILES IDX 9 12 8 13 7 14 6 15 5 16 4 17 3 18 2 19 1 20
REMARK H PARENT
REMARK Flexibility Score: inf
ROOT
ATOM      1  C   UNL     1       6.722  -4.681  -6.043  1.00  0.00     0.000 C 
ENDROOT
BRANCH   1   2
ATOM      2  C   UNL     1       8.153  -4.283  -6.451  1.00  0.00     0.000 C 
BRANCH   2   3
ATOM      3  C   UNL     1       8.217  -2.906  -7.136  1.00  0.00     0.000 C 
BRANCH   3   4
ATOM      4  C   UNL     1       8.138  -3.005  -8.668  1.00  0.00     0.000 C 
BRANCH   4   5
ATOM      5  C   UNL     1       6.993  -2.163  -9.258  1.00  0.00     0.000 C 
BRANCH   5   6
ATOM      6  C   UNL     1       5.751  -3.003  -9.602  1.00  0.00     0.000 C 
BRANCH   6   7
ATOM      7  C   UNL     1       4.613  -2.949  -8.563  1.00  0.00     0.006 C 
BRANCH   7   8
ATOM      8  C   UNL     1       3.574  -4.074  -8.694  1.00  0.00     0.053 C 
BRANCH   8   9
ATOM      9  C   UNL     1       3.331  -4.768  -7.390  1.00  0.00     0.041 C 
ATOM     10  O   UNL     1       3.166  -4.098  -6.336  1.00  0.00    -0.550 OA
ATOM     11  O   UNL     1       3.328  -6.155  -7.331  1.00  0.00    -0.550 OA
ENDBRANCH   8   9
ENDBRANCH   7   8
ENDBRANCH   6   7
ENDBRANCH   5   6
ENDBRANCH   4   5
ENDBRANCH   3   4
ENDBRANCH   2   3
ENDBRANCH   1   2
BRANCH   1  12
ATOM     12  C   UNL     1       6.546  -6.159  -5.652  1.00  0.00     0.000 C 
BRANCH  12  13
ATOM     13  C   UNL     1       7.881  -6.862  -5.348  1.00  0.00    -0.000 C 
BRANCH  13  14
ATOM     14  C   UNL     1       7.947  -8.277  -5.965  1.00  0.00    -0.000 C 
BRANCH  14  15
ATOM     15  C   UNL     1       9.261  -8.560  -6.715  1.00  0.00    -0.000 C 
BRANCH  15  16
ATOM     16  C   UNL     1       9.485  -7.613  -7.904  1.00  0.00    -0.000 C 
BRANCH  16  17
ATOM     17  C   UNL     1       8.456  -7.822  -9.027  1.00  0.00    -0.000 C 
BRANCH  17  18
ATOM     18  C   UNL     1       7.774  -6.514  -9.458  1.00  0.00    -0.000 C 
BRANCH  18  19
ATOM     19  C   UNL     1       6.251  -6.617  -9.312  1.00  0.00    -0.003 C 
ATOM     20  C   UNL     1       5.822  -8.049  -9.005  1.00  0.00     0.004 C 
ENDBRANCH  18  19
ENDBRANCH  17  18
ENDBRANCH  16  17
ENDBRANCH  15  16
ENDBRANCH  14  15
ENDBRANCH  13  14
ENDBRANCH  12  13
ENDBRANCH   1  12
TORSDOF 16
ENDMDL
