MODEL 1
REMARK VINA RESULT:    -4.675      0.000      0.000
REMARK INTER + INTRA:          -5.620
REMARK INTER:                  -5.358
REMARK INTRA:                  -0.262
REMARK UNBOUND:                -0.262
REMARK SMILES COc1ccc(C=O)c(O)c1
REMARK SMILES IDX 3 1 11 2 9 3 6 4 5 5 4 6 2 7 1 8 10 9 7 11 8 12
REMARK H PARENT 10 10
REMARK Flexibility Score: inf
ROOT
ATOM      1  C   UNL     1     -12.503  -7.626  37.699  1.00  0.00     0.122 A 
ATOM      2  C   UNL     1     -11.753  -8.589  37.017  1.00  0.00     0.093 A 
ATOM      3  C   UNL     1     -10.828  -9.396  37.690  1.00  0.00     0.129 A 
ATOM      4  C   UNL     1     -10.679  -9.269  39.096  1.00  0.00     0.056 A 
ATOM      5  C   UNL     1     -11.418  -8.284  39.770  1.00  0.00     0.019 A 
ATOM      6  C   UNL     1     -12.322  -7.470  39.083  1.00  0.00     0.047 A 
ENDROOT
BRANCH   1   7
ATOM      7  O   UNL     1     -13.407  -6.843  36.965  1.00  0.00    -0.497 OA
ATOM      8  C   UNL     1     -14.477  -6.098  37.540  1.00  0.00     0.278 C 
ENDBRANCH   1   7
BRANCH   3   9
ATOM      9  O   UNL     1     -10.060 -10.276  36.923  1.00  0.00    -0.507 OA
ATOM     10  H   UNL     1     -10.049 -10.277  35.914  1.00  0.00     0.293 HD
ENDBRANCH   3   9
BRANCH   4  11
ATOM     11  C   UNL     1      -9.804 -10.143  39.906  1.00  0.00     0.263 C 
ATOM     12  O   UNL     1      -8.778 -10.688  39.422  1.00  0.00    -0.298 OA
ENDBRANCH   4  11
TORSDOF 3
ENDMDL
MODEL 2
REMARK VINA RESULT:    -4.639      8.585     10.167
REMARK INTER + INTRA:          -5.579
REMARK INTER:                  -5.316
REMARK INTRA:                  -0.263
REMARK UNBOUND:                -0.262
REMARK SMILES COc1ccc(C=O)c(O)c1
REMARK SMILES IDX 3 1 11 2 9 3 6 4 5 5 4 6 2 7 1 8 10 9 7 11 8 12
REMARK H PARENT 10 10
REMARK Flexibility Score: inf
ROOT
ATOM      1  C   UNL     1     -16.088 -10.288  46.898  1.00  0.00     0.122 A 
ATOM      2  C   UNL     1     -16.884  -9.142  46.835  1.00  0.00     0.093 A 
ATOM      3  C   UNL     1     -17.408  -8.690  45.617  1.00  0.00     0.129 A 
ATOM      4  C   UNL     1     -17.166  -9.432  44.432  1.00  0.00     0.056 A 
ATOM      5  C   UNL     1     -16.346 -10.570  44.500  1.00  0.00     0.019 A 
ATOM      6  C   UNL     1     -15.812 -10.997  45.717  1.00  0.00     0.047 A 
ENDROOT
BRANCH   1   7
ATOM      7  O   UNL     1     -15.586 -10.684  48.148  1.00  0.00    -0.497 OA
ATOM      8  C   UNL     1     -14.419 -11.480  48.331  1.00  0.00     0.278 C 
ENDBRANCH   1   7
BRANCH   3   9
ATOM      9  O   UNL     1     -18.125  -7.491  45.628  1.00  0.00    -0.507 OA
ATOM     10  H   UNL     1     -17.819  -6.658  46.110  1.00  0.00     0.293 HD
ENDBRANCH   3   9
BRANCH   4  11
ATOM     11  C   UNL     1     -17.759  -9.092  43.121  1.00  0.00     0.263 C 
ATOM     12  O   UNL     1     -17.739  -7.917  42.668  1.00  0.00    -0.298 OA
ENDBRANCH   4  11
TORSDOF 3
ENDMDL
MODEL 3
REMARK VINA RESULT:    -4.621      2.100      3.393
REMARK INTER + INTRA:          -5.558
REMARK INTER:                  -5.311
REMARK INTRA:                  -0.248
REMARK UNBOUND:                -0.262
REMARK SMILES COc1ccc(C=O)c(O)c1
REMARK SMILES IDX 3 1 11 2 9 3 6 4 5 5 4 6 2 7 1 8 10 9 7 11 8 12
REMARK H PARENT 10 10
REMARK Flexibility Score: inf
ROOT
ATOM      1  C   UNL     1     -14.539  -5.924  38.580  1.00  0.00     0.122 A 
ATOM      2  C   UNL     1     -13.579  -6.433  39.459  1.00  0.00     0.093 A 
ATOM      3  C   UNL     1     -12.564  -7.285  39.008  1.00  0.00     0.129 A 
ATOM      4  C   UNL     1     -12.477  -7.604  37.628  1.00  0.00     0.056 A 
ATOM      5  C   UNL     1     -13.459  -7.107  36.755  1.00  0.00     0.019 A 
ATOM      6  C   UNL     1     -14.479  -6.276  37.222  1.00  0.00     0.047 A 
ENDROOT
BRANCH   1   7
ATOM      7  O   UNL     1     -15.536  -5.081  39.096  1.00  0.00    -0.497 OA
ATOM      8  C   UNL     1     -16.904  -5.449  39.239  1.00  0.00     0.278 C 
ENDBRANCH   1   7
BRANCH   3   9
ATOM      9  O   UNL     1     -11.693  -7.816  39.964  1.00  0.00    -0.507 OA
ATOM     10  H   UNL     1     -11.983  -8.445  40.698  1.00  0.00     0.293 HD
ENDBRANCH   3   9
BRANCH   4  11
ATOM     11  C   UNL     1     -11.385  -8.410  37.043  1.00  0.00     0.263 C 
ATOM     12  O   UNL     1     -11.076  -9.541  37.502  1.00  0.00    -0.298 OA
ENDBRANCH   4  11
TORSDOF 3
ENDMDL
MODEL 4
REMARK VINA RESULT:    -4.607      4.641      6.476
REMARK INTER + INTRA:          -5.542
REMARK INTER:                  -5.280
REMARK INTRA:                  -0.262
REMARK UNBOUND:                -0.262
REMARK SMILES COc1ccc(C=O)c(O)c1
REMARK SMILES IDX 3 1 11 2 9 3 6 4 5 5 4 6 2 7 1 8 10 9 7 11 8 12
REMARK H PARENT 10 10
REMARK Flexibility Score: inf
ROOT
ATOM      1  C   UNL     1     -15.487  -5.949  38.475  1.00  0.00     0.122 A 
ATOM      2  C   UNL     1     -14.885  -5.759  39.722  1.00  0.00     0.093 A 
ATOM      3  C   UNL     1     -15.593  -5.981  40.910  1.00  0.00     0.129 A 
ATOM      4  C   UNL     1     -16.929  -6.453  40.851  1.00  0.00     0.056 A 
ATOM      5  C   UNL     1     -17.535  -6.619  39.595  1.00  0.00     0.019 A 
ATOM      6  C   UNL     1     -16.825  -6.372  38.418  1.00  0.00     0.047 A 
ENDROOT
BRANCH   1   7
ATOM      7  O   UNL     1     -14.727  -5.700  37.322  1.00  0.00    -0.497 OA
ATOM      8  C   UNL     1     -14.022  -6.699  36.592  1.00  0.00     0.278 C 
ENDBRANCH   1   7
BRANCH   3   9
ATOM      9  O   UNL     1     -14.944  -5.689  42.113  1.00  0.00    -0.507 OA
ATOM     10  H   UNL     1     -14.665  -6.390  42.783  1.00  0.00     0.293 HD
ENDBRANCH   3   9
BRANCH   4  11
ATOM     11  C   UNL     1     -17.722  -6.812  42.046  1.00  0.00     0.263 C 
ATOM     12  O   UNL     1     -17.613  -6.180  43.129  1.00  0.00    -0.298 OA
ENDBRANCH   4  11
TORSDOF 3
ENDMDL
MODEL 5
REMARK VINA RESULT:    -4.597      1.931      3.289
REMARK INTER + INTRA:          -5.530
REMARK INTER:                  -5.286
REMARK INTRA:                  -0.245
REMARK UNBOUND:                -0.262
REMARK SMILES COc1ccc(C=O)c(O)c1
REMARK SMILES IDX 3 1 11 2 9 3 6 4 5 5 4 6 2 7 1 8 10 9 7 11 8 12
REMARK H PARENT 10 10
REMARK Flexibility Score: inf
ROOT
ATOM      1  C   UNL     1     -14.572  -5.840  38.878  1.00  0.00     0.122 A 
ATOM      2  C   UNL     1     -14.593  -6.401  37.598  1.00  0.00     0.093 A 
ATOM      3  C   UNL     1     -13.564  -7.243  37.160  1.00  0.00     0.129 A 
ATOM      4  C   UNL     1     -12.503  -7.572  38.043  1.00  0.00     0.056 A 
ATOM      5  C   UNL     1     -12.477  -6.986  39.319  1.00  0.00     0.019 A 
ATOM      6  C   UNL     1     -13.499  -6.130  39.736  1.00  0.00     0.047 A 
ENDROOT
BRANCH   1   7
ATOM      7  O   UNL     1     -15.629  -4.997  39.254  1.00  0.00    -0.497 OA
ATOM      8  C   UNL     1     -17.002  -5.378  39.252  1.00  0.00     0.278 C 
ENDBRANCH   1   7
BRANCH   3   9
ATOM      9  O   UNL     1     -13.618  -7.696  35.839  1.00  0.00    -0.507 OA
ATOM     10  H   UNL     1     -12.966  -7.412  35.122  1.00  0.00     0.293 HD
ENDBRANCH   3   9
BRANCH   4  11
ATOM     11  C   UNL     1     -11.428  -8.529  37.708  1.00  0.00     0.263 C 
ATOM     12  O   UNL     1     -10.729  -8.405  36.668  1.00  0.00    -0.298 OA
ENDBRANCH   4  11
TORSDOF 3
ENDMDL
MODEL 6
REMARK VINA RESULT:    -4.587      1.337      4.676
REMARK INTER + INTRA:          -5.519
REMARK INTER:                  -5.277
REMARK INTRA:                  -0.242
REMARK UNBOUND:                -0.262
REMARK SMILES COc1ccc(C=O)c(O)c1
REMARK SMILES IDX 3 1 11 2 9 3 6 4 5 5 4 6 2 7 1 8 10 9 7 11 8 12
REMARK H PARENT 10 10
REMARK Flexibility Score: inf
ROOT
ATOM      1  C   UNL     1     -11.439  -8.393  38.237  1.00  0.00     0.122 A 
ATOM      2  C   UNL     1     -12.137  -8.078  37.068  1.00  0.00     0.093 A 
ATOM      3  C   UNL     1     -13.220  -7.191  37.088  1.00  0.00     0.129 A 
ATOM      4  C   UNL     1     -13.591  -6.564  38.305  1.00  0.00     0.056 A 
ATOM      5  C   UNL     1     -12.900  -6.903  39.480  1.00  0.00     0.019 A 
ATOM      6  C   UNL     1     -11.835  -7.806  39.450  1.00  0.00     0.047 A 
ENDROOT
BRANCH   1   7
ATOM      7  O   UNL     1     -10.368  -9.296  38.152  1.00  0.00    -0.497 OA
ATOM      8  C   UNL     1      -9.836 -10.019  39.258  1.00  0.00     0.278 C 
ENDBRANCH   1   7
BRANCH   3   9
ATOM      9  O   UNL     1     -13.915  -6.993  35.892  1.00  0.00    -0.507 OA
ATOM     10  H   UNL     1     -13.704  -7.480  35.033  1.00  0.00     0.293 HD
ENDBRANCH   3   9
BRANCH   4  11
ATOM     11  C   UNL     1     -14.652  -5.540  38.407  1.00  0.00     0.263 C 
ATOM     12  O   UNL     1     -15.828  -5.762  38.015  1.00  0.00    -0.298 OA
ENDBRANCH   4  11
TORSDOF 3
ENDMDL
MODEL 7
REMARK VINA RESULT:    -4.481      8.489      9.924
REMARK INTER + INTRA:          -5.398
REMARK INTER:                  -5.132
REMARK INTRA:                  -0.266
REMARK UNBOUND:                -0.262
REMARK SMILES COc1ccc(C=O)c(O)c1
REMARK SMILES IDX 3 1 11 2 9 3 6 4 5 5 4 6 2 7 1 8 10 9 7 11 8 12
REMARK H PARENT 10 10
REMARK Flexibility Score: inf
ROOT
ATOM      1  C   UNL     1     -16.852  -9.754  46.656  1.00  0.00     0.122 A 
ATOM      2  C   UNL     1     -16.992 -10.293  45.374  1.00  0.00     0.093 A 
ATOM      3  C   UNL     1     -17.448  -9.511  44.306  1.00  0.00     0.129 A 
ATOM      4  C   UNL     1     -17.729  -8.136  44.514  1.00  0.00     0.056 A 
ATOM      5  C   UNL     1     -17.607  -7.607  45.809  1.00  0.00     0.019 A 
ATOM      6  C   UNL     1     -17.173  -8.404  46.871  1.00  0.00     0.047 A 
ENDROOT
BRANCH   1   7
ATOM      7  O   UNL     1     -16.399 -10.592  47.686  1.00  0.00    -0.497 OA
ATOM      8  C   UNL     1     -15.211 -11.377  47.622  1.00  0.00     0.278 C 
ENDBRANCH   1   7
BRANCH   3   9
ATOM      9  O   UNL     1     -17.639 -10.146  43.076  1.00  0.00    -0.507 OA
ATOM     10  H   UNL     1     -17.545  -9.681  42.185  1.00  0.00     0.293 HD
ENDBRANCH   3   9
BRANCH   4  11
ATOM     11  C   UNL     1     -18.116  -7.208  43.429  1.00  0.00     0.263 C 
ATOM     12  O   UNL     1     -17.622  -7.294  42.275  1.00  0.00    -0.298 OA
ENDBRANCH   4  11
TORSDOF 3
ENDMDL
MODEL 8
REMARK VINA RESULT:    -4.430      8.960      9.675
REMARK INTER + INTRA:          -5.339
REMARK INTER:                  -5.092
REMARK INTRA:                  -0.247
REMARK UNBOUND:                -0.262
REMARK SMILES COc1ccc(C=O)c(O)c1
REMARK SMILES IDX 3 1 11 2 9 3 6 4 5 5 4 6 2 7 1 8 10 9 7 11 8 12
REMARK H PARENT 10 10
REMARK Flexibility Score: inf
ROOT
ATOM      1  C   UNL     1     -17.349  -9.120  45.018  1.00  0.00     0.122 A 
ATOM      2  C   UNL     1     -17.329  -8.909  46.399  1.00  0.00     0.093 A 
ATOM      3  C   UNL     1     -16.582  -9.734  47.248  1.00  0.00     0.129 A 
ATOM      4  C   UNL     1     -15.793 -10.776  46.696  1.00  0.00     0.056 A 
ATOM      5  C   UNL     1     -15.836 -10.997  45.309  1.00  0.00     0.019 A 
ATOM      6  C   UNL     1     -16.603 -10.180  44.477  1.00  0.00     0.047 A 
ENDROOT
BRANCH   1   7
ATOM      7  O   UNL     1     -18.125  -8.263  44.222  1.00  0.00    -0.497 OA
ATOM      8  C   UNL     1     -17.725  -7.766  42.949  1.00  0.00     0.278 C 
ENDBRANCH   1   7
BRANCH   3   9
ATOM      9  O   UNL     1     -16.681  -9.506  48.623  1.00  0.00    -0.507 OA
ATOM     10  H   UNL     1     -17.429  -8.980  49.051  1.00  0.00     0.293 HD
ENDBRANCH   3   9
BRANCH   4  11
ATOM     11  C   UNL     1     -14.894 -11.633  47.498  1.00  0.00     0.263 C 
ATOM     12  O   UNL     1     -14.659 -11.395  48.712  1.00  0.00    -0.298 OA
ENDBRANCH   4  11
TORSDOF 3
ENDMDL
MODEL 9
REMARK VINA RESULT:    -4.413      5.013      6.777
REMARK INTER + INTRA:          -5.320
REMARK INTER:                  -5.057
REMARK INTRA:                  -0.263
REMARK UNBOUND:                -0.262
REMARK SMILES COc1ccc(C=O)c(O)c1
REMARK SMILES IDX 3 1 11 2 9 3 6 4 5 5 4 6 2 7 1 8 10 9 7 11 8 12
REMARK H PARENT 10 10
REMARK Flexibility Score: inf
ROOT
ATOM      1  C   UNL     1     -16.657  -6.501  42.010  1.00  0.00     0.122 A 
ATOM      2  C   UNL     1     -17.388  -6.507  40.819  1.00  0.00     0.093 A 
ATOM      3  C   UNL     1     -16.806  -6.107  39.610  1.00  0.00     0.129 A 
ATOM      4  C   UNL     1     -15.438  -5.733  39.581  1.00  0.00     0.056 A 
ATOM      5  C   UNL     1     -14.716  -5.707  40.785  1.00  0.00     0.019 A 
ATOM      6  C   UNL     1     -15.315  -6.087  41.988  1.00  0.00     0.047 A 
ENDROOT
BRANCH   1   7
ATOM      7  O   UNL     1     -17.301  -6.904  43.190  1.00  0.00    -0.497 OA
ATOM      8  C   UNL     1     -18.125  -8.060  43.302  1.00  0.00     0.278 C 
ENDBRANCH   1   7
BRANCH   3   9
ATOM      9  O   UNL     1     -17.628  -6.063  38.481  1.00  0.00    -0.507 OA
ATOM     10  H   UNL     1     -18.621  -5.885  38.516  1.00  0.00     0.293 HD
ENDBRANCH   3   9
BRANCH   4  11
ATOM     11  C   UNL     1     -14.710  -5.394  38.339  1.00  0.00     0.263 C 
ATOM     12  O   UNL     1     -14.871  -6.049  37.276  1.00  0.00    -0.298 OA
ENDBRANCH   4  11
TORSDOF 3
ENDMDL
