MODEL 1
REMARK VINA RESULT:    -4.450      0.000      0.000
REMARK INTER + INTRA:          -5.098
REMARK INTER:                  -4.970
REMARK INTRA:                  -0.129
REMARK UNBOUND:                -0.129
REMARK SMILES O=C([O-])C=Cc1ccccc1
REMARK SMILES IDX 4 1 5 2 2 3 1 4 3 5 6 6 7 7 11 8 8 9 10 10 9 11
REMARK H PARENT
REMARK Flexibility Score: inf
ROOT
ATOM      1  C   UNL     1      31.843   5.227  49.266  1.00  0.00     0.025 C 
ATOM      2  C   UNL     1      31.475   5.364  47.984  1.00  0.00     0.010 C 
ENDROOT
BRANCH   1   3
ATOM      3  C   UNL     1      32.201   3.918  49.835  1.00  0.00     0.064 C 
ATOM      4  O   UNL     1      32.517   3.835  51.051  1.00  0.00    -0.545 OA
ATOM      5  O   UNL     1      32.197   2.769  49.053  1.00  0.00    -0.545 OA
ENDBRANCH   1   3
BRANCH   2   6
ATOM      6  C   UNL     1      31.099   6.651  47.340  1.00  0.00    -0.026 A 
ATOM      7  C   UNL     1      32.084   7.340  46.610  1.00  0.00     0.008 A 
ATOM      8  C   UNL     1      29.806   7.214  47.425  1.00  0.00     0.008 A 
ATOM      9  C   UNL     1      31.790   8.556  45.983  1.00  0.00     0.001 A 
ATOM     10  C   UNL     1      29.518   8.430  46.795  1.00  0.00     0.001 A 
ATOM     11  C   UNL     1      30.509   9.099  46.076  1.00  0.00     0.000 A 
ENDBRANCH   2   6
TORSDOF 2
ENDMDL
MODEL 2
REMARK VINA RESULT:    -4.340      9.893     10.820
REMARK INTER + INTRA:          -4.976
REMARK INTER:                  -4.842
REMARK INTRA:                  -0.134
REMARK UNBOUND:                -0.129
REMARK SMILES O=C([O-])C=Cc1ccccc1
REMARK SMILES IDX 4 1 5 2 2 3 1 4 3 5 6 6 7 7 11 8 8 9 10 10 9 11
REMARK H PARENT
REMARK Flexibility Score: inf
ROOT
ATOM      1  C   UNL     1      24.071   2.077  40.131  1.00  0.00     0.025 C 
ATOM      2  C   UNL     1      25.084   2.816  39.655  1.00  0.00     0.010 C 
ENDROOT
BRANCH   1   3
ATOM      3  C   UNL     1      23.444   1.013  39.331  1.00  0.00     0.064 C 
ATOM      4  O   UNL     1      23.761  -0.188  39.538  1.00  0.00    -0.545 OA
ATOM      5  O   UNL     1      22.505   1.311  38.350  1.00  0.00    -0.545 OA
ENDBRANCH   1   3
BRANCH   2   6
ATOM      6  C   UNL     1      25.767   3.906  40.402  1.00  0.00    -0.026 A 
ATOM      7  C   UNL     1      24.982   4.961  40.902  1.00  0.00     0.008 A 
ATOM      8  C   UNL     1      27.160   3.934  40.633  1.00  0.00     0.008 A 
ATOM      9  C   UNL     1      25.568   6.015  41.611  1.00  0.00     0.001 A 
ATOM     10  C   UNL     1      27.740   4.991  41.344  1.00  0.00     0.001 A 
ATOM     11  C   UNL     1      26.945   6.029  41.832  1.00  0.00     0.000 A 
ENDBRANCH   2   6
TORSDOF 2
ENDMDL
MODEL 3
REMARK VINA RESULT:    -4.248      7.836      9.053
REMARK INTER + INTRA:          -4.874
REMARK INTER:                  -4.746
REMARK INTRA:                  -0.128
REMARK UNBOUND:                -0.129
REMARK SMILES O=C([O-])C=Cc1ccccc1
REMARK SMILES IDX 4 1 5 2 2 3 1 4 3 5 6 6 7 7 11 8 8 9 10 10 9 11
REMARK H PARENT
REMARK Flexibility Score: inf
ROOT
ATOM      1  C   UNL     1      32.995   5.269  41.121  1.00  0.00     0.025 C 
ATOM      2  C   UNL     1      34.309   5.025  41.229  1.00  0.00     0.010 C 
ENDROOT
BRANCH   1   3
ATOM      3  C   UNL     1      32.097   5.216  42.285  1.00  0.00     0.064 C 
ATOM      4  O   UNL     1      30.891   4.892  42.125  1.00  0.00    -0.545 OA
ATOM      5  O   UNL     1      32.557   5.519  43.562  1.00  0.00    -0.545 OA
ENDBRANCH   1   3
BRANCH   2   6
ATOM      6  C   UNL     1      35.277   5.059  40.100  1.00  0.00    -0.026 A 
ATOM      7  C   UNL     1      35.681   3.835  39.536  1.00  0.00     0.008 A 
ATOM      8  C   UNL     1      35.808   6.255  39.568  1.00  0.00     0.008 A 
ATOM      9  C   UNL     1      36.590   3.804  38.473  1.00  0.00     0.001 A 
ATOM     10  C   UNL     1      36.716   6.217  38.504  1.00  0.00     0.001 A 
ATOM     11  C   UNL     1      37.106   4.993  37.958  1.00  0.00     0.000 A 
ENDBRANCH   2   6
TORSDOF 2
ENDMDL
MODEL 4
REMARK VINA RESULT:    -4.157      1.873      2.614
REMARK INTER + INTRA:          -4.772
REMARK INTER:                  -4.633
REMARK INTRA:                  -0.139
REMARK UNBOUND:                -0.129
REMARK SMILES O=C([O-])C=Cc1ccccc1
REMARK SMILES IDX 4 1 5 2 2 3 1 4 3 5 6 6 7 7 11 8 8 9 10 10 9 11
REMARK H PARENT
REMARK Flexibility Score: inf
ROOT
ATOM      1  C   UNL     1      31.788   5.548  48.662  1.00  0.00     0.025 C 
ATOM      2  C   UNL     1      31.475   5.816  47.387  1.00  0.00     0.010 C 
ENDROOT
BRANCH   1   3
ATOM      3  C   UNL     1      30.898   4.762  49.531  1.00  0.00     0.064 C 
ATOM      4  O   UNL     1      29.739   5.187  49.781  1.00  0.00    -0.545 OA
ATOM      5  O   UNL     1      31.314   3.556  50.083  1.00  0.00    -0.545 OA
ENDBRANCH   1   3
BRANCH   2   6
ATOM      6  C   UNL     1      32.322   6.603  46.450  1.00  0.00    -0.026 A 
ATOM      7  C   UNL     1      32.991   7.734  46.951  1.00  0.00     0.008 A 
ATOM      8  C   UNL     1      32.486   6.271  45.086  1.00  0.00     0.008 A 
ATOM      9  C   UNL     1      33.801   8.514  46.118  1.00  0.00     0.001 A 
ATOM     10  C   UNL     1      33.298   7.055  44.259  1.00  0.00     0.001 A 
ATOM     11  C   UNL     1      33.953   8.174  44.774  1.00  0.00     0.000 A 
ENDBRANCH   2   6
TORSDOF 2
ENDMDL
MODEL 5
REMARK VINA RESULT:    -4.154     14.095     14.916
REMARK INTER + INTRA:          -4.768
REMARK INTER:                  -4.637
REMARK INTRA:                  -0.131
REMARK UNBOUND:                -0.129
REMARK SMILES O=C([O-])C=Cc1ccccc1
REMARK SMILES IDX 4 1 5 2 2 3 1 4 3 5 6 6 7 7 11 8 8 9 10 10 9 11
REMARK H PARENT
REMARK Flexibility Score: inf
ROOT
ATOM      1  C   UNL     1      23.675  -4.680  54.140  1.00  0.00     0.025 C 
ATOM      2  C   UNL     1      24.212  -3.798  54.995  1.00  0.00     0.010 C 
ENDROOT
BRANCH   1   3
ATOM      3  C   UNL     1      24.508  -5.496  53.242  1.00  0.00     0.064 C 
ATOM      4  O   UNL     1      25.647  -5.874  53.624  1.00  0.00    -0.545 OA
ATOM      5  O   UNL     1      24.059  -5.858  51.977  1.00  0.00    -0.545 OA
ENDBRANCH   1   3
BRANCH   2   6
ATOM      6  C   UNL     1      23.437  -2.940  55.931  1.00  0.00    -0.026 A 
ATOM      7  C   UNL     1      22.879  -1.749  55.432  1.00  0.00     0.008 A 
ATOM      8  C   UNL     1      23.234  -3.262  57.292  1.00  0.00     0.008 A 
ATOM      9  C   UNL     1      22.141  -0.901  56.265  1.00  0.00     0.001 A 
ATOM     10  C   UNL     1      22.494  -2.409  58.119  1.00  0.00     0.001 A 
ATOM     11  C   UNL     1      21.949  -1.232  57.606  1.00  0.00     0.000 A 
ENDBRANCH   2   6
TORSDOF 2
ENDMDL
MODEL 6
REMARK VINA RESULT:    -4.037     12.790     13.875
REMARK INTER + INTRA:          -4.637
REMARK INTER:                  -4.500
REMARK INTRA:                  -0.137
REMARK UNBOUND:                -0.129
REMARK SMILES O=C([O-])C=Cc1ccccc1
REMARK SMILES IDX 4 1 5 2 2 3 1 4 3 5 6 6 7 7 11 8 8 9 10 10 9 11
REMARK H PARENT
REMARK Flexibility Score: inf
ROOT
ATOM      1  C   UNL     1      19.248   3.131  40.931  1.00  0.00     0.025 C 
ATOM      2  C   UNL     1      20.501   3.573  41.109  1.00  0.00     0.010 C 
ENDROOT
BRANCH   1   3
ATOM      3  C   UNL     1      18.079   3.912  41.366  1.00  0.00     0.064 C 
ATOM      4  O   UNL     1      18.160   4.628  42.399  1.00  0.00    -0.545 OA
ATOM      5  O   UNL     1      16.885   3.875  40.656  1.00  0.00    -0.545 OA
ENDBRANCH   1   3
BRANCH   2   6
ATOM      6  C   UNL     1      21.728   2.840  40.698  1.00  0.00    -0.026 A 
ATOM      7  C   UNL     1      21.820   2.393  39.367  1.00  0.00     0.008 A 
ATOM      8  C   UNL     1      22.803   2.572  41.575  1.00  0.00     0.008 A 
ATOM      9  C   UNL     1      22.949   1.698  38.922  1.00  0.00     0.001 A 
ATOM     10  C   UNL     1      23.930   1.876  41.123  1.00  0.00     0.001 A 
ATOM     11  C   UNL     1      24.002   1.440  39.800  1.00  0.00     0.000 A 
ENDBRANCH   2   6
TORSDOF 2
ENDMDL
MODEL 7
REMARK VINA RESULT:    -3.922     12.946     14.559
REMARK INTER + INTRA:          -4.510
REMARK INTER:                  -4.381
REMARK INTRA:                  -0.129
REMARK UNBOUND:                -0.129
REMARK SMILES O=C([O-])C=Cc1ccccc1
REMARK SMILES IDX 4 1 5 2 2 3 1 4 3 5 6 6 7 7 11 8 8 9 10 10 9 11
REMARK H PARENT
REMARK Flexibility Score: inf
ROOT
ATOM      1  C   UNL     1      22.869  -3.028  52.962  1.00  0.00     0.025 C 
ATOM      2  C   UNL     1      23.525  -2.276  53.858  1.00  0.00     0.010 C 
ENDROOT
BRANCH   1   3
ATOM      3  C   UNL     1      23.055  -2.849  51.514  1.00  0.00     0.064 C 
ATOM      4  O   UNL     1      24.210  -2.940  51.020  1.00  0.00    -0.545 OA
ATOM      5  O   UNL     1      21.977  -2.580  50.678  1.00  0.00    -0.545 OA
ENDBRANCH   1   3
BRANCH   2   6
ATOM      6  C   UNL     1      23.389  -2.398  55.334  1.00  0.00    -0.026 A 
ATOM      7  C   UNL     1      22.342  -1.701  55.964  1.00  0.00     0.008 A 
ATOM      8  C   UNL     1      24.257  -3.177  56.132  1.00  0.00     0.008 A 
ATOM      9  C   UNL     1      22.164  -1.776  57.349  1.00  0.00     0.001 A 
ATOM     10  C   UNL     1      24.073  -3.248  57.518  1.00  0.00     0.001 A 
ATOM     11  C   UNL     1      23.028  -2.549  58.124  1.00  0.00     0.000 A 
ENDBRANCH   2   6
TORSDOF 2
ENDMDL
MODEL 8
REMARK VINA RESULT:    -3.867      3.629      5.109
REMARK INTER + INTRA:          -4.447
REMARK INTER:                  -4.317
REMARK INTRA:                  -0.130
REMARK UNBOUND:                -0.129
REMARK SMILES O=C([O-])C=Cc1ccccc1
REMARK SMILES IDX 4 1 5 2 2 3 1 4 3 5 6 6 7 7 11 8 8 9 10 10 9 11
REMARK H PARENT
REMARK Flexibility Score: inf
ROOT
ATOM      1  C   UNL     1      31.205   5.434  45.201  1.00  0.00     0.025 C 
ATOM      2  C   UNL     1      31.970   5.390  46.302  1.00  0.00     0.010 C 
ENDROOT
BRANCH   1   3
ATOM      3  C   UNL     1      31.755   5.811  43.889  1.00  0.00     0.064 C 
ATOM      4  O   UNL     1      33.001   5.784  43.707  1.00  0.00    -0.545 OA
ATOM      5  O   UNL     1      30.922   6.196  42.845  1.00  0.00    -0.545 OA
ENDBRANCH   1   3
BRANCH   2   6
ATOM      6  C   UNL     1      31.486   5.019  47.659  1.00  0.00    -0.026 A 
ATOM      7  C   UNL     1      32.101   3.934  48.310  1.00  0.00     0.008 A 
ATOM      8  C   UNL     1      30.443   5.701  48.325  1.00  0.00     0.008 A 
ATOM      9  C   UNL     1      31.689   3.539  49.586  1.00  0.00     0.001 A 
ATOM     10  C   UNL     1      30.035   5.300  49.602  1.00  0.00     0.001 A 
ATOM     11  C   UNL     1      30.657   4.221  50.231  1.00  0.00     0.000 A 
ENDBRANCH   2   6
TORSDOF 2
ENDMDL
MODEL 9
REMARK VINA RESULT:    -3.758     14.509     15.632
REMARK INTER + INTRA:          -4.326
REMARK INTER:                  -4.199
REMARK INTRA:                  -0.127
REMARK UNBOUND:                -0.129
REMARK SMILES O=C([O-])C=Cc1ccccc1
REMARK SMILES IDX 4 1 5 2 2 3 1 4 3 5 6 6 7 7 11 8 8 9 10 10 9 11
REMARK H PARENT
REMARK Flexibility Score: inf
ROOT
ATOM      1  C   UNL     1      23.559  -5.414  53.222  1.00  0.00     0.025 C 
ATOM      2  C   UNL     1      22.791  -4.543  53.893  1.00  0.00     0.010 C 
ENDROOT
BRANCH   1   3
ATOM      3  C   UNL     1      23.201  -5.888  51.876  1.00  0.00     0.064 C 
ATOM      4  O   UNL     1      23.934  -5.587  50.896  1.00  0.00    -0.545 OA
ATOM      5  O   UNL     1      22.066  -6.663  51.665  1.00  0.00    -0.545 OA
ENDBRANCH   1   3
BRANCH   2   6
ATOM      6  C   UNL     1      23.087  -4.020  55.254  1.00  0.00    -0.026 A 
ATOM      7  C   UNL     1      22.092  -4.138  56.241  1.00  0.00     0.008 A 
ATOM      8  C   UNL     1      24.314  -3.412  55.602  1.00  0.00     0.008 A 
ATOM      9  C   UNL     1      22.312  -3.664  57.538  1.00  0.00     0.001 A 
ATOM     10  C   UNL     1      24.528  -2.941  56.902  1.00  0.00     0.001 A 
ATOM     11  C   UNL     1      23.529  -3.067  57.868  1.00  0.00     0.000 A 
ENDBRANCH   2   6
TORSDOF 2
ENDMDL
