MODEL 1
REMARK VINA RESULT:    -4.307      0.000      0.000
REMARK INTER + INTRA:          -4.756
REMARK INTER:                  -4.685
REMARK INTRA:                  -0.071
REMARK UNBOUND:                -0.071
REMARK SMILES CCc1cccc(O)c1
REMARK SMILES IDX 3 1 9 2 7 3 6 4 5 5 4 6 2 7 1 8 8 9
REMARK H PARENT 8 10
REMARK Flexibility Score: inf
ROOT
ATOM      1  C   UNL     1      29.918  23.390  12.979  1.00  0.00    -0.045 A 
ATOM      2  C   UNL     1      30.167  24.323  11.957  1.00  0.00     0.049 A 
ATOM      3  C   UNL     1      29.146  25.165  11.504  1.00  0.00     0.115 A 
ATOM      4  C   UNL     1      27.865  25.072  12.067  1.00  0.00     0.046 A 
ATOM      5  C   UNL     1      27.608  24.136  13.073  1.00  0.00     0.004 A 
ATOM      6  C   UNL     1      28.628  23.294  13.526  1.00  0.00     0.004 A 
ENDROOT
BRANCH   1   7
ATOM      7  C   UNL     1      31.009  22.462  13.440  1.00  0.00     0.032 C 
ATOM      8  C   UNL     1      30.461  21.060  13.683  1.00  0.00     0.009 C 
ENDBRANCH   1   7
BRANCH   3   9
ATOM      9  O   UNL     1      29.412  26.088  10.496  1.00  0.00    -0.508 OA
ATOM     10  H   UNL     1      29.740  25.795   9.583  1.00  0.00     0.293 HD
ENDBRANCH   3   9
TORSDOF 2
ENDMDL
MODEL 2
REMARK VINA RESULT:    -4.275      1.738      3.051
REMARK INTER + INTRA:          -4.721
REMARK INTER:                  -4.647
REMARK INTRA:                  -0.075
REMARK UNBOUND:                -0.071
REMARK SMILES CCc1cccc(O)c1
REMARK SMILES IDX 3 1 9 2 7 3 6 4 5 5 4 6 2 7 1 8 8 9
REMARK H PARENT 8 10
REMARK Flexibility Score: inf
ROOT
ATOM      1  C   UNL     1      28.693  25.179  12.081  1.00  0.00    -0.045 A 
ATOM      2  C   UNL     1      28.016  26.399  11.915  1.00  0.00     0.049 A 
ATOM      3  C   UNL     1      28.594  27.434  11.171  1.00  0.00     0.115 A 
ATOM      4  C   UNL     1      29.860  27.256  10.596  1.00  0.00     0.046 A 
ATOM      5  C   UNL     1      30.545  26.049  10.770  1.00  0.00     0.004 A 
ATOM      6  C   UNL     1      29.968  25.016  11.513  1.00  0.00     0.004 A 
ENDROOT
BRANCH   1   7
ATOM      7  C   UNL     1      28.085  24.081  12.910  1.00  0.00     0.032 C 
ATOM      8  C   UNL     1      29.159  23.119  13.407  1.00  0.00     0.009 C 
ENDBRANCH   1   7
BRANCH   3   9
ATOM      9  O   UNL     1      27.904  28.634  11.010  1.00  0.00    -0.508 OA
ATOM     10  H   UNL     1      28.380  29.528  11.052  1.00  0.00     0.293 HD
ENDBRANCH   3   9
TORSDOF 2
ENDMDL
MODEL 3
REMARK VINA RESULT:    -4.027      1.347      2.211
REMARK INTER + INTRA:          -4.451
REMARK INTER:                  -4.375
REMARK INTRA:                  -0.076
REMARK UNBOUND:                -0.071
REMARK SMILES CCc1cccc(O)c1
REMARK SMILES IDX 3 1 9 2 7 3 6 4 5 5 4 6 2 7 1 8 8 9
REMARK H PARENT 8 10
REMARK Flexibility Score: inf
ROOT
ATOM      1  C   UNL     1      29.543  24.045  12.794  1.00  0.00    -0.045 A 
ATOM      2  C   UNL     1      28.405  24.792  12.444  1.00  0.00     0.049 A 
ATOM      3  C   UNL     1      28.539  26.085  11.927  1.00  0.00     0.115 A 
ATOM      4  C   UNL     1      29.815  26.642  11.765  1.00  0.00     0.046 A 
ATOM      5  C   UNL     1      30.950  25.910  12.125  1.00  0.00     0.004 A 
ATOM      6  C   UNL     1      30.817  24.618  12.642  1.00  0.00     0.004 A 
ENDROOT
BRANCH   1   7
ATOM      7  C   UNL     1      29.396  22.668  13.382  1.00  0.00     0.032 C 
ATOM      8  C   UNL     1      30.758  22.084  13.742  1.00  0.00     0.009 C 
ENDBRANCH   1   7
BRANCH   3   9
ATOM      9  O   UNL     1      27.400  26.807  11.579  1.00  0.00    -0.508 OA
ATOM     10  H   UNL     1      26.854  27.303  12.274  1.00  0.00     0.293 HD
ENDBRANCH   3   9
TORSDOF 2
ENDMDL
MODEL 4
REMARK VINA RESULT:    -4.022      1.948      3.836
REMARK INTER + INTRA:          -4.445
REMARK INTER:                  -4.374
REMARK INTRA:                  -0.071
REMARK UNBOUND:                -0.071
REMARK SMILES CCc1cccc(O)c1
REMARK SMILES IDX 3 1 9 2 7 3 6 4 5 5 4 6 2 7 1 8 8 9
REMARK H PARENT 8 10
REMARK Flexibility Score: inf
ROOT
ATOM      1  C   UNL     1      29.110  25.704  11.808  1.00  0.00    -0.045 A 
ATOM      2  C   UNL     1      30.291  25.043  12.187  1.00  0.00     0.049 A 
ATOM      3  C   UNL     1      30.232  23.872  12.951  1.00  0.00     0.115 A 
ATOM      4  C   UNL     1      28.989  23.360  13.347  1.00  0.00     0.046 A 
ATOM      5  C   UNL     1      27.811  24.021  12.984  1.00  0.00     0.004 A 
ATOM      6  C   UNL     1      27.870  25.191  12.222  1.00  0.00     0.004 A 
ENDROOT
BRANCH   1   7
ATOM      7  C   UNL     1      29.177  26.982  11.016  1.00  0.00     0.032 C 
ATOM      8  C   UNL     1      28.161  27.994  11.534  1.00  0.00     0.009 C 
ENDBRANCH   1   7
BRANCH   3   9
ATOM      9  O   UNL     1      31.412  23.226  13.311  1.00  0.00    -0.508 OA
ATOM     10  H   UNL     1      31.410  22.275  13.663  1.00  0.00     0.293 HD
ENDBRANCH   3   9
TORSDOF 2
ENDMDL
MODEL 5
REMARK VINA RESULT:    -3.981      1.332      1.995
REMARK INTER + INTRA:          -4.401
REMARK INTER:                  -4.353
REMARK INTRA:                  -0.048
REMARK UNBOUND:                -0.071
REMARK SMILES CCc1cccc(O)c1
REMARK SMILES IDX 3 1 9 2 7 3 6 4 5 5 4 6 2 7 1 8 8 9
REMARK H PARENT 8 10
REMARK Flexibility Score: inf
ROOT
ATOM      1  C   UNL     1      30.130  23.547  13.144  1.00  0.00    -0.045 A 
ATOM      2  C   UNL     1      28.816  23.396  12.666  1.00  0.00     0.049 A 
ATOM      3  C   UNL     1      28.251  24.368  11.834  1.00  0.00     0.115 A 
ATOM      4  C   UNL     1      28.995  25.502  11.481  1.00  0.00     0.046 A 
ATOM      5  C   UNL     1      30.297  25.664  11.964  1.00  0.00     0.004 A 
ATOM      6  C   UNL     1      30.862  24.694  12.797  1.00  0.00     0.004 A 
ENDROOT
BRANCH   1   7
ATOM      7  C   UNL     1      30.724  22.517  14.067  1.00  0.00     0.032 C 
ATOM      8  C   UNL     1      30.213  21.122  13.722  1.00  0.00     0.009 C 
ENDBRANCH   1   7
BRANCH   3   9
ATOM      9  O   UNL     1      26.950  24.198  11.364  1.00  0.00    -0.508 OA
ATOM     10  H   UNL     1      26.147  24.459  11.924  1.00  0.00     0.293 HD
ENDBRANCH   3   9
TORSDOF 2
ENDMDL
MODEL 6
REMARK VINA RESULT:    -3.980      1.939      3.994
REMARK INTER + INTRA:          -4.400
REMARK INTER:                  -4.351
REMARK INTRA:                  -0.049
REMARK UNBOUND:                -0.071
REMARK SMILES CCc1cccc(O)c1
REMARK SMILES IDX 3 1 9 2 7 3 6 4 5 5 4 6 2 7 1 8 8 9
REMARK H PARENT 8 10
REMARK Flexibility Score: inf
ROOT
ATOM      1  C   UNL     1      29.487  25.602  11.671  1.00  0.00    -0.045 A 
ATOM      2  C   UNL     1      28.214  25.273  12.168  1.00  0.00     0.049 A 
ATOM      3  C   UNL     1      28.035  24.130  12.954  1.00  0.00     0.115 A 
ATOM      4  C   UNL     1      29.130  23.304  13.242  1.00  0.00     0.046 A 
ATOM      5  C   UNL     1      30.396  23.619  12.740  1.00  0.00     0.004 A 
ATOM      6  C   UNL     1      30.575  24.760  11.953  1.00  0.00     0.004 A 
ENDROOT
BRANCH   1   7
ATOM      7  C   UNL     1      29.670  26.813  10.797  1.00  0.00     0.032 C 
ATOM      8  C   UNL     1      28.635  27.882  11.128  1.00  0.00     0.009 C 
ENDBRANCH   1   7
BRANCH   3   9
ATOM      9  O   UNL     1      26.768  23.823  13.443  1.00  0.00    -0.508 OA
ATOM     10  H   UNL     1      26.373  22.895  13.346  1.00  0.00     0.293 HD
ENDBRANCH   3   9
TORSDOF 2
ENDMDL
MODEL 7
REMARK VINA RESULT:    -3.917      2.574      3.713
REMARK INTER + INTRA:          -4.331
REMARK INTER:                  -4.263
REMARK INTRA:                  -0.068
REMARK UNBOUND:                -0.071
REMARK SMILES CCc1cccc(O)c1
REMARK SMILES IDX 3 1 9 2 7 3 6 4 5 5 4 6 2 7 1 8 8 9
REMARK H PARENT 8 10
REMARK Flexibility Score: inf
ROOT
ATOM      1  C   UNL     1      29.184  26.015  11.891  1.00  0.00    -0.045 A 
ATOM      2  C   UNL     1      30.509  26.432  12.107  1.00  0.00     0.049 A 
ATOM      3  C   UNL     1      30.807  27.790  12.257  1.00  0.00     0.115 A 
ATOM      4  C   UNL     1      29.780  28.742  12.183  1.00  0.00     0.046 A 
ATOM      5  C   UNL     1      28.463  28.334  11.954  1.00  0.00     0.004 A 
ATOM      6  C   UNL     1      28.164  26.977  11.804  1.00  0.00     0.004 A 
ENDROOT
BRANCH   1   7
ATOM      7  C   UNL     1      28.870  24.556  11.696  1.00  0.00     0.032 C 
ATOM      8  C   UNL     1      27.594  24.173  12.437  1.00  0.00     0.009 C 
ENDBRANCH   1   7
BRANCH   3   9
ATOM      9  O   UNL     1      32.125  28.184  12.477  1.00  0.00    -0.508 OA
ATOM     10  H   UNL     1      32.677  27.788  13.229  1.00  0.00     0.293 HD
ENDBRANCH   3   9
TORSDOF 2
ENDMDL
MODEL 8
REMARK VINA RESULT:    -3.899      1.616      3.474
REMARK INTER + INTRA:          -4.312
REMARK INTER:                  -4.261
REMARK INTRA:                  -0.050
REMARK UNBOUND:                -0.071
REMARK SMILES CCc1cccc(O)c1
REMARK SMILES IDX 3 1 9 2 7 3 6 4 5 5 4 6 2 7 1 8 8 9
REMARK H PARENT 8 10
REMARK Flexibility Score: inf
ROOT
ATOM      1  C   UNL     1      29.011  24.029  12.106  1.00  0.00    -0.045 A 
ATOM      2  C   UNL     1      29.773  24.143  10.930  1.00  0.00     0.049 A 
ATOM      3  C   UNL     1      30.935  23.381  10.765  1.00  0.00     0.115 A 
ATOM      4  C   UNL     1      31.346  22.507  11.780  1.00  0.00     0.046 A 
ATOM      5  C   UNL     1      30.600  22.401  12.958  1.00  0.00     0.004 A 
ATOM      6  C   UNL     1      29.439  23.162  13.124  1.00  0.00     0.004 A 
ENDROOT
BRANCH   1   7
ATOM      7  C   UNL     1      27.780  24.874  12.297  1.00  0.00     0.032 C 
ATOM      8  C   UNL     1      28.051  26.322  11.903  1.00  0.00     0.009 C 
ENDBRANCH   1   7
BRANCH   3   9
ATOM      9  O   UNL     1      31.674  23.502   9.590  1.00  0.00    -0.508 OA
ATOM     10  H   UNL     1      31.813  24.400   9.141  1.00  0.00     0.293 HD
ENDBRANCH   3   9
TORSDOF 2
ENDMDL
MODEL 9
REMARK VINA RESULT:    -3.896      2.160      4.046
REMARK INTER + INTRA:          -4.308
REMARK INTER:                  -4.258
REMARK INTRA:                  -0.050
REMARK UNBOUND:                -0.071
REMARK SMILES CCc1cccc(O)c1
REMARK SMILES IDX 3 1 9 2 7 3 6 4 5 5 4 6 2 7 1 8 8 9
REMARK H PARENT 8 10
REMARK Flexibility Score: inf
ROOT
ATOM      1  C   UNL     1      28.744  26.697  11.634  1.00  0.00    -0.045 A 
ATOM      2  C   UNL     1      29.926  26.403  10.934  1.00  0.00     0.049 A 
ATOM      3  C   UNL     1      30.336  25.077  10.763  1.00  0.00     0.115 A 
ATOM      4  C   UNL     1      29.567  24.035  11.300  1.00  0.00     0.046 A 
ATOM      5  C   UNL     1      28.397  24.322  12.009  1.00  0.00     0.004 A 
ATOM      6  C   UNL     1      27.988  25.648  12.181  1.00  0.00     0.004 A 
ENDROOT
BRANCH   1   7
ATOM      7  C   UNL     1      28.323  28.127  11.846  1.00  0.00     0.032 C 
ATOM      8  C   UNL     1      29.382  28.891  12.634  1.00  0.00     0.009 C 
ENDBRANCH   1   7
BRANCH   3   9
ATOM      9  O   UNL     1      31.507  24.804  10.060  1.00  0.00    -0.508 OA
ATOM     10  H   UNL     1      31.558  24.044   9.390  1.00  0.00     0.293 HD
ENDBRANCH   3   9
TORSDOF 2
ENDMDL
