MODEL 1
REMARK VINA RESULT:    -2.218      0.000      0.000
REMARK INTER + INTRA:          -2.090
REMARK INTER:                  -3.385
REMARK INTRA:                   1.295
REMARK UNBOUND:                 1.295
REMARK SMILES CC1=CCC[C@@H](C)C(=O)C[C@@H](C(C)C)C(=O)C1
REMARK SMILES IDX 8 1 9 2 6 3 7 4 5 5 4 6 3 7 2 8 1 9 10 11 11 12 15 13 16 14
REMARK SMILES IDX 17 15 12 17 13 18 14 19
REMARK H PARENT
REMARK Flexibility Score: 70.00
ROOT
ATOM      1  C   UNL     1       8.126  24.482  24.332  1.00  0.00     0.136 C 
ATOM      2  O   UNL     1       7.799  24.813  25.464  1.00  0.00    -0.299 OA
ENDROOT
BRANCH   1   3
ATOM      3  C   UNL     1       8.807  23.126  24.126  1.00  0.00     0.053 C 
ATOM      4  C   UNL     1       8.438  22.160  25.264  1.00  0.00     0.016 C 
BRANCH   3   5
ATOM      5  C   UNL     1      10.349  23.243  24.023  1.00  0.00     0.015 C 
BRANCH   5   6
ATOM      6  C   UNL     1      10.867  24.106  22.855  1.00  0.00     0.028 C 
BRANCH   6   7
ATOM      7  C   UNL     1      11.112  23.295  21.602  1.00  0.00    -0.028 C 
ATOM      8  C   UNL     1      10.175  22.845  20.729  1.00  0.00    -0.070 CG0
ATOM      9  C   UNL     1      10.642  22.008  19.566  1.00  0.00     0.039 C 
ATOM     10  G   UNL     1       8.680  23.082  20.873  1.00  0.00     0.000 G0
ENDBRANCH   6   7
ENDBRANCH   5   6
ENDBRANCH   3   5
ENDBRANCH   1   3
BRANCH   1  11
ATOM     11  C   UNL     1       7.945  25.510  23.229  1.00  0.00     0.087 C 
BRANCH  11  12
ATOM     12  C   UNL     1       7.234  24.993  21.943  1.00  0.00     0.066 C 
BRANCH  12  13
ATOM     13  C   UNL     1       8.255  24.502  20.921  1.00  0.00     0.140 C 
ATOM     14  O   UNL     1       8.789  25.290  20.153  1.00  0.00    -0.299 OA
BRANCH  13  15
ATOM     15  C   UNL     1       8.669  23.045  20.856  1.00  0.00     0.106 CG0
ATOM     16  G   UNL     1      10.174  22.876  20.720  1.00  0.00     0.000 G0
ENDBRANCH  13  15
ENDBRANCH  12  13
BRANCH  12  17
ATOM     17  C   UNL     1       6.188  25.993  21.346  1.00  0.00    -0.006 C 
ATOM     18  C   UNL     1       4.798  25.949  22.013  1.00  0.00     0.008 C 
ATOM     19  C   UNL     1       6.042  25.809  19.828  1.00  0.00     0.008 C 
ENDBRANCH  12  17
ENDBRANCH  11  12
ENDBRANCH   1  11
TORSDOF 1
ENDMDL
MODEL 2
REMARK VINA RESULT:    -0.880      2.539      4.058
REMARK INTER + INTRA:          -0.049
REMARK INTER:                  -2.916
REMARK INTRA:                   2.867
REMARK UNBOUND:                 1.295
REMARK SMILES CC1=CCC[C@@H](C)C(=O)C[C@@H](C(C)C)C(=O)C1
REMARK SMILES IDX 8 1 9 2 6 3 7 4 5 5 4 6 3 7 2 8 1 9 10 11 11 12 15 13 16 14
REMARK SMILES IDX 17 15 12 17 13 18 14 19
REMARK H PARENT
REMARK Flexibility Score: 70.00
ROOT
ATOM      1  C   UNL     1       9.301  22.993  22.340  1.00  0.00     0.136 C 
ATOM      2  O   UNL     1       8.274  22.671  21.759  1.00  0.00    -0.299 OA
ENDROOT
BRANCH   1   3
ATOM      3  C   UNL     1       9.707  22.227  23.603  1.00  0.00     0.053 C 
ATOM      4  C   UNL     1       8.528  22.151  24.587  1.00  0.00     0.016 C 
BRANCH   3   5
ATOM      5  C   UNL     1      10.936  22.852  24.310  1.00  0.00     0.015 C 
BRANCH   5   6
ATOM      6  C   UNL     1      10.995  22.643  25.837  1.00  0.00     0.028 C 
BRANCH   6   7
ATOM      7  C   UNL     1      10.351  23.779  26.601  1.00  0.00    -0.028 C 
ATOM      8  C   UNL     1      10.124  25.038  26.147  1.00  0.00    -0.070 CG0
ATOM      9  C   UNL     1       9.511  26.030  27.102  1.00  0.00     0.039 C 
ATOM     10  G   UNL     1      10.495  25.533  24.758  1.00  0.00     0.000 G0
ENDBRANCH   6   7
ENDBRANCH   5   6
ENDBRANCH   3   5
ENDBRANCH   1   3
BRANCH   1  11
ATOM     11  C   UNL     1      10.030  24.224  21.832  1.00  0.00     0.087 C 
BRANCH  11  12
ATOM     12  C   UNL     1       9.445  25.590  22.302  1.00  0.00     0.066 C 
BRANCH  12  13
ATOM     13  C   UNL     1       9.279  25.612  23.819  1.00  0.00     0.140 C 
ATOM     14  O   UNL     1       8.164  25.648  24.317  1.00  0.00    -0.299 OA
BRANCH  13  15
ATOM     15  C   UNL     1      10.478  25.549  24.745  1.00  0.00     0.106 CG0
ATOM     16  G   UNL     1      10.113  25.035  26.129  1.00  0.00     0.000 G0
ENDBRANCH  13  15
ENDBRANCH  12  13
BRANCH  12  17
ATOM     17  C   UNL     1       8.159  26.034  21.528  1.00  0.00    -0.006 C 
ATOM     18  C   UNL     1       6.854  25.368  22.007  1.00  0.00     0.008 C 
ATOM     19  C   UNL     1       8.321  25.831  20.014  1.00  0.00     0.008 C 
ENDBRANCH  12  17
ENDBRANCH  11  12
ENDBRANCH   1  11
TORSDOF 1
ENDMDL
MODEL 3
REMARK VINA RESULT:    -0.486     18.821     20.367
REMARK INTER + INTRA:           0.553
REMARK INTER:                  -0.335
REMARK INTRA:                   0.888
REMARK UNBOUND:                 1.295
REMARK SMILES CC1=CCC[C@@H](C)C(=O)C[C@@H](C(C)C)C(=O)C1
REMARK SMILES IDX 8 1 9 2 6 3 7 4 5 5 4 6 3 7 2 8 1 9 10 11 11 12 15 13 16 14
REMARK SMILES IDX 17 15 12 17 13 18 14 19
REMARK H PARENT
REMARK Flexibility Score: 70.00
ROOT
ATOM      1  C   UNL     1      -5.204  23.174   9.552  1.00  0.00     0.136 C 
ATOM      2  O   UNL     1      -4.659  22.133   9.894  1.00  0.00    -0.299 OA
ENDROOT
BRANCH   1   3
ATOM      3  C   UNL     1      -5.144  23.590   8.080  1.00  0.00     0.053 C 
ATOM      4  C   UNL     1      -4.854  22.371   7.188  1.00  0.00     0.016 C 
BRANCH   3   5
ATOM      5  C   UNL     1      -4.087  24.692   7.814  1.00  0.00     0.015 C 
BRANCH   5   6
ATOM      6  C   UNL     1      -4.651  26.117   7.639  1.00  0.00     0.028 C 
BRANCH   6   7
ATOM      7  C   UNL     1      -6.035  26.120   7.028  1.00  0.00    -0.028 C 
ATOM      8  C   UNL     1      -7.218  26.122   7.693  1.00  0.00    -0.070 CG0
ATOM      9  C   UNL     1      -8.483  26.074   6.876  1.00  0.00     0.039 C 
ATOM     10  G   UNL     1      -7.354  26.115   9.207  1.00  0.00     0.000 G0
ENDBRANCH   6   7
ENDBRANCH   5   6
ENDBRANCH   3   5
ENDBRANCH   1   3
BRANCH   1  11
ATOM     11  C   UNL     1      -5.789  24.044  10.650  1.00  0.00     0.087 C 
BRANCH  11  12
ATOM     12  C   UNL     1      -7.340  23.987  10.794  1.00  0.00     0.066 C 
BRANCH  12  13
ATOM     13  C   UNL     1      -8.013  24.847   9.729  1.00  0.00     0.140 C 
ATOM     14  O   UNL     1      -9.117  24.547   9.299  1.00  0.00    -0.299 OA
BRANCH  13  15
ATOM     15  C   UNL     1      -7.360  26.111   9.206  1.00  0.00     0.106 CG0
ATOM     16  G   UNL     1      -7.228  26.111   7.691  1.00  0.00     0.000 G0
ENDBRANCH  13  15
ENDBRANCH  12  13
BRANCH  12  17
ATOM     17  C   UNL     1      -7.857  24.272  12.243  1.00  0.00    -0.006 C 
ATOM     18  C   UNL     1      -8.677  23.128  12.874  1.00  0.00     0.008 C 
ATOM     19  C   UNL     1      -8.661  25.581  12.302  1.00  0.00     0.008 C 
ENDBRANCH  12  17
ENDBRANCH  11  12
ENDBRANCH   1  11
TORSDOF 1
ENDMDL
MODEL 4
REMARK VINA RESULT:     0.194      2.262      5.250
REMARK INTER + INTRA:           1.592
REMARK INTER:                  -0.483
REMARK INTRA:                   2.075
REMARK UNBOUND:                 1.295
REMARK SMILES CC1=CCC[C@@H](C)C(=O)C[C@@H](C(C)C)C(=O)C1
REMARK SMILES IDX 8 1 9 2 6 3 7 4 5 5 4 6 3 7 2 8 1 9 10 11 11 12 15 13 16 14
REMARK SMILES IDX 17 15 12 17 13 18 14 19
REMARK H PARENT
REMARK Flexibility Score: 70.00
ROOT
ATOM      1  C   UNL     1       8.662  22.587  22.453  1.00  0.00     0.136 C 
ATOM      2  O   UNL     1       8.067  21.725  23.086  1.00  0.00    -0.299 OA
ENDROOT
BRANCH   1   3
ATOM      3  C   UNL     1       8.587  22.564  20.924  1.00  0.00     0.053 C 
ATOM      4  C   UNL     1       9.927  22.104  20.326  1.00  0.00     0.016 C 
BRANCH   3   5
ATOM      5  C   UNL     1       8.196  23.940  20.326  1.00  0.00     0.015 C 
BRANCH   5   6
ATOM      6  C   UNL     1       8.460  25.154  21.239  1.00  0.00     0.028 C 
BRANCH   6   7
ATOM      7  C   UNL     1       7.282  25.471  22.134  1.00  0.00    -0.028 C 
ATOM      8  C   UNL     1       7.331  25.900  23.421  1.00  0.00    -0.070 CG0
ATOM      9  C   UNL     1       6.025  26.108  24.143  1.00  0.00     0.039 C 
ATOM     10  G   UNL     1       8.615  26.134  24.202  1.00  0.00     0.000 G0
ENDBRANCH   6   7
ENDBRANCH   5   6
ENDBRANCH   3   5
ENDBRANCH   1   3
BRANCH   1  11
ATOM     11  C   UNL     1       9.543  23.541  23.239  1.00  0.00     0.087 C 
BRANCH  11  12
ATOM     12  C   UNL     1       9.263  23.602  24.771  1.00  0.00     0.066 C 
BRANCH  12  13
ATOM     13  C   UNL     1       8.946  25.029  25.206  1.00  0.00     0.140 C 
ATOM     14  O   UNL     1       8.973  25.335  26.389  1.00  0.00    -0.299 OA
BRANCH  13  15
ATOM     15  C   UNL     1       8.633  26.112  24.192  1.00  0.00     0.106 CG0
ATOM     16  G   UNL     1       7.328  25.855  23.455  1.00  0.00     0.000 G0
ENDBRANCH  13  15
ENDBRANCH  12  13
BRANCH  12  17
ATOM     17  C   UNL     1      10.362  22.913  25.648  1.00  0.00    -0.006 C 
ATOM     18  C   UNL     1      10.893  21.578  25.088  1.00  0.00     0.008 C 
ATOM     19  C   UNL     1       9.879  22.715  27.093  1.00  0.00     0.008 C 
ENDBRANCH  12  17
ENDBRANCH  11  12
ENDBRANCH   1  11
TORSDOF 1
ENDMDL
