MODEL 1
REMARK VINA RESULT:    -3.563      0.000      0.000
REMARK INTER + INTRA:          -5.385
REMARK INTER:                  -5.021
REMARK INTRA:                  -0.365
REMARK UNBOUND:                -0.365
REMARK SMILES C=CCCCCCCC(=O)[O-]
REMARK SMILES IDX 6 1 7 2 8 3 9 4 10 5 11 6 5 7 4 8 3 9 2 10 1 11
REMARK H PARENT
REMARK Flexibility Score: inf
ROOT
ATOM      1  C   UNL     1      57.349  28.181  51.605  1.00  0.00     0.000 C 
ENDROOT
BRANCH   1   2
ATOM      2  C   UNL     1      58.580  28.840  50.964  1.00  0.00     0.006 C 
BRANCH   2   3
ATOM      3  C   UNL     1      58.867  28.294  49.560  1.00  0.00     0.053 C 
BRANCH   3   4
ATOM      4  C   UNL     1      59.741  27.079  49.602  1.00  0.00     0.041 C 
ATOM      5  O   UNL     1      60.993  27.195  49.513  1.00  0.00    -0.550 OA
ATOM      6  O   UNL     1      59.174  25.815  49.706  1.00  0.00    -0.550 OA
ENDBRANCH   3   4
ENDBRANCH   2   3
ENDBRANCH   1   2
BRANCH   1   7
ATOM      7  C   UNL     1      56.327  27.773  50.537  1.00  0.00     0.000 C 
BRANCH   7   8
ATOM      8  C   UNL     1      54.925  28.279  50.896  1.00  0.00     0.004 C 
BRANCH   8   9
ATOM      9  C   UNL     1      53.844  27.348  50.332  1.00  0.00     0.027 C 
BRANCH   9  10
ATOM     10  C   UNL     1      54.406  25.991  50.008  1.00  0.00    -0.035 C 
ATOM     11  C   UNL     1      53.664  25.044  49.424  1.00  0.00     0.004 C 
ENDBRANCH   9  10
ENDBRANCH   8   9
ENDBRANCH   7   8
ENDBRANCH   1   7
TORSDOF 7
ENDMDL
MODEL 2
REMARK VINA RESULT:    -3.480     11.887     13.886
REMARK INTER + INTRA:          -5.269
REMARK INTER:                  -4.879
REMARK INTRA:                  -0.390
REMARK UNBOUND:                -0.365
REMARK SMILES C=CCCCCCCC(=O)[O-]
REMARK SMILES IDX 6 1 7 2 8 3 9 4 10 5 11 6 5 7 4 8 3 9 2 10 1 11
REMARK H PARENT
REMARK Flexibility Score: inf
ROOT
ATOM      1  C   UNL     1      61.123  32.393  59.628  1.00  0.00     0.000 C 
ENDROOT
BRANCH   1   2
ATOM      2  C   UNL     1      61.068  30.919  60.055  1.00  0.00     0.006 C 
BRANCH   2   3
ATOM      3  C   UNL     1      61.490  30.722  61.517  1.00  0.00     0.053 C 
BRANCH   3   4
ATOM      4  C   UNL     1      62.538  29.662  61.656  1.00  0.00     0.041 C 
ATOM      5  O   UNL     1      63.758  29.976  61.686  1.00  0.00    -0.550 OA
ATOM      6  O   UNL     1      62.172  28.323  61.718  1.00  0.00    -0.550 OA
ENDBRANCH   3   4
ENDBRANCH   2   3
ENDBRANCH   1   2
BRANCH   1   7
ATOM      7  C   UNL     1      62.021  33.205  60.570  1.00  0.00     0.000 C 
BRANCH   7   8
ATOM      8  C   UNL     1      61.574  34.670  60.627  1.00  0.00     0.004 C 
BRANCH   8   9
ATOM      9  C   UNL     1      62.699  35.567  61.158  1.00  0.00     0.027 C 
BRANCH   9  10
ATOM     10  C   UNL     1      63.998  34.815  61.255  1.00  0.00    -0.035 C 
ATOM     11  C   UNL     1      65.045  35.304  61.926  1.00  0.00     0.004 C 
ENDBRANCH   9  10
ENDBRANCH   8   9
ENDBRANCH   7   8
ENDBRANCH   1   7
TORSDOF 7
ENDMDL
MODEL 3
REMARK VINA RESULT:    -3.386      1.520      2.692
REMARK INTER + INTRA:          -5.136
REMARK INTER:                  -4.525
REMARK INTRA:                  -0.611
REMARK UNBOUND:                -0.365
REMARK SMILES C=CCCCCCCC(=O)[O-]
REMARK SMILES IDX 6 1 7 2 8 3 9 4 10 5 11 6 5 7 4 8 3 9 2 10 1 11
REMARK H PARENT
REMARK Flexibility Score: inf
ROOT
ATOM      1  C   UNL     1      56.019  25.346  50.917  1.00  0.00     0.000 C 
ENDROOT
BRANCH   1   2
ATOM      2  C   UNL     1      57.378  25.842  50.399  1.00  0.00     0.006 C 
BRANCH   2   3
ATOM      3  C   UNL     1      57.531  27.362  50.531  1.00  0.00     0.053 C 
BRANCH   3   4
ATOM      4  C   UNL     1      58.703  27.874  49.752  1.00  0.00     0.041 C 
ATOM      5  O   UNL     1      58.719  29.064  49.339  1.00  0.00    -0.550 OA
ATOM      6  O   UNL     1      59.763  27.027  49.452  1.00  0.00    -0.550 OA
ENDBRANCH   3   4
ENDBRANCH   2   3
ENDBRANCH   1   2
BRANCH   1   7
ATOM      7  C   UNL     1      54.892  25.723  49.949  1.00  0.00     0.000 C 
BRANCH   7   8
ATOM      8  C   UNL     1      53.709  26.348  50.698  1.00  0.00     0.004 C 
BRANCH   8   9
ATOM      9  C   UNL     1      53.274  27.662  50.040  1.00  0.00     0.027 C 
BRANCH   9  10
ATOM     10  C   UNL     1      54.166  28.802  50.451  1.00  0.00    -0.035 C 
ATOM     11  C   UNL     1      54.387  29.092  51.737  1.00  0.00     0.004 C 
ENDBRANCH   9  10
ENDBRANCH   8   9
ENDBRANCH   7   8
ENDBRANCH   1   7
TORSDOF 7
ENDMDL
MODEL 4
REMARK VINA RESULT:    -3.347      1.544      2.341
REMARK INTER + INTRA:          -5.081
REMARK INTER:                  -4.712
REMARK INTRA:                  -0.369
REMARK UNBOUND:                -0.365
REMARK SMILES C=CCCCCCCC(=O)[O-]
REMARK SMILES IDX 6 1 7 2 8 3 9 4 10 5 11 6 5 7 4 8 3 9 2 10 1 11
REMARK H PARENT
REMARK Flexibility Score: inf
ROOT
ATOM      1  C   UNL     1      58.872  28.545  49.661  1.00  0.00     0.000 C 
ENDROOT
BRANCH   1   2
ATOM      2  C   UNL     1      59.575  27.185  49.541  1.00  0.00     0.006 C 
BRANCH   2   3
ATOM      3  C   UNL     1      61.082  27.284  49.810  1.00  0.00     0.053 C 
BRANCH   3   4
ATOM      4  C   UNL     1      61.660  25.968  50.231  1.00  0.00     0.041 C 
ATOM      5  O   UNL     1      62.904  25.776  50.176  1.00  0.00    -0.550 OA
ATOM      6  O   UNL     1      60.824  24.942  50.652  1.00  0.00    -0.550 OA
ENDBRANCH   3   4
ENDBRANCH   2   3
ENDBRANCH   1   2
BRANCH   1   7
ATOM      7  C   UNL     1      57.534  28.409  50.398  1.00  0.00     0.000 C 
BRANCH   7   8
ATOM      8  C   UNL     1      57.202  26.936  50.667  1.00  0.00     0.004 C 
BRANCH   8   9
ATOM      9  C   UNL     1      55.703  26.669  50.486  1.00  0.00     0.027 C 
BRANCH   9  10
ATOM     10  C   UNL     1      54.910  27.946  50.539  1.00  0.00    -0.035 C 
ATOM     11  C   UNL     1      53.613  27.981  50.218  1.00  0.00     0.004 C 
ENDBRANCH   9  10
ENDBRANCH   8   9
ENDBRANCH   7   8
ENDBRANCH   1   7
TORSDOF 7
ENDMDL
MODEL 5
REMARK VINA RESULT:    -3.341     11.999     13.311
REMARK INTER + INTRA:          -5.073
REMARK INTER:                  -4.690
REMARK INTRA:                  -0.383
REMARK UNBOUND:                -0.365
REMARK SMILES C=CCCCCCCC(=O)[O-]
REMARK SMILES IDX 6 1 7 2 8 3 9 4 10 5 11 6 5 7 4 8 3 9 2 10 1 11
REMARK H PARENT
REMARK Flexibility Score: inf
ROOT
ATOM      1  C   UNL     1      61.351  30.674  61.771  1.00  0.00     0.000 C 
ENDROOT
BRANCH   1   2
ATOM      2  C   UNL     1      62.376  29.533  61.698  1.00  0.00     0.006 C 
BRANCH   2   3
ATOM      3  C   UNL     1      63.789  30.040  61.381  1.00  0.00     0.053 C 
BRANCH   3   4
ATOM      4  C   UNL     1      64.677  28.940  60.887  1.00  0.00     0.041 C 
ATOM      5  O   UNL     1      65.929  29.058  60.955  1.00  0.00    -0.550 OA
ATOM      6  O   UNL     1      64.123  27.800  60.318  1.00  0.00    -0.550 OA
ENDBRANCH   3   4
ENDBRANCH   2   3
ENDBRANCH   1   2
BRANCH   1   7
ATOM      7  C   UNL     1      61.176  31.343  60.402  1.00  0.00     0.000 C 
BRANCH   7   8
ATOM      8  C   UNL     1      61.145  32.870  60.536  1.00  0.00     0.004 C 
BRANCH   8   9
ATOM      9  C   UNL     1      62.562  33.438  60.688  1.00  0.00     0.027 C 
BRANCH   9  10
ATOM     10  C   UNL     1      62.534  34.928  60.889  1.00  0.00    -0.035 C 
ATOM     11  C   UNL     1      61.411  35.637  60.740  1.00  0.00     0.004 C 
ENDBRANCH   9  10
ENDBRANCH   8   9
ENDBRANCH   7   8
ENDBRANCH   1   7
TORSDOF 7
ENDMDL
MODEL 6
REMARK VINA RESULT:    -3.290      1.047      2.120
REMARK INTER + INTRA:          -5.001
REMARK INTER:                  -4.626
REMARK INTRA:                  -0.375
REMARK UNBOUND:                -0.365
REMARK SMILES C=CCCCCCCC(=O)[O-]
REMARK SMILES IDX 6 1 7 2 8 3 9 4 10 5 11 6 5 7 4 8 3 9 2 10 1 11
REMARK H PARENT
REMARK Flexibility Score: inf
ROOT
ATOM      1  C   UNL     1      55.503  28.313  50.708  1.00  0.00     0.000 C 
ENDROOT
BRANCH   1   2
ATOM      2  C   UNL     1      56.794  27.537  51.007  1.00  0.00     0.006 C 
BRANCH   2   3
ATOM      3  C   UNL     1      57.996  28.083  50.225  1.00  0.00     0.053 C 
BRANCH   3   4
ATOM      4  C   UNL     1      58.955  26.997  49.849  1.00  0.00     0.041 C 
ATOM      5  O   UNL     1      58.631  25.788  49.989  1.00  0.00    -0.550 OA
ATOM      6  O   UNL     1      60.221  27.319  49.375  1.00  0.00    -0.550 OA
ENDBRANCH   3   4
ENDBRANCH   2   3
ENDBRANCH   1   2
BRANCH   1   7
ATOM      7  C   UNL     1      54.389  27.368  50.242  1.00  0.00     0.000 C 
BRANCH   7   8
ATOM      8  C   UNL     1      54.930  25.951  50.016  1.00  0.00     0.004 C 
BRANCH   8   9
ATOM      9  C   UNL     1      53.872  25.058  49.357  1.00  0.00     0.027 C 
BRANCH   9  10
ATOM     10  C   UNL     1      53.349  24.028  50.320  1.00  0.00    -0.035 C 
ATOM     11  C   UNL     1      53.421  24.202  51.643  1.00  0.00     0.004 C 
ENDBRANCH   9  10
ENDBRANCH   8   9
ENDBRANCH   7   8
ENDBRANCH   1   7
TORSDOF 7
ENDMDL
MODEL 7
REMARK VINA RESULT:    -3.263      1.977      2.957
REMARK INTER + INTRA:          -4.963
REMARK INTER:                  -4.338
REMARK INTRA:                  -0.626
REMARK UNBOUND:                -0.365
REMARK SMILES C=CCCCCCCC(=O)[O-]
REMARK SMILES IDX 6 1 7 2 8 3 9 4 10 5 11 6 5 7 4 8 3 9 2 10 1 11
REMARK H PARENT
REMARK Flexibility Score: inf
ROOT
ATOM      1  C   UNL     1      59.417  26.214  50.440  1.00  0.00     0.000 C 
ENDROOT
BRANCH   1   2
ATOM      2  C   UNL     1      59.745  27.320  49.426  1.00  0.00     0.006 C 
BRANCH   2   3
ATOM      3  C   UNL     1      58.892  28.577  49.641  1.00  0.00     0.053 C 
BRANCH   3   4
ATOM      4  C   UNL     1      59.023  29.107  51.035  1.00  0.00     0.041 C 
ATOM      5  O   UNL     1      57.999  29.264  51.753  1.00  0.00    -0.550 OA
ATOM      6  O   UNL     1      60.271  29.461  51.532  1.00  0.00    -0.550 OA
ENDBRANCH   3   4
ENDBRANCH   2   3
ENDBRANCH   1   2
BRANCH   1   7
ATOM      7  C   UNL     1      58.149  25.454  50.032  1.00  0.00     0.000 C 
BRANCH   7   8
ATOM      8  C   UNL     1      57.032  25.654  51.064  1.00  0.00     0.004 C 
BRANCH   8   9
ATOM      9  C   UNL     1      55.699  25.971  50.376  1.00  0.00     0.027 C 
BRANCH   9  10
ATOM     10  C   UNL     1      55.344  27.426  50.518  1.00  0.00    -0.035 C 
ATOM     11  C   UNL     1      54.096  27.867  50.327  1.00  0.00     0.004 C 
ENDBRANCH   9  10
ENDBRANCH   8   9
ENDBRANCH   7   8
ENDBRANCH   1   7
TORSDOF 7
ENDMDL
MODEL 8
REMARK VINA RESULT:    -3.261     12.669     13.941
REMARK INTER + INTRA:          -4.960
REMARK INTER:                  -4.653
REMARK INTRA:                  -0.307
REMARK UNBOUND:                -0.365
REMARK SMILES C=CCCCCCCC(=O)[O-]
REMARK SMILES IDX 6 1 7 2 8 3 9 4 10 5 11 6 5 7 4 8 3 9 2 10 1 11
REMARK H PARENT
REMARK Flexibility Score: inf
ROOT
ATOM      1  C   UNL     1      60.920  34.823  60.539  1.00  0.00     0.000 C 
ENDROOT
BRANCH   1   2
ATOM      2  C   UNL     1      62.408  34.970  60.191  1.00  0.00     0.006 C 
BRANCH   2   3
ATOM      3  C   UNL     1      63.204  35.650  61.313  1.00  0.00     0.053 C 
BRANCH   3   4
ATOM      4  C   UNL     1      64.543  35.012  61.512  1.00  0.00     0.041 C 
ATOM      5  O   UNL     1      64.656  33.757  61.499  1.00  0.00    -0.550 OA
ATOM      6  O   UNL     1      65.663  35.800  61.746  1.00  0.00    -0.550 OA
ENDBRANCH   3   4
ENDBRANCH   2   3
ENDBRANCH   1   2
BRANCH   1   7
ATOM      7  C   UNL     1      60.453  33.374  60.355  1.00  0.00     0.000 C 
BRANCH   7   8
ATOM      8  C   UNL     1      61.603  32.390  60.602  1.00  0.00     0.004 C 
BRANCH   8   9
ATOM      9  C   UNL     1      61.086  30.949  60.681  1.00  0.00     0.027 C 
BRANCH   9  10
ATOM     10  C   UNL     1      61.774  30.181  61.777  1.00  0.00    -0.035 C 
ATOM     11  C   UNL     1      62.953  29.581  61.582  1.00  0.00     0.004 C 
ENDBRANCH   9  10
ENDBRANCH   8   9
ENDBRANCH   7   8
ENDBRANCH   1   7
TORSDOF 7
ENDMDL
MODEL 9
REMARK VINA RESULT:    -3.232      2.925      5.249
REMARK INTER + INTRA:          -4.919
REMARK INTER:                  -4.440
REMARK INTRA:                  -0.479
REMARK UNBOUND:                -0.365
REMARK SMILES C=CCCCCCCC(=O)[O-]
REMARK SMILES IDX 6 1 7 2 8 3 9 4 10 5 11 6 5 7 4 8 3 9 2 10 1 11
REMARK H PARENT
REMARK Flexibility Score: inf
ROOT
ATOM      1  C   UNL     1      57.487  27.873  51.068  1.00  0.00     0.000 C 
ENDROOT
BRANCH   1   2
ATOM      2  C   UNL     1      56.018  27.644  50.683  1.00  0.00     0.006 C 
BRANCH   2   3
ATOM      3  C   UNL     1      55.713  26.165  50.411  1.00  0.00     0.053 C 
BRANCH   3   4
ATOM      4  C   UNL     1      54.303  25.964  49.947  1.00  0.00     0.041 C 
ATOM      5  O   UNL     1      53.516  26.944  49.867  1.00  0.00    -0.550 OA
ATOM      6  O   UNL     1      53.848  24.689  49.635  1.00  0.00    -0.550 OA
ENDBRANCH   3   4
ENDBRANCH   2   3
ENDBRANCH   1   2
BRANCH   1   7
ATOM      7  C   UNL     1      58.255  28.551  49.926  1.00  0.00     0.000 C 
BRANCH   7   8
ATOM      8  C   UNL     1      59.565  27.812  49.630  1.00  0.00     0.004 C 
BRANCH   8   9
ATOM      9  C   UNL     1      59.379  26.295  49.746  1.00  0.00     0.027 C 
BRANCH   9  10
ATOM     10  C   UNL     1      60.599  25.638  50.332  1.00  0.00    -0.035 C 
ATOM     11  C   UNL     1      61.357  26.251  51.246  1.00  0.00     0.004 C 
ENDBRANCH   9  10
ENDBRANCH   8   9
ENDBRANCH   7   8
ENDBRANCH   1   7
TORSDOF 7
ENDMDL
