MODEL 1
REMARK VINA RESULT:    -4.115      0.000      0.000
REMARK INTER + INTRA:          -5.162
REMARK INTER:                  -4.957
REMARK INTRA:                  -0.204
REMARK UNBOUND:                -0.204
REMARK SMILES C=CCc1ccc(O)c(OC)c1
REMARK SMILES IDX 9 1 7 2 6 3 5 4 4 5 12 6 10 7 11 8 8 9 3 11 2 12 1 13
REMARK H PARENT 8 10
REMARK Flexibility Score: inf
ROOT
ATOM      1  C   UNL     1     168.136 164.999 168.062  1.00  0.00     0.160 A 
ATOM      2  C   UNL     1     166.897 165.650 168.216  1.00  0.00     0.157 A 
ATOM      3  C   UNL     1     166.849 167.039 168.360  1.00  0.00     0.050 A 
ATOM      4  C   UNL     1     168.024 167.793 168.355  1.00  0.00     0.008 A 
ATOM      5  C   UNL     1     169.267 167.160 168.212  1.00  0.00    -0.040 A 
ATOM      6  C   UNL     1     169.318 165.765 168.058  1.00  0.00     0.054 A 
ENDROOT
BRANCH   1   7
ATOM      7  O   UNL     1     168.155 163.603 167.914  1.00  0.00    -0.493 OA
ATOM      8  C   UNL     1     168.752 162.700 168.839  1.00  0.00     0.278 C 
ENDBRANCH   1   7
BRANCH   2   9
ATOM      9  O   UNL     1     165.702 164.930 168.226  1.00  0.00    -0.504 OA
ATOM     10  H   UNL     1     165.168 164.783 169.074  1.00  0.00     0.293 HD
ENDBRANCH   2   9
BRANCH   5  11
ATOM     11  C   UNL     1     170.535 167.972 168.178  1.00  0.00     0.062 C 
BRANCH  11  12
ATOM     12  C   UNL     1     170.682 168.784 169.435  1.00  0.00    -0.030 C 
ATOM     13  C   UNL     1     171.860 169.289 169.811  1.00  0.00     0.004 C 
ENDBRANCH  11  12
ENDBRANCH   5  11
TORSDOF 4
ENDMDL
MODEL 2
REMARK VINA RESULT:    -4.064      2.520      3.527
REMARK INTER + INTRA:          -5.100
REMARK INTER:                  -4.898
REMARK INTRA:                  -0.202
REMARK UNBOUND:                -0.204
REMARK SMILES C=CCc1ccc(O)c(OC)c1
REMARK SMILES IDX 9 1 7 2 6 3 5 4 4 5 12 6 10 7 11 8 8 9 3 11 2 12 1 13
REMARK H PARENT 8 10
REMARK Flexibility Score: inf
ROOT
ATOM      1  C   UNL     1     167.483 166.942 168.252  1.00  0.00     0.160 A 
ATOM      2  C   UNL     1     166.154 166.506 168.095  1.00  0.00     0.157 A 
ATOM      3  C   UNL     1     165.105 167.431 168.118  1.00  0.00     0.050 A 
ATOM      4  C   UNL     1     165.364 168.790 168.298  1.00  0.00     0.008 A 
ATOM      5  C   UNL     1     166.682 169.241 168.465  1.00  0.00    -0.040 A 
ATOM      6  C   UNL     1     167.737 168.316 168.433  1.00  0.00     0.054 A 
ENDROOT
BRANCH   1   7
ATOM      7  O   UNL     1     168.516 165.993 168.220  1.00  0.00    -0.493 OA
ATOM      8  C   UNL     1     169.901 166.301 168.335  1.00  0.00     0.278 C 
ENDBRANCH   1   7
BRANCH   2   9
ATOM      9  O   UNL     1     165.856 165.156 167.914  1.00  0.00    -0.504 OA
ATOM     10  H   UNL     1     165.141 164.843 167.268  1.00  0.00     0.293 HD
ENDBRANCH   2   9
BRANCH   5  11
ATOM     11  C   UNL     1     166.968 170.711 168.631  1.00  0.00     0.062 C 
BRANCH  11  12
ATOM     12  C   UNL     1     166.426 171.214 169.940  1.00  0.00    -0.030 C 
ATOM     13  C   UNL     1     165.743 172.359 170.024  1.00  0.00     0.004 C 
ENDBRANCH  11  12
ENDBRANCH   5  11
TORSDOF 4
ENDMDL
MODEL 3
REMARK VINA RESULT:    -4.056      1.891      4.273
REMARK INTER + INTRA:          -5.090
REMARK INTER:                  -4.880
REMARK INTRA:                  -0.210
REMARK UNBOUND:                -0.204
REMARK SMILES C=CCc1ccc(O)c(OC)c1
REMARK SMILES IDX 9 1 7 2 6 3 5 4 4 5 12 6 10 7 11 8 8 9 3 11 2 12 1 13
REMARK H PARENT 8 10
REMARK Flexibility Score: inf
ROOT
ATOM      1  C   UNL     1     167.940 165.076 168.017  1.00  0.00     0.160 A 
ATOM      2  C   UNL     1     168.890 166.115 168.015  1.00  0.00     0.157 A 
ATOM      3  C   UNL     1     168.475 167.442 168.158  1.00  0.00     0.050 A 
ATOM      4  C   UNL     1     167.122 167.750 168.300  1.00  0.00     0.008 A 
ATOM      5  C   UNL     1     166.161 166.728 168.293  1.00  0.00    -0.040 A 
ATOM      6  C   UNL     1     166.575 165.393 168.160  1.00  0.00     0.054 A 
ENDROOT
BRANCH   1   7
ATOM      7  O   UNL     1     168.385 163.751 167.877  1.00  0.00    -0.493 OA
ATOM      8  C   UNL     1     168.707 162.888 168.962  1.00  0.00     0.278 C 
ENDBRANCH   1   7
BRANCH   2   9
ATOM      9  O   UNL     1     170.251 165.846 167.876  1.00  0.00    -0.504 OA
ATOM     10  H   UNL     1     170.903 165.946 168.645  1.00  0.00     0.293 HD
ENDBRANCH   2   9
BRANCH   5  11
ATOM     11  C   UNL     1     164.702 167.054 168.475  1.00  0.00     0.062 C 
BRANCH  11  12
ATOM     12  C   UNL     1     164.193 166.510 169.781  1.00  0.00    -0.030 C 
ATOM     13  C   UNL     1     163.074 165.784 169.851  1.00  0.00     0.004 C 
ENDBRANCH  11  12
ENDBRANCH   5  11
TORSDOF 4
ENDMDL
MODEL 4
REMARK VINA RESULT:    -4.009      3.824      6.195
REMARK INTER + INTRA:          -5.034
REMARK INTER:                  -4.852
REMARK INTRA:                  -0.182
REMARK UNBOUND:                -0.204
REMARK SMILES C=CCc1ccc(O)c(OC)c1
REMARK SMILES IDX 9 1 7 2 6 3 5 4 4 5 12 6 10 7 11 8 8 9 3 11 2 12 1 13
REMARK H PARENT 8 10
REMARK Flexibility Score: inf
ROOT
ATOM      1  C   UNL     1     166.998 170.345 168.479  1.00  0.00     0.160 A 
ATOM      2  C   UNL     1     168.277 169.827 168.200  1.00  0.00     0.157 A 
ATOM      3  C   UNL     1     168.437 168.467 167.921  1.00  0.00     0.050 A 
ATOM      4  C   UNL     1     167.335 167.610 167.921  1.00  0.00     0.008 A 
ATOM      5  C   UNL     1     166.055 168.107 168.207  1.00  0.00    -0.040 A 
ATOM      6  C   UNL     1     165.890 169.474 168.477  1.00  0.00     0.054 A 
ENDROOT
BRANCH   1   7
ATOM      7  O   UNL     1     166.866 171.716 168.749  1.00  0.00    -0.493 OA
ATOM      8  C   UNL     1     166.025 172.263 169.760  1.00  0.00     0.278 C 
ENDBRANCH   1   7
BRANCH   2   9
ATOM      9  O   UNL     1     169.401 170.652 168.191  1.00  0.00    -0.504 OA
ATOM     10  H   UNL     1     169.381 171.589 167.806  1.00  0.00     0.293 HD
ENDBRANCH   2   9
BRANCH   5  11
ATOM     11  C   UNL     1     164.860 167.191 168.179  1.00  0.00     0.062 C 
BRANCH  11  12
ATOM     12  C   UNL     1     164.684 166.504 169.505  1.00  0.00    -0.030 C 
ATOM     13  C   UNL     1     163.495 166.045 169.905  1.00  0.00     0.004 C 
ENDBRANCH  11  12
ENDBRANCH   5  11
TORSDOF 4
ENDMDL
MODEL 5
REMARK VINA RESULT:    -3.981      2.554      4.715
REMARK INTER + INTRA:          -5.001
REMARK INTER:                  -4.806
REMARK INTRA:                  -0.195
REMARK UNBOUND:                -0.204
REMARK SMILES C=CCc1ccc(O)c(OC)c1
REMARK SMILES IDX 9 1 7 2 6 3 5 4 4 5 12 6 10 7 11 8 8 9 3 11 2 12 1 13
REMARK H PARENT 8 10
REMARK Flexibility Score: inf
ROOT
ATOM      1  C   UNL     1     167.877 168.373 168.380  1.00  0.00     0.160 A 
ATOM      2  C   UNL     1     169.167 168.827 168.048  1.00  0.00     0.157 A 
ATOM      3  C   UNL     1     170.210 167.912 167.880  1.00  0.00     0.050 A 
ATOM      4  C   UNL     1     169.985 166.544 168.043  1.00  0.00     0.008 A 
ATOM      5  C   UNL     1     168.708 166.075 168.383  1.00  0.00    -0.040 A 
ATOM      6  C   UNL     1     167.656 166.991 168.543  1.00  0.00     0.054 A 
ENDROOT
BRANCH   1   7
ATOM      7  O   UNL     1     166.847 169.314 168.537  1.00  0.00    -0.493 OA
ATOM      8  C   UNL     1     165.472 169.061 168.264  1.00  0.00     0.278 C 
ENDBRANCH   1   7
BRANCH   2   9
ATOM      9  O   UNL     1     169.430 170.186 167.878  1.00  0.00    -0.504 OA
ATOM     10  H   UNL     1     168.824 170.790 167.335  1.00  0.00     0.293 HD
ENDBRANCH   2   9
BRANCH   5  11
ATOM     11  C   UNL     1     168.455 164.598 168.531  1.00  0.00     0.062 C 
BRANCH  11  12
ATOM     12  C   UNL     1     169.228 164.039 169.693  1.00  0.00    -0.030 C 
ATOM     13  C   UNL     1     169.614 162.760 169.730  1.00  0.00     0.004 C 
ENDBRANCH  11  12
ENDBRANCH   5  11
TORSDOF 4
ENDMDL
MODEL 6
REMARK VINA RESULT:    -3.978      2.710      4.189
REMARK INTER + INTRA:          -4.996
REMARK INTER:                  -4.819
REMARK INTRA:                  -0.177
REMARK UNBOUND:                -0.204
REMARK SMILES C=CCc1ccc(O)c(OC)c1
REMARK SMILES IDX 9 1 7 2 6 3 5 4 4 5 12 6 10 7 11 8 8 9 3 11 2 12 1 13
REMARK H PARENT 8 10
REMARK Flexibility Score: inf
ROOT
ATOM      1  C   UNL     1     165.154 167.024 168.455  1.00  0.00     0.160 A 
ATOM      2  C   UNL     1     165.643 168.317 168.189  1.00  0.00     0.157 A 
ATOM      3  C   UNL     1     166.998 168.508 167.900  1.00  0.00     0.050 A 
ATOM      4  C   UNL     1     167.876 167.423 167.875  1.00  0.00     0.008 A 
ATOM      5  C   UNL     1     167.407 166.130 168.147  1.00  0.00    -0.040 A 
ATOM      6  C   UNL     1     166.046 165.934 168.428  1.00  0.00     0.054 A 
ENDROOT
BRANCH   1   7
ATOM      7  O   UNL     1     163.789 166.860 168.737  1.00  0.00    -0.493 OA
ATOM      8  C   UNL     1     163.269 166.008 169.752  1.00  0.00     0.278 C 
ENDBRANCH   1   7
BRANCH   2   9
ATOM      9  O   UNL     1     164.796 169.424 168.205  1.00  0.00    -0.504 OA
ATOM     10  H   UNL     1     164.978 170.252 167.650  1.00  0.00     0.293 HD
ENDBRANCH   2   9
BRANCH   5  11
ATOM     11  C   UNL     1     168.347 164.953 168.093  1.00  0.00     0.062 C 
BRANCH  11  12
ATOM     12  C   UNL     1     168.734 164.517 169.479  1.00  0.00    -0.030 C 
ATOM     13  C   UNL     1     169.362 163.358 169.700  1.00  0.00     0.004 C 
ENDBRANCH  11  12
ENDBRANCH   5  11
TORSDOF 4
ENDMDL
MODEL 7
REMARK VINA RESULT:    -3.970      3.067      5.027
REMARK INTER + INTRA:          -4.987
REMARK INTER:                  -4.811
REMARK INTRA:                  -0.176
REMARK UNBOUND:                -0.204
REMARK SMILES C=CCc1ccc(O)c(OC)c1
REMARK SMILES IDX 9 1 7 2 6 3 5 4 4 5 12 6 10 7 11 8 8 9 3 11 2 12 1 13
REMARK H PARENT 8 10
REMARK Flexibility Score: inf
ROOT
ATOM      1  C   UNL     1     168.383 168.306 168.106  1.00  0.00     0.160 A 
ATOM      2  C   UNL     1     168.268 169.699 168.271  1.00  0.00     0.157 A 
ATOM      3  C   UNL     1     167.011 170.279 168.467  1.00  0.00     0.050 A 
ATOM      4  C   UNL     1     165.863 169.487 168.499  1.00  0.00     0.008 A 
ATOM      5  C   UNL     1     165.958 168.099 168.326  1.00  0.00    -0.040 A 
ATOM      6  C   UNL     1     167.220 167.512 168.138  1.00  0.00     0.054 A 
ENDROOT
BRANCH   1   7
ATOM      7  O   UNL     1     169.658 167.749 167.915  1.00  0.00    -0.493 OA
ATOM      8  C   UNL     1     170.000 166.396 168.198  1.00  0.00     0.278 C 
ENDBRANCH   1   7
BRANCH   2   9
ATOM      9  O   UNL     1     169.393 170.523 168.245  1.00  0.00    -0.504 OA
ATOM     10  H   UNL     1     169.366 171.462 167.866  1.00  0.00     0.293 HD
ENDBRANCH   2   9
BRANCH   5  11
ATOM     11  C   UNL     1     164.724 167.238 168.388  1.00  0.00     0.062 C 
BRANCH  11  12
ATOM     12  C   UNL     1     164.655 166.498 169.695  1.00  0.00    -0.030 C 
ATOM     13  C   UNL     1     163.501 166.025 170.174  1.00  0.00     0.004 C 
ENDBRANCH  11  12
ENDBRANCH   5  11
TORSDOF 4
ENDMDL
MODEL 8
REMARK VINA RESULT:    -3.949      1.049      2.806
REMARK INTER + INTRA:          -4.962
REMARK INTER:                  -4.771
REMARK INTRA:                  -0.191
REMARK UNBOUND:                -0.204
REMARK SMILES C=CCc1ccc(O)c(OC)c1
REMARK SMILES IDX 9 1 7 2 6 3 5 4 4 5 12 6 10 7 11 8 8 9 3 11 2 12 1 13
REMARK H PARENT 8 10
REMARK Flexibility Score: inf
ROOT
ATOM      1  C   UNL     1     166.988 166.942 168.089  1.00  0.00     0.160 A 
ATOM      2  C   UNL     1     167.083 165.545 168.231  1.00  0.00     0.157 A 
ATOM      3  C   UNL     1     168.333 164.940 168.393  1.00  0.00     0.050 A 
ATOM      4  C   UNL     1     169.495 165.712 168.411  1.00  0.00     0.008 A 
ATOM      5  C   UNL     1     169.420 167.104 168.260  1.00  0.00    -0.040 A 
ATOM      6  C   UNL     1     168.166 167.715 168.108  1.00  0.00     0.054 A 
ENDROOT
BRANCH   1   7
ATOM      7  O   UNL     1     165.720 167.523 167.934  1.00  0.00    -0.493 OA
ATOM      8  C   UNL     1     165.379 168.843 168.347  1.00  0.00     0.278 C 
ENDBRANCH   1   7
BRANCH   2   9
ATOM      9  O   UNL     1     165.943 164.741 168.218  1.00  0.00    -0.504 OA
ATOM     10  H   UNL     1     165.970 163.761 168.473  1.00  0.00     0.293 HD
ENDBRANCH   2   9
BRANCH   5  11
ATOM     11  C   UNL     1     170.670 167.943 168.309  1.00  0.00     0.062 C 
BRANCH  11  12
ATOM     12  C   UNL     1     170.605 168.933 169.438  1.00  0.00    -0.030 C 
ATOM     13  C   UNL     1     171.646 169.144 170.248  1.00  0.00     0.004 C 
ENDBRANCH  11  12
ENDBRANCH   5  11
TORSDOF 4
ENDMDL
