MODEL 1
REMARK VINA RESULT:    -4.701      0.000      0.000
REMARK INTER + INTRA:          -9.600
REMARK INTER:                  -8.548
REMARK INTRA:                  -1.053
REMARK UNBOUND:                -1.053
REMARK SMILES CCCCCCCCCCCCCCCC(=O)[O-]
REMARK SMILES IDX 9 1 10 2 11 3 12 4 13 5 14 6 15 7 16 8 17 9 18 10 8 11 7 12
REMARK SMILES IDX 6 13 5 14 4 15 3 16 2 17 1 18
REMARK H PARENT
REMARK Flexibility Score: inf
ROOT
ATOM      1  C   UNL     1      54.175  -3.139  11.936  1.00  0.00     0.000 C 
ENDROOT
BRANCH   1   2
ATOM      2  C   UNL     1      54.601  -3.215  13.410  1.00  0.00     0.000 C 
BRANCH   2   3
ATOM      3  C   UNL     1      56.071  -3.629  13.583  1.00  0.00     0.000 C 
BRANCH   3   4
ATOM      4  C   UNL     1      56.869  -2.635  14.440  1.00  0.00     0.000 C 
BRANCH   4   5
ATOM      5  C   UNL     1      56.038  -1.385  14.750  1.00  0.00     0.000 C 
BRANCH   5   6
ATOM      6  C   UNL     1      56.941  -0.203  15.134  1.00  0.00     0.006 C 
BRANCH   6   7
ATOM      7  C   UNL     1      56.618   0.345  16.530  1.00  0.00     0.053 C 
BRANCH   7   8
ATOM      8  C   UNL     1      56.809  -0.693  17.593  1.00  0.00     0.041 C 
ATOM      9  O   UNL     1      55.850  -1.017  18.343  1.00  0.00    -0.550 OA
ATOM     10  O   UNL     1      58.036  -1.328  17.733  1.00  0.00    -0.550 OA
ENDBRANCH   7   8
ENDBRANCH   6   7
ENDBRANCH   5   6
ENDBRANCH   4   5
ENDBRANCH   3   4
ENDBRANCH   2   3
ENDBRANCH   1   2
BRANCH   1  11
ATOM     11  C   UNL     1      52.805  -2.460  11.796  1.00  0.00     0.000 C 
BRANCH  11  12
ATOM     12  C   UNL     1      51.823  -3.264  10.926  1.00  0.00    -0.000 C 
BRANCH  12  13
ATOM     13  C   UNL     1      52.422  -4.513  10.245  1.00  0.00    -0.000 C 
BRANCH  13  14
ATOM     14  C   UNL     1      52.203  -4.595   8.724  1.00  0.00    -0.000 C 
BRANCH  14  15
ATOM     15  C   UNL     1      53.395  -4.124   7.870  1.00  0.00    -0.000 C 
BRANCH  15  16
ATOM     16  C   UNL     1      54.770  -4.393   8.519  1.00  0.00    -0.000 C 
BRANCH  16  17
ATOM     17  C   UNL     1      55.912  -4.413   7.493  1.00  0.00    -0.003 C 
ATOM     18  C   UNL     1      57.247  -4.730   8.161  1.00  0.00     0.004 C 
ENDBRANCH  16  17
ENDBRANCH  15  16
ENDBRANCH  14  15
ENDBRANCH  13  14
ENDBRANCH  12  13
ENDBRANCH  11  12
ENDBRANCH   1  11
TORSDOF 14
ENDMDL
MODEL 2
REMARK VINA RESULT:    -4.676      3.330      6.471
REMARK INTER + INTRA:          -9.555
REMARK INTER:                  -8.447
REMARK INTRA:                  -1.108
REMARK UNBOUND:                -1.053
REMARK SMILES CCCCCCCCCCCCCCCC(=O)[O-]
REMARK SMILES IDX 9 1 10 2 11 3 12 4 13 5 14 6 15 7 16 8 17 9 18 10 8 11 7 12
REMARK SMILES IDX 6 13 5 14 4 15 3 16 2 17 1 18
REMARK H PARENT
REMARK Flexibility Score: inf
ROOT
ATOM      1  C   UNL     1      55.659  -0.556  17.389  1.00  0.00     0.000 C 
ENDROOT
BRANCH   1   2
ATOM      2  C   UNL     1      56.222  -1.148  18.690  1.00  0.00     0.000 C 
BRANCH   2   3
ATOM      3  C   UNL     1      57.754  -1.061  18.767  1.00  0.00     0.000 C 
BRANCH   3   4
ATOM      4  C   UNL     1      58.312  -1.596  20.095  1.00  0.00     0.000 C 
BRANCH   4   5
ATOM      5  C   UNL     1      57.480  -2.779  20.604  1.00  0.00     0.000 C 
BRANCH   5   6
ATOM      6  C   UNL     1      58.379  -3.971  20.964  1.00  0.00     0.006 C 
BRANCH   6   7
ATOM      7  C   UNL     1      59.603  -4.075  20.044  1.00  0.00     0.053 C 
BRANCH   7   8
ATOM      8  C   UNL     1      60.885  -3.998  20.814  1.00  0.00     0.041 C 
ATOM      9  O   UNL     1      61.936  -4.514  20.348  1.00  0.00    -0.550 OA
ATOM     10  O   UNL     1      60.929  -3.328  22.030  1.00  0.00    -0.550 OA
ENDBRANCH   7   8
ENDBRANCH   6   7
ENDBRANCH   5   6
ENDBRANCH   4   5
ENDBRANCH   3   4
ENDBRANCH   2   3
ENDBRANCH   1   2
BRANCH   1  11
ATOM     11  C   UNL     1      56.751   0.188  16.607  1.00  0.00     0.000 C 
BRANCH  11  12
ATOM     12  C   UNL     1      56.819  -0.230  15.128  1.00  0.00    -0.000 C 
BRANCH  12  13
ATOM     13  C   UNL     1      57.655  -1.496  14.841  1.00  0.00    -0.000 C 
BRANCH  13  14
ATOM     14  C   UNL     1      56.839  -2.746  14.468  1.00  0.00    -0.000 C 
BRANCH  14  15
ATOM     15  C   UNL     1      55.357  -2.481  14.142  1.00  0.00    -0.000 C 
BRANCH  15  16
ATOM     16  C   UNL     1      54.722  -3.548  13.224  1.00  0.00    -0.000 C 
BRANCH  16  17
ATOM     17  C   UNL     1      53.199  -3.392  13.107  1.00  0.00    -0.003 C 
ATOM     18  C   UNL     1      52.650  -4.209  11.941  1.00  0.00     0.004 C 
ENDBRANCH  16  17
ENDBRANCH  15  16
ENDBRANCH  14  15
ENDBRANCH  13  14
ENDBRANCH  12  13
ENDBRANCH  11  12
ENDBRANCH   1  11
TORSDOF 14
ENDMDL
MODEL 3
REMARK VINA RESULT:    -4.646      2.070      4.349
REMARK INTER + INTRA:          -9.501
REMARK INTER:                  -8.144
REMARK INTRA:                  -1.357
REMARK UNBOUND:                -1.053
REMARK SMILES CCCCCCCCCCCCCCCC(=O)[O-]
REMARK SMILES IDX 9 1 10 2 11 3 12 4 13 5 14 6 15 7 16 8 17 9 18 10 8 11 7 12
REMARK SMILES IDX 6 13 5 14 4 15 3 16 2 17 1 18
REMARK H PARENT
REMARK Flexibility Score: inf
ROOT
ATOM      1  C   UNL     1      54.153  -3.576   9.398  1.00  0.00     0.000 C 
ENDROOT
BRANCH   1   2
ATOM      2  C   UNL     1      53.180  -4.458  10.194  1.00  0.00     0.000 C 
BRANCH   2   3
ATOM      3  C   UNL     1      52.417  -3.675  11.274  1.00  0.00     0.000 C 
BRANCH   3   4
ATOM      4  C   UNL     1      52.963  -3.929  12.687  1.00  0.00     0.000 C 
BRANCH   4   5
ATOM      5  C   UNL     1      54.250  -3.131  12.930  1.00  0.00     0.000 C 
BRANCH   5   6
ATOM      6  C   UNL     1      55.210  -3.900  13.850  1.00  0.00     0.006 C 
BRANCH   6   7
ATOM      7  C   UNL     1      56.644  -3.360  13.775  1.00  0.00     0.053 C 
BRANCH   7   8
ATOM      8  C   UNL     1      56.843  -2.180  14.676  1.00  0.00     0.041 C 
ATOM      9  O   UNL     1      57.928  -1.542  14.655  1.00  0.00    -0.550 OA
ATOM     10  O   UNL     1      55.816  -1.764  15.514  1.00  0.00    -0.550 OA
ENDBRANCH   7   8
ENDBRANCH   6   7
ENDBRANCH   5   6
ENDBRANCH   4   5
ENDBRANCH   3   4
ENDBRANCH   2   3
ENDBRANCH   1   2
BRANCH   1  11
ATOM     11  C   UNL     1      54.642  -4.301   8.135  1.00  0.00     0.000 C 
BRANCH  11  12
ATOM     12  C   UNL     1      53.532  -4.498   7.088  1.00  0.00    -0.000 C 
BRANCH  12  13
ATOM     13  C   UNL     1      53.086  -3.215   6.356  1.00  0.00    -0.000 C 
BRANCH  13  14
ATOM     14  C   UNL     1      51.672  -2.720   6.710  1.00  0.00    -0.000 C 
BRANCH  14  15
ATOM     15  C   UNL     1      51.611  -1.299   7.301  1.00  0.00    -0.000 C 
BRANCH  15  16
ATOM     16  C   UNL     1      51.491  -1.270   8.840  1.00  0.00    -0.000 C 
BRANCH  16  17
ATOM     17  C   UNL     1      51.723   0.132   9.423  1.00  0.00    -0.003 C 
ATOM     18  C   UNL     1      52.285   0.053  10.839  1.00  0.00     0.004 C 
ENDBRANCH  16  17
ENDBRANCH  15  16
ENDBRANCH  14  15
ENDBRANCH  13  14
ENDBRANCH  12  13
ENDBRANCH  11  12
ENDBRANCH   1  11
TORSDOF 14
ENDMDL
MODEL 4
REMARK VINA RESULT:    -4.638      4.898     10.449
REMARK INTER + INTRA:          -9.486
REMARK INTER:                  -8.366
REMARK INTRA:                  -1.120
REMARK UNBOUND:                -1.053
REMARK SMILES CCCCCCCCCCCCCCCC(=O)[O-]
REMARK SMILES IDX 9 1 10 2 11 3 12 4 13 5 14 6 15 7 16 8 17 9 18 10 8 11 7 12
REMARK SMILES IDX 6 13 5 14 4 15 3 16 2 17 1 18
REMARK H PARENT
REMARK Flexibility Score: inf
ROOT
ATOM      1  C   UNL     1      57.733  -1.494  20.678  1.00  0.00     0.000 C 
ENDROOT
BRANCH   1   2
ATOM      2  C   UNL     1      57.591  -0.838  19.296  1.00  0.00     0.000 C 
BRANCH   2   3
ATOM      3  C   UNL     1      56.154  -0.899  18.755  1.00  0.00     0.000 C 
BRANCH   3   4
ATOM      4  C   UNL     1      56.101  -0.967  17.221  1.00  0.00     0.000 C 
BRANCH   4   5
ATOM      5  C   UNL     1      57.496  -1.210  16.633  1.00  0.00     0.000 C 
BRANCH   5   6
ATOM      6  C   UNL     1      57.412  -1.548  15.137  1.00  0.00     0.006 C 
BRANCH   6   7
ATOM      7  C   UNL     1      56.034  -2.094  14.741  1.00  0.00     0.053 C 
BRANCH   7   8
ATOM      8  C   UNL     1      56.144  -3.376  13.973  1.00  0.00     0.041 C 
ATOM      9  O   UNL     1      57.265  -3.775  13.563  1.00  0.00    -0.550 OA
ATOM     10  O   UNL     1      55.012  -4.147  13.740  1.00  0.00    -0.550 OA
ENDBRANCH   7   8
ENDBRANCH   6   7
ENDBRANCH   5   6
ENDBRANCH   4   5
ENDBRANCH   3   4
ENDBRANCH   2   3
ENDBRANCH   1   2
BRANCH   1  11
ATOM     11  C   UNL     1      57.068  -2.878  20.699  1.00  0.00     0.000 C 
BRANCH  11  12
ATOM     12  C   UNL     1      58.083  -4.029  20.817  1.00  0.00    -0.000 C 
BRANCH  12  13
ATOM     13  C   UNL     1      59.357  -3.870  19.960  1.00  0.00    -0.000 C 
BRANCH  13  14
ATOM     14  C   UNL     1      60.680  -4.120  20.705  1.00  0.00    -0.000 C 
BRANCH  14  15
ATOM     15  C   UNL     1      60.899  -3.241  21.951  1.00  0.00    -0.000 C 
BRANCH  15  16
ATOM     16  C   UNL     1      62.159  -3.615  22.762  1.00  0.00    -0.000 C 
BRANCH  16  17
ATOM     17  C   UNL     1      61.866  -4.650  23.859  1.00  0.00    -0.003 C 
ATOM     18  C   UNL     1      60.369  -4.752  24.133  1.00  0.00     0.004 C 
ENDBRANCH  16  17
ENDBRANCH  15  16
ENDBRANCH  14  15
ENDBRANCH  13  14
ENDBRANCH  12  13
ENDBRANCH  11  12
ENDBRANCH   1  11
TORSDOF 14
ENDMDL
MODEL 5
REMARK VINA RESULT:    -4.566      4.198      7.414
REMARK INTER + INTRA:          -9.356
REMARK INTER:                  -7.683
REMARK INTRA:                  -1.673
REMARK UNBOUND:                -1.053
REMARK SMILES CCCCCCCCCCCCCCCC(=O)[O-]
REMARK SMILES IDX 9 1 10 2 11 3 12 4 13 5 14 6 15 7 16 8 17 9 18 10 8 11 7 12
REMARK SMILES IDX 6 13 5 14 4 15 3 16 2 17 1 18
REMARK H PARENT
REMARK Flexibility Score: inf
ROOT
ATOM      1  C   UNL     1      53.562   0.845  12.132  1.00  0.00     0.000 C 
ENDROOT
BRANCH   1   2
ATOM      2  C   UNL     1      52.341  -0.075  12.279  1.00  0.00     0.000 C 
BRANCH   2   3
ATOM      3  C   UNL     1      52.340  -1.227  11.263  1.00  0.00     0.000 C 
BRANCH   3   4
ATOM      4  C   UNL     1      51.614  -2.477  11.784  1.00  0.00     0.000 C 
BRANCH   4   5
ATOM      5  C   UNL     1      52.374  -3.752  11.403  1.00  0.00     0.000 C 
BRANCH   5   6
ATOM      6  C   UNL     1      53.381  -3.478  10.276  1.00  0.00     0.006 C 
BRANCH   6   7
ATOM      7  C   UNL     1      52.953  -4.113   8.946  1.00  0.00     0.053 C 
BRANCH   7   8
ATOM      8  C   UNL     1      54.087  -4.173   7.968  1.00  0.00     0.041 C 
ATOM      9  O   UNL     1      55.225  -4.560   8.341  1.00  0.00    -0.550 OA
ATOM     10  O   UNL     1      53.877  -3.833   6.638  1.00  0.00    -0.550 OA
ENDBRANCH   7   8
ENDBRANCH   6   7
ENDBRANCH   5   6
ENDBRANCH   4   5
ENDBRANCH   3   4
ENDBRANCH   2   3
ENDBRANCH   1   2
BRANCH   1  11
ATOM     11  C   UNL     1      53.645   1.837  13.302  1.00  0.00     0.000 C 
BRANCH  11  12
ATOM     12  C   UNL     1      54.728   1.465  14.329  1.00  0.00    -0.000 C 
BRANCH  12  13
ATOM     13  C   UNL     1      54.221   0.694  15.566  1.00  0.00    -0.000 C 
BRANCH  13  14
ATOM     14  C   UNL     1      54.856  -0.692  15.777  1.00  0.00    -0.000 C 
BRANCH  14  15
ATOM     15  C   UNL     1      55.600  -1.258  14.553  1.00  0.00    -0.000 C 
BRANCH  15  16
ATOM     16  C   UNL     1      54.813  -2.349  13.796  1.00  0.00    -0.000 C 
BRANCH  16  17
ATOM     17  C   UNL     1      55.540  -3.702  13.789  1.00  0.00    -0.003 C 
ATOM     18  C   UNL     1      57.053  -3.513  13.738  1.00  0.00     0.004 C 
ENDBRANCH  16  17
ENDBRANCH  15  16
ENDBRANCH  14  15
ENDBRANCH  13  14
ENDBRANCH  12  13
ENDBRANCH  11  12
ENDBRANCH   1  11
TORSDOF 14
ENDMDL
MODEL 6
REMARK VINA RESULT:    -4.548      3.592      7.561
REMARK INTER + INTRA:          -9.324
REMARK INTER:                  -7.257
REMARK INTRA:                  -2.066
REMARK UNBOUND:                -1.053
REMARK SMILES CCCCCCCCCCCCCCCC(=O)[O-]
REMARK SMILES IDX 9 1 10 2 11 3 12 4 13 5 14 6 15 7 16 8 17 9 18 10 8 11 7 12
REMARK SMILES IDX 6 13 5 14 4 15 3 16 2 17 1 18
REMARK H PARENT
REMARK Flexibility Score: inf
ROOT
ATOM      1  C   UNL     1      54.386   1.448  14.674  1.00  0.00     0.000 C 
ENDROOT
BRANCH   1   2
ATOM      2  C   UNL     1      53.532   2.247  13.677  1.00  0.00     0.000 C 
BRANCH   2   3
ATOM      3  C   UNL     1      52.232   1.521  13.295  1.00  0.00     0.000 C 
BRANCH   3   4
ATOM      4  C   UNL     1      52.020   1.446  11.776  1.00  0.00     0.000 C 
BRANCH   4   5
ATOM      5  C   UNL     1      52.591   0.142  11.206  1.00  0.00     0.000 C 
BRANCH   5   6
ATOM      6  C   UNL     1      51.968  -1.080  11.895  1.00  0.00     0.006 C 
BRANCH   6   7
ATOM      7  C   UNL     1      52.648  -2.392  11.479  1.00  0.00     0.053 C 
BRANCH   7   8
ATOM      8  C   UNL     1      52.355  -3.501  12.443  1.00  0.00     0.041 C 
ATOM      9  O   UNL     1      51.171  -3.893  12.616  1.00  0.00    -0.550 OA
ATOM     10  O   UNL     1      53.393  -4.123  13.124  1.00  0.00    -0.550 OA
ENDBRANCH   7   8
ENDBRANCH   6   7
ENDBRANCH   5   6
ENDBRANCH   4   5
ENDBRANCH   3   4
ENDBRANCH   2   3
ENDBRANCH   1   2
BRANCH   1  11
ATOM     11  C   UNL     1      55.176   0.344  13.957  1.00  0.00     0.000 C 
BRANCH  11  12
ATOM     12  C   UNL     1      54.788  -1.071  14.424  1.00  0.00    -0.000 C 
BRANCH  12  13
ATOM     13  C   UNL     1      55.957  -2.073  14.522  1.00  0.00    -0.000 C 
BRANCH  13  14
ATOM     14  C   UNL     1      57.316  -1.456  14.900  1.00  0.00    -0.000 C 
BRANCH  14  15
ATOM     15  C   UNL     1      57.537  -1.249  16.410  1.00  0.00    -0.000 C 
BRANCH  15  16
ATOM     16  C   UNL     1      57.311   0.204  16.878  1.00  0.00    -0.000 C 
BRANCH  16  17
ATOM     17  C   UNL     1      56.339   0.297  18.064  1.00  0.00    -0.003 C 
ATOM     18  C   UNL     1      55.367  -0.880  18.072  1.00  0.00     0.004 C 
ENDBRANCH  16  17
ENDBRANCH  15  16
ENDBRANCH  14  15
ENDBRANCH  13  14
ENDBRANCH  12  13
ENDBRANCH  11  12
ENDBRANCH   1  11
TORSDOF 14
ENDMDL
MODEL 7
REMARK VINA RESULT:    -4.546      4.162      7.608
REMARK INTER + INTRA:          -9.320
REMARK INTER:                  -7.652
REMARK INTRA:                  -1.669
REMARK UNBOUND:                -1.053
REMARK SMILES CCCCCCCCCCCCCCCC(=O)[O-]
REMARK SMILES IDX 9 1 10 2 11 3 12 4 13 5 14 6 15 7 16 8 17 9 18 10 8 11 7 12
REMARK SMILES IDX 6 13 5 14 4 15 3 16 2 17 1 18
REMARK H PARENT
REMARK Flexibility Score: inf
ROOT
ATOM      1  C   UNL     1      56.104  -2.024  14.525  1.00  0.00     0.000 C 
ENDROOT
BRANCH   1   2
ATOM      2  C   UNL     1      56.256  -3.446  13.963  1.00  0.00     0.000 C 
BRANCH   2   3
ATOM      3  C   UNL     1      54.915  -4.061  13.534  1.00  0.00     0.000 C 
BRANCH   3   4
ATOM      4  C   UNL     1      53.865  -3.000  13.172  1.00  0.00     0.000 C 
BRANCH   4   5
ATOM      5  C   UNL     1      52.517  -3.652  12.842  1.00  0.00     0.000 C 
BRANCH   5   6
ATOM      6  C   UNL     1      51.553  -2.636  12.213  1.00  0.00     0.006 C 
BRANCH   6   7
ATOM      7  C   UNL     1      52.256  -1.325  11.832  1.00  0.00     0.053 C 
BRANCH   7   8
ATOM      8  C   UNL     1      52.337  -1.148  10.347  1.00  0.00     0.041 C 
ATOM      9  O   UNL     1      51.748  -0.184   9.791  1.00  0.00    -0.550 OA
ATOM     10  O   UNL     1      53.089  -2.029   9.581  1.00  0.00    -0.550 OA
ENDBRANCH   7   8
ENDBRANCH   6   7
ENDBRANCH   5   6
ENDBRANCH   4   5
ENDBRANCH   3   4
ENDBRANCH   2   3
ENDBRANCH   1   2
BRANCH   1  11
ATOM     11  C   UNL     1      57.470  -1.434  14.903  1.00  0.00     0.000 C 
BRANCH  11  12
ATOM     12  C   UNL     1      57.655  -1.276  16.422  1.00  0.00    -0.000 C 
BRANCH  12  13
ATOM     13  C   UNL     1      56.933  -0.064  17.048  1.00  0.00    -0.000 C 
BRANCH  13  14
ATOM     14  C   UNL     1      55.644  -0.399  17.819  1.00  0.00    -0.000 C 
BRANCH  14  15
ATOM     15  C   UNL     1      54.338  -0.025  17.094  1.00  0.00    -0.000 C 
BRANCH  15  16
ATOM     16  C   UNL     1      54.459   1.230  16.203  1.00  0.00    -0.000 C 
BRANCH  16  17
ATOM     17  C   UNL     1      54.039   0.965  14.750  1.00  0.00    -0.003 C 
ATOM     18  C   UNL     1      55.129   1.396  13.774  1.00  0.00     0.004 C 
ENDBRANCH  16  17
ENDBRANCH  15  16
ENDBRANCH  14  15
ENDBRANCH  13  14
ENDBRANCH  12  13
ENDBRANCH  11  12
ENDBRANCH   1  11
TORSDOF 14
ENDMDL
MODEL 8
REMARK VINA RESULT:    -4.546      4.224      7.221
REMARK INTER + INTRA:          -9.320
REMARK INTER:                  -7.634
REMARK INTRA:                  -1.686
REMARK UNBOUND:                -1.053
REMARK SMILES CCCCCCCCCCCCCCCC(=O)[O-]
REMARK SMILES IDX 9 1 10 2 11 3 12 4 13 5 14 6 15 7 16 8 17 9 18 10 8 11 7 12
REMARK SMILES IDX 6 13 5 14 4 15 3 16 2 17 1 18
REMARK H PARENT
REMARK Flexibility Score: inf
ROOT
ATOM      1  C   UNL     1      56.353  -3.367  13.463  1.00  0.00     0.000 C 
ENDROOT
BRANCH   1   2
ATOM      2  C   UNL     1      54.936  -3.878  13.763  1.00  0.00     0.000 C 
BRANCH   2   3
ATOM      3  C   UNL     1      53.947  -3.589  12.624  1.00  0.00     0.000 C 
BRANCH   3   4
ATOM      4  C   UNL     1      52.482  -3.623  13.087  1.00  0.00     0.000 C 
BRANCH   4   5
ATOM      5  C   UNL     1      51.551  -3.068  12.003  1.00  0.00     0.000 C 
BRANCH   5   6
ATOM      6  C   UNL     1      52.352  -2.378  10.888  1.00  0.00     0.006 C 
BRANCH   6   7
ATOM      7  C   UNL     1      51.827  -2.734   9.491  1.00  0.00     0.053 C 
BRANCH   7   8
ATOM      8  C   UNL     1      52.581  -3.880   8.888  1.00  0.00     0.041 C 
ATOM      9  O   UNL     1      53.791  -4.067   9.182  1.00  0.00    -0.550 OA
ATOM     10  O   UNL     1      51.938  -4.761   8.029  1.00  0.00    -0.550 OA
ENDBRANCH   7   8
ENDBRANCH   6   7
ENDBRANCH   5   6
ENDBRANCH   4   5
ENDBRANCH   3   4
ENDBRANCH   2   3
ENDBRANCH   1   2
BRANCH   1  11
ATOM     11  C   UNL     1      56.810  -2.359  14.527  1.00  0.00     0.000 C 
BRANCH  11  12
ATOM     12  C   UNL     1      55.663  -1.472  15.044  1.00  0.00    -0.000 C 
BRANCH  12  13
ATOM     13  C   UNL     1      55.371  -0.216  14.197  1.00  0.00    -0.000 C 
BRANCH  13  14
ATOM     14  C   UNL     1      53.993  -0.197  13.512  1.00  0.00    -0.000 C 
BRANCH  14  15
ATOM     15  C   UNL     1      53.239   1.143  13.609  1.00  0.00    -0.000 C 
BRANCH  15  16
ATOM     16  C   UNL     1      51.989   1.219  12.706  1.00  0.00    -0.000 C 
BRANCH  16  17
ATOM     17  C   UNL     1      52.225   2.062  11.444  1.00  0.00    -0.003 C 
ATOM     18  C   UNL     1      51.999   1.237  10.181  1.00  0.00     0.004 C 
ENDBRANCH  16  17
ENDBRANCH  15  16
ENDBRANCH  14  15
ENDBRANCH  13  14
ENDBRANCH  12  13
ENDBRANCH  11  12
ENDBRANCH   1  11
TORSDOF 14
ENDMDL
MODEL 9
REMARK VINA RESULT:    -4.546      7.162     10.152
REMARK INTER + INTRA:          -9.320
REMARK INTER:                  -7.550
REMARK INTRA:                  -1.770
REMARK UNBOUND:                -1.053
REMARK SMILES CCCCCCCCCCCCCCCC(=O)[O-]
REMARK SMILES IDX 9 1 10 2 11 3 12 4 13 5 14 6 15 7 16 8 17 9 18 10 8 11 7 12
REMARK SMILES IDX 6 13 5 14 4 15 3 16 2 17 1 18
REMARK H PARENT
REMARK Flexibility Score: inf
ROOT
ATOM      1  C   UNL     1      56.679  -2.752  20.862  1.00  0.00     0.000 C 
ENDROOT
BRANCH   1   2
ATOM      2  C   UNL     1      57.761  -3.843  20.832  1.00  0.00     0.000 C 
BRANCH   2   3
ATOM      3  C   UNL     1      58.980  -3.447  19.986  1.00  0.00     0.000 C 
BRANCH   3   4
ATOM      4  C   UNL     1      60.312  -3.799  20.666  1.00  0.00     0.000 C 
BRANCH   4   5
ATOM      5  C   UNL     1      60.146  -3.887  22.187  1.00  0.00     0.000 C 
BRANCH   5   6
ATOM      6  C   UNL     1      61.455  -4.326  22.860  1.00  0.00     0.006 C 
BRANCH   6   7
ATOM      7  C   UNL     1      62.594  -3.324  22.625  1.00  0.00     0.053 C 
BRANCH   7   8
ATOM      8  C   UNL     1      63.848  -4.005  22.170  1.00  0.00     0.041 C 
ATOM      9  O   UNL     1      64.322  -4.966  22.831  1.00  0.00    -0.550 OA
ATOM     10  O   UNL     1      64.475  -3.599  20.999  1.00  0.00    -0.550 OA
ENDBRANCH   7   8
ENDBRANCH   6   7
ENDBRANCH   5   6
ENDBRANCH   4   5
ENDBRANCH   3   4
ENDBRANCH   2   3
ENDBRANCH   1   2
BRANCH   1  11
ATOM     11  C   UNL     1      57.024  -1.666  21.891  1.00  0.00     0.000 C 
BRANCH  11  12
ATOM     12  C   UNL     1      57.166  -0.268  21.264  1.00  0.00    -0.000 C 
BRANCH  12  13
ATOM     13  C   UNL     1      58.591   0.104  20.805  1.00  0.00    -0.000 C 
BRANCH  13  14
ATOM     14  C   UNL     1      58.767   0.260  19.284  1.00  0.00    -0.000 C 
BRANCH  14  15
ATOM     15  C   UNL     1      57.462   0.499  18.501  1.00  0.00    -0.000 C 
BRANCH  15  16
ATOM     16  C   UNL     1      56.976  -0.737  17.712  1.00  0.00    -0.000 C 
BRANCH  16  17
ATOM     17  C   UNL     1      55.481  -1.018  17.922  1.00  0.00    -0.003 C 
ATOM     18  C   UNL     1      54.623  -0.146  17.010  1.00  0.00     0.004 C 
ENDBRANCH  16  17
ENDBRANCH  15  16
ENDBRANCH  14  15
ENDBRANCH  13  14
ENDBRANCH  12  13
ENDBRANCH  11  12
ENDBRANCH   1  11
TORSDOF 14
ENDMDL
