MODEL 1
REMARK VINA RESULT:    -4.067      0.000      0.000
REMARK INTER + INTRA:          -6.875
REMARK INTER:                  -5.969
REMARK INTRA:                  -0.906
REMARK UNBOUND:                -0.906
REMARK SMILES O=C([O-])CCCCCCCC(=O)[O-]
REMARK SMILES IDX 7 1 6 2 5 3 4 4 2 5 1 6 3 7 8 8 9 9 10 10 11 11 12 12 13 13
REMARK H PARENT
REMARK Flexibility Score: inf
ROOT
ATOM      1  C   UNL     1      21.092  19.144  46.859  1.00  0.00     0.000 C 
ENDROOT
BRANCH   1   2
ATOM      2  C   UNL     1      20.189  20.254  47.427  1.00  0.00     0.000 C 
BRANCH   2   3
ATOM      3  C   UNL     1      19.125  20.729  46.423  1.00  0.00     0.006 C 
BRANCH   3   4
ATOM      4  C   UNL     1      19.430  20.262  44.993  1.00  0.00     0.053 C 
BRANCH   4   5
ATOM      5  C   UNL     1      18.292  20.551  44.061  1.00  0.00     0.041 C 
ATOM      6  O   UNL     1      17.109  20.290  44.404  1.00  0.00    -0.550 OA
ATOM      7  O   UNL     1      18.543  21.083  42.802  1.00  0.00    -0.550 OA
ENDBRANCH   4   5
ENDBRANCH   3   4
ENDBRANCH   2   3
ENDBRANCH   1   2
BRANCH   1   8
ATOM      8  C   UNL     1      21.065  17.813  47.639  1.00  0.00     0.000 C 
BRANCH   8   9
ATOM      9  C   UNL     1      19.673  17.176  47.796  1.00  0.00     0.006 C 
BRANCH   9  10
ATOM     10  C   UNL     1      19.208  16.441  46.531  1.00  0.00     0.053 C 
BRANCH  10  11
ATOM     11  C   UNL     1      17.978  17.085  45.975  1.00  0.00     0.041 C 
ATOM     12  O   UNL     1      17.696  16.963  44.754  1.00  0.00    -0.550 OA
ATOM     13  O   UNL     1      17.168  17.862  46.794  1.00  0.00    -0.550 OA
ENDBRANCH  10  11
ENDBRANCH   9  10
ENDBRANCH   8   9
ENDBRANCH   1   8
TORSDOF 8
ENDMDL
MODEL 2
REMARK VINA RESULT:    -4.030      1.676      2.502
REMARK INTER + INTRA:          -6.820
REMARK INTER:                  -6.104
REMARK INTRA:                  -0.717
REMARK UNBOUND:                -0.906
REMARK SMILES O=C([O-])CCCCCCCC(=O)[O-]
REMARK SMILES IDX 7 1 6 2 5 3 4 4 2 5 1 6 3 7 8 8 9 9 10 10 11 11 12 12 13 13
REMARK H PARENT
REMARK Flexibility Score: inf
ROOT
ATOM      1  C   UNL     1      20.550  16.735  47.400  1.00  0.00     0.000 C 
ENDROOT
BRANCH   1   2
ATOM      2  C   UNL     1      21.006  18.105  47.933  1.00  0.00     0.000 C 
BRANCH   2   3
ATOM      3  C   UNL     1      21.106  19.171  46.830  1.00  0.00     0.006 C 
BRANCH   3   4
ATOM      4  C   UNL     1      20.187  20.370  47.099  1.00  0.00     0.053 C 
BRANCH   4   5
ATOM      5  C   UNL     1      19.309  20.673  45.923  1.00  0.00     0.041 C 
ATOM      6  O   UNL     1      19.480  20.068  44.832  1.00  0.00    -0.550 OA
ATOM      7  O   UNL     1      18.320  21.643  46.024  1.00  0.00    -0.550 OA
ENDBRANCH   4   5
ENDBRANCH   3   4
ENDBRANCH   2   3
ENDBRANCH   1   2
BRANCH   1   8
ATOM      8  C   UNL     1      19.239  16.750  46.588  1.00  0.00     0.000 C 
BRANCH   8   9
ATOM      9  C   UNL     1      17.985  17.161  47.380  1.00  0.00     0.006 C 
BRANCH   9  10
ATOM     10  C   UNL     1      16.945  17.885  46.514  1.00  0.00     0.053 C 
BRANCH  10  11
ATOM     11  C   UNL     1      15.807  16.969  46.190  1.00  0.00     0.041 C 
ATOM     12  O   UNL     1      15.826  15.772  46.582  1.00  0.00    -0.550 OA
ATOM     13  O   UNL     1      14.749  17.422  45.412  1.00  0.00    -0.550 OA
ENDBRANCH  10  11
ENDBRANCH   9  10
ENDBRANCH   8   9
ENDBRANCH   1   8
TORSDOF 8
ENDMDL
MODEL 3
REMARK VINA RESULT:    -4.028      1.453      3.880
REMARK INTER + INTRA:          -6.818
REMARK INTER:                  -6.082
REMARK INTRA:                  -0.736
REMARK UNBOUND:                -0.906
REMARK SMILES O=C([O-])CCCCCCCC(=O)[O-]
REMARK SMILES IDX 7 1 6 2 5 3 4 4 2 5 1 6 3 7 8 8 9 9 10 10 11 11 12 12 13 13
REMARK H PARENT
REMARK Flexibility Score: inf
ROOT
ATOM      1  C   UNL     1      20.515  17.417  47.942  1.00  0.00     0.000 C 
ENDROOT
BRANCH   1   2
ATOM      2  C   UNL     1      20.288  16.155  47.090  1.00  0.00     0.000 C 
BRANCH   2   3
ATOM      3  C   UNL     1      18.894  16.118  46.441  1.00  0.00     0.006 C 
BRANCH   3   4
ATOM      4  C   UNL     1      17.885  17.002  47.185  1.00  0.00     0.053 C 
BRANCH   4   5
ATOM      5  C   UNL     1      16.531  16.959  46.544  1.00  0.00     0.041 C 
ATOM      6  O   UNL     1      15.801  15.941  46.672  1.00  0.00    -0.550 OA
ATOM      7  O   UNL     1      16.087  18.033  45.784  1.00  0.00    -0.550 OA
ENDBRANCH   4   5
ENDBRANCH   3   4
ENDBRANCH   2   3
ENDBRANCH   1   2
BRANCH   1   8
ATOM      8  C   UNL     1      21.345  18.527  47.263  1.00  0.00     0.000 C 
BRANCH   8   9
ATOM      9  C   UNL     1      20.603  19.859  47.051  1.00  0.00     0.006 C 
BRANCH   9  10
ATOM     10  C   UNL     1      19.783  19.883  45.755  1.00  0.00     0.053 C 
BRANCH  10  11
ATOM     11  C   UNL     1      18.519  20.659  45.951  1.00  0.00     0.041 C 
ATOM     12  O   UNL     1      17.979  21.246  44.976  1.00  0.00    -0.550 OA
ATOM     13  O   UNL     1      17.964  20.776  47.219  1.00  0.00    -0.550 OA
ENDBRANCH  10  11
ENDBRANCH   9  10
ENDBRANCH   8   9
ENDBRANCH   1   8
TORSDOF 8
ENDMDL
MODEL 4
REMARK VINA RESULT:    -4.009      3.924      6.231
REMARK INTER + INTRA:          -6.790
REMARK INTER:                  -6.177
REMARK INTRA:                  -0.612
REMARK UNBOUND:                -0.906
REMARK SMILES O=C([O-])CCCCCCCC(=O)[O-]
REMARK SMILES IDX 7 1 6 2 5 3 4 4 2 5 1 6 3 7 8 8 9 9 10 10 11 11 12 12 13 13
REMARK H PARENT
REMARK Flexibility Score: inf
ROOT
ATOM      1  C   UNL     1      19.707  17.976  46.814  1.00  0.00     0.000 C 
ENDROOT
BRANCH   1   2
ATOM      2  C   UNL     1      20.388  16.678  47.284  1.00  0.00     0.000 C 
BRANCH   2   3
ATOM      3  C   UNL     1      21.684  16.935  48.072  1.00  0.00     0.006 C 
BRANCH   3   4
ATOM      4  C   UNL     1      21.538  16.578  49.557  1.00  0.00     0.053 C 
BRANCH   4   5
ATOM      5  C   UNL     1      22.311  15.343  49.909  1.00  0.00     0.041 C 
ATOM      6  O   UNL     1      22.403  14.396  49.084  1.00  0.00    -0.550 OA
ATOM      7  O   UNL     1      22.905  15.228  51.159  1.00  0.00    -0.550 OA
ENDBRANCH   4   5
ENDBRANCH   3   4
ENDBRANCH   2   3
ENDBRANCH   1   2
BRANCH   1   8
ATOM      8  C   UNL     1      20.660  19.164  46.565  1.00  0.00     0.000 C 
BRANCH   8   9
ATOM      9  C   UNL     1      20.180  20.514  47.125  1.00  0.00     0.006 C 
BRANCH   9  10
ATOM     10  C   UNL     1      19.139  20.359  48.242  1.00  0.00     0.053 C 
BRANCH  10  11
ATOM     11  C   UNL     1      19.739  20.715  49.566  1.00  0.00     0.041 C 
ATOM     12  O   UNL     1      20.614  19.972  50.085  1.00  0.00    -0.550 OA
ATOM     13  O   UNL     1      19.295  21.839  50.251  1.00  0.00    -0.550 OA
ENDBRANCH  10  11
ENDBRANCH   9  10
ENDBRANCH   8   9
ENDBRANCH   1   8
TORSDOF 8
ENDMDL
MODEL 5
REMARK VINA RESULT:    -3.959      2.651      5.099
REMARK INTER + INTRA:          -6.717
REMARK INTER:                  -6.249
REMARK INTRA:                  -0.468
REMARK UNBOUND:                -0.906
REMARK SMILES O=C([O-])CCCCCCCC(=O)[O-]
REMARK SMILES IDX 7 1 6 2 5 3 4 4 2 5 1 6 3 7 8 8 9 9 10 10 11 11 12 12 13 13
REMARK H PARENT
REMARK Flexibility Score: inf
ROOT
ATOM      1  C   UNL     1      20.018  20.230  48.437  1.00  0.00     0.000 C 
ENDROOT
BRANCH   1   2
ATOM      2  C   UNL     1      20.471  18.811  48.825  1.00  0.00     0.000 C 
BRANCH   2   3
ATOM      3  C   UNL     1      21.291  18.124  47.720  1.00  0.00     0.006 C 
BRANCH   3   4
ATOM      4  C   UNL     1      20.913  16.646  47.554  1.00  0.00     0.053 C 
BRANCH   4   5
ATOM      5  C   UNL     1      22.005  15.737  48.031  1.00  0.00     0.041 C 
ATOM      6  O   UNL     1      23.059  16.217  48.525  1.00  0.00    -0.550 OA
ATOM      7  O   UNL     1      21.867  14.360  47.906  1.00  0.00    -0.550 OA
ENDBRANCH   4   5
ENDBRANCH   3   4
ENDBRANCH   2   3
ENDBRANCH   1   2
BRANCH   1   8
ATOM      8  C   UNL     1      18.780  20.296  47.518  1.00  0.00     0.000 C 
BRANCH   8   9
ATOM      9  C   UNL     1      19.015  20.965  46.152  1.00  0.00     0.006 C 
BRANCH   9  10
ATOM     10  C   UNL     1      19.552  19.989  45.097  1.00  0.00     0.053 C 
BRANCH  10  11
ATOM     11  C   UNL     1      18.712  20.042  43.860  1.00  0.00     0.041 C 
ATOM     12  O   UNL     1      18.167  18.996  43.419  1.00  0.00    -0.550 OA
ATOM     13  O   UNL     1      18.569  21.238  43.167  1.00  0.00    -0.550 OA
ENDBRANCH  10  11
ENDBRANCH   9  10
ENDBRANCH   8   9
ENDBRANCH   1   8
TORSDOF 8
ENDMDL
MODEL 6
REMARK VINA RESULT:    -3.953      1.744      3.505
REMARK INTER + INTRA:          -6.707
REMARK INTER:                  -5.883
REMARK INTRA:                  -0.825
REMARK UNBOUND:                -0.906
REMARK SMILES O=C([O-])CCCCCCCC(=O)[O-]
REMARK SMILES IDX 7 1 6 2 5 3 4 4 2 5 1 6 3 7 8 8 9 9 10 10 11 11 12 12 13 13
REMARK H PARENT
REMARK Flexibility Score: inf
ROOT
ATOM      1  C   UNL     1      19.188  16.389  46.523  1.00  0.00     0.000 C 
ENDROOT
BRANCH   1   2
ATOM      2  C   UNL     1      20.531  16.511  47.266  1.00  0.00     0.000 C 
BRANCH   2   3
ATOM      3  C   UNL     1      20.711  17.875  47.954  1.00  0.00     0.006 C 
BRANCH   3   4
ATOM      4  C   UNL     1      20.920  19.009  46.942  1.00  0.00     0.053 C 
BRANCH   4   5
ATOM      5  C   UNL     1      20.057  20.195  47.251  1.00  0.00     0.041 C 
ATOM      6  O   UNL     1      19.879  21.092  46.386  1.00  0.00    -0.550 OA
ATOM      7  O   UNL     1      19.471  20.321  48.505  1.00  0.00    -0.550 OA
ENDBRANCH   4   5
ENDBRANCH   3   4
ENDBRANCH   2   3
ENDBRANCH   1   2
BRANCH   1   8
ATOM      8  C   UNL     1      17.971  16.977  47.266  1.00  0.00     0.000 C 
BRANCH   8   9
ATOM      9  C   UNL     1      17.203  18.069  46.499  1.00  0.00     0.006 C 
BRANCH   9  10
ATOM     10  C   UNL     1      17.392  17.973  44.980  1.00  0.00     0.053 C 
BRANCH  10  11
ATOM     11  C   UNL     1      17.718  19.317  44.408  1.00  0.00     0.041 C 
ATOM     12  O   UNL     1      18.751  19.472  43.704  1.00  0.00    -0.550 OA
ATOM     13  O   UNL     1      16.909  20.409  44.694  1.00  0.00    -0.550 OA
ENDBRANCH  10  11
ENDBRANCH   9  10
ENDBRANCH   8   9
ENDBRANCH   1   8
TORSDOF 8
ENDMDL
MODEL 7
REMARK VINA RESULT:    -3.953      1.795      3.164
REMARK INTER + INTRA:          -6.707
REMARK INTER:                  -5.935
REMARK INTRA:                  -0.772
REMARK UNBOUND:                -0.906
REMARK SMILES O=C([O-])CCCCCCCC(=O)[O-]
REMARK SMILES IDX 7 1 6 2 5 3 4 4 2 5 1 6 3 7 8 8 9 9 10 10 11 11 12 12 13 13
REMARK H PARENT
REMARK Flexibility Score: inf
ROOT
ATOM      1  C   UNL     1      19.286  16.586  46.613  1.00  0.00     0.000 C 
ENDROOT
BRANCH   1   2
ATOM      2  C   UNL     1      18.043  17.139  47.332  1.00  0.00     0.000 C 
BRANCH   2   3
ATOM      3  C   UNL     1      17.221  18.096  46.453  1.00  0.00     0.006 C 
BRANCH   3   4
ATOM      4  C   UNL     1      17.669  18.063  44.986  1.00  0.00     0.053 C 
BRANCH   4   5
ATOM      5  C   UNL     1      17.162  19.249  44.223  1.00  0.00     0.041 C 
ATOM      6  O   UNL     1      17.961  19.975  43.576  1.00  0.00    -0.550 OA
ATOM      7  O   UNL     1      15.810  19.566  44.249  1.00  0.00    -0.550 OA
ENDBRANCH   4   5
ENDBRANCH   3   4
ENDBRANCH   2   3
ENDBRANCH   1   2
BRANCH   1   8
ATOM      8  C   UNL     1      20.603  16.681  47.411  1.00  0.00     0.000 C 
BRANCH   8   9
ATOM      9  C   UNL     1      20.946  18.085  47.941  1.00  0.00     0.006 C 
BRANCH   9  10
ATOM     10  C   UNL     1      21.016  19.139  46.828  1.00  0.00     0.053 C 
BRANCH  10  11
ATOM     11  C   UNL     1      20.127  20.299  47.152  1.00  0.00     0.041 C 
ATOM     12  O   UNL     1      19.687  21.036  46.230  1.00  0.00    -0.550 OA
ATOM     13  O   UNL     1      19.824  20.595  48.475  1.00  0.00    -0.550 OA
ENDBRANCH  10  11
ENDBRANCH   9  10
ENDBRANCH   8   9
ENDBRANCH   1   8
TORSDOF 8
ENDMDL
MODEL 8
REMARK VINA RESULT:    -3.933      1.129      3.882
REMARK INTER + INTRA:          -6.679
REMARK INTER:                  -5.762
REMARK INTRA:                  -0.917
REMARK UNBOUND:                -0.906
REMARK SMILES O=C([O-])CCCCCCCC(=O)[O-]
REMARK SMILES IDX 7 1 6 2 5 3 4 4 2 5 1 6 3 7 8 8 9 9 10 10 11 11 12 12 13 13
REMARK H PARENT
REMARK Flexibility Score: inf
ROOT
ATOM      1  C   UNL     1      20.241  19.588  48.690  1.00  0.00     0.000 C 
ENDROOT
BRANCH   1   2
ATOM      2  C   UNL     1      21.005  18.361  48.159  1.00  0.00     0.000 C 
BRANCH   2   3
ATOM      3  C   UNL     1      20.187  17.062  48.253  1.00  0.00     0.006 C 
BRANCH   3   4
ATOM      4  C   UNL     1      19.888  16.465  46.872  1.00  0.00     0.053 C 
BRANCH   4   5
ATOM      5  C   UNL     1      18.433  16.565  46.526  1.00  0.00     0.041 C 
ATOM      6  O   UNL     1      18.013  16.132  45.420  1.00  0.00    -0.550 OA
ATOM      7  O   UNL     1      17.547  17.161  47.413  1.00  0.00    -0.550 OA
ENDBRANCH   4   5
ENDBRANCH   3   4
ENDBRANCH   2   3
ENDBRANCH   1   2
BRANCH   1   8
ATOM      8  C   UNL     1      19.244  20.221  47.696  1.00  0.00     0.000 C 
BRANCH   8   9
ATOM      9  C   UNL     1      19.852  20.659  46.352  1.00  0.00     0.006 C 
BRANCH   9  10
ATOM     10  C   UNL     1      19.274  19.888  45.158  1.00  0.00     0.053 C 
BRANCH  10  11
ATOM     11  C   UNL     1      17.835  20.246  44.953  1.00  0.00     0.041 C 
ATOM     12  O   UNL     1      16.971  19.340  44.812  1.00  0.00    -0.550 OA
ATOM     13  O   UNL     1      17.456  21.579  44.867  1.00  0.00    -0.550 OA
ENDBRANCH  10  11
ENDBRANCH   9  10
ENDBRANCH   8   9
ENDBRANCH   1   8
TORSDOF 8
ENDMDL
MODEL 9
REMARK VINA RESULT:    -3.875      1.760      2.371
REMARK INTER + INTRA:          -6.594
REMARK INTER:                  -6.019
REMARK INTRA:                  -0.575
REMARK UNBOUND:                -0.906
REMARK SMILES O=C([O-])CCCCCCCC(=O)[O-]
REMARK SMILES IDX 7 1 6 2 5 3 4 4 2 5 1 6 3 7 8 8 9 9 10 10 11 11 12 12 13 13
REMARK H PARENT
REMARK Flexibility Score: inf
ROOT
ATOM      1  C   UNL     1      20.263  20.494  47.261  1.00  0.00     0.000 C 
ENDROOT
BRANCH   1   2
ATOM      2  C   UNL     1      19.159  20.611  46.194  1.00  0.00     0.000 C 
BRANCH   2   3
ATOM      3  C   UNL     1      19.506  19.872  44.891  1.00  0.00     0.006 C 
BRANCH   3   4
ATOM      4  C   UNL     1      18.254  19.389  44.148  1.00  0.00     0.053 C 
BRANCH   4   5
ATOM      5  C   UNL     1      17.766  20.406  43.162  1.00  0.00     0.041 C 
ATOM      6  O   UNL     1      16.652  20.256  42.595  1.00  0.00    -0.550 OA
ATOM      7  O   UNL     1      18.555  21.506  42.850  1.00  0.00    -0.550 OA
ENDBRANCH   4   5
ENDBRANCH   3   4
ENDBRANCH   2   3
ENDBRANCH   1   2
BRANCH   1   8
ATOM      8  C   UNL     1      19.831  19.823  48.581  1.00  0.00     0.000 C 
BRANCH   8   9
ATOM      9  C   UNL     1      20.600  18.541  48.944  1.00  0.00     0.006 C 
BRANCH   9  10
ATOM     10  C   UNL     1      21.338  17.930  47.746  1.00  0.00     0.053 C 
BRANCH  10  11
ATOM     11  C   UNL     1      20.659  16.673  47.300  1.00  0.00     0.041 C 
ATOM     12  O   UNL     1      21.127  15.550  47.629  1.00  0.00    -0.550 OA
ATOM     13  O   UNL     1      19.540  16.740  46.481  1.00  0.00    -0.550 OA
ENDBRANCH  10  11
ENDBRANCH   9  10
ENDBRANCH   8   9
ENDBRANCH   1   8
TORSDOF 8
ENDMDL
