MODEL 1
REMARK VINA RESULT:    -3.218      0.000      0.000
REMARK INTER + INTRA:          -4.678
REMARK INTER:                  -4.158
REMARK INTRA:                  -0.519
REMARK UNBOUND:                -0.519
REMARK SMILES CO[C@@]1(CO)O[C@@H](CO)[C@H](O)[C@H]1O
REMARK SMILES IDX 3 1 12 2 10 3 7 4 6 5 2 6 1 7 4 8 5 9 13 11 11 13 8 15 9 16
REMARK H PARENT 5 10 13 12 11 14 9 17
REMARK Flexibility Score: inf
ROOT
ATOM      1  C   UNL     1       6.527  32.957  33.503  1.00  0.00     0.221 C 
ATOM      2  C   UNL     1       7.754  32.947  32.584  1.00  0.00     0.207 C 
ATOM      3  C   UNL     1       8.617  34.014  33.202  1.00  0.00     0.180 C 
ATOM      4  C   UNL     1       7.577  34.975  33.778  1.00  0.00     0.179 C 
ATOM      5  O   UNL     1       6.346  34.296  33.929  1.00  0.00    -0.337 OA
ENDROOT
BRANCH   1   6
ATOM      6  O   UNL     1       6.809  32.114  34.620  1.00  0.00    -0.349 OA
ATOM      7  C   UNL     1       5.701  31.333  35.026  1.00  0.00     0.198 C 
ENDBRANCH   1   6
BRANCH   1   8
ATOM      8  C   UNL     1       5.273  32.476  32.733  1.00  0.00     0.224 C 
BRANCH   8   9
ATOM      9  O   UNL     1       5.497  32.520  31.350  1.00  0.00    -0.391 OA
ATOM     10  H   UNL     1       4.827  33.152  30.981  1.00  0.00     0.210 HD
ENDBRANCH   8   9
ENDBRANCH   1   8
BRANCH   2  11
ATOM     11  O   UNL     1       8.395  31.696  32.589  1.00  0.00    -0.385 OA
ATOM     12  H   UNL     1       8.117  31.238  33.423  1.00  0.00     0.211 HD
ENDBRANCH   2  11
BRANCH   3  13
ATOM     13  O   UNL     1       9.410  34.657  32.239  1.00  0.00    -0.387 OA
ATOM     14  H   UNL     1      10.355  34.498  32.500  1.00  0.00     0.211 HD
ENDBRANCH   3  13
BRANCH   4  15
ATOM     15  C   UNL     1       8.018  35.556  35.125  1.00  0.00     0.191 C 
BRANCH  15  16
ATOM     16  O   UNL     1       9.381  35.878  35.076  1.00  0.00    -0.394 OA
ATOM     17  H   UNL     1       9.736  35.442  34.259  1.00  0.00     0.210 HD
ENDBRANCH  15  16
ENDBRANCH   4  15
TORSDOF 7
ENDMDL
MODEL 2
REMARK VINA RESULT:    -3.166      1.681      2.041
REMARK INTER + INTRA:          -4.611
REMARK INTER:                  -4.019
REMARK INTRA:                  -0.592
REMARK UNBOUND:                -0.519
REMARK SMILES CO[C@@]1(CO)O[C@@H](CO)[C@H](O)[C@H]1O
REMARK SMILES IDX 3 1 12 2 10 3 7 4 6 5 2 6 1 7 4 8 5 9 13 11 11 13 8 15 9 16
REMARK H PARENT 5 10 13 12 11 14 9 17
REMARK Flexibility Score: inf
ROOT
ATOM      1  C   UNL     1       7.667  33.615  33.279  1.00  0.00     0.221 C 
ATOM      2  C   UNL     1       8.909  34.442  32.924  1.00  0.00     0.207 C 
ATOM      3  C   UNL     1       8.560  35.790  33.493  1.00  0.00     0.180 C 
ATOM      4  C   UNL     1       7.038  35.817  33.347  1.00  0.00     0.179 C 
ATOM      5  O   UNL     1       6.559  34.493  33.213  1.00  0.00    -0.337 OA
ENDROOT
BRANCH   1   6
ATOM      6  O   UNL     1       7.834  33.123  34.608  1.00  0.00    -0.349 OA
ATOM      7  C   UNL     1       6.697  32.438  35.099  1.00  0.00     0.198 C 
ENDBRANCH   1   6
BRANCH   1   8
ATOM      8  C   UNL     1       7.483  32.459  32.266  1.00  0.00     0.224 C 
BRANCH   8   9
ATOM      9  O   UNL     1       8.432  32.547  31.238  1.00  0.00    -0.391 OA
ATOM     10  H   UNL     1       8.092  31.982  30.497  1.00  0.00     0.210 HD
ENDBRANCH   8   9
ENDBRANCH   1   8
BRANCH   2  11
ATOM     11  O   UNL     1      10.070  33.915  33.517  1.00  0.00    -0.385 OA
ATOM     12  H   UNL     1      10.373  34.581  34.187  1.00  0.00     0.211 HD
ENDBRANCH   2  11
BRANCH   3  13
ATOM     13  O   UNL     1       9.150  36.829  32.755  1.00  0.00    -0.387 OA
ATOM     14  H   UNL     1       8.404  37.357  32.366  1.00  0.00     0.211 HD
ENDBRANCH   3  13
BRANCH   4  15
ATOM     15  C   UNL     1       6.361  36.498  34.540  1.00  0.00     0.191 C 
BRANCH  15  16
ATOM     16  O   UNL     1       7.131  37.590  34.960  1.00  0.00    -0.394 OA
ATOM     17  H   UNL     1       7.421  38.055  34.133  1.00  0.00     0.210 HD
ENDBRANCH  15  16
ENDBRANCH   4  15
TORSDOF 7
ENDMDL
MODEL 3
REMARK VINA RESULT:    -3.150      1.928      4.402
REMARK INTER + INTRA:          -4.591
REMARK INTER:                  -4.429
REMARK INTRA:                  -0.161
REMARK UNBOUND:                -0.519
REMARK SMILES CO[C@@]1(CO)O[C@@H](CO)[C@H](O)[C@H]1O
REMARK SMILES IDX 3 1 12 2 10 3 7 4 6 5 2 6 1 7 4 8 5 9 13 11 11 13 8 15 9 16
REMARK H PARENT 5 10 13 12 11 14 9 17
REMARK Flexibility Score: inf
ROOT
ATOM      1  C   UNL     1       7.076  32.767  33.866  1.00  0.00     0.221 C 
ATOM      2  C   UNL     1       5.811  33.584  34.154  1.00  0.00     0.207 C 
ATOM      3  C   UNL     1       4.881  32.535  34.704  1.00  0.00     0.180 C 
ATOM      4  C   UNL     1       5.337  31.279  33.961  1.00  0.00     0.179 C 
ATOM      5  O   UNL     1       6.650  31.475  33.474  1.00  0.00    -0.337 OA
ENDROOT
BRANCH   1   6
ATOM      6  O   UNL     1       7.835  32.695  35.073  1.00  0.00    -0.349 OA
ATOM      7  C   UNL     1       9.206  32.998  34.892  1.00  0.00     0.198 C 
ENDBRANCH   1   6
BRANCH   1   8
ATOM      8  C   UNL     1       7.891  33.422  32.723  1.00  0.00     0.224 C 
BRANCH   8   9
ATOM      9  O   UNL     1       8.035  32.534  31.648  1.00  0.00    -0.391 OA
ATOM     10  H   UNL     1       8.849  32.000  31.837  1.00  0.00     0.210 HD
ENDBRANCH   8   9
ENDBRANCH   1   8
BRANCH   2  11
ATOM     11  O   UNL     1       6.053  34.603  35.090  1.00  0.00    -0.385 OA
ATOM     12  H   UNL     1       6.364  35.392  34.576  1.00  0.00     0.211 HD
ENDBRANCH   2  11
BRANCH   3  13
ATOM     13  O   UNL     1       3.541  32.830  34.409  1.00  0.00    -0.387 OA
ATOM     14  H   UNL     1       3.258  33.532  35.053  1.00  0.00     0.211 HD
ENDBRANCH   3  13
BRANCH   4  15
ATOM     15  C   UNL     1       5.294  30.037  34.857  1.00  0.00     0.191 C 
BRANCH  15  16
ATOM     16  O   UNL     1       5.135  28.891  34.067  1.00  0.00    -0.394 OA
ATOM     17  H   UNL     1       4.260  28.991  33.612  1.00  0.00     0.210 HD
ENDBRANCH  15  16
ENDBRANCH   4  15
TORSDOF 7
ENDMDL
MODEL 4
REMARK VINA RESULT:    -3.044      1.710      3.898
REMARK INTER + INTRA:          -4.454
REMARK INTER:                  -3.889
REMARK INTRA:                  -0.565
REMARK UNBOUND:                -0.519
REMARK SMILES CO[C@@]1(CO)O[C@@H](CO)[C@H](O)[C@H]1O
REMARK SMILES IDX 3 1 12 2 10 3 7 4 6 5 2 6 1 7 4 8 5 9 13 11 11 13 8 15 9 16
REMARK H PARENT 5 10 13 12 11 14 9 17
REMARK Flexibility Score: inf
ROOT
ATOM      1  C   UNL     1       8.269  33.769  33.984  1.00  0.00     0.221 C 
ATOM      2  C   UNL     1       7.892  32.399  33.408  1.00  0.00     0.207 C 
ATOM      3  C   UNL     1       6.414  32.339  33.689  1.00  0.00     0.180 C 
ATOM      4  C   UNL     1       6.298  33.155  34.977  1.00  0.00     0.179 C 
ATOM      5  O   UNL     1       7.436  33.985  35.108  1.00  0.00    -0.337 OA
ENDROOT
BRANCH   1   6
ATOM      6  O   UNL     1       8.015  34.752  32.980  1.00  0.00    -0.349 OA
ATOM      7  C   UNL     1       8.113  36.080  33.459  1.00  0.00     0.198 C 
ENDBRANCH   1   6
BRANCH   1   8
ATOM      8  C   UNL     1       9.755  33.778  34.421  1.00  0.00     0.224 C 
BRANCH   8   9
ATOM      9  O   UNL     1      10.291  32.484  34.372  1.00  0.00    -0.391 OA
ATOM     10  H   UNL     1      11.212  32.578  34.015  1.00  0.00     0.210 HD
ENDBRANCH   8   9
ENDBRANCH   1   8
BRANCH   2  11
ATOM     11  O   UNL     1       8.159  32.324  32.030  1.00  0.00    -0.385 OA
ATOM     12  H   UNL     1       8.927  31.705  31.923  1.00  0.00     0.211 HD
ENDBRANCH   2  11
BRANCH   3  13
ATOM     13  O   UNL     1       5.983  31.019  33.895  1.00  0.00    -0.387 OA
ATOM     14  H   UNL     1       5.268  30.848  33.228  1.00  0.00     0.211 HD
ENDBRANCH   3  13
BRANCH   4  15
ATOM     15  C   UNL     1       5.026  34.008  35.001  1.00  0.00     0.191 C 
BRANCH  15  16
ATOM     16  O   UNL     1       3.913  33.204  34.721  1.00  0.00    -0.394 OA
ATOM     17  H   UNL     1       4.236  32.493  34.110  1.00  0.00     0.210 HD
ENDBRANCH  15  16
ENDBRANCH   4  15
TORSDOF 7
ENDMDL
MODEL 5
REMARK VINA RESULT:    -3.035      0.840      3.977
REMARK INTER + INTRA:          -4.442
REMARK INTER:                  -3.961
REMARK INTRA:                  -0.481
REMARK UNBOUND:                -0.519
REMARK SMILES CO[C@@]1(CO)O[C@@H](CO)[C@H](O)[C@H]1O
REMARK SMILES IDX 3 1 12 2 10 3 7 4 6 5 2 6 1 7 4 8 5 9 13 11 11 13 8 15 9 16
REMARK H PARENT 5 10 13 12 11 14 9 17
REMARK Flexibility Score: inf
ROOT
ATOM      1  C   UNL     1       7.422  34.471  33.874  1.00  0.00     0.221 C 
ATOM      2  C   UNL     1       8.511  33.627  33.200  1.00  0.00     0.207 C 
ATOM      3  C   UNL     1       7.699  32.554  32.525  1.00  0.00     0.180 C 
ATOM      4  C   UNL     1       6.504  32.412  33.468  1.00  0.00     0.179 C 
ATOM      5  O   UNL     1       6.390  33.581  34.257  1.00  0.00    -0.337 OA
ENDROOT
BRANCH   1   6
ATOM      6  O   UNL     1       6.939  35.410  32.914  1.00  0.00    -0.349 OA
ATOM      7  C   UNL     1       6.735  36.704  33.448  1.00  0.00     0.198 C 
ENDBRANCH   1   6
BRANCH   1   8
ATOM      8  C   UNL     1       7.992  35.185  35.125  1.00  0.00     0.224 C 
BRANCH   8   9
ATOM      9  O   UNL     1       9.393  35.212  35.082  1.00  0.00    -0.391 OA
ATOM     10  H   UNL     1       9.637  35.503  34.166  1.00  0.00     0.210 HD
ENDBRANCH   8   9
ENDBRANCH   1   8
BRANCH   2  11
ATOM     11  O   UNL     1       9.249  34.379  32.271  1.00  0.00    -0.385 OA
ATOM     12  H   UNL     1       8.606  34.986  31.822  1.00  0.00     0.211 HD
ENDBRANCH   2  11
BRANCH   3  13
ATOM     13  O   UNL     1       8.412  31.347  32.439  1.00  0.00    -0.387 OA
ATOM     14  H   UNL     1       8.045  30.858  31.656  1.00  0.00     0.211 HD
ENDBRANCH   3  13
BRANCH   4  15
ATOM     15  C   UNL     1       5.198  32.170  32.705  1.00  0.00     0.191 C 
BRANCH  15  16
ATOM     16  O   UNL     1       5.345  32.587  31.375  1.00  0.00    -0.394 OA
ATOM     17  H   UNL     1       5.777  31.832  30.898  1.00  0.00     0.210 HD
ENDBRANCH  15  16
ENDBRANCH   4  15
TORSDOF 7
ENDMDL
MODEL 6
REMARK VINA RESULT:    -3.022      1.809      3.853
REMARK INTER + INTRA:          -4.425
REMARK INTER:                  -3.804
REMARK INTRA:                  -0.620
REMARK UNBOUND:                -0.519
REMARK SMILES CO[C@@]1(CO)O[C@@H](CO)[C@H](O)[C@H]1O
REMARK SMILES IDX 3 1 12 2 10 3 7 4 6 5 2 6 1 7 4 8 5 9 13 11 11 13 8 15 9 16
REMARK H PARENT 5 10 13 12 11 14 9 17
REMARK Flexibility Score: inf
ROOT
ATOM      1  C   UNL     1       9.263  34.476  33.784  1.00  0.00     0.221 C 
ATOM      2  C   UNL     1       8.239  33.439  33.308  1.00  0.00     0.207 C 
ATOM      3  C   UNL     1       6.966  34.241  33.292  1.00  0.00     0.180 C 
ATOM      4  C   UNL     1       7.200  35.241  34.425  1.00  0.00     0.179 C 
ATOM      5  O   UNL     1       8.587  35.336  34.684  1.00  0.00    -0.337 OA
ENDROOT
BRANCH   1   6
ATOM      6  O   UNL     1       9.710  35.206  32.641  1.00  0.00    -0.349 OA
ATOM      7  C   UNL     1      11.001  35.763  32.802  1.00  0.00     0.198 C 
ENDBRANCH   1   6
BRANCH   1   8
ATOM      8  C   UNL     1      10.441  33.778  34.506  1.00  0.00     0.224 C 
BRANCH   8   9
ATOM      9  O   UNL     1      10.307  32.384  34.435  1.00  0.00    -0.391 OA
ATOM     10  H   UNL     1       9.497  32.211  33.890  1.00  0.00     0.210 HD
ENDBRANCH   8   9
ENDBRANCH   1   8
BRANCH   2  11
ATOM     11  O   UNL     1       8.555  32.945  32.031  1.00  0.00    -0.385 OA
ATOM     12  H   UNL     1       8.306  33.654  31.384  1.00  0.00     0.211 HD
ENDBRANCH   2  11
BRANCH   3  13
ATOM     13  O   UNL     1       5.847  33.437  33.561  1.00  0.00    -0.387 OA
ATOM     14  H   UNL     1       6.184  32.508  33.658  1.00  0.00     0.211 HD
ENDBRANCH   3  13
BRANCH   4  15
ATOM     15  C   UNL     1       6.637  36.626  34.093  1.00  0.00     0.191 C 
BRANCH  15  16
ATOM     16  O   UNL     1       7.150  37.061  32.864  1.00  0.00    -0.394 OA
ATOM     17  H   UNL     1       7.381  36.240  32.357  1.00  0.00     0.210 HD
ENDBRANCH  15  16
ENDBRANCH   4  15
TORSDOF 7
ENDMDL
MODEL 7
REMARK VINA RESULT:    -2.961      2.204      3.450
REMARK INTER + INTRA:          -4.346
REMARK INTER:                  -3.735
REMARK INTRA:                  -0.611
REMARK UNBOUND:                -0.519
REMARK SMILES CO[C@@]1(CO)O[C@@H](CO)[C@H](O)[C@H]1O
REMARK SMILES IDX 3 1 12 2 10 3 7 4 6 5 2 6 1 7 4 8 5 9 13 11 11 13 8 15 9 16
REMARK H PARENT 5 10 13 12 11 14 9 17
REMARK Flexibility Score: inf
ROOT
ATOM      1  C   UNL     1       8.418  34.371  33.636  1.00  0.00     0.221 C 
ATOM      2  C   UNL     1       9.526  35.416  33.464  1.00  0.00     0.207 C 
ATOM      3  C   UNL     1      10.730  34.686  33.995  1.00  0.00     0.180 C 
ATOM      4  C   UNL     1      10.112  33.779  35.060  1.00  0.00     0.179 C 
ATOM      5  O   UNL     1       8.729  33.633  34.803  1.00  0.00    -0.337 OA
ENDROOT
BRANCH   1   6
ATOM      6  O   UNL     1       8.436  33.520  32.490  1.00  0.00    -0.349 OA
ATOM      7  C   UNL     1       7.322  32.650  32.420  1.00  0.00     0.198 C 
ENDBRANCH   1   6
BRANCH   1   8
ATOM      8  C   UNL     1       7.044  35.066  33.803  1.00  0.00     0.224 C 
BRANCH   8   9
ATOM      9  O   UNL     1       7.014  36.276  33.096  1.00  0.00    -0.391 OA
ATOM     10  H   UNL     1       7.643  36.885  33.563  1.00  0.00     0.210 HD
ENDBRANCH   8   9
ENDBRANCH   1   8
BRANCH   2  11
ATOM     11  O   UNL     1       9.694  35.777  32.116  1.00  0.00    -0.385 OA
ATOM     12  H   UNL     1      10.285  36.573  32.106  1.00  0.00     0.211 HD
ENDBRANCH   2  11
BRANCH   3  13
ATOM     13  O   UNL     1      11.656  35.570  34.570  1.00  0.00    -0.387 OA
ATOM     14  H   UNL     1      11.538  35.503  35.554  1.00  0.00     0.211 HD
ENDBRANCH   3  13
BRANCH   4  15
ATOM     15  C   UNL     1      10.782  32.403  35.100  1.00  0.00     0.191 C 
BRANCH  15  16
ATOM     16  O   UNL     1      12.086  32.498  34.596  1.00  0.00    -0.394 OA
ATOM     17  H   UNL     1      12.312  31.598  34.248  1.00  0.00     0.210 HD
ENDBRANCH  15  16
ENDBRANCH   4  15
TORSDOF 7
ENDMDL
MODEL 8
REMARK VINA RESULT:    -2.791      2.055      4.702
REMARK INTER + INTRA:          -4.126
REMARK INTER:                  -3.496
REMARK INTRA:                  -0.630
REMARK UNBOUND:                -0.519
REMARK SMILES CO[C@@]1(CO)O[C@@H](CO)[C@H](O)[C@H]1O
REMARK SMILES IDX 3 1 12 2 10 3 7 4 6 5 2 6 1 7 4 8 5 9 13 11 11 13 8 15 9 16
REMARK H PARENT 5 10 13 12 11 14 9 17
REMARK Flexibility Score: inf
ROOT
ATOM      1  C   UNL     1       9.236  36.474  33.512  1.00  0.00     0.221 C 
ATOM      2  C   UNL     1       9.896  35.146  33.123  1.00  0.00     0.207 C 
ATOM      3  C   UNL     1       8.743  34.183  33.224  1.00  0.00     0.180 C 
ATOM      4  C   UNL     1       7.901  34.806  34.338  1.00  0.00     0.179 C 
ATOM      5  O   UNL     1       8.242  36.172  34.473  1.00  0.00    -0.337 OA
ENDROOT
BRANCH   1   6
ATOM      6  O   UNL     1       8.641  37.028  32.338  1.00  0.00    -0.349 OA
ATOM      7  C   UNL     1       7.784  38.121  32.607  1.00  0.00     0.198 C 
ENDBRANCH   1   6
BRANCH   1   8
ATOM      8  C   UNL     1      10.283  37.437  34.123  1.00  0.00     0.224 C 
BRANCH   8   9
ATOM      9  O   UNL     1      11.321  37.681  33.212  1.00  0.00    -0.391 OA
ATOM     10  H   UNL     1      11.145  38.577  32.826  1.00  0.00     0.210 HD
ENDBRANCH   8   9
ENDBRANCH   1   8
BRANCH   2  11
ATOM     11  O   UNL     1      10.421  35.189  31.820  1.00  0.00    -0.385 OA
ATOM     12  H   UNL     1      10.930  34.348  31.691  1.00  0.00     0.211 HD
ENDBRANCH   2  11
BRANCH   3  13
ATOM     13  O   UNL     1       9.177  32.898  33.587  1.00  0.00    -0.387 OA
ATOM     14  H   UNL     1       9.856  32.630  32.914  1.00  0.00     0.211 HD
ENDBRANCH   3  13
BRANCH   4  15
ATOM     15  C   UNL     1       6.400  34.669  34.065  1.00  0.00     0.191 C 
BRANCH  15  16
ATOM     16  O   UNL     1       6.168  33.550  33.254  1.00  0.00    -0.394 OA
ATOM     17  H   UNL     1       6.441  33.814  32.338  1.00  0.00     0.210 HD
ENDBRANCH  15  16
ENDBRANCH   4  15
TORSDOF 7
ENDMDL
MODEL 9
REMARK VINA RESULT:    -2.651     10.878     12.475
REMARK INTER + INTRA:          -3.945
REMARK INTER:                  -3.352
REMARK INTRA:                  -0.593
REMARK UNBOUND:                -0.519
REMARK SMILES CO[C@@]1(CO)O[C@@H](CO)[C@H](O)[C@H]1O
REMARK SMILES IDX 3 1 12 2 10 3 7 4 6 5 2 6 1 7 4 8 5 9 13 11 11 13 8 15 9 16
REMARK H PARENT 5 10 13 12 11 14 9 17
REMARK Flexibility Score: inf
ROOT
ATOM      1  C   UNL     1      18.339  37.277  32.495  1.00  0.00     0.221 C 
ATOM      2  C   UNL     1      18.966  35.982  31.963  1.00  0.00     0.207 C 
ATOM      3  C   UNL     1      20.199  35.859  32.818  1.00  0.00     0.180 C 
ATOM      4  C   UNL     1      20.551  37.321  33.089  1.00  0.00     0.179 C 
ATOM      5  O   UNL     1      19.408  38.125  32.872  1.00  0.00    -0.337 OA
ENDROOT
BRANCH   1   6
ATOM      6  O   UNL     1      17.544  36.943  33.632  1.00  0.00    -0.349 OA
ATOM      7  C   UNL     1      17.112  38.073  34.366  1.00  0.00     0.198 C 
ENDBRANCH   1   6
BRANCH   1   8
ATOM      8  C   UNL     1      17.491  37.957  31.392  1.00  0.00     0.224 C 
BRANCH   8   9
ATOM      9  O   UNL     1      16.815  36.996  30.627  1.00  0.00    -0.391 OA
ATOM     10  H   UNL     1      17.163  36.114  30.918  1.00  0.00     0.210 HD
ENDBRANCH   8   9
ENDBRANCH   1   8
BRANCH   2  11
ATOM     11  O   UNL     1      18.108  34.883  32.131  1.00  0.00    -0.385 OA
ATOM     12  H   UNL     1      17.386  35.177  32.744  1.00  0.00     0.211 HD
ENDBRANCH   2  11
BRANCH   3  13
ATOM     13  O   UNL     1      21.240  35.214  32.130  1.00  0.00    -0.387 OA
ATOM     14  H   UNL     1      20.810  34.566  31.512  1.00  0.00     0.211 HD
ENDBRANCH   3  13
BRANCH   4  15
ATOM     15  C   UNL     1      21.071  37.530  34.514  1.00  0.00     0.191 C 
BRANCH  15  16
ATOM     16  O   UNL     1      22.196  36.723  34.729  1.00  0.00    -0.394 OA
ATOM     17  H   UNL     1      22.984  37.314  34.612  1.00  0.00     0.210 HD
ENDBRANCH  15  16
ENDBRANCH   4  15
TORSDOF 7
ENDMDL
