MODEL 1
REMARK VINA RESULT:    -4.267      0.000      0.000
REMARK INTER + INTRA:          -4.897
REMARK INTER:                  -4.766
REMARK INTRA:                  -0.131
REMARK UNBOUND:                -0.131
REMARK SMILES O=C([O-])C=Cc1ccccc1
REMARK SMILES IDX 4 1 5 2 2 3 1 4 3 5 6 6 7 7 11 8 8 9 10 10 9 11
REMARK H PARENT
REMARK Flexibility Score: inf
ROOT
ATOM      1  C   UNL     1      -3.162 -50.034 -34.909  1.00  0.00     0.025 C 
ATOM      2  C   UNL     1      -1.884 -49.835 -35.269  1.00  0.00     0.010 C 
ENDROOT
BRANCH   1   3
ATOM      3  C   UNL     1      -3.810 -51.353 -35.018  1.00  0.00     0.064 C 
ATOM      4  O   UNL     1      -4.382 -51.714 -36.081  1.00  0.00    -0.545 OA
ATOM      5  O   UNL     1      -3.790 -52.213 -33.928  1.00  0.00    -0.545 OA
ENDBRANCH   1   3
BRANCH   2   6
ATOM      6  C   UNL     1      -1.172 -48.530 -35.185  1.00  0.00    -0.026 A 
ATOM      7  C   UNL     1      -0.032 -48.345 -35.988  1.00  0.00     0.008 A 
ATOM      8  C   UNL     1      -1.582 -47.475 -34.341  1.00  0.00     0.008 A 
ATOM      9  C   UNL     1       0.680 -47.142 -35.952  1.00  0.00     0.001 A 
ATOM     10  C   UNL     1      -0.866 -46.273 -34.310  1.00  0.00     0.001 A 
ATOM     11  C   UNL     1       0.263 -46.107 -35.113  1.00  0.00     0.000 A 
ENDBRANCH   2   6
TORSDOF 2
ENDMDL
MODEL 2
REMARK VINA RESULT:    -4.226      7.946      9.311
REMARK INTER + INTRA:          -4.851
REMARK INTER:                  -4.718
REMARK INTRA:                  -0.133
REMARK UNBOUND:                -0.131
REMARK SMILES O=C([O-])C=Cc1ccccc1
REMARK SMILES IDX 4 1 5 2 2 3 1 4 3 5 6 6 7 7 11 8 8 9 10 10 9 11
REMARK H PARENT
REMARK Flexibility Score: inf
ROOT
ATOM      1  C   UNL     1       7.293 -50.881 -33.905  1.00  0.00     0.025 C 
ATOM      2  C   UNL     1       6.443 -50.452 -34.852  1.00  0.00     0.010 C 
ENDROOT
BRANCH   1   3
ATOM      3  C   UNL     1       8.649 -50.326 -33.760  1.00  0.00     0.064 C 
ATOM      4  O   UNL     1       9.417 -50.709 -32.836  1.00  0.00    -0.545 OA
ATOM      5  O   UNL     1       9.089 -49.360 -34.656  1.00  0.00    -0.545 OA
ENDBRANCH   1   3
BRANCH   2   6
ATOM      6  C   UNL     1       5.062 -50.971 -35.052  1.00  0.00    -0.026 A 
ATOM      7  C   UNL     1       4.200 -50.250 -35.898  1.00  0.00     0.008 A 
ATOM      8  C   UNL     1       4.577 -52.145 -34.436  1.00  0.00     0.008 A 
ATOM      9  C   UNL     1       2.891 -50.687 -36.125  1.00  0.00     0.001 A 
ATOM     10  C   UNL     1       3.267 -52.577 -34.667  1.00  0.00     0.001 A 
ATOM     11  C   UNL     1       2.425 -51.849 -35.510  1.00  0.00     0.000 A 
ENDBRANCH   2   6
TORSDOF 2
ENDMDL
MODEL 3
REMARK VINA RESULT:    -4.207      3.156      5.401
REMARK INTER + INTRA:          -4.829
REMARK INTER:                  -4.698
REMARK INTRA:                  -0.132
REMARK UNBOUND:                -0.131
REMARK SMILES O=C([O-])C=Cc1ccccc1
REMARK SMILES IDX 4 1 5 2 2 3 1 4 3 5 6 6 7 7 11 8 8 9 10 10 9 11
REMARK H PARENT
REMARK Flexibility Score: inf
ROOT
ATOM      1  C   UNL     1      -1.201 -47.995 -35.054  1.00  0.00     0.025 C 
ATOM      2  C   UNL     1      -2.106 -48.751 -34.412  1.00  0.00     0.010 C 
ENDROOT
BRANCH   1   3
ATOM      3  C   UNL     1      -0.912 -46.608 -34.653  1.00  0.00     0.064 C 
ATOM      4  O   UNL     1      -1.670 -45.658 -34.990  1.00  0.00    -0.545 OA
ATOM      5  O   UNL     1       0.217 -46.340 -33.888  1.00  0.00    -0.545 OA
ENDBRANCH   1   3
BRANCH   2   6
ATOM      6  C   UNL     1      -2.444 -50.156 -34.767  1.00  0.00    -0.026 A 
ATOM      7  C   UNL     1      -3.402 -50.825 -33.984  1.00  0.00     0.008 A 
ATOM      8  C   UNL     1      -1.851 -50.848 -35.846  1.00  0.00     0.008 A 
ATOM      9  C   UNL     1      -3.761 -52.146 -34.267  1.00  0.00     0.001 A 
ATOM     10  C   UNL     1      -2.215 -52.170 -36.125  1.00  0.00     0.001 A 
ATOM     11  C   UNL     1      -3.167 -52.818 -35.336  1.00  0.00     0.000 A 
ENDBRANCH   2   6
TORSDOF 2
ENDMDL
MODEL 4
REMARK VINA RESULT:    -4.167      7.644      8.663
REMARK INTER + INTRA:          -4.785
REMARK INTER:                  -4.640
REMARK INTRA:                  -0.144
REMARK UNBOUND:                -0.131
REMARK SMILES O=C([O-])C=Cc1ccccc1
REMARK SMILES IDX 4 1 5 2 2 3 1 4 3 5 6 6 7 7 11 8 8 9 10 10 9 11
REMARK H PARENT
REMARK Flexibility Score: inf
ROOT
ATOM      1  C   UNL     1       4.731 -51.289 -34.632  1.00  0.00     0.025 C 
ATOM      2  C   UNL     1       5.782 -50.707 -35.232  1.00  0.00     0.010 C 
ENDROOT
BRANCH   1   3
ATOM      3  C   UNL     1       3.441 -51.472 -35.318  1.00  0.00     0.064 C 
ATOM      4  O   UNL     1       2.983 -50.592 -36.096  1.00  0.00    -0.545 OA
ATOM      5  O   UNL     1       2.713 -52.635 -35.102  1.00  0.00    -0.545 OA
ENDBRANCH   1   3
BRANCH   2   6
ATOM      6  C   UNL     1       7.111 -50.492 -34.597  1.00  0.00    -0.026 A 
ATOM      7  C   UNL     1       7.463 -51.308 -33.506  1.00  0.00     0.008 A 
ATOM      8  C   UNL     1       8.031 -49.513 -35.033  1.00  0.00     0.008 A 
ATOM      9  C   UNL     1       8.697 -51.153 -32.867  1.00  0.00     0.001 A 
ATOM     10  C   UNL     1       9.264 -49.363 -34.390  1.00  0.00     0.001 A 
ATOM     11  C   UNL     1       9.597 -50.181 -33.308  1.00  0.00     0.000 A 
ENDBRANCH   2   6
TORSDOF 2
ENDMDL
MODEL 5
REMARK VINA RESULT:    -4.064      6.831      7.782
REMARK INTER + INTRA:          -4.670
REMARK INTER:                  -4.536
REMARK INTRA:                  -0.133
REMARK UNBOUND:                -0.131
REMARK SMILES O=C([O-])C=Cc1ccccc1
REMARK SMILES IDX 4 1 5 2 2 3 1 4 3 5 6 6 7 7 11 8 8 9 10 10 9 11
REMARK H PARENT
REMARK Flexibility Score: inf
ROOT
ATOM      1  C   UNL     1       4.171 -52.038 -35.590  1.00  0.00     0.025 C 
ATOM      2  C   UNL     1       4.814 -51.498 -34.543  1.00  0.00     0.010 C 
ENDROOT
BRANCH   1   3
ATOM      3  C   UNL     1       2.882 -52.735 -35.443  1.00  0.00     0.064 C 
ATOM      4  O   UNL     1       2.813 -53.994 -35.457  1.00  0.00    -0.545 OA
ATOM      5  O   UNL     1       1.719 -51.991 -35.287  1.00  0.00    -0.545 OA
ENDBRANCH   1   3
BRANCH   2   6
ATOM      6  C   UNL     1       6.117 -50.782 -34.623  1.00  0.00    -0.026 A 
ATOM      7  C   UNL     1       6.212 -49.674 -35.484  1.00  0.00     0.008 A 
ATOM      8  C   UNL     1       7.257 -51.161 -33.880  1.00  0.00     0.008 A 
ATOM      9  C   UNL     1       7.410 -48.962 -35.603  1.00  0.00     0.001 A 
ATOM     10  C   UNL     1       8.452 -50.444 -34.003  1.00  0.00     0.001 A 
ATOM     11  C   UNL     1       8.529 -49.347 -34.863  1.00  0.00     0.000 A 
ENDBRANCH   2   6
TORSDOF 2
ENDMDL
MODEL 6
REMARK VINA RESULT:    -4.027      7.798      9.087
REMARK INTER + INTRA:          -4.628
REMARK INTER:                  -4.496
REMARK INTRA:                  -0.132
REMARK UNBOUND:                -0.131
REMARK SMILES O=C([O-])C=Cc1ccccc1
REMARK SMILES IDX 4 1 5 2 2 3 1 4 3 5 6 6 7 7 11 8 8 9 10 10 9 11
REMARK H PARENT
REMARK Flexibility Score: inf
ROOT
ATOM      1  C   UNL     1       7.440 -50.357 -33.730  1.00  0.00     0.025 C 
ATOM      2  C   UNL     1       6.459 -51.138 -34.211  1.00  0.00     0.010 C 
ENDROOT
BRANCH   1   3
ATOM      3  C   UNL     1       8.637 -50.916 -33.078  1.00  0.00     0.064 C 
ATOM      4  O   UNL     1       9.735 -50.297 -33.085  1.00  0.00    -0.545 OA
ATOM      5  O   UNL     1       8.555 -52.150 -32.444  1.00  0.00    -0.545 OA
ENDBRANCH   1   3
BRANCH   2   6
ATOM      6  C   UNL     1       5.226 -50.638 -34.879  1.00  0.00    -0.026 A 
ATOM      7  C   UNL     1       4.136 -51.519 -35.002  1.00  0.00     0.008 A 
ATOM      8  C   UNL     1       5.099 -49.329 -35.393  1.00  0.00     0.008 A 
ATOM      9  C   UNL     1       2.952 -51.107 -35.621  1.00  0.00     0.001 A 
ATOM     10  C   UNL     1       3.911 -48.923 -36.011  1.00  0.00     0.001 A 
ATOM     11  C   UNL     1       2.839 -49.811 -36.125  1.00  0.00     0.000 A 
ENDBRANCH   2   6
TORSDOF 2
ENDMDL
MODEL 7
REMARK VINA RESULT:    -3.972     11.514     12.796
REMARK INTER + INTRA:          -4.567
REMARK INTER:                  -4.435
REMARK INTRA:                  -0.132
REMARK UNBOUND:                -0.131
REMARK SMILES O=C([O-])C=Cc1ccccc1
REMARK SMILES IDX 4 1 5 2 2 3 1 4 3 5 6 6 7 7 11 8 8 9 10 10 9 11
REMARK H PARENT
REMARK Flexibility Score: inf
ROOT
ATOM      1  C   UNL     1       5.495 -55.778 -29.417  1.00  0.00     0.025 C 
ATOM      2  C   UNL     1       5.081 -57.019 -29.114  1.00  0.00     0.010 C 
ENDROOT
BRANCH   1   3
ATOM      3  C   UNL     1       6.372 -55.004 -28.521  1.00  0.00     0.064 C 
ATOM      4  O   UNL     1       6.169 -54.971 -27.277  1.00  0.00    -0.545 OA
ATOM      5  O   UNL     1       7.441 -54.298 -29.057  1.00  0.00    -0.545 OA
ENDBRANCH   1   3
BRANCH   2   6
ATOM      6  C   UNL     1       4.196 -57.852 -29.974  1.00  0.00    -0.026 A 
ATOM      7  C   UNL     1       4.240 -59.249 -29.811  1.00  0.00     0.008 A 
ATOM      8  C   UNL     1       3.321 -57.312 -30.941  1.00  0.00     0.008 A 
ATOM      9  C   UNL     1       3.433 -60.084 -30.590  1.00  0.00     0.001 A 
ATOM     10  C   UNL     1       2.516 -58.153 -31.717  1.00  0.00     0.001 A 
ATOM     11  C   UNL     1       2.573 -59.537 -31.542  1.00  0.00     0.000 A 
ENDBRANCH   2   6
TORSDOF 2
ENDMDL
MODEL 8
REMARK VINA RESULT:    -3.936     11.688     12.861
REMARK INTER + INTRA:          -4.526
REMARK INTER:                  -4.396
REMARK INTRA:                  -0.131
REMARK UNBOUND:                -0.131
REMARK SMILES O=C([O-])C=Cc1ccccc1
REMARK SMILES IDX 4 1 5 2 2 3 1 4 3 5 6 6 7 7 11 8 8 9 10 10 9 11
REMARK H PARENT
REMARK Flexibility Score: inf
ROOT
ATOM      1  C   UNL     1       6.321 -55.162 -28.563  1.00  0.00     0.025 C 
ATOM      2  C   UNL     1       5.728 -55.754 -29.612  1.00  0.00     0.010 C 
ENDROOT
BRANCH   1   3
ATOM      3  C   UNL     1       7.329 -54.101 -28.728  1.00  0.00     0.064 C 
ATOM      4  O   UNL     1       7.670 -53.367 -27.762  1.00  0.00    -0.545 OA
ATOM      5  O   UNL     1       7.915 -53.907 -29.972  1.00  0.00    -0.545 OA
ENDBRANCH   1   3
BRANCH   2   6
ATOM      6  C   UNL     1       4.704 -56.829 -29.514  1.00  0.00    -0.026 A 
ATOM      7  C   UNL     1       3.614 -56.789 -30.403  1.00  0.00     0.008 A 
ATOM      8  C   UNL     1       4.772 -57.883 -28.576  1.00  0.00     0.008 A 
ATOM      9  C   UNL     1       2.619 -57.771 -30.359  1.00  0.00     0.001 A 
ATOM     10  C   UNL     1       3.774 -58.862 -28.537  1.00  0.00     0.001 A 
ATOM     11  C   UNL     1       2.699 -58.806 -29.427  1.00  0.00     0.000 A 
ENDBRANCH   2   6
TORSDOF 2
ENDMDL
MODEL 9
REMARK VINA RESULT:    -3.845     16.567     17.095
REMARK INTER + INTRA:          -4.426
REMARK INTER:                  -4.297
REMARK INTRA:                  -0.128
REMARK UNBOUND:                -0.131
REMARK SMILES O=C([O-])C=Cc1ccccc1
REMARK SMILES IDX 4 1 5 2 2 3 1 4 3 5 6 6 7 7 11 8 8 9 10 10 9 11
REMARK H PARENT
REMARK Flexibility Score: inf
ROOT
ATOM      1  C   UNL     1       7.499 -52.417 -21.114  1.00  0.00     0.025 C 
ATOM      2  C   UNL     1       8.709 -51.841 -21.202  1.00  0.00     0.010 C 
ENDROOT
BRANCH   1   3
ATOM      3  C   UNL     1       7.263 -53.619 -20.296  1.00  0.00     0.064 C 
ATOM      4  O   UNL     1       6.580 -54.584 -20.734  1.00  0.00    -0.545 OA
ATOM      5  O   UNL     1       7.802 -53.691 -19.018  1.00  0.00    -0.545 OA
ENDBRANCH   1   3
BRANCH   2   6
ATOM      6  C   UNL     1       9.014 -50.628 -22.009  1.00  0.00    -0.026 A 
ATOM      7  C   UNL     1      10.100 -50.682 -22.901  1.00  0.00     0.008 A 
ATOM      8  C   UNL     1       8.271 -49.430 -21.921  1.00  0.00     0.008 A 
ATOM      9  C   UNL     1      10.437 -49.574 -23.685  1.00  0.00     0.001 A 
ATOM     10  C   UNL     1       8.613 -48.325 -22.709  1.00  0.00     0.001 A 
ATOM     11  C   UNL     1       9.694 -48.397 -23.589  1.00  0.00     0.000 A 
ENDBRANCH   2   6
TORSDOF 2
ENDMDL
