MODEL 1
REMARK VINA RESULT:    33.185      0.000      0.000
REMARK INTER + INTRA:          39.696
REMARK INTER:                  39.975
REMARK INTRA:                  -0.278
REMARK UNBOUND:                -0.278
REMARK SMILES COc1ccc([C@@H]2CC(=O)c3c(O)cc(O)cc3O2)cc1O
REMARK SMILES IDX 7 1 8 2 9 3 10 4 11 5 12 6 14 7 15 8 17 9 18 10 19 11 6 12
REMARK SMILES IDX 3 13 21 14 4 15 20 16 5 17 2 18 1 19 22 20 13 22 16 24
REMARK H PARENT 22 21 13 23 16 25
REMARK Flexibility Score: inf
ROOT
ATOM      1  C   UNL     1      13.189   5.025  18.154  1.00  0.00     0.211 C 
ATOM      2  C   UNL     1      13.624   6.011  19.247  1.00  0.00     0.131 C 
ATOM      3  C   UNL     1      13.739   7.383  18.654  1.00  0.00     0.174 C 
ATOM      4  O   UNL     1      14.756   8.081  18.908  1.00  0.00    -0.294 OA
ATOM      5  C   UNL     1      12.676   7.855  17.733  1.00  0.00     0.102 A 
ATOM      6  C   UNL     1      12.448   9.218  17.411  1.00  0.00     0.133 A 
ATOM      7  C   UNL     1      11.461   9.550  16.475  1.00  0.00     0.093 A 
ATOM      8  C   UNL     1      10.659   8.559  15.898  1.00  0.00     0.123 A 
ATOM      9  C   UNL     1      10.849   7.222  16.249  1.00  0.00     0.093 A 
ATOM     10  C   UNL     1      11.855   6.865  17.149  1.00  0.00     0.138 A 
ATOM     11  O   UNL     1      12.030   5.511  17.470  1.00  0.00    -0.484 OA
ENDROOT
BRANCH   1  12
ATOM     12  C   UNL     1      12.908   3.664  18.743  1.00  0.00    -0.003 A 
ATOM     13  C   UNL     1      12.318   1.119  19.807  1.00  0.00     0.160 A 
ATOM     14  C   UNL     1      11.776   2.271  20.391  1.00  0.00     0.158 A 
ATOM     15  C   UNL     1      13.153   1.246  18.679  1.00  0.00     0.051 A 
ATOM     16  C   UNL     1      12.065   3.536  19.858  1.00  0.00     0.057 A 
ATOM     17  C   UNL     1      13.439   2.507  18.150  1.00  0.00     0.011 A 
BRANCH  13  18
ATOM     18  O   UNL     1      12.007  -0.128  20.370  1.00  0.00    -0.493 OA
ATOM     19  C   UNL     1      10.825  -0.869  20.082  1.00  0.00     0.278 C 
ENDBRANCH  13  18
BRANCH  14  20
ATOM     20  O   UNL     1      10.944   2.153  21.503  1.00  0.00    -0.504 OA
ATOM     21  H   UNL     1      11.217   1.609  22.314  1.00  0.00     0.293 HD
ENDBRANCH  14  20
ENDBRANCH   1  12
BRANCH   6  22
ATOM     22  O   UNL     1      13.143  10.271  18.012  1.00  0.00    -0.507 OA
ATOM     23  H   UNL     1      13.968  10.700  17.619  1.00  0.00     0.293 HD
ENDBRANCH   6  22
BRANCH   8  24
ATOM     24  O   UNL     1       9.665   8.894  14.981  1.00  0.00    -0.508 OA
ATOM     25  H   UNL     1       8.691   8.947  15.252  1.00  0.00     0.293 HD
ENDBRANCH   8  24
TORSDOF 5
ENDMDL
MODEL 2
REMARK VINA RESULT:    33.658      5.101      7.638
REMARK INTER + INTRA:          40.267
REMARK INTER:                  40.538
REMARK INTRA:                  -0.271
REMARK UNBOUND:                -0.278
REMARK SMILES COc1ccc([C@@H]2CC(=O)c3c(O)cc(O)cc3O2)cc1O
REMARK SMILES IDX 7 1 8 2 9 3 10 4 11 5 12 6 14 7 15 8 17 9 18 10 19 11 6 12
REMARK SMILES IDX 3 13 21 14 4 15 20 16 5 17 2 18 1 19 22 20 13 22 16 24
REMARK H PARENT 22 21 13 23 16 25
REMARK Flexibility Score: inf
ROOT
ATOM      1  C   UNL     1       9.221  10.293  19.188  1.00  0.00     0.211 C 
ATOM      2  C   UNL     1       8.712   9.181  18.259  1.00  0.00     0.131 C 
ATOM      3  C   UNL     1       9.691   8.989  17.140  1.00  0.00     0.174 C 
ATOM      4  O   UNL     1       9.266   8.905  15.957  1.00  0.00    -0.294 OA
ATOM      5  C   UNL     1      11.141   8.966  17.454  1.00  0.00     0.102 A 
ATOM      6  C   UNL     1      12.133   8.424  16.596  1.00  0.00     0.133 A 
ATOM      7  C   UNL     1      13.482   8.515  16.959  1.00  0.00     0.093 A 
ATOM      8  C   UNL     1      13.858   9.081  18.182  1.00  0.00     0.123 A 
ATOM      9  C   UNL     1      12.881   9.572  19.048  1.00  0.00     0.093 A 
ATOM     10  C   UNL     1      11.532   9.528  18.688  1.00  0.00     0.138 A 
ATOM     11  O   UNL     1      10.576  10.043  19.575  1.00  0.00    -0.484 OA
ENDROOT
BRANCH   1  12
ATOM     12  C   UNL     1       8.347  10.409  20.412  1.00  0.00    -0.003 A 
ATOM     13  C   UNL     1       6.773  10.622  22.743  1.00  0.00     0.160 A 
ATOM     14  C   UNL     1       7.197   9.366  22.290  1.00  0.00     0.158 A 
ATOM     15  C   UNL     1       7.148  11.775  22.027  1.00  0.00     0.051 A 
ATOM     16  C   UNL     1       7.985   9.261  21.134  1.00  0.00     0.057 A 
ATOM     17  C   UNL     1       7.932  11.668  20.876  1.00  0.00     0.011 A 
BRANCH  13  18
ATOM     18  O   UNL     1       5.985  10.685  23.903  1.00  0.00    -0.493 OA
ATOM     19  C   UNL     1       6.502  10.665  25.230  1.00  0.00     0.278 C 
ENDBRANCH  13  18
BRANCH  14  20
ATOM     20  O   UNL     1       6.835   8.221  22.997  1.00  0.00    -0.504 OA
ATOM     21  H   UNL     1       6.425   7.418  22.534  1.00  0.00     0.293 HD
ENDBRANCH  14  20
ENDBRANCH   1  12
BRANCH   6  22
ATOM     22  O   UNL     1      11.832   7.761  15.404  1.00  0.00    -0.507 OA
ATOM     23  H   UNL     1      12.290   7.946  14.524  1.00  0.00     0.293 HD
ENDBRANCH   6  22
BRANCH   8  24
ATOM     24  O   UNL     1      15.201   9.154  18.549  1.00  0.00    -0.508 OA
ATOM     25  H   UNL     1      15.874   8.466  18.233  1.00  0.00     0.293 HD
ENDBRANCH   8  24
TORSDOF 5
ENDMDL
MODEL 3
REMARK VINA RESULT:    35.580      2.592      3.770
REMARK INTER + INTRA:          42.582
REMARK INTER:                  42.140
REMARK INTRA:                   0.443
REMARK UNBOUND:                -0.278
REMARK SMILES COc1ccc([C@@H]2CC(=O)c3c(O)cc(O)cc3O2)cc1O
REMARK SMILES IDX 7 1 8 2 9 3 10 4 11 5 12 6 14 7 15 8 17 9 18 10 19 11 6 12
REMARK SMILES IDX 3 13 21 14 4 15 20 16 5 17 2 18 1 19 22 20 13 22 16 24
REMARK H PARENT 22 21 13 23 16 25
REMARK Flexibility Score: inf
ROOT
ATOM      1  C   UNL     1      11.864   5.320  17.465  1.00  0.00     0.211 C 
ATOM      2  C   UNL     1      10.953   5.896  16.372  1.00  0.00     0.131 C 
ATOM      3  C   UNL     1      10.614   7.317  16.713  1.00  0.00     0.174 C 
ATOM      4  O   UNL     1       9.419   7.704  16.625  1.00  0.00    -0.294 OA
ATOM      5  C   UNL     1      11.692   8.211  17.205  1.00  0.00     0.102 A 
ATOM      6  C   UNL     1      11.617   9.628  17.197  1.00  0.00     0.133 A 
ATOM      7  C   UNL     1      12.663  10.376  17.749  1.00  0.00     0.093 A 
ATOM      8  C   UNL     1      13.806   9.746  18.255  1.00  0.00     0.123 A 
ATOM      9  C   UNL     1      13.903   8.355  18.220  1.00  0.00     0.093 A 
ATOM     10  C   UNL     1      12.853   7.587  17.711  1.00  0.00     0.138 A 
ATOM     11  O   UNL     1      12.975   6.190  17.704  1.00  0.00    -0.484 OA
ENDROOT
BRANCH   1  12
ATOM     12  C   UNL     1      12.356   3.947  17.081  1.00  0.00    -0.003 A 
ATOM     13  C   UNL     1      13.312   1.409  16.305  1.00  0.00     0.160 A 
ATOM     14  C   UNL     1      12.176   1.953  15.692  1.00  0.00     0.158 A 
ATOM     15  C   UNL     1      13.975   2.146  17.306  1.00  0.00     0.051 A 
ATOM     16  C   UNL     1      11.705   3.218  16.074  1.00  0.00     0.057 A 
ATOM     17  C   UNL     1      13.503   3.405  17.684  1.00  0.00     0.011 A 
BRANCH  13  18
ATOM     18  O   UNL     1      13.752   0.140  15.896  1.00  0.00    -0.493 OA
ATOM     19  C   UNL     1      12.896  -0.897  15.428  1.00  0.00     0.278 C 
ENDBRANCH  13  18
BRANCH  14  20
ATOM     20  O   UNL     1      11.519   1.232  14.696  1.00  0.00    -0.504 OA
ATOM     21  H   UNL     1      11.182   1.679  13.851  1.00  0.00     0.293 HD
ENDBRANCH  14  20
ENDBRANCH   1  12
BRANCH   6  22
ATOM     22  O   UNL     1      10.553  10.333  16.628  1.00  0.00    -0.507 OA
ATOM     23  H   UNL     1      10.658  11.198  16.119  1.00  0.00     0.293 HD
ENDBRANCH   6  22
BRANCH   8  24
ATOM     24  O   UNL     1      14.854  10.495  18.787  1.00  0.00    -0.508 OA
ATOM     25  H   UNL     1      15.706  10.659  18.263  1.00  0.00     0.293 HD
ENDBRANCH   8  24
TORSDOF 5
ENDMDL
