MODEL 1
REMARK VINA RESULT:    -4.963      0.000      0.000
REMARK INTER + INTRA:          -8.227
REMARK INTER:                  -7.574
REMARK INTRA:                  -0.652
REMARK UNBOUND:                -0.652
REMARK SMILES O=C([O-])CCCCCCCCC(=O)[O-]
REMARK SMILES IDX 7 1 6 2 5 3 4 4 2 5 1 6 3 7 8 8 9 9 10 10 11 11 12 12 13 13
REMARK SMILES IDX 14 14
REMARK H PARENT
REMARK Flexibility Score: inf
ROOT
ATOM      1  C   UNL     1      40.697  40.793  16.438  1.00  0.00     0.000 C 
ENDROOT
BRANCH   1   2
ATOM      2  C   UNL     1      40.883  41.352  17.854  1.00  0.00     0.000 C 
BRANCH   2   3
ATOM      3  C   UNL     1      41.958  40.570  18.618  1.00  0.00     0.006 C 
BRANCH   3   4
ATOM      4  C   UNL     1      41.741  40.671  20.130  1.00  0.00     0.053 C 
BRANCH   4   5
ATOM      5  C   UNL     1      41.989  42.067  20.604  1.00  0.00     0.041 C 
ATOM      6  O   UNL     1      43.061  42.657  20.306  1.00  0.00    -0.550 OA
ATOM      7  O   UNL     1      41.015  42.737  21.334  1.00  0.00    -0.550 OA
ENDBRANCH   4   5
ENDBRANCH   3   4
ENDBRANCH   2   3
ENDBRANCH   1   2
BRANCH   1   8
ATOM      8  C   UNL     1      41.541  41.573  15.423  1.00  0.00     0.000 C 
BRANCH   8   9
ATOM      9  C   UNL     1      42.807  40.789  15.043  1.00  0.00     0.000 C 
BRANCH   9  10
ATOM     10  C   UNL     1      42.590  39.265  15.050  1.00  0.00     0.006 C 
BRANCH  10  11
ATOM     11  C   UNL     1      42.367  38.652  13.658  1.00  0.00     0.053 C 
BRANCH  11  12
ATOM     12  C   UNL     1      40.954  38.193  13.466  1.00  0.00     0.041 C 
ATOM     13  O   UNL     1      40.030  39.033  13.309  1.00  0.00    -0.550 OA
ATOM     14  O   UNL     1      40.663  36.834  13.425  1.00  0.00    -0.550 OA
ENDBRANCH  11  12
ENDBRANCH  10  11
ENDBRANCH   9  10
ENDBRANCH   8   9
ENDBRANCH   1   8
TORSDOF 9
ENDMDL
MODEL 2
REMARK VINA RESULT:    -4.835      1.192      6.306
REMARK INTER + INTRA:          -8.032
REMARK INTER:                  -7.258
REMARK INTRA:                  -0.774
REMARK UNBOUND:                -0.652
REMARK SMILES O=C([O-])CCCCCCCCC(=O)[O-]
REMARK SMILES IDX 7 1 6 2 5 3 4 4 2 5 1 6 3 7 8 8 9 9 10 10 11 11 12 12 13 13
REMARK SMILES IDX 14 14
REMARK H PARENT
REMARK Flexibility Score: inf
ROOT
ATOM      1  C   UNL     1      43.027  41.261  14.797  1.00  0.00     0.000 C 
ENDROOT
BRANCH   1   2
ATOM      2  C   UNL     1      43.479  39.814  15.026  1.00  0.00     0.000 C 
BRANCH   2   3
ATOM      3  C   UNL     1      42.688  38.843  14.142  1.00  0.00     0.006 C 
BRANCH   3   4
ATOM      4  C   UNL     1      41.186  39.132  14.214  1.00  0.00     0.053 C 
BRANCH   4   5
ATOM      5  C   UNL     1      40.435  38.240  13.278  1.00  0.00     0.041 C 
ATOM      6  O   UNL     1      40.602  36.992  13.320  1.00  0.00    -0.550 OA
ATOM      7  O   UNL     1      39.512  38.781  12.391  1.00  0.00    -0.550 OA
ENDBRANCH   4   5
ENDBRANCH   3   4
ENDBRANCH   2   3
ENDBRANCH   1   2
BRANCH   1   8
ATOM      8  C   UNL     1      42.738  41.966  16.128  1.00  0.00     0.000 C 
BRANCH   8   9
ATOM      9  C   UNL     1      41.252  42.338  16.242  1.00  0.00     0.000 C 
BRANCH   9  10
ATOM     10  C   UNL     1      40.583  41.748  17.496  1.00  0.00     0.006 C 
BRANCH  10  11
ATOM     11  C   UNL     1      41.388  40.628  18.175  1.00  0.00     0.053 C 
BRANCH  11  12
ATOM     12  C   UNL     1      41.751  40.973  19.586  1.00  0.00     0.041 C 
ATOM     13  O   UNL     1      41.769  42.175  19.961  1.00  0.00    -0.550 OA
ATOM     14  O   UNL     1      42.036  39.964  20.499  1.00  0.00    -0.550 OA
ENDBRANCH  11  12
ENDBRANCH  10  11
ENDBRANCH   9  10
ENDBRANCH   8   9
ENDBRANCH   1   8
TORSDOF 9
ENDMDL
MODEL 3
REMARK VINA RESULT:    -4.807      1.252      6.991
REMARK INTER + INTRA:          -7.989
REMARK INTER:                  -7.553
REMARK INTRA:                  -0.436
REMARK UNBOUND:                -0.652
REMARK SMILES O=C([O-])CCCCCCCCC(=O)[O-]
REMARK SMILES IDX 7 1 6 2 5 3 4 4 2 5 1 6 3 7 8 8 9 9 10 10 11 11 12 12 13 13
REMARK SMILES IDX 14 14
REMARK H PARENT
REMARK Flexibility Score: inf
ROOT
ATOM      1  C   UNL     1      41.005  41.874  16.562  1.00  0.00     0.000 C 
ENDROOT
BRANCH   1   2
ATOM      2  C   UNL     1      41.543  40.564  15.975  1.00  0.00     0.000 C 
BRANCH   2   3
ATOM      3  C   UNL     1      40.689  40.100  14.789  1.00  0.00     0.006 C 
BRANCH   3   4
ATOM      4  C   UNL     1      41.437  39.064  13.946  1.00  0.00     0.053 C 
BRANCH   4   5
ATOM      5  C   UNL     1      40.471  38.187  13.215  1.00  0.00     0.041 C 
ATOM      6  O   UNL     1      40.469  36.943  13.412  1.00  0.00    -0.550 OA
ATOM      7  O   UNL     1      39.538  38.748  12.352  1.00  0.00    -0.550 OA
ENDBRANCH   4   5
ENDBRANCH   3   4
ENDBRANCH   2   3
ENDBRANCH   1   2
BRANCH   1   8
ATOM      8  C   UNL     1      40.741  41.737  18.066  1.00  0.00     0.000 C 
BRANCH   8   9
ATOM      9  C   UNL     1      41.407  40.472  18.629  1.00  0.00     0.000 C 
BRANCH   9  10
ATOM     10  C   UNL     1      41.975  40.676  20.045  1.00  0.00     0.006 C 
BRANCH  10  11
ATOM     11  C   UNL     1      41.943  42.132  20.536  1.00  0.00     0.053 C 
BRANCH  11  12
ATOM     12  C   UNL     1      43.273  42.805  20.386  1.00  0.00     0.041 C 
ATOM     13  O   UNL     1      44.025  42.953  21.386  1.00  0.00    -0.550 OA
ATOM     14  O   UNL     1      43.698  43.237  19.136  1.00  0.00    -0.550 OA
ENDBRANCH  11  12
ENDBRANCH  10  11
ENDBRANCH   9  10
ENDBRANCH   8   9
ENDBRANCH   1   8
TORSDOF 9
ENDMDL
MODEL 4
REMARK VINA RESULT:    -4.805      0.887      6.665
REMARK INTER + INTRA:          -7.986
REMARK INTER:                  -7.229
REMARK INTRA:                  -0.757
REMARK UNBOUND:                -0.652
REMARK SMILES O=C([O-])CCCCCCCCC(=O)[O-]
REMARK SMILES IDX 7 1 6 2 5 3 4 4 2 5 1 6 3 7 8 8 9 9 10 10 11 11 12 12 13 13
REMARK SMILES IDX 14 14
REMARK H PARENT
REMARK Flexibility Score: inf
ROOT
ATOM      1  C   UNL     1      41.491  41.314  15.048  1.00  0.00     0.000 C 
ENDROOT
BRANCH   1   2
ATOM      2  C   UNL     1      42.954  40.870  15.157  1.00  0.00     0.000 C 
BRANCH   2   3
ATOM      3  C   UNL     1      43.065  39.342  15.211  1.00  0.00     0.006 C 
BRANCH   3   4
ATOM      4  C   UNL     1      43.184  38.749  13.804  1.00  0.00     0.053 C 
BRANCH   4   5
ATOM      5  C   UNL     1      42.051  37.812  13.533  1.00  0.00     0.041 C 
ATOM      6  O   UNL     1      40.880  38.255  13.395  1.00  0.00    -0.550 OA
ATOM      7  O   UNL     1      42.294  36.452  13.382  1.00  0.00    -0.550 OA
ENDBRANCH   4   5
ENDBRANCH   3   4
ENDBRANCH   2   3
ENDBRANCH   1   2
BRANCH   1   8
ATOM      8  C   UNL     1      40.626  40.628  16.113  1.00  0.00     0.000 C 
BRANCH   8   9
ATOM      9  C   UNL     1      40.581  41.459  17.404  1.00  0.00     0.000 C 
BRANCH   9  10
ATOM     10  C   UNL     1      41.406  40.836  18.544  1.00  0.00     0.006 C 
BRANCH  10  11
ATOM     11  C   UNL     1      42.635  41.660  18.959  1.00  0.00     0.053 C 
BRANCH  11  12
ATOM     12  C   UNL     1      42.457  42.301  20.301  1.00  0.00     0.041 C 
ATOM     13  O   UNL     1      41.316  42.352  20.832  1.00  0.00    -0.550 OA
ATOM     14  O   UNL     1      43.556  42.808  20.983  1.00  0.00    -0.550 OA
ENDBRANCH  11  12
ENDBRANCH  10  11
ENDBRANCH   9  10
ENDBRANCH   8   9
ENDBRANCH   1   8
TORSDOF 9
ENDMDL
MODEL 5
REMARK VINA RESULT:    -4.637      1.172      1.475
REMARK INTER + INTRA:          -7.729
REMARK INTER:                  -7.049
REMARK INTRA:                  -0.680
REMARK UNBOUND:                -0.652
REMARK SMILES O=C([O-])CCCCCCCCC(=O)[O-]
REMARK SMILES IDX 7 1 6 2 5 3 4 4 2 5 1 6 3 7 8 8 9 9 10 10 11 11 12 12 13 13
REMARK SMILES IDX 14 14
REMARK H PARENT
REMARK Flexibility Score: inf
ROOT
ATOM      1  C   UNL     1      41.164  42.715  16.722  1.00  0.00     0.000 C 
ENDROOT
BRANCH   1   2
ATOM      2  C   UNL     1      40.635  41.734  17.775  1.00  0.00     0.000 C 
BRANCH   2   3
ATOM      3  C   UNL     1      41.741  40.783  18.248  1.00  0.00     0.006 C 
BRANCH   3   4
ATOM      4  C   UNL     1      41.775  40.697  19.776  1.00  0.00     0.053 C 
BRANCH   4   5
ATOM      5  C   UNL     1      42.047  42.042  20.371  1.00  0.00     0.041 C 
ATOM      6  O   UNL     1      43.105  42.661  20.081  1.00  0.00    -0.550 OA
ATOM      7  O   UNL     1      41.109  42.635  21.208  1.00  0.00    -0.550 OA
ENDBRANCH   4   5
ENDBRANCH   3   4
ENDBRANCH   2   3
ENDBRANCH   1   2
BRANCH   1   8
ATOM      8  C   UNL     1      41.402  42.009  15.381  1.00  0.00     0.000 C 
BRANCH   8   9
ATOM      9  C   UNL     1      42.899  41.977  15.036  1.00  0.00     0.000 C 
BRANCH   9  10
ATOM     10  C   UNL     1      43.409  40.559  14.721  1.00  0.00     0.006 C 
BRANCH  10  11
ATOM     11  C   UNL     1      42.326  39.470  14.781  1.00  0.00     0.053 C 
BRANCH  11  12
ATOM     12  C   UNL     1      42.629  38.324  13.865  1.00  0.00     0.041 C 
ATOM     13  O   UNL     1      43.821  38.056  13.558  1.00  0.00    -0.550 OA
ATOM     14  O   UNL     1      41.598  37.530  13.379  1.00  0.00    -0.550 OA
ENDBRANCH  11  12
ENDBRANCH  10  11
ENDBRANCH   9  10
ENDBRANCH   8   9
ENDBRANCH   1   8
TORSDOF 9
ENDMDL
MODEL 6
REMARK VINA RESULT:    -4.603      2.771      3.703
REMARK INTER + INTRA:          -7.676
REMARK INTER:                  -6.650
REMARK INTRA:                  -1.027
REMARK UNBOUND:                -0.652
REMARK SMILES O=C([O-])CCCCCCCCC(=O)[O-]
REMARK SMILES IDX 7 1 6 2 5 3 4 4 2 5 1 6 3 7 8 8 9 9 10 10 11 11 12 12 13 13
REMARK SMILES IDX 14 14
REMARK H PARENT
REMARK Flexibility Score: inf
ROOT
ATOM      1  C   UNL     1      41.349  41.749  18.897  1.00  0.00     0.000 C 
ENDROOT
BRANCH   1   2
ATOM      2  C   UNL     1      42.630  42.580  19.031  1.00  0.00     0.000 C 
BRANCH   2   3
ATOM      3  C   UNL     1      43.286  42.807  17.664  1.00  0.00     0.006 C 
BRANCH   3   4
ATOM      4  C   UNL     1      42.982  44.210  17.133  1.00  0.00     0.053 C 
BRANCH   4   5
ATOM      5  C   UNL     1      42.005  44.142  16.003  1.00  0.00     0.041 C 
ATOM      6  O   UNL     1      40.766  44.179  16.232  1.00  0.00    -0.550 OA
ATOM      7  O   UNL     1      42.461  44.089  14.692  1.00  0.00    -0.550 OA
ENDBRANCH   4   5
ENDBRANCH   3   4
ENDBRANCH   2   3
ENDBRANCH   1   2
BRANCH   1   8
ATOM      8  C   UNL     1      41.531  40.616  17.879  1.00  0.00     0.000 C 
BRANCH   8   9
ATOM      9  C   UNL     1      40.425  40.652  16.813  1.00  0.00     0.000 C 
BRANCH   9  10
ATOM     10  C   UNL     1      40.980  40.722  15.379  1.00  0.00     0.006 C 
BRANCH  10  11
ATOM     11  C   UNL     1      42.456  40.316  15.252  1.00  0.00     0.053 C 
BRANCH  11  12
ATOM     12  C   UNL     1      42.617  38.980  14.594  1.00  0.00     0.041 C 
ATOM     13  O   UNL     1      43.626  38.268  14.842  1.00  0.00    -0.550 OA
ATOM     14  O   UNL     1      41.634  38.504  13.734  1.00  0.00    -0.550 OA
ENDBRANCH  11  12
ENDBRANCH  10  11
ENDBRANCH   9  10
ENDBRANCH   8   9
ENDBRANCH   1   8
TORSDOF 9
ENDMDL
MODEL 7
REMARK VINA RESULT:    -4.585     10.558     12.036
REMARK INTER + INTRA:          -7.649
REMARK INTER:                  -7.325
REMARK INTRA:                  -0.325
REMARK UNBOUND:                -0.652
REMARK SMILES O=C([O-])CCCCCCCCC(=O)[O-]
REMARK SMILES IDX 7 1 6 2 5 3 4 4 2 5 1 6 3 7 8 8 9 9 10 10 11 11 12 12 13 13
REMARK SMILES IDX 14 14
REMARK H PARENT
REMARK Flexibility Score: inf
ROOT
ATOM      1  C   UNL     1      39.032  29.629  13.661  1.00  0.00     0.000 C 
ENDROOT
BRANCH   1   2
ATOM      2  C   UNL     1      38.107  30.460  14.557  1.00  0.00     0.000 C 
BRANCH   2   3
ATOM      3  C   UNL     1      37.337  31.503  13.738  1.00  0.00     0.006 C 
BRANCH   3   4
ATOM      4  C   UNL     1      35.973  31.800  14.367  1.00  0.00     0.053 C 
BRANCH   4   5
ATOM      5  C   UNL     1      34.872  31.281  13.499  1.00  0.00     0.041 C 
ATOM      6  O   UNL     1      34.659  30.042  13.417  1.00  0.00    -0.550 OA
ATOM      7  O   UNL     1      34.047  32.167  12.818  1.00  0.00    -0.550 OA
ENDBRANCH   4   5
ENDBRANCH   3   4
ENDBRANCH   2   3
ENDBRANCH   1   2
BRANCH   1   8
ATOM      8  C   UNL     1      40.294  29.200  14.420  1.00  0.00     0.000 C 
BRANCH   8   9
ATOM      9  C   UNL     1      40.654  30.221  15.510  1.00  0.00     0.000 C 
BRANCH   9  10
ATOM     10  C   UNL     1      42.062  30.001  16.092  1.00  0.00     0.006 C 
BRANCH  10  11
ATOM     11  C   UNL     1      42.090  29.769  17.611  1.00  0.00     0.053 C 
BRANCH  11  12
ATOM     12  C   UNL     1      43.446  30.026  18.194  1.00  0.00     0.041 C 
ATOM     13  O   UNL     1      43.672  29.773  19.407  1.00  0.00    -0.550 OA
ATOM     14  O   UNL     1      44.470  30.511  17.390  1.00  0.00    -0.550 OA
ENDBRANCH  11  12
ENDBRANCH  10  11
ENDBRANCH   9  10
ENDBRANCH   8   9
ENDBRANCH   1   8
TORSDOF 9
ENDMDL
MODEL 8
REMARK VINA RESULT:    -4.577      2.101      2.530
REMARK INTER + INTRA:          -7.637
REMARK INTER:                  -6.961
REMARK INTRA:                  -0.676
REMARK UNBOUND:                -0.652
REMARK SMILES O=C([O-])CCCCCCCCC(=O)[O-]
REMARK SMILES IDX 7 1 6 2 5 3 4 4 2 5 1 6 3 7 8 8 9 9 10 10 11 11 12 12 13 13
REMARK SMILES IDX 14 14
REMARK H PARENT
REMARK Flexibility Score: inf
ROOT
ATOM      1  C   UNL     1      42.611  42.415  15.593  1.00  0.00     0.000 C 
ENDROOT
BRANCH   1   2
ATOM      2  C   UNL     1      42.897  43.175  16.894  1.00  0.00     0.000 C 
BRANCH   2   3
ATOM      3  C   UNL     1      43.312  42.214  18.014  1.00  0.00     0.006 C 
BRANCH   3   4
ATOM      4  C   UNL     1      42.257  42.174  19.123  1.00  0.00     0.053 C 
BRANCH   4   5
ATOM      5  C   UNL     1      41.742  40.782  19.305  1.00  0.00     0.041 C 
ATOM      6  O   UNL     1      40.990  40.265  18.436  1.00  0.00    -0.550 OA
ATOM      7  O   UNL     1      42.130  40.035  20.410  1.00  0.00    -0.550 OA
ENDBRANCH   4   5
ENDBRANCH   3   4
ENDBRANCH   2   3
ENDBRANCH   1   2
BRANCH   1   8
ATOM      8  C   UNL     1      41.104  42.229  15.384  1.00  0.00     0.000 C 
BRANCH   8   9
ATOM      9  C   UNL     1      40.760  40.749  15.155  1.00  0.00     0.000 C 
BRANCH   9  10
ATOM     10  C   UNL     1      42.007  39.874  14.929  1.00  0.00     0.006 C 
BRANCH  10  11
ATOM     11  C   UNL     1      41.771  38.661  14.016  1.00  0.00     0.053 C 
BRANCH  11  12
ATOM     12  C   UNL     1      42.931  37.713  14.030  1.00  0.00     0.041 C 
ATOM     13  O   UNL     1      42.801  36.546  13.575  1.00  0.00    -0.550 OA
ATOM     14  O   UNL     1      44.165  38.130  14.514  1.00  0.00    -0.550 OA
ENDBRANCH  11  12
ENDBRANCH  10  11
ENDBRANCH   9  10
ENDBRANCH   8   9
ENDBRANCH   1   8
TORSDOF 9
ENDMDL
MODEL 9
REMARK VINA RESULT:    -4.519     10.539     11.177
REMARK INTER + INTRA:          -7.549
REMARK INTER:                  -7.220
REMARK INTRA:                  -0.329
REMARK UNBOUND:                -0.652
REMARK SMILES O=C([O-])CCCCCCCCC(=O)[O-]
REMARK SMILES IDX 7 1 6 2 5 3 4 4 2 5 1 6 3 7 8 8 9 9 10 10 11 11 12 12 13 13
REMARK SMILES IDX 14 14
REMARK H PARENT
REMARK Flexibility Score: inf
ROOT
ATOM      1  C   UNL     1      40.596  30.172  15.344  1.00  0.00     0.000 C 
ENDROOT
BRANCH   1   2
ATOM      2  C   UNL     1      41.745  29.441  16.049  1.00  0.00     0.000 C 
BRANCH   2   3
ATOM      3  C   UNL     1      42.094  30.117  17.381  1.00  0.00     0.006 C 
BRANCH   3   4
ATOM      4  C   UNL     1      42.639  29.100  18.387  1.00  0.00     0.053 C 
BRANCH   4   5
ATOM      5  C   UNL     1      43.812  29.667  19.122  1.00  0.00     0.041 C 
ATOM      6  O   UNL     1      43.960  29.440  20.352  1.00  0.00    -0.550 OA
ATOM      7  O   UNL     1      44.769  30.407  18.438  1.00  0.00    -0.550 OA
ENDBRANCH   4   5
ENDBRANCH   3   4
ENDBRANCH   2   3
ENDBRANCH   1   2
BRANCH   1   8
ATOM      8  C   UNL     1      40.097  29.376  14.132  1.00  0.00     0.000 C 
BRANCH   8   9
ATOM      9  C   UNL     1      38.758  29.931  13.624  1.00  0.00     0.000 C 
BRANCH   9  10
ATOM     10  C   UNL     1      37.953  30.647  14.723  1.00  0.00     0.006 C 
BRANCH  10  11
ATOM     11  C   UNL     1      36.534  30.093  14.929  1.00  0.00     0.053 C 
BRANCH  11  12
ATOM     12  C   UNL     1      35.531  30.772  14.047  1.00  0.00     0.041 C 
ATOM     13  O   UNL     1      35.571  32.021  13.887  1.00  0.00    -0.550 OA
ATOM     14  O   UNL     1      34.575  30.022  13.374  1.00  0.00    -0.550 OA
ENDBRANCH  11  12
ENDBRANCH  10  11
ENDBRANCH   9  10
ENDBRANCH   8   9
ENDBRANCH   1   8
TORSDOF 9
ENDMDL
