MODEL 1
REMARK VINA RESULT:    -2.468      0.000      0.000
REMARK INTER + INTRA:          -3.324
REMARK INTER:                  -3.767
REMARK INTRA:                   0.443
REMARK UNBOUND:                 0.443
REMARK SMILES CC1=CCC[C@H](C)C(=O)C[C@H](C(C)C)C(=O)C1
REMARK SMILES IDX 8 1 9 2 6 3 7 4 5 5 4 6 3 7 2 8 1 9 10 11 11 12 15 13 16 14
REMARK SMILES IDX 17 15 12 17 13 18 14 19
REMARK H PARENT
REMARK Flexibility Score: 70.00
ROOT
ATOM      1  C   UNL     1      10.312 -32.356  13.187  1.00  0.00     0.136 C 
ATOM      2  O   UNL     1      10.966 -31.358  13.448  1.00  0.00    -0.299 OA
ENDROOT
BRANCH   1   3
ATOM      3  C   UNL     1      11.028 -33.666  12.908  1.00  0.00     0.053 C 
ATOM      4  C   UNL     1      12.505 -33.567  13.317  1.00  0.00     0.016 C 
BRANCH   3   5
ATOM      5  C   UNL     1      10.312 -34.838  13.639  1.00  0.00     0.015 C 
BRANCH   5   6
ATOM      6  C   UNL     1       9.112 -35.432  12.875  1.00  0.00     0.028 C 
BRANCH   6   7
ATOM      7  C   UNL     1       8.029 -36.052  13.732  1.00  0.00    -0.028 C 
ATOM      8  C   UNL     1       6.882 -35.456  14.129  1.00  0.00    -0.070 CG0
ATOM      9  C   UNL     1       6.001 -36.203  15.100  1.00  0.00     0.039 C 
ATOM     10  G   UNL     1       6.447 -34.081  13.657  1.00  0.00     0.000 G0
ENDBRANCH   6   7
ENDBRANCH   5   6
ENDBRANCH   3   5
ENDBRANCH   1   3
BRANCH   1  11
ATOM     11  C   UNL     1       8.801 -32.274  13.175  1.00  0.00     0.087 C 
BRANCH  11  12
ATOM     12  C   UNL     1       8.143 -32.232  14.589  1.00  0.00     0.066 C 
BRANCH  12  13
ATOM     13  C   UNL     1       6.814 -32.984  14.646  1.00  0.00     0.140 C 
ATOM     14  O   UNL     1       5.980 -32.673  15.482  1.00  0.00    -0.299 OA
BRANCH  13  15
ATOM     15  C   UNL     1       6.464 -34.076  13.660  1.00  0.00     0.106 CG0
ATOM     16  G   UNL     1       6.883 -35.456  14.132  1.00  0.00     0.000 G0
ENDBRANCH  13  15
ENDBRANCH  12  13
BRANCH  12  17
ATOM     17  C   UNL     1       9.094 -32.604  15.775  1.00  0.00    -0.006 C 
ATOM     18  C   UNL     1       8.570 -33.818  16.559  1.00  0.00     0.008 C 
ATOM     19  C   UNL     1       9.382 -31.446  16.746  1.00  0.00     0.008 C 
ENDBRANCH  12  17
ENDBRANCH  11  12
ENDBRANCH   1  11
TORSDOF 1
ENDMDL
MODEL 2
REMARK VINA RESULT:    -2.425      2.528      5.507
REMARK INTER + INTRA:          -3.257
REMARK INTER:                  -3.274
REMARK INTRA:                   0.016
REMARK UNBOUND:                 0.443
REMARK SMILES CC1=CCC[C@H](C)C(=O)C[C@H](C(C)C)C(=O)C1
REMARK SMILES IDX 8 1 9 2 6 3 7 4 5 5 4 6 3 7 2 8 1 9 10 11 11 12 15 13 16 14
REMARK SMILES IDX 17 15 12 17 13 18 14 19
REMARK H PARENT
REMARK Flexibility Score: 70.00
ROOT
ATOM      1  C   UNL     1       8.115 -32.309  16.410  1.00  0.00     0.136 C 
ATOM      2  O   UNL     1       6.956 -32.058  16.118  1.00  0.00    -0.299 OA
ENDROOT
BRANCH   1   3
ATOM      3  C   UNL     1       8.766 -31.578  17.572  1.00  0.00     0.053 C 
ATOM      4  C   UNL     1       8.398 -32.252  18.902  1.00  0.00     0.016 C 
BRANCH   3   5
ATOM      5  C   UNL     1      10.307 -31.515  17.371  1.00  0.00     0.015 C 
BRANCH   5   6
ATOM      6  C   UNL     1      10.786 -30.393  16.429  1.00  0.00     0.028 C 
BRANCH   6   7
ATOM      7  C   UNL     1      12.094 -30.651  15.711  1.00  0.00    -0.028 C 
ATOM      8  C   UNL     1      12.237 -31.171  14.470  1.00  0.00    -0.070 CG0
ATOM      9  C   UNL     1      13.636 -31.479  13.995  1.00  0.00     0.039 C 
ATOM     10  G   UNL     1      11.070 -31.465  13.546  1.00  0.00     0.000 G0
ENDBRANCH   6   7
ENDBRANCH   5   6
ENDBRANCH   3   5
ENDBRANCH   1   3
BRANCH   1  11
ATOM     11  C   UNL     1       8.870 -33.362  15.628  1.00  0.00     0.087 C 
BRANCH  11  12
ATOM     12  C   UNL     1       9.021 -33.055  14.106  1.00  0.00     0.066 C 
BRANCH  12  13
ATOM     13  C   UNL     1      10.474 -32.841  13.687  1.00  0.00     0.140 C 
ATOM     14  O   UNL     1      11.177 -33.807  13.433  1.00  0.00    -0.299 OA
BRANCH  13  15
ATOM     15  C   UNL     1      11.070 -31.462  13.518  1.00  0.00     0.106 CG0
ATOM     16  G   UNL     1      12.215 -31.190  14.476  1.00  0.00     0.000 G0
ENDBRANCH  13  15
ENDBRANCH  12  13
BRANCH  12  17
ATOM     17  C   UNL     1       8.259 -34.036  13.153  1.00  0.00    -0.006 C 
ATOM     18  C   UNL     1       6.757 -33.712  13.095  1.00  0.00     0.008 C 
ATOM     19  C   UNL     1       8.455 -35.525  13.484  1.00  0.00     0.008 C 
ENDBRANCH  12  17
ENDBRANCH  11  12
ENDBRANCH   1  11
TORSDOF 1
ENDMDL
MODEL 3
REMARK VINA RESULT:    -2.241      1.661      3.938
REMARK INTER + INTRA:          -2.977
REMARK INTER:                  -3.800
REMARK INTRA:                   0.823
REMARK UNBOUND:                 0.443
REMARK SMILES CC1=CCC[C@H](C)C(=O)C[C@H](C(C)C)C(=O)C1
REMARK SMILES IDX 8 1 9 2 6 3 7 4 5 5 4 6 3 7 2 8 1 9 10 11 11 12 15 13 16 14
REMARK SMILES IDX 17 15 12 17 13 18 14 19
REMARK H PARENT
REMARK Flexibility Score: 70.00
ROOT
ATOM      1  C   UNL     1       7.724 -34.727  16.369  1.00  0.00     0.136 C 
ATOM      2  O   UNL     1       8.119 -34.969  17.500  1.00  0.00    -0.299 OA
ENDROOT
BRANCH   1   3
ATOM      3  C   UNL     1       7.194 -35.857  15.505  1.00  0.00     0.053 C 
ATOM      4  C   UNL     1       6.333 -36.814  16.343  1.00  0.00     0.016 C 
BRANCH   3   5
ATOM      5  C   UNL     1       6.399 -35.284  14.297  1.00  0.00     0.015 C 
BRANCH   5   6
ATOM      6  C   UNL     1       7.132 -35.376  12.945  1.00  0.00     0.028 C 
BRANCH   6   7
ATOM      7  C   UNL     1       8.639 -35.490  13.021  1.00  0.00    -0.028 C 
ATOM      8  C   UNL     1       9.518 -34.464  13.081  1.00  0.00    -0.070 CG0
ATOM      9  C   UNL     1      10.990 -34.793  13.009  1.00  0.00     0.039 C 
ATOM     10  G   UNL     1       9.101 -33.011  13.209  1.00  0.00     0.000 G0
ENDBRANCH   6   7
ENDBRANCH   5   6
ENDBRANCH   3   5
ENDBRANCH   1   3
BRANCH   1  11
ATOM     11  C   UNL     1       7.744 -33.300  15.863  1.00  0.00     0.087 C 
BRANCH  11  12
ATOM     12  C   UNL     1       9.155 -32.633  15.861  1.00  0.00     0.066 C 
BRANCH  12  13
ATOM     13  C   UNL     1       9.664 -32.331  14.453  1.00  0.00     0.140 C 
ATOM     14  O   UNL     1      10.588 -31.547  14.301  1.00  0.00    -0.299 OA
BRANCH  13  15
ATOM     15  C   UNL     1       9.099 -33.014  13.228  1.00  0.00     0.106 CG0
ATOM     16  G   UNL     1       9.539 -34.460  13.100  1.00  0.00     0.000 G0
ENDBRANCH  13  15
ENDBRANCH  12  13
BRANCH  12  17
ATOM     17  C   UNL     1       9.314 -31.416  16.832  1.00  0.00    -0.006 C 
ATOM     18  C   UNL     1      10.742 -30.847  16.792  1.00  0.00     0.008 C 
ATOM     19  C   UNL     1       8.913 -31.706  18.288  1.00  0.00     0.008 C 
ENDBRANCH  12  17
ENDBRANCH  11  12
ENDBRANCH   1  11
TORSDOF 1
ENDMDL
MODEL 4
REMARK VINA RESULT:    -1.709      1.862      3.618
REMARK INTER + INTRA:          -2.165
REMARK INTER:                  -3.272
REMARK INTRA:                   1.107
REMARK UNBOUND:                 0.443
REMARK SMILES CC1=CCC[C@H](C)C(=O)C[C@H](C(C)C)C(=O)C1
REMARK SMILES IDX 8 1 9 2 6 3 7 4 5 5 4 6 3 7 2 8 1 9 10 11 11 12 15 13 16 14
REMARK SMILES IDX 17 15 12 17 13 18 14 19
REMARK H PARENT
REMARK Flexibility Score: 70.00
ROOT
ATOM      1  C   UNL     1       9.867 -31.442  16.600  1.00  0.00     0.136 C 
ATOM      2  O   UNL     1      10.681 -30.620  16.993  1.00  0.00    -0.299 OA
ENDROOT
BRANCH   1   3
ATOM      3  C   UNL     1       9.137 -32.311  17.608  1.00  0.00     0.053 C 
ATOM      4  C   UNL     1       8.701 -31.474  18.820  1.00  0.00     0.016 C 
BRANCH   3   5
ATOM      5  C   UNL     1       7.923 -33.014  16.934  1.00  0.00     0.015 C 
BRANCH   5   6
ATOM      6  C   UNL     1       8.117 -34.521  16.675  1.00  0.00     0.028 C 
BRANCH   6   7
ATOM      7  C   UNL     1       7.225 -35.125  15.612  1.00  0.00    -0.028 C 
ATOM      8  C   UNL     1       7.059 -34.666  14.350  1.00  0.00    -0.070 CG0
ATOM      9  C   UNL     1       6.013 -35.334  13.492  1.00  0.00     0.039 C 
ATOM     10  G   UNL     1       7.859 -33.517  13.765  1.00  0.00     0.000 G0
ENDBRANCH   6   7
ENDBRANCH   5   6
ENDBRANCH   3   5
ENDBRANCH   1   3
BRANCH   1  11
ATOM     11  C   UNL     1       9.581 -31.557  15.117  1.00  0.00     0.087 C 
BRANCH  11  12
ATOM     12  C   UNL     1      10.311 -32.740  14.407  1.00  0.00     0.066 C 
BRANCH  12  13
ATOM     13  C   UNL     1       9.344 -33.714  13.738  1.00  0.00     0.140 C 
ATOM     14  O   UNL     1       9.777 -34.726  13.208  1.00  0.00    -0.299 OA
BRANCH  13  15
ATOM     15  C   UNL     1       7.846 -33.503  13.754  1.00  0.00     0.106 CG0
ATOM     16  G   UNL     1       7.089 -34.673  14.353  1.00  0.00     0.000 G0
ENDBRANCH  13  15
ENDBRANCH  12  13
BRANCH  12  17
ATOM     17  C   UNL     1      11.490 -32.323  13.466  1.00  0.00    -0.006 C 
ATOM     18  C   UNL     1      12.351 -33.534  13.071  1.00  0.00     0.008 C 
ATOM     19  C   UNL     1      12.389 -31.209  14.028  1.00  0.00     0.008 C 
ENDBRANCH  12  17
ENDBRANCH  11  12
ENDBRANCH   1  11
TORSDOF 1
ENDMDL
MODEL 5
REMARK VINA RESULT:    -1.233      2.144      3.111
REMARK INTER + INTRA:          -1.439
REMARK INTER:                  -2.945
REMARK INTRA:                   1.506
REMARK UNBOUND:                 0.443
REMARK SMILES CC1=CCC[C@H](C)C(=O)C[C@H](C(C)C)C(=O)C1
REMARK SMILES IDX 8 1 9 2 6 3 7 4 5 5 4 6 3 7 2 8 1 9 10 11 11 12 15 13 16 14
REMARK SMILES IDX 17 15 12 17 13 18 14 19
REMARK H PARENT
REMARK Flexibility Score: 70.00
ROOT
ATOM      1  C   UNL     1       6.980 -32.525  14.701  1.00  0.00     0.136 C 
ATOM      2  O   UNL     1       5.895 -32.644  15.249  1.00  0.00    -0.299 OA
ENDROOT
BRANCH   1   3
ATOM      3  C   UNL     1       7.120 -32.895  13.235  1.00  0.00     0.053 C 
ATOM      4  C   UNL     1       8.593 -33.159  12.889  1.00  0.00     0.016 C 
BRANCH   3   5
ATOM      5  C   UNL     1       6.227 -34.125  12.903  1.00  0.00     0.015 C 
BRANCH   5   6
ATOM      6  C   UNL     1       6.890 -35.490  13.170  1.00  0.00     0.028 C 
BRANCH   6   7
ATOM      7  C   UNL     1       6.589 -36.115  14.516  1.00  0.00    -0.028 C 
ATOM      8  C   UNL     1       7.275 -35.913  15.664  1.00  0.00    -0.070 CG0
ATOM      9  C   UNL     1       6.895 -36.744  16.865  1.00  0.00     0.039 C 
ATOM     10  G   UNL     1       8.404 -34.909  15.799  1.00  0.00     0.000 G0
ENDBRANCH   6   7
ENDBRANCH   5   6
ENDBRANCH   3   5
ENDBRANCH   1   3
BRANCH   1  11
ATOM     11  C   UNL     1       8.156 -31.984  15.487  1.00  0.00     0.087 C 
BRANCH  11  12
ATOM     12  C   UNL     1       8.263 -32.523  16.947  1.00  0.00     0.066 C 
BRANCH  12  13
ATOM     13  C   UNL     1       8.309 -34.048  17.012  1.00  0.00     0.140 C 
ATOM     14  O   UNL     1       8.229 -34.609  18.094  1.00  0.00    -0.299 OA
BRANCH  13  15
ATOM     15  C   UNL     1       8.397 -34.906  15.770  1.00  0.00     0.106 CG0
ATOM     16  G   UNL     1       7.275 -35.922  15.671  1.00  0.00     0.000 G0
ENDBRANCH  13  15
ENDBRANCH  12  13
BRANCH  12  17
ATOM     17  C   UNL     1       9.372 -31.851  17.823  1.00  0.00    -0.006 C 
ATOM     18  C   UNL     1       8.804 -31.342  19.158  1.00  0.00     0.008 C 
ATOM     19  C   UNL     1      10.137 -30.716  17.120  1.00  0.00     0.008 C 
ENDBRANCH  12  17
ENDBRANCH  11  12
ENDBRANCH   1  11
TORSDOF 1
ENDMDL
MODEL 6
REMARK VINA RESULT:    -1.201      1.646      3.445
REMARK INTER + INTRA:          -1.390
REMARK INTER:                  -1.729
REMARK INTRA:                   0.339
REMARK UNBOUND:                 0.443
REMARK SMILES CC1=CCC[C@H](C)C(=O)C[C@H](C(C)C)C(=O)C1
REMARK SMILES IDX 8 1 9 2 6 3 7 4 5 5 4 6 3 7 2 8 1 9 10 11 11 12 15 13 16 14
REMARK SMILES IDX 17 15 12 17 13 18 14 19
REMARK H PARENT
REMARK Flexibility Score: 70.00
ROOT
ATOM      1  C   UNL     1      10.487 -32.077  13.400  1.00  0.00     0.136 C 
ATOM      2  O   UNL     1      10.046 -31.031  12.950  1.00  0.00    -0.299 OA
ENDROOT
BRANCH   1   3
ATOM      3  C   UNL     1      11.540 -32.035  14.494  1.00  0.00     0.053 C 
ATOM      4  C   UNL     1      12.947 -31.996  13.881  1.00  0.00     0.016 C 
BRANCH   3   5
ATOM      5  C   UNL     1      11.292 -30.819  15.432  1.00  0.00     0.015 C 
BRANCH   5   6
ATOM      6  C   UNL     1       9.991 -30.897  16.255  1.00  0.00     0.028 C 
BRANCH   6   7
ATOM      7  C   UNL     1       9.610 -32.276  16.751  1.00  0.00    -0.028 C 
ATOM      8  C   UNL     1       8.477 -32.950  16.451  1.00  0.00    -0.070 CG0
ATOM      9  C   UNL     1       8.226 -34.256  17.166  1.00  0.00     0.039 C 
ATOM     10  G   UNL     1       7.452 -32.460  15.446  1.00  0.00     0.000 G0
ENDBRANCH   6   7
ENDBRANCH   5   6
ENDBRANCH   3   5
ENDBRANCH   1   3
BRANCH   1  11
ATOM     11  C   UNL     1       9.956 -33.395  12.878  1.00  0.00     0.087 C 
BRANCH  11  12
ATOM     12  C   UNL     1       8.782 -33.997  13.712  1.00  0.00     0.066 C 
BRANCH  12  13
ATOM     13  C   UNL     1       7.695 -32.972  14.028  1.00  0.00     0.140 C 
ATOM     14  O   UNL     1       6.973 -32.562  13.132  1.00  0.00    -0.299 OA
BRANCH  13  15
ATOM     15  C   UNL     1       7.436 -32.478  15.433  1.00  0.00     0.106 CG0
ATOM     16  G   UNL     1       8.467 -32.969  16.433  1.00  0.00     0.000 G0
ENDBRANCH  13  15
ENDBRANCH  12  13
BRANCH  12  17
ATOM     17  C   UNL     1       8.199 -35.341  13.162  1.00  0.00    -0.006 C 
ATOM     18  C   UNL     1       7.100 -35.898  14.084  1.00  0.00     0.008 C 
ATOM     19  C   UNL     1       9.252 -36.430  12.896  1.00  0.00     0.008 C 
ENDBRANCH  12  17
ENDBRANCH  11  12
ENDBRANCH   1  11
TORSDOF 1
ENDMDL
MODEL 7
REMARK VINA RESULT:    -0.657      1.989      4.139
REMARK INTER + INTRA:          -0.560
REMARK INTER:                  -1.486
REMARK INTRA:                   0.926
REMARK UNBOUND:                 0.443
REMARK SMILES CC1=CCC[C@H](C)C(=O)C[C@H](C(C)C)C(=O)C1
REMARK SMILES IDX 8 1 9 2 6 3 7 4 5 5 4 6 3 7 2 8 1 9 10 11 11 12 15 13 16 14
REMARK SMILES IDX 17 15 12 17 13 18 14 19
REMARK H PARENT
REMARK Flexibility Score: 70.00
ROOT
ATOM      1  C   UNL     1       6.767 -33.350  14.865  1.00  0.00     0.136 C 
ATOM      2  O   UNL     1       6.046 -33.118  13.907  1.00  0.00    -0.299 OA
ENDROOT
BRANCH   1   3
ATOM      3  C   UNL     1       7.374 -34.733  15.026  1.00  0.00     0.053 C 
ATOM      4  C   UNL     1       6.381 -35.676  15.722  1.00  0.00     0.016 C 
BRANCH   3   5
ATOM      5  C   UNL     1       7.815 -35.290  13.642  1.00  0.00     0.015 C 
BRANCH   5   6
ATOM      6  C   UNL     1       9.326 -35.177  13.357  1.00  0.00     0.028 C 
BRANCH   6   7
ATOM      7  C   UNL     1       9.809 -33.815  12.906  1.00  0.00    -0.028 C 
ATOM      8  C   UNL     1      10.275 -32.826  13.703  1.00  0.00    -0.070 CG0
ATOM      9  C   UNL     1      10.574 -31.491  13.064  1.00  0.00     0.039 C 
ATOM     10  G   UNL     1      10.502 -32.989  15.194  1.00  0.00     0.000 G0
ENDBRANCH   6   7
ENDBRANCH   5   6
ENDBRANCH   3   5
ENDBRANCH   1   3
BRANCH   1  11
ATOM     11  C   UNL     1       7.065 -32.247  15.859  1.00  0.00     0.087 C 
BRANCH  11  12
ATOM     12  C   UNL     1       8.348 -32.475  16.716  1.00  0.00     0.066 C 
BRANCH  12  13
ATOM     13  C   UNL     1       9.621 -32.018  16.008  1.00  0.00     0.140 C 
ATOM     14  O   UNL     1       9.997 -30.862  16.127  1.00  0.00    -0.299 OA
BRANCH  13  15
ATOM     15  C   UNL     1      10.478 -32.966  15.198  1.00  0.00     0.106 CG0
ATOM     16  G   UNL     1      10.266 -32.825  13.703  1.00  0.00     0.000 G0
ENDBRANCH  13  15
ENDBRANCH  12  13
BRANCH  12  17
ATOM     17  C   UNL     1       8.261 -31.957  18.190  1.00  0.00    -0.006 C 
ATOM     18  C   UNL     1       9.465 -31.068  18.547  1.00  0.00     0.008 C 
ATOM     19  C   UNL     1       8.105 -33.064  19.246  1.00  0.00     0.008 C 
ENDBRANCH  12  17
ENDBRANCH  11  12
ENDBRANCH   1  11
TORSDOF 1
ENDMDL
MODEL 8
REMARK VINA RESULT:    -0.530      1.882      4.458
REMARK INTER + INTRA:          -0.365
REMARK INTER:                  -3.217
REMARK INTRA:                   2.852
REMARK UNBOUND:                 0.443
REMARK SMILES CC1=CCC[C@H](C)C(=O)C[C@H](C(C)C)C(=O)C1
REMARK SMILES IDX 8 1 9 2 6 3 7 4 5 5 4 6 3 7 2 8 1 9 10 11 11 12 15 13 16 14
REMARK SMILES IDX 17 15 12 17 13 18 14 19
REMARK H PARENT
REMARK Flexibility Score: 70.00
ROOT
ATOM      1  C   UNL     1       7.995 -35.144  14.979  1.00  0.00     0.136 C 
ATOM      2  O   UNL     1       7.611 -35.339  16.122  1.00  0.00    -0.299 OA
ENDROOT
BRANCH   1   3
ATOM      3  C   UNL     1       6.976 -35.023  13.859  1.00  0.00     0.053 C 
ATOM      4  C   UNL     1       6.196 -36.337  13.700  1.00  0.00     0.016 C 
BRANCH   3   5
ATOM      5  C   UNL     1       6.023 -33.823  14.127  1.00  0.00     0.015 C 
BRANCH   5   6
ATOM      6  C   UNL     1       6.736 -32.474  14.348  1.00  0.00     0.028 C 
BRANCH   6   7
ATOM      7  C   UNL     1       7.270 -32.234  15.744  1.00  0.00    -0.028 C 
ATOM      8  C   UNL     1       8.564 -32.040  16.085  1.00  0.00    -0.070 CG0
ATOM      9  C   UNL     1       8.900 -31.959  17.554  1.00  0.00     0.039 C 
ATOM     10  G   UNL     1       9.686 -31.909  15.072  1.00  0.00     0.000 G0
ENDBRANCH   6   7
ENDBRANCH   5   6
ENDBRANCH   3   5
ENDBRANCH   1   3
BRANCH   1  11
ATOM     11  C   UNL     1       9.477 -35.000  14.705  1.00  0.00     0.087 C 
BRANCH  11  12
ATOM     12  C   UNL     1       9.827 -34.064  13.507  1.00  0.00     0.066 C 
BRANCH  12  13
ATOM     13  C   UNL     1       9.414 -32.614  13.749  1.00  0.00     0.140 C 
ATOM     14  O   UNL     1       8.797 -32.010  12.886  1.00  0.00    -0.299 OA
BRANCH  13  15
ATOM     15  C   UNL     1       9.695 -31.903  15.054  1.00  0.00     0.106 CG0
ATOM     16  G   UNL     1       8.580 -32.065  16.069  1.00  0.00     0.000 G0
ENDBRANCH  13  15
ENDBRANCH  12  13
BRANCH  12  17
ATOM     17  C   UNL     1      11.292 -34.191  12.972  1.00  0.00    -0.006 C 
ATOM     18  C   UNL     1      11.988 -35.446  13.525  1.00  0.00     0.008 C 
ATOM     19  C   UNL     1      12.172 -32.956  13.230  1.00  0.00     0.008 C 
ENDBRANCH  12  17
ENDBRANCH  11  12
ENDBRANCH   1  11
TORSDOF 1
ENDMDL
MODEL 9
REMARK VINA RESULT:    -0.245      1.486      2.382
REMARK INTER + INTRA:           0.070
REMARK INTER:                  -1.767
REMARK INTRA:                   1.837
REMARK UNBOUND:                 0.443
REMARK SMILES CC1=CCC[C@H](C)C(=O)C[C@H](C(C)C)C(=O)C1
REMARK SMILES IDX 8 1 9 2 6 3 7 4 5 5 4 6 3 7 2 8 1 9 10 11 11 12 15 13 16 14
REMARK SMILES IDX 17 15 12 17 13 18 14 19
REMARK H PARENT
REMARK Flexibility Score: 70.00
ROOT
ATOM      1  C   UNL     1      10.570 -31.770  14.963  1.00  0.00     0.136 C 
ATOM      2  O   UNL     1      11.527 -31.117  14.577  1.00  0.00    -0.299 OA
ENDROOT
BRANCH   1   3
ATOM      3  C   UNL     1       9.706 -32.500  13.949  1.00  0.00     0.053 C 
ATOM      4  C   UNL     1       9.198 -31.524  12.878  1.00  0.00     0.016 C 
BRANCH   3   5
ATOM      5  C   UNL     1      10.499 -33.679  13.316  1.00  0.00     0.015 C 
BRANCH   5   6
ATOM      6  C   UNL     1      10.000 -35.079  13.724  1.00  0.00     0.028 C 
BRANCH   6   7
ATOM      7  C   UNL     1       8.498 -35.237  13.828  1.00  0.00    -0.028 C 
ATOM      8  C   UNL     1       7.730 -34.905  14.891  1.00  0.00    -0.070 CG0
ATOM      9  C   UNL     1       6.267 -35.276  14.844  1.00  0.00     0.039 C 
ATOM     10  G   UNL     1       8.263 -34.193  16.120  1.00  0.00     0.000 G0
ENDBRANCH   6   7
ENDBRANCH   5   6
ENDBRANCH   3   5
ENDBRANCH   1   3
BRANCH   1  11
ATOM     11  C   UNL     1      10.280 -31.862  16.446  1.00  0.00     0.087 C 
BRANCH  11  12
ATOM     12  C   UNL     1       8.780 -31.661  16.827  1.00  0.00     0.066 C 
BRANCH  12  13
ATOM     13  C   UNL     1       7.866 -32.715  16.206  1.00  0.00     0.140 C 
ATOM     14  O   UNL     1       6.811 -32.373  15.695  1.00  0.00    -0.299 OA
BRANCH  13  15
ATOM     15  C   UNL     1       8.244 -34.178  16.149  1.00  0.00     0.106 CG0
ATOM     16  G   UNL     1       7.730 -34.875  14.904  1.00  0.00     0.000 G0
ENDBRANCH  13  15
ENDBRANCH  12  13
BRANCH  12  17
ATOM     17  C   UNL     1       8.506 -31.452  18.354  1.00  0.00    -0.006 C 
ATOM     18  C   UNL     1       9.799 -31.126  19.119  1.00  0.00     0.008 C 
ATOM     19  C   UNL     1       7.782 -32.625  19.036  1.00  0.00     0.008 C 
ENDBRANCH  12  17
ENDBRANCH  11  12
ENDBRANCH   1  11
TORSDOF 1
ENDMDL
