MODEL 1
REMARK VINA RESULT:    10.360      0.000      0.000
REMARK INTER + INTRA:          18.472
REMARK INTER:                  18.839
REMARK INTRA:                  -0.367
REMARK UNBOUND:                -0.367
REMARK SMILES CCCCCCCCCCCCCCCC(=O)[O-]
REMARK SMILES IDX 9 1 10 2 11 3 12 4 13 5 14 6 15 7 16 8 17 9 18 10 8 11 7 12
REMARK SMILES IDX 6 13 5 14 4 15 3 16 2 17 1 18
REMARK H PARENT
REMARK Flexibility Score: inf
ROOT
ATOM      1  C   UNL     1      14.215  13.811  16.717  1.00  0.00     0.000 C 
ENDROOT
BRANCH   1   2
ATOM      2  C   UNL     1      13.860  15.283  16.996  1.00  0.00     0.000 C 
BRANCH   2   3
ATOM      3  C   UNL     1      14.720  15.962  18.082  1.00  0.00     0.000 C 
BRANCH   3   4
ATOM      4  C   UNL     1      15.386  17.284  17.653  1.00  0.00     0.000 C 
BRANCH   4   5
ATOM      5  C   UNL     1      16.500  17.789  18.591  1.00  0.00     0.000 C 
BRANCH   5   6
ATOM      6  C   UNL     1      16.028  18.738  19.707  1.00  0.00     0.006 C 
BRANCH   6   7
ATOM      7  C   UNL     1      17.095  19.763  20.111  1.00  0.00     0.053 C 
BRANCH   7   8
ATOM      8  C   UNL     1      16.857  21.066  19.418  1.00  0.00     0.041 C 
ATOM      9  O   UNL     1      15.712  21.591  19.430  1.00  0.00    -0.550 OA
ATOM     10  O   UNL     1      17.911  21.727  18.799  1.00  0.00    -0.550 OA
ENDBRANCH   7   8
ENDBRANCH   6   7
ENDBRANCH   5   6
ENDBRANCH   4   5
ENDBRANCH   3   4
ENDBRANCH   2   3
ENDBRANCH   1   2
BRANCH   1  11
ATOM     11  C   UNL     1      13.837  12.877  17.880  1.00  0.00     0.000 C 
BRANCH  11  12
ATOM     12  C   UNL     1      12.712  11.896  17.509  1.00  0.00    -0.000 C 
BRANCH  12  13
ATOM     13  C   UNL     1      11.565  12.579  16.744  1.00  0.00    -0.000 C 
BRANCH  13  14
ATOM     14  C   UNL     1      10.275  11.742  16.746  1.00  0.00    -0.000 C 
BRANCH  14  15
ATOM     15  C   UNL     1       9.022  12.581  17.039  1.00  0.00    -0.000 C 
BRANCH  15  16
ATOM     16  C   UNL     1       8.176  12.762  15.769  1.00  0.00    -0.000 C 
BRANCH  16  17
ATOM     17  C   UNL     1       8.973  12.489  14.485  1.00  0.00    -0.003 C 
ATOM     18  C   UNL     1       8.582  11.171  13.815  1.00  0.00     0.004 C 
ENDBRANCH  16  17
ENDBRANCH  15  16
ENDBRANCH  14  15
ENDBRANCH  13  14
ENDBRANCH  12  13
ENDBRANCH  11  12
ENDBRANCH   1  11
TORSDOF 14
ENDMDL
MODEL 2
REMARK VINA RESULT:    10.528      4.379      9.411
REMARK INTER + INTRA:          18.777
REMARK INTER:                  19.196
REMARK INTRA:                  -0.419
REMARK UNBOUND:                -0.367
REMARK SMILES CCCCCCCCCCCCCCCC(=O)[O-]
REMARK SMILES IDX 9 1 10 2 11 3 12 4 13 5 14 6 15 7 16 8 17 9 18 10 8 11 7 12
REMARK SMILES IDX 6 13 5 14 4 15 3 16 2 17 1 18
REMARK H PARENT
REMARK Flexibility Score: inf
ROOT
ATOM      1  C   UNL     1      14.588  12.955  16.620  1.00  0.00     0.000 C 
ENDROOT
BRANCH   1   2
ATOM      2  C   UNL     1      13.867  11.721  17.194  1.00  0.00     0.000 C 
BRANCH   2   3
ATOM      3  C   UNL     1      12.437  11.986  17.706  1.00  0.00     0.000 C 
BRANCH   3   4
ATOM      4  C   UNL     1      11.426  12.410  16.623  1.00  0.00     0.000 C 
BRANCH   4   5
ATOM      5  C   UNL     1      10.054  11.711  16.699  1.00  0.00     0.000 C 
BRANCH   5   6
ATOM      6  C   UNL     1       8.852  12.657  16.868  1.00  0.00     0.006 C 
BRANCH   6   7
ATOM      7  C   UNL     1       7.927  12.672  15.645  1.00  0.00     0.053 C 
BRANCH   7   8
ATOM      8  C   UNL     1       8.672  12.241  14.422  1.00  0.00     0.041 C 
ATOM      9  O   UNL     1       9.406  13.058  13.806  1.00  0.00    -0.550 OA
ATOM     10  O   UNL     1       8.595  10.923  13.989  1.00  0.00    -0.550 OA
ENDBRANCH   7   8
ENDBRANCH   6   7
ENDBRANCH   5   6
ENDBRANCH   4   5
ENDBRANCH   3   4
ENDBRANCH   2   3
ENDBRANCH   1   2
BRANCH   1  11
ATOM     11  C   UNL     1      14.487  14.184  17.541  1.00  0.00     0.000 C 
BRANCH  11  12
ATOM     12  C   UNL     1      13.902  15.412  16.826  1.00  0.00    -0.000 C 
BRANCH  12  13
ATOM     13  C   UNL     1      14.193  16.724  17.577  1.00  0.00    -0.000 C 
BRANCH  13  14
ATOM     14  C   UNL     1      15.670  16.855  17.984  1.00  0.00    -0.000 C 
BRANCH  14  15
ATOM     15  C   UNL     1      16.098  18.314  18.208  1.00  0.00    -0.000 C 
BRANCH  15  16
ATOM     16  C   UNL     1      16.869  18.461  19.528  1.00  0.00    -0.000 C 
BRANCH  16  17
ATOM     17  C   UNL     1      16.625  19.817  20.207  1.00  0.00    -0.003 C 
ATOM     18  C   UNL     1      16.915  21.001  19.285  1.00  0.00     0.004 C 
ENDBRANCH  16  17
ENDBRANCH  15  16
ENDBRANCH  14  15
ENDBRANCH  13  14
ENDBRANCH  12  13
ENDBRANCH  11  12
ENDBRANCH   1  11
TORSDOF 14
ENDMDL
MODEL 3
REMARK VINA RESULT:    10.641      0.937      1.583
REMARK INTER + INTRA:          18.983
REMARK INTER:                  19.675
REMARK INTRA:                  -0.692
REMARK UNBOUND:                -0.367
REMARK SMILES CCCCCCCCCCCCCCCC(=O)[O-]
REMARK SMILES IDX 9 1 10 2 11 3 12 4 13 5 14 6 15 7 16 8 17 9 18 10 8 11 7 12
REMARK SMILES IDX 6 13 5 14 4 15 3 16 2 17 1 18
REMARK H PARENT
REMARK Flexibility Score: inf
ROOT
ATOM      1  C   UNL     1      14.346  14.085  17.359  1.00  0.00     0.000 C 
ENDROOT
BRANCH   1   2
ATOM      2  C   UNL     1      13.752  15.463  17.009  1.00  0.00     0.000 C 
BRANCH   2   3
ATOM      3  C   UNL     1      14.558  16.668  17.534  1.00  0.00     0.000 C 
BRANCH   3   4
ATOM      4  C   UNL     1      16.053  16.392  17.785  1.00  0.00     0.000 C 
BRANCH   4   5
ATOM      5  C   UNL     1      16.849  17.578  18.367  1.00  0.00     0.000 C 
BRANCH   5   6
ATOM      6  C   UNL     1      16.019  18.567  19.205  1.00  0.00     0.006 C 
BRANCH   6   7
ATOM      7  C   UNL     1      16.886  19.518  20.038  1.00  0.00     0.053 C 
BRANCH   7   8
ATOM      8  C   UNL     1      16.712  20.929  19.571  1.00  0.00     0.041 C 
ATOM      9  O   UNL     1      15.677  21.576  19.882  1.00  0.00    -0.550 OA
ATOM     10  O   UNL     1      17.715  21.546  18.834  1.00  0.00    -0.550 OA
ENDBRANCH   7   8
ENDBRANCH   6   7
ENDBRANCH   5   6
ENDBRANCH   4   5
ENDBRANCH   3   4
ENDBRANCH   2   3
ENDBRANCH   1   2
BRANCH   1  11
ATOM     11  C   UNL     1      13.562  12.922  16.725  1.00  0.00     0.000 C 
BRANCH  11  12
ATOM     12  C   UNL     1      12.917  12.003  17.775  1.00  0.00    -0.000 C 
BRANCH  12  13
ATOM     13  C   UNL     1      11.409  11.806  17.537  1.00  0.00    -0.000 C 
BRANCH  13  14
ATOM     14  C   UNL     1      10.836  12.814  16.528  1.00  0.00    -0.000 C 
BRANCH  14  15
ATOM     15  C   UNL     1       9.829  12.176  15.558  1.00  0.00    -0.000 C 
BRANCH  15  16
ATOM     16  C   UNL     1       8.422  12.756  15.770  1.00  0.00    -0.000 C 
BRANCH  16  17
ATOM     17  C   UNL     1       8.152  13.128  17.236  1.00  0.00    -0.003 C 
ATOM     18  C   UNL     1       7.940  14.629  17.436  1.00  0.00     0.004 C 
ENDBRANCH  16  17
ENDBRANCH  15  16
ENDBRANCH  14  15
ENDBRANCH  13  14
ENDBRANCH  12  13
ENDBRANCH  11  12
ENDBRANCH   1  11
TORSDOF 14
ENDMDL
MODEL 4
REMARK VINA RESULT:    10.814      2.412      3.086
REMARK INTER + INTRA:          19.297
REMARK INTER:                  20.032
REMARK INTRA:                  -0.735
REMARK UNBOUND:                -0.367
REMARK SMILES CCCCCCCCCCCCCCCC(=O)[O-]
REMARK SMILES IDX 9 1 10 2 11 3 12 4 13 5 14 6 15 7 16 8 17 9 18 10 8 11 7 12
REMARK SMILES IDX 6 13 5 14 4 15 3 16 2 17 1 18
REMARK H PARENT
REMARK Flexibility Score: inf
ROOT
ATOM      1  C   UNL     1      13.881  13.282  16.709  1.00  0.00     0.000 C 
ENDROOT
BRANCH   1   2
ATOM      2  C   UNL     1      14.217  14.723  17.137  1.00  0.00     0.000 C 
BRANCH   2   3
ATOM      3  C   UNL     1      13.401  15.818  16.420  1.00  0.00     0.000 C 
BRANCH   3   4
ATOM      4  C   UNL     1      13.957  17.247  16.570  1.00  0.00     0.000 C 
BRANCH   4   5
ATOM      5  C   UNL     1      13.483  18.249  15.498  1.00  0.00     0.000 C 
BRANCH   5   6
ATOM      6  C   UNL     1      13.851  19.718  15.775  1.00  0.00     0.006 C 
BRANCH   6   7
ATOM      7  C   UNL     1      15.033  20.207  14.929  1.00  0.00     0.053 C 
BRANCH   7   8
ATOM      8  C   UNL     1      15.620  21.449  15.520  1.00  0.00     0.041 C 
ATOM      9  O   UNL     1      16.568  22.041  14.939  1.00  0.00    -0.550 OA
ATOM     10  O   UNL     1      15.088  21.982  16.687  1.00  0.00    -0.550 OA
ENDBRANCH   7   8
ENDBRANCH   6   7
ENDBRANCH   5   6
ENDBRANCH   4   5
ENDBRANCH   3   4
ENDBRANCH   2   3
ENDBRANCH   1   2
BRANCH   1  11
ATOM     11  C   UNL     1      13.448  12.397  17.892  1.00  0.00     0.000 C 
BRANCH  11  12
ATOM     12  C   UNL     1      11.927  12.184  17.946  1.00  0.00    -0.000 C 
BRANCH  12  13
ATOM     13  C   UNL     1      11.259  12.360  16.570  1.00  0.00    -0.000 C 
BRANCH  13  14
ATOM     14  C   UNL     1      10.071  11.405  16.366  1.00  0.00    -0.000 C 
BRANCH  14  15
ATOM     15  C   UNL     1       9.132  11.857  15.236  1.00  0.00    -0.000 C 
BRANCH  15  16
ATOM     16  C   UNL     1       8.355  13.118  15.643  1.00  0.00    -0.000 C 
BRANCH  16  17
ATOM     17  C   UNL     1       7.880  13.074  17.103  1.00  0.00    -0.003 C 
ATOM     18  C   UNL     1       7.876  14.452  17.766  1.00  0.00     0.004 C 
ENDBRANCH  16  17
ENDBRANCH  15  16
ENDBRANCH  14  15
ENDBRANCH  13  14
ENDBRANCH  12  13
ENDBRANCH  11  12
ENDBRANCH   1  11
TORSDOF 14
ENDMDL
MODEL 5
REMARK VINA RESULT:    11.183      4.771      9.096
REMARK INTER + INTRA:          19.969
REMARK INTER:                  20.416
REMARK INTRA:                  -0.447
REMARK UNBOUND:                -0.367
REMARK SMILES CCCCCCCCCCCCCCCC(=O)[O-]
REMARK SMILES IDX 9 1 10 2 11 3 12 4 13 5 14 6 15 7 16 8 17 9 18 10 8 11 7 12
REMARK SMILES IDX 6 13 5 14 4 15 3 16 2 17 1 18
REMARK H PARENT
REMARK Flexibility Score: inf
ROOT
ATOM      1  C   UNL     1      14.015  14.075  16.732  1.00  0.00     0.000 C 
ENDROOT
BRANCH   1   2
ATOM      2  C   UNL     1      14.033  12.595  17.158  1.00  0.00     0.000 C 
BRANCH   2   3
ATOM      3  C   UNL     1      12.647  11.992  17.467  1.00  0.00     0.000 C 
BRANCH   3   4
ATOM      4  C   UNL     1      11.466  12.673  16.747  1.00  0.00     0.000 C 
BRANCH   4   5
ATOM      5  C   UNL     1      10.154  11.863  16.735  1.00  0.00     0.000 C 
BRANCH   5   6
ATOM      6  C   UNL     1       8.876  12.697  16.940  1.00  0.00     0.006 C 
BRANCH   6   7
ATOM      7  C   UNL     1       7.933  12.650  15.732  1.00  0.00     0.053 C 
BRANCH   7   8
ATOM      8  C   UNL     1       8.680  12.246  14.501  1.00  0.00     0.041 C 
ATOM      9  O   UNL     1       9.382  13.087  13.880  1.00  0.00    -0.550 OA
ATOM     10  O   UNL     1       8.641  10.926  14.067  1.00  0.00    -0.550 OA
ENDBRANCH   7   8
ENDBRANCH   6   7
ENDBRANCH   5   6
ENDBRANCH   4   5
ENDBRANCH   3   4
ENDBRANCH   2   3
ENDBRANCH   1   2
BRANCH   1  11
ATOM     11  C   UNL     1      14.588  15.010  17.811  1.00  0.00     0.000 C 
BRANCH  11  12
ATOM     12  C   UNL     1      14.352  16.495  17.492  1.00  0.00    -0.000 C 
BRANCH  12  13
ATOM     13  C   UNL     1      13.600  16.700  16.164  1.00  0.00    -0.000 C 
BRANCH  13  14
ATOM     14  C   UNL     1      13.207  18.168  15.930  1.00  0.00    -0.000 C 
BRANCH  14  15
ATOM     15  C   UNL     1      14.378  19.022  15.418  1.00  0.00    -0.000 C 
BRANCH  15  16
ATOM     16  C   UNL     1      14.065  20.519  15.560  1.00  0.00    -0.000 C 
BRANCH  16  17
ATOM     17  C   UNL     1      15.269  21.329  16.066  1.00  0.00    -0.003 C 
ATOM     18  C   UNL     1      16.271  21.653  14.959  1.00  0.00     0.004 C 
ENDBRANCH  16  17
ENDBRANCH  15  16
ENDBRANCH  14  15
ENDBRANCH  13  14
ENDBRANCH  12  13
ENDBRANCH  11  12
ENDBRANCH   1  11
TORSDOF 14
ENDMDL
MODEL 6
REMARK VINA RESULT:    11.428      4.354      9.507
REMARK INTER + INTRA:          20.414
REMARK INTER:                  21.077
REMARK INTRA:                  -0.663
REMARK UNBOUND:                -0.367
REMARK SMILES CCCCCCCCCCCCCCCC(=O)[O-]
REMARK SMILES IDX 9 1 10 2 11 3 12 4 13 5 14 6 15 7 16 8 17 9 18 10 8 11 7 12
REMARK SMILES IDX 6 13 5 14 4 15 3 16 2 17 1 18
REMARK H PARENT
REMARK Flexibility Score: inf
ROOT
ATOM      1  C   UNL     1      14.252  16.397  17.498  1.00  0.00     0.000 C 
ENDROOT
BRANCH   1   2
ATOM      2  C   UNL     1      14.075  15.068  16.739  1.00  0.00     0.000 C 
BRANCH   2   3
ATOM      3  C   UNL     1      14.275  13.801  17.595  1.00  0.00     0.000 C 
BRANCH   3   4
ATOM      4  C   UNL     1      13.690  12.509  16.993  1.00  0.00     0.000 C 
BRANCH   4   5
ATOM      5  C   UNL     1      12.265  12.155  17.461  1.00  0.00     0.000 C 
BRANCH   5   6
ATOM      6  C   UNL     1      11.135  12.694  16.565  1.00  0.00     0.006 C 
BRANCH   6   7
ATOM      7  C   UNL     1      10.054  11.647  16.273  1.00  0.00     0.053 C 
BRANCH   7   8
ATOM      8  C   UNL     1       8.909  12.268  15.537  1.00  0.00     0.041 C 
ATOM      9  O   UNL     1       8.740  12.032  14.311  1.00  0.00    -0.550 OA
ATOM     10  O   UNL     1       8.000  13.070  16.215  1.00  0.00    -0.550 OA
ENDBRANCH   7   8
ENDBRANCH   6   7
ENDBRANCH   5   6
ENDBRANCH   4   5
ENDBRANCH   3   4
ENDBRANCH   2   3
ENDBRANCH   1   2
BRANCH   1  11
ATOM     11  C   UNL     1      15.604  16.489  18.226  1.00  0.00     0.000 C 
BRANCH  11  12
ATOM     12  C   UNL     1      16.190  17.910  18.209  1.00  0.00    -0.000 C 
BRANCH  12  13
ATOM     13  C   UNL     1      16.221  18.551  19.608  1.00  0.00    -0.000 C 
BRANCH  13  14
ATOM     14  C   UNL     1      17.012  19.870  19.635  1.00  0.00    -0.000 C 
BRANCH  14  15
ATOM     15  C   UNL     1      16.122  21.100  19.402  1.00  0.00    -0.000 C 
BRANCH  15  16
ATOM     16  C   UNL     1      16.509  21.816  18.099  1.00  0.00    -0.000 C 
BRANCH  16  17
ATOM     17  C   UNL     1      15.362  21.844  17.077  1.00  0.00    -0.003 C 
ATOM     18  C   UNL     1      15.836  21.570  15.649  1.00  0.00     0.004 C 
ENDBRANCH  16  17
ENDBRANCH  15  16
ENDBRANCH  14  15
ENDBRANCH  13  14
ENDBRANCH  12  13
ENDBRANCH  11  12
ENDBRANCH   1  11
TORSDOF 14
ENDMDL
MODEL 7
REMARK VINA RESULT:    12.069      5.931      7.834
REMARK INTER + INTRA:          21.579
REMARK INTER:                  22.161
REMARK INTRA:                  -0.582
REMARK UNBOUND:                -0.367
REMARK SMILES CCCCCCCCCCCCCCCC(=O)[O-]
REMARK SMILES IDX 9 1 10 2 11 3 12 4 13 5 14 6 15 7 16 8 17 9 18 10 8 11 7 12
REMARK SMILES IDX 6 13 5 14 4 15 3 16 2 17 1 18
REMARK H PARENT
REMARK Flexibility Score: inf
ROOT
ATOM      1  C   UNL     1      16.080  10.872  15.188  1.00  0.00     0.000 C 
ENDROOT
BRANCH   1   2
ATOM      2  C   UNL     1      16.056   9.404  14.723  1.00  0.00     0.000 C 
BRANCH   2   3
ATOM      3  C   UNL     1      15.962   9.210  13.195  1.00  0.00     0.000 C 
BRANCH   3   4
ATOM      4  C   UNL     1      16.906  10.103  12.366  1.00  0.00     0.000 C 
BRANCH   4   5
ATOM      5  C   UNL     1      16.834   9.891  10.841  1.00  0.00     0.000 C 
BRANCH   5   6
ATOM      6  C   UNL     1      16.595  11.171  10.019  1.00  0.00     0.006 C 
BRANCH   6   7
ATOM      7  C   UNL     1      17.487  12.338  10.459  1.00  0.00     0.053 C 
BRANCH   7   8
ATOM      8  C   UNL     1      16.991  13.623   9.876  1.00  0.00     0.041 C 
ATOM      9  O   UNL     1      15.755  13.853   9.808  1.00  0.00    -0.550 OA
ATOM     10  O   UNL     1      17.896  14.589   9.452  1.00  0.00    -0.550 OA
ENDBRANCH   7   8
ENDBRANCH   6   7
ENDBRANCH   5   6
ENDBRANCH   4   5
ENDBRANCH   3   4
ENDBRANCH   2   3
ENDBRANCH   1   2
BRANCH   1  11
ATOM     11  C   UNL     1      15.024  11.171  16.266  1.00  0.00     0.000 C 
BRANCH  11  12
ATOM     12  C   UNL     1      14.659  12.663  16.340  1.00  0.00    -0.000 C 
BRANCH  12  13
ATOM     13  C   UNL     1      13.540  12.945  17.357  1.00  0.00    -0.000 C 
BRANCH  13  14
ATOM     14  C   UNL     1      12.318  12.033  17.157  1.00  0.00    -0.000 C 
BRANCH  14  15
ATOM     15  C   UNL     1      11.188  12.717  16.371  1.00  0.00    -0.000 C 
BRANCH  15  16
ATOM     16  C   UNL     1       9.833  12.063  16.681  1.00  0.00    -0.000 C 
BRANCH  16  17
ATOM     17  C   UNL     1       8.744  12.453  15.670  1.00  0.00    -0.003 C 
ATOM     18  C   UNL     1       9.011  11.900  14.270  1.00  0.00     0.004 C 
ENDBRANCH  16  17
ENDBRANCH  15  16
ENDBRANCH  14  15
ENDBRANCH  13  14
ENDBRANCH  12  13
ENDBRANCH  11  12
ENDBRANCH   1  11
TORSDOF 14
ENDMDL
MODEL 8
REMARK VINA RESULT:    12.562      1.415      2.178
REMARK INTER + INTRA:          22.477
REMARK INTER:                  23.058
REMARK INTRA:                  -0.581
REMARK UNBOUND:                -0.367
REMARK SMILES CCCCCCCCCCCCCCCC(=O)[O-]
REMARK SMILES IDX 9 1 10 2 11 3 12 4 13 5 14 6 15 7 16 8 17 9 18 10 8 11 7 12
REMARK SMILES IDX 6 13 5 14 4 15 3 16 2 17 1 18
REMARK H PARENT
REMARK Flexibility Score: inf
ROOT
ATOM      1  C   UNL     1      14.231  15.983  17.370  1.00  0.00     0.000 C 
ENDROOT
BRANCH   1   2
ATOM      2  C   UNL     1      15.555  16.537  17.927  1.00  0.00     0.000 C 
BRANCH   2   3
ATOM      3  C   UNL     1      15.474  17.973  18.484  1.00  0.00     0.000 C 
BRANCH   3   4
ATOM      4  C   UNL     1      16.795  18.527  19.051  1.00  0.00     0.000 C 
BRANCH   4   5
ATOM      5  C   UNL     1      16.645  19.736  19.996  1.00  0.00     0.000 C 
BRANCH   5   6
ATOM      6  C   UNL     1      16.007  20.983  19.358  1.00  0.00     0.006 C 
BRANCH   6   7
ATOM      7  C   UNL     1      16.758  21.466  18.110  1.00  0.00     0.053 C 
BRANCH   7   8
ATOM      8  C   UNL     1      15.791  21.863  17.040  1.00  0.00     0.041 C 
ATOM      9  O   UNL     1      14.618  22.207  17.341  1.00  0.00    -0.550 OA
ATOM     10  O   UNL     1      16.200  21.900  15.713  1.00  0.00    -0.550 OA
ENDBRANCH   7   8
ENDBRANCH   6   7
ENDBRANCH   5   6
ENDBRANCH   4   5
ENDBRANCH   3   4
ENDBRANCH   2   3
ENDBRANCH   1   2
BRANCH   1  11
ATOM     11  C   UNL     1      14.365  14.545  16.837  1.00  0.00     0.000 C 
BRANCH  11  12
ATOM     12  C   UNL     1      13.886  13.493  17.850  1.00  0.00    -0.000 C 
BRANCH  12  13
ATOM     13  C   UNL     1      13.034  12.391  17.195  1.00  0.00    -0.000 C 
BRANCH  13  14
ATOM     14  C   UNL     1      11.759  12.944  16.538  1.00  0.00    -0.000 C 
BRANCH  14  15
ATOM     15  C   UNL     1      10.593  11.944  16.568  1.00  0.00    -0.000 C 
BRANCH  15  16
ATOM     16  C   UNL     1       9.255  12.658  16.322  1.00  0.00    -0.000 C 
BRANCH  16  17
ATOM     17  C   UNL     1       8.423  11.988  15.217  1.00  0.00    -0.003 C 
ATOM     18  C   UNL     1       9.154  11.937  13.875  1.00  0.00     0.004 C 
ENDBRANCH  16  17
ENDBRANCH  15  16
ENDBRANCH  14  15
ENDBRANCH  13  14
ENDBRANCH  12  13
ENDBRANCH  11  12
ENDBRANCH   1  11
TORSDOF 14
ENDMDL
