MODEL 1
REMARK VINA RESULT:    -2.304      0.000      0.000
REMARK INTER + INTRA:          -4.441
REMARK INTER:                  -3.382
REMARK INTRA:                  -1.060
REMARK UNBOUND:                -1.060
REMARK SMILES CCCCCCCCCC=O
REMARK SMILES IDX 6 1 5 2 4 3 3 4 2 5 1 6 7 7 8 8 9 9 10 10 11 11
REMARK H PARENT
REMARK Flexibility Score: inf
ROOT
ATOM      1  C   UNL     1     159.898 151.980 138.391  1.00  0.00     0.000 C 
ENDROOT
BRANCH   1   2
ATOM      2  C   UNL     1     159.432 153.452 138.404  1.00  0.00     0.000 C 
BRANCH   2   3
ATOM      3  C   UNL     1     159.067 153.969 139.805  1.00  0.00    -0.000 C 
BRANCH   3   4
ATOM      4  C   UNL     1     157.637 154.528 139.880  1.00  0.00    -0.000 C 
BRANCH   4   5
ATOM      5  C   UNL     1     157.011 154.735 138.493  1.00  0.00    -0.003 C 
ATOM      6  C   UNL     1     155.515 155.043 138.560  1.00  0.00     0.004 C 
ENDBRANCH   4   5
ENDBRANCH   3   4
ENDBRANCH   2   3
ENDBRANCH   1   2
BRANCH   1   7
ATOM      7  C   UNL     1     158.823 151.027 138.943  1.00  0.00     0.000 C 
BRANCH   7   8
ATOM      8  C   UNL     1     157.661 150.813 137.960  1.00  0.00     0.008 C 
BRANCH   8   9
ATOM      9  C   UNL     1     156.292 151.102 138.589  1.00  0.00     0.072 C 
BRANCH   9  10
ATOM     10  C   UNL     1     156.375 151.068 140.085  1.00  0.00     0.224 C 
ATOM     11  O   UNL     1     155.620 151.748 140.764  1.00  0.00    -0.303 OA
ENDBRANCH   9  10
ENDBRANCH   8   9
ENDBRANCH   7   8
ENDBRANCH   1   7
TORSDOF 8
ENDMDL
MODEL 2
REMARK VINA RESULT:    -2.298     12.732     14.835
REMARK INTER + INTRA:          -4.433
REMARK INTER:                  -3.341
REMARK INTRA:                  -1.092
REMARK UNBOUND:                -1.060
REMARK SMILES CCCCCCCCCC=O
REMARK SMILES IDX 6 1 5 2 4 3 3 4 2 5 1 6 7 7 8 8 9 9 10 10 11 11
REMARK H PARENT
REMARK Flexibility Score: inf
ROOT
ATOM      1  C   UNL     1     142.022 149.147 139.296  1.00  0.00     0.000 C 
ENDROOT
BRANCH   1   2
ATOM      2  C   UNL     1     142.164 147.631 139.041  1.00  0.00     0.000 C 
BRANCH   2   3
ATOM      3  C   UNL     1     143.179 146.944 139.971  1.00  0.00    -0.000 C 
BRANCH   3   4
ATOM      4  C   UNL     1     144.410 146.412 139.220  1.00  0.00    -0.000 C 
BRANCH   4   5
ATOM      5  C   UNL     1     144.268 146.532 137.695  1.00  0.00    -0.003 C 
ATOM      6  C   UNL     1     145.561 146.985 137.016  1.00  0.00     0.004 C 
ENDBRANCH   4   5
ENDBRANCH   3   4
ENDBRANCH   2   3
ENDBRANCH   1   2
BRANCH   1   7
ATOM      7  C   UNL     1     142.412 149.980 138.062  1.00  0.00     0.000 C 
BRANCH   7   8
ATOM      8  C   UNL     1     143.919 150.275 137.999  1.00  0.00     0.008 C 
BRANCH   8   9
ATOM      9  C   UNL     1     144.496 150.696 139.358  1.00  0.00     0.072 C 
BRANCH   9  10
ATOM     10  C   UNL     1     145.626 149.796 139.759  1.00  0.00     0.224 C 
ATOM     11  O   UNL     1     145.752 149.441 140.921  1.00  0.00    -0.303 OA
ENDBRANCH   9  10
ENDBRANCH   8   9
ENDBRANCH   7   8
ENDBRANCH   1   7
TORSDOF 8
ENDMDL
MODEL 3
REMARK VINA RESULT:    -2.292      8.907     11.819
REMARK INTER + INTRA:          -4.424
REMARK INTER:                  -3.630
REMARK INTRA:                  -0.794
REMARK UNBOUND:                -1.060
REMARK SMILES CCCCCCCCCC=O
REMARK SMILES IDX 6 1 5 2 4 3 3 4 2 5 1 6 7 7 8 8 9 9 10 10 11 11
REMARK H PARENT
REMARK Flexibility Score: inf
ROOT
ATOM      1  C   UNL     1     146.847 157.910 137.688  1.00  0.00     0.000 C 
ENDROOT
BRANCH   1   2
ATOM      2  C   UNL     1     146.480 156.914 138.810  1.00  0.00     0.000 C 
BRANCH   2   3
ATOM      3  C   UNL     1     147.065 155.508 138.598  1.00  0.00    -0.000 C 
BRANCH   3   4
ATOM      4  C   UNL     1     148.600 155.483 138.668  1.00  0.00    -0.000 C 
BRANCH   4   5
ATOM      5  C   UNL     1     149.135 155.940 140.034  1.00  0.00    -0.003 C 
ATOM      6  C   UNL     1     150.423 156.757 139.921  1.00  0.00     0.004 C 
ENDBRANCH   4   5
ENDBRANCH   3   4
ENDBRANCH   2   3
ENDBRANCH   1   2
BRANCH   1   7
ATOM      7  C   UNL     1     147.419 159.225 138.246  1.00  0.00     0.000 C 
BRANCH   7   8
ATOM      8  C   UNL     1     147.436 159.259 139.782  1.00  0.00     0.008 C 
BRANCH   8   9
ATOM      9  C   UNL     1     147.396 160.687 140.343  1.00  0.00     0.072 C 
BRANCH   9  10
ATOM     10  C   UNL     1     148.743 161.095 140.859  1.00  0.00     0.224 C 
ATOM     11  O   UNL     1     149.754 160.537 140.463  1.00  0.00    -0.303 OA
ENDBRANCH   9  10
ENDBRANCH   8   9
ENDBRANCH   7   8
ENDBRANCH   1   7
TORSDOF 8
ENDMDL
MODEL 4
REMARK VINA RESULT:    -2.262      7.978     10.562
REMARK INTER + INTRA:          -4.380
REMARK INTER:                  -3.507
REMARK INTRA:                  -0.873
REMARK UNBOUND:                -1.060
REMARK SMILES CCCCCCCCCC=O
REMARK SMILES IDX 6 1 5 2 4 3 3 4 2 5 1 6 7 7 8 8 9 9 10 10 11 11
REMARK H PARENT
REMARK Flexibility Score: inf
ROOT
ATOM      1  C   UNL     1     147.122 156.073 139.025  1.00  0.00     0.000 C 
ENDROOT
BRANCH   1   2
ATOM      2  C   UNL     1     146.880 157.588 138.854  1.00  0.00     0.000 C 
BRANCH   2   3
ATOM      3  C   UNL     1     146.835 158.357 140.185  1.00  0.00    -0.000 C 
BRANCH   3   4
ATOM      4  C   UNL     1     147.316 159.811 140.050  1.00  0.00    -0.000 C 
BRANCH   4   5
ATOM      5  C   UNL     1     148.625 159.927 139.256  1.00  0.00    -0.003 C 
ATOM      6  C   UNL     1     149.810 160.346 140.128  1.00  0.00     0.004 C 
ENDBRANCH   4   5
ENDBRANCH   3   4
ENDBRANCH   2   3
ENDBRANCH   1   2
BRANCH   1   7
ATOM      7  C   UNL     1     148.597 155.694 138.806  1.00  0.00     0.000 C 
BRANCH   7   8
ATOM      8  C   UNL     1     149.398 155.651 140.117  1.00  0.00     0.008 C 
BRANCH   8   9
ATOM      9  C   UNL     1     150.530 156.687 140.152  1.00  0.00     0.072 C 
BRANCH   9  10
ATOM     10  C   UNL     1     151.210 156.780 138.820  1.00  0.00     0.224 C 
ATOM     11  O   UNL     1     151.762 157.813 138.476  1.00  0.00    -0.303 OA
ENDBRANCH   9  10
ENDBRANCH   8   9
ENDBRANCH   7   8
ENDBRANCH   1   7
TORSDOF 8
ENDMDL
MODEL 5
REMARK VINA RESULT:    -2.254      8.977     11.173
REMARK INTER + INTRA:          -4.368
REMARK INTER:                  -3.386
REMARK INTRA:                  -0.982
REMARK UNBOUND:                -1.060
REMARK SMILES CCCCCCCCCC=O
REMARK SMILES IDX 6 1 5 2 4 3 3 4 2 5 1 6 7 7 8 8 9 9 10 10 11 11
REMARK H PARENT
REMARK Flexibility Score: inf
ROOT
ATOM      1  C   UNL     1     146.871 156.066 138.651  1.00  0.00     0.000 C 
ENDROOT
BRANCH   1   2
ATOM      2  C   UNL     1     147.770 154.985 138.014  1.00  0.00     0.000 C 
BRANCH   2   3
ATOM      3  C   UNL     1     149.251 155.106 138.411  1.00  0.00    -0.000 C 
BRANCH   3   4
ATOM      4  C   UNL     1     149.444 155.469 139.892  1.00  0.00    -0.000 C 
BRANCH   4   5
ATOM      5  C   UNL     1     150.419 156.640 140.090  1.00  0.00    -0.003 C 
ATOM      6  C   UNL     1     150.769 157.344 138.778  1.00  0.00     0.004 C 
ENDBRANCH   4   5
ENDBRANCH   3   4
ENDBRANCH   2   3
ENDBRANCH   1   2
BRANCH   1   7
ATOM      7  C   UNL     1     146.575 157.221 137.678  1.00  0.00     0.000 C 
BRANCH   7   8
ATOM      8  C   UNL     1     147.258 158.534 138.094  1.00  0.00     0.008 C 
BRANCH   8   9
ATOM      9  C   UNL     1     147.305 158.720 139.617  1.00  0.00     0.072 C 
BRANCH   9  10
ATOM     10  C   UNL     1     147.666 160.131 139.971  1.00  0.00     0.224 C 
ATOM     11  O   UNL     1     147.316 160.611 141.038  1.00  0.00    -0.303 OA
ENDBRANCH   9  10
ENDBRANCH   8   9
ENDBRANCH   7   8
ENDBRANCH   1   7
TORSDOF 8
ENDMDL
MODEL 6
REMARK VINA RESULT:    -2.233     12.643     14.543
REMARK INTER + INTRA:          -4.337
REMARK INTER:                  -3.384
REMARK INTRA:                  -0.953
REMARK UNBOUND:                -1.060
REMARK SMILES CCCCCCCCCC=O
REMARK SMILES IDX 6 1 5 2 4 3 3 4 2 5 1 6 7 7 8 8 9 9 10 10 11 11
REMARK H PARENT
REMARK Flexibility Score: inf
ROOT
ATOM      1  C   UNL     1     145.546 148.692 138.667  1.00  0.00     0.000 C 
ENDROOT
BRANCH   1   2
ATOM      2  C   UNL     1     145.467 147.171 138.916  1.00  0.00     0.000 C 
BRANCH   2   3
ATOM      3  C   UNL     1     144.041 146.604 138.812  1.00  0.00    -0.000 C 
BRANCH   3   4
ATOM      4  C   UNL     1     143.216 146.827 140.090  1.00  0.00    -0.000 C 
BRANCH   4   5
ATOM      5  C   UNL     1     141.855 147.480 139.807  1.00  0.00    -0.003 C 
ATOM      6  C   UNL     1     141.619 147.730 138.317  1.00  0.00     0.004 C 
ENDBRANCH   4   5
ENDBRANCH   3   4
ENDBRANCH   2   3
ENDBRANCH   1   2
BRANCH   1   7
ATOM      7  C   UNL     1     145.685 149.488 139.977  1.00  0.00     0.000 C 
BRANCH   7   8
ATOM      8  C   UNL     1     144.597 150.562 140.135  1.00  0.00     0.008 C 
BRANCH   8   9
ATOM      9  C   UNL     1     143.769 150.757 138.858  1.00  0.00     0.072 C 
BRANCH   9  10
ATOM     10  C   UNL     1     143.836 152.180 138.390  1.00  0.00     0.224 C 
ATOM     11  O   UNL     1     144.606 152.969 138.914  1.00  0.00    -0.303 OA
ENDBRANCH   9  10
ENDBRANCH   8   9
ENDBRANCH   7   8
ENDBRANCH   1   7
TORSDOF 8
ENDMDL
MODEL 7
REMARK VINA RESULT:    -2.227      8.397     10.310
REMARK INTER + INTRA:          -4.329
REMARK INTER:                  -3.252
REMARK INTRA:                  -1.077
REMARK UNBOUND:                -1.060
REMARK SMILES CCCCCCCCCC=O
REMARK SMILES IDX 6 1 5 2 4 3 3 4 2 5 1 6 7 7 8 8 9 9 10 10 11 11
REMARK H PARENT
REMARK Flexibility Score: inf
ROOT
ATOM      1  C   UNL     1     149.878 159.086 138.344  1.00  0.00     0.000 C 
ENDROOT
BRANCH   1   2
ATOM      2  C   UNL     1     148.955 159.441 139.529  1.00  0.00     0.000 C 
BRANCH   2   3
ATOM      3  C   UNL     1     147.461 159.236 139.227  1.00  0.00    -0.000 C 
BRANCH   3   4
ATOM      4  C   UNL     1     146.855 158.047 139.990  1.00  0.00    -0.000 C 
BRANCH   4   5
ATOM      5  C   UNL     1     146.480 156.881 139.063  1.00  0.00    -0.003 C 
ATOM      6  C   UNL     1     146.567 157.253 137.582  1.00  0.00     0.004 C 
ENDBRANCH   4   5
ENDBRANCH   3   4
ENDBRANCH   2   3
ENDBRANCH   1   2
BRANCH   1   7
ATOM      7  C   UNL     1     150.450 157.661 138.461  1.00  0.00     0.000 C 
BRANCH   7   8
ATOM      8  C   UNL     1     150.447 157.140 139.906  1.00  0.00     0.008 C 
BRANCH   8   9
ATOM      9  C   UNL     1     149.848 155.732 140.026  1.00  0.00     0.072 C 
BRANCH   9  10
ATOM     10  C   UNL     1     149.759 155.074 138.682  1.00  0.00     0.224 C 
ATOM     11  O   UNL     1     149.975 153.878 138.562  1.00  0.00    -0.303 OA
ENDBRANCH   9  10
ENDBRANCH   8   9
ENDBRANCH   7   8
ENDBRANCH   1   7
TORSDOF 8
ENDMDL
MODEL 8
REMARK VINA RESULT:    -2.205      8.904     10.915
REMARK INTER + INTRA:          -4.296
REMARK INTER:                  -3.259
REMARK INTRA:                  -1.037
REMARK UNBOUND:                -1.060
REMARK SMILES CCCCCCCCCC=O
REMARK SMILES IDX 6 1 5 2 4 3 3 4 2 5 1 6 7 7 8 8 9 9 10 10 11 11
REMARK H PARENT
REMARK Flexibility Score: inf
ROOT
ATOM      1  C   UNL     1     152.610 145.709 138.697  1.00  0.00     0.000 C 
ENDROOT
BRANCH   1   2
ATOM      2  C   UNL     1     151.812 145.757 140.018  1.00  0.00     0.000 C 
BRANCH   2   3
ATOM      3  C   UNL     1     150.777 144.627 140.151  1.00  0.00    -0.000 C 
BRANCH   3   4
ATOM      4  C   UNL     1     150.324 144.070 138.792  1.00  0.00    -0.000 C 
BRANCH   4   5
ATOM      5  C   UNL     1     150.649 142.577 138.629  1.00  0.00    -0.003 C 
ATOM      6  C   UNL     1     151.207 142.242 137.246  1.00  0.00     0.004 C 
ENDBRANCH   4   5
ENDBRANCH   3   4
ENDBRANCH   2   3
ENDBRANCH   1   2
BRANCH   1   7
ATOM      7  C   UNL     1     154.065 145.258 138.915  1.00  0.00     0.000 C 
BRANCH   7   8
ATOM      8  C   UNL     1     154.235 143.734 138.805  1.00  0.00     0.008 C 
BRANCH   8   9
ATOM      9  C   UNL     1     154.353 143.051 140.175  1.00  0.00     0.072 C 
BRANCH   9  10
ATOM     10  C   UNL     1     154.010 141.595 140.076  1.00  0.00     0.224 C 
ATOM     11  O   UNL     1     154.005 141.031 138.993  1.00  0.00    -0.303 OA
ENDBRANCH   9  10
ENDBRANCH   8   9
ENDBRANCH   7   8
ENDBRANCH   1   7
TORSDOF 8
ENDMDL
MODEL 9
REMARK VINA RESULT:    -2.200      8.755     10.892
REMARK INTER + INTRA:          -4.289
REMARK INTER:                  -3.313
REMARK INTRA:                  -0.976
REMARK UNBOUND:                -1.060
REMARK SMILES CCCCCCCCCC=O
REMARK SMILES IDX 6 1 5 2 4 3 3 4 2 5 1 6 7 7 8 8 9 9 10 10 11 11
REMARK H PARENT
REMARK Flexibility Score: inf
ROOT
ATOM      1  C   UNL     1     148.066 159.520 139.090  1.00  0.00     0.000 C 
ENDROOT
BRANCH   1   2
ATOM      2  C   UNL     1     149.546 159.145 139.318  1.00  0.00     0.000 C 
BRANCH   2   3
ATOM      3  C   UNL     1     150.166 158.353 138.154  1.00  0.00    -0.000 C 
BRANCH   3   4
ATOM      4  C   UNL     1     150.573 156.925 138.554  1.00  0.00    -0.000 C 
BRANCH   4   5
ATOM      5  C   UNL     1     150.515 156.699 140.072  1.00  0.00    -0.003 C 
ATOM      6  C   UNL     1     149.605 155.534 140.461  1.00  0.00     0.004 C 
ENDBRANCH   4   5
ENDBRANCH   3   4
ENDBRANCH   2   3
ENDBRANCH   1   2
BRANCH   1   7
ATOM      7  C   UNL     1     147.130 158.823 140.093  1.00  0.00     0.000 C 
BRANCH   7   8
ATOM      8  C   UNL     1     146.688 157.429 139.619  1.00  0.00     0.008 C 
BRANCH   8   9
ATOM      9  C   UNL     1     146.601 157.324 138.091  1.00  0.00     0.072 C 
BRANCH   9  10
ATOM     10  C   UNL     1     146.627 155.891 137.652  1.00  0.00     0.224 C 
ATOM     11  O   UNL     1     146.073 155.029 138.316  1.00  0.00    -0.303 OA
ENDBRANCH   9  10
ENDBRANCH   8   9
ENDBRANCH   7   8
ENDBRANCH   1   7
TORSDOF 8
ENDMDL
