MODEL 1
REMARK VINA RESULT:    88.695      0.000      0.000
REMARK INTER + INTRA:          96.965
REMARK INTER:                  96.472
REMARK INTRA:                   0.493
REMARK UNBOUND:                 0.493
REMARK SMILES CC1(C)CC[C@]2(C(=O)[O-])CC[C@]3(C)C(=CC[C@@H]4[C@@]5(C)CC[C@H](O)C(C)(C)[C@H]5CC[C@@]43C)[C@H]2C1
REMARK SMILES IDX 6 1 5 2 10 3 32 4 4 5 11 6 14 7 33 8 2 9 12 10 15 11 1 12
REMARK SMILES IDX 3 13 13 14 30 15 16 16 17 17 29 18 31 19 18 20 28 21 27 22
REMARK SMILES IDX 20 23 19 24 24 25 21 26 22 27 25 28 26 29 7 30 8 31 9 32
REMARK SMILES IDX 23 33
REMARK H PARENT 23 34
REMARK Flexibility Score: inf
ROOT
ATOM      1  C   UNL     1      13.473   3.518  23.496  1.00  0.00     0.017 C 
ATOM      2  C   UNL     1      12.252   4.294  22.931  1.00  0.00     0.014 C 
ATOM      3  C   UNL     1      12.951   2.203  24.127  1.00  0.00     0.014 C 
ATOM      4  C   UNL     1      14.143   4.317  24.649  1.00  0.00     0.028 C 
ATOM      5  C   UNL     1      12.580   5.745  22.543  1.00  0.00     0.007 C 
ATOM      6  C   UNL     1      14.069   1.343  24.741  1.00  0.00     0.013 C 
ATOM      7  C   UNL     1      15.319   3.512  25.247  1.00  0.00    -0.064 C 
ATOM      8  C   UNL     1      14.430   5.803  24.286  1.00  0.00     0.015 C 
ATOM      9  C   UNL     1      13.199   6.557  23.707  1.00  0.00    -0.035 C 
ATOM     10  C   UNL     1      15.062   2.077  25.731  1.00  0.00    -0.006 C 
ATOM     11  C   UNL     1      16.455   4.140  25.592  1.00  0.00    -0.027 C 
ATOM     12  C   UNL     1      13.672   7.919  23.157  1.00  0.00     0.011 C 
ATOM     13  C   UNL     1      12.154   6.833  24.816  1.00  0.00     0.011 C 
ATOM     14  C   UNL     1      14.332   2.208  27.103  1.00  0.00     0.017 C 
ATOM     15  C   UNL     1      16.450   1.251  25.900  1.00  0.00    -0.020 C 
ATOM     16  C   UNL     1      17.548   3.548  26.418  1.00  0.00     0.032 C 
ATOM     17  C   UNL     1      17.448   2.040  26.845  1.00  0.00     0.006 C 
ATOM     18  C   UNL     1      17.196   1.073  24.541  1.00  0.00     0.008 C 
ATOM     19  C   UNL     1      16.096  -0.160  26.487  1.00  0.00     0.012 C 
ATOM     20  C   UNL     1      18.929   1.434  27.033  1.00  0.00    -0.025 C 
ATOM     21  C   UNL     1      18.596   0.442  24.659  1.00  0.00     0.005 C 
ATOM     22  C   UNL     1      19.594   1.159  25.619  1.00  0.00     0.003 C 
ATOM     23  C   UNL     1      18.943   0.123  27.886  1.00  0.00     0.010 C 
ATOM     24  C   UNL     1      19.741   2.495  27.865  1.00  0.00     0.012 C 
ATOM     25  C   UNL     1      20.997   0.393  25.682  1.00  0.00    -0.006 C 
ATOM     26  C   UNL     1      20.319  -0.558  27.985  1.00  0.00     0.033 C 
ATOM     27  C   UNL     1      20.901  -0.868  26.602  1.00  0.00     0.120 C 
ATOM     28  C   UNL     1      22.138   1.338  26.159  1.00  0.00     0.014 C 
ATOM     29  C   UNL     1      21.433  -0.079  24.264  1.00  0.00     0.014 C 
ENDROOT
BRANCH   1  30
ATOM     30  C   UNL     1      14.435   3.207  22.345  1.00  0.00     0.048 C 
ATOM     31  O   UNL     1      14.004   2.754  21.252  1.00  0.00    -0.550 OA
ATOM     32  O   UNL     1      15.810   3.260  22.541  1.00  0.00    -0.550 OA
ENDBRANCH   1  30
BRANCH  27  33
ATOM     33  O   UNL     1      22.168  -1.454  26.778  1.00  0.00    -0.393 OA
ATOM     34  H   UNL     1      22.779  -1.046  26.110  1.00  0.00     0.210 HD
ENDBRANCH  27  33
TORSDOF 2
ENDMDL
