MODEL 1
REMARK VINA RESULT:    -2.743      0.000      0.000
REMARK INTER + INTRA:          -7.651
REMARK INTER:                  -5.148
REMARK INTRA:                  -2.502
REMARK UNBOUND:                -2.502
REMARK SMILES O=C([O-])CCCCCCCCCCCCCCC(=O)[O-]
REMARK SMILES IDX 10 1 9 2 8 3 7 4 6 5 5 6 4 7 2 8 1 9 3 10 11 11 12 12 13 13
REMARK SMILES IDX 14 14 15 15 16 16 17 17 18 18 19 19 20 20
REMARK H PARENT
REMARK Flexibility Score: inf
ROOT
ATOM      1  C   UNL     1      20.625  27.554  47.775  1.00  0.00     0.000 C 
ENDROOT
BRANCH   1   2
ATOM      2  C   UNL     1      20.126  28.834  47.093  1.00  0.00     0.000 C 
BRANCH   2   3
ATOM      3  C   UNL     1      21.297  29.769  46.755  1.00  0.00     0.000 C 
BRANCH   3   4
ATOM      4  C   UNL     1      22.659  29.053  46.763  1.00  0.00     0.000 C 
BRANCH   4   5
ATOM      5  C   UNL     1      23.819  29.857  47.382  1.00  0.00     0.000 C 
BRANCH   5   6
ATOM      6  C   UNL     1      23.884  31.342  46.974  1.00  0.00     0.006 C 
BRANCH   6   7
ATOM      7  C   UNL     1      24.864  31.631  45.823  1.00  0.00     0.053 C 
BRANCH   7   8
ATOM      8  C   UNL     1      24.171  32.128  44.590  1.00  0.00     0.041 C 
ATOM      9  O   UNL     1      22.942  31.918  44.425  1.00  0.00    -0.550 OA
ATOM     10  O   UNL     1      24.892  32.795  43.607  1.00  0.00    -0.550 OA
ENDBRANCH   7   8
ENDBRANCH   6   7
ENDBRANCH   5   6
ENDBRANCH   4   5
ENDBRANCH   3   4
ENDBRANCH   2   3
ENDBRANCH   1   2
BRANCH   1  11
ATOM     11  C   UNL     1      19.771  27.217  49.003  1.00  0.00     0.000 C 
BRANCH  11  12
ATOM     12  C   UNL     1      20.444  27.703  50.291  1.00  0.00     0.000 C 
BRANCH  12  13
ATOM     13  C   UNL     1      21.972  27.649  50.168  1.00  0.00     0.000 C 
BRANCH  13  14
ATOM     14  C   UNL     1      22.614  28.936  50.701  1.00  0.00     0.000 C 
BRANCH  14  15
ATOM     15  C   UNL     1      21.543  29.983  51.042  1.00  0.00     0.000 C 
BRANCH  15  16
ATOM     16  C   UNL     1      21.546  31.178  50.071  1.00  0.00     0.006 C 
BRANCH  16  17
ATOM     17  C   UNL     1      20.200  31.913  49.969  1.00  0.00     0.053 C 
BRANCH  17  18
ATOM     18  C   UNL     1      20.326  33.214  49.234  1.00  0.00     0.041 C 
ATOM     19  O   UNL     1      21.335  33.440  48.516  1.00  0.00    -0.550 OA
ATOM     20  O   UNL     1      19.345  34.187  49.371  1.00  0.00    -0.550 OA
ENDBRANCH  17  18
ENDBRANCH  16  17
ENDBRANCH  15  16
ENDBRANCH  14  15
ENDBRANCH  13  14
ENDBRANCH  12  13
ENDBRANCH  11  12
ENDBRANCH   1  11
TORSDOF 15
ENDMDL
MODEL 2
REMARK VINA RESULT:    -2.716      2.973      6.020
REMARK INTER + INTRA:          -7.601
REMARK INTER:                  -5.773
REMARK INTRA:                  -1.828
REMARK UNBOUND:                -2.502
REMARK SMILES O=C([O-])CCCCCCCCCCCCCCC(=O)[O-]
REMARK SMILES IDX 10 1 9 2 8 3 7 4 6 5 5 6 4 7 2 8 1 9 3 10 11 11 12 12 13 13
REMARK SMILES IDX 14 14 15 15 16 16 17 17 18 18 19 19 20 20
REMARK H PARENT
REMARK Flexibility Score: inf
ROOT
ATOM      1  C   UNL     1      21.350  32.167  48.640  1.00  0.00     0.000 C 
ENDROOT
BRANCH   1   2
ATOM      2  C   UNL     1      20.737  32.305  50.039  1.00  0.00     0.000 C 
BRANCH   2   3
ATOM      3  C   UNL     1      21.448  31.387  51.044  1.00  0.00     0.000 C 
BRANCH   3   4
ATOM      4  C   UNL     1      22.222  30.241  50.367  1.00  0.00     0.000 C 
BRANCH   4   5
ATOM      5  C   UNL     1      21.822  28.823  50.822  1.00  0.00     0.000 C 
BRANCH   5   6
ATOM      6  C   UNL     1      22.161  27.692  49.832  1.00  0.00     0.006 C 
BRANCH   6   7
ATOM      7  C   UNL     1      23.186  26.677  50.372  1.00  0.00     0.053 C 
BRANCH   7   8
ATOM      8  C   UNL     1      24.284  26.394  49.391  1.00  0.00     0.041 C 
ATOM      9  O   UNL     1      24.041  26.370  48.156  1.00  0.00    -0.550 OA
ATOM     10  O   UNL     1      25.569  26.122  49.844  1.00  0.00    -0.550 OA
ENDBRANCH   7   8
ENDBRANCH   6   7
ENDBRANCH   5   6
ENDBRANCH   4   5
ENDBRANCH   3   4
ENDBRANCH   2   3
ENDBRANCH   1   2
BRANCH   1  11
ATOM     11  C   UNL     1      20.279  31.811  47.602  1.00  0.00     0.000 C 
BRANCH  11  12
ATOM     12  C   UNL     1      20.443  30.367  47.116  1.00  0.00     0.000 C 
BRANCH  12  13
ATOM     13  C   UNL     1      21.633  30.240  46.157  1.00  0.00     0.000 C 
BRANCH  13  14
ATOM     14  C   UNL     1      22.725  29.340  46.748  1.00  0.00     0.000 C 
BRANCH  14  15
ATOM     15  C   UNL     1      24.082  30.059  46.760  1.00  0.00     0.000 C 
BRANCH  15  16
ATOM     16  C   UNL     1      24.096  31.321  45.879  1.00  0.00     0.006 C 
BRANCH  16  17
ATOM     17  C   UNL     1      25.491  31.935  45.675  1.00  0.00     0.053 C 
BRANCH  17  18
ATOM     18  C   UNL     1      25.970  31.781  44.264  1.00  0.00     0.041 C 
ATOM     19  O   UNL     1      26.149  30.634  43.777  1.00  0.00    -0.550 OA
ATOM     20  O   UNL     1      26.250  32.905  43.498  1.00  0.00    -0.550 OA
ENDBRANCH  17  18
ENDBRANCH  16  17
ENDBRANCH  15  16
ENDBRANCH  14  15
ENDBRANCH  13  14
ENDBRANCH  12  13
ENDBRANCH  11  12
ENDBRANCH   1  11
TORSDOF 15
ENDMDL
MODEL 3
REMARK VINA RESULT:    -2.685      1.262      5.080
REMARK INTER + INTRA:          -7.541
REMARK INTER:                  -5.408
REMARK INTRA:                  -2.134
REMARK UNBOUND:                -2.502
REMARK SMILES O=C([O-])CCCCCCCCCCCCCCC(=O)[O-]
REMARK SMILES IDX 10 1 9 2 8 3 7 4 6 5 5 6 4 7 2 8 1 9 3 10 11 11 12 12 13 13
REMARK SMILES IDX 14 14 15 15 16 16 17 17 18 18 19 19 20 20
REMARK H PARENT
REMARK Flexibility Score: inf
ROOT
ATOM      1  C   UNL     1      20.199  27.763  49.633  1.00  0.00     0.000 C 
ENDROOT
BRANCH   1   2
ATOM      2  C   UNL     1      20.261  28.851  50.713  1.00  0.00     0.000 C 
BRANCH   2   3
ATOM      3  C   UNL     1      21.708  29.303  50.956  1.00  0.00     0.000 C 
BRANCH   3   4
ATOM      4  C   UNL     1      21.871  30.834  50.936  1.00  0.00     0.000 C 
BRANCH   4   5
ATOM      5  C   UNL     1      20.642  31.616  50.434  1.00  0.00     0.000 C 
BRANCH   5   6
ATOM      6  C   UNL     1      20.799  32.278  49.051  1.00  0.00     0.006 C 
BRANCH   6   7
ATOM      7  C   UNL     1      19.645  33.225  48.677  1.00  0.00     0.053 C 
BRANCH   7   8
ATOM      8  C   UNL     1      19.939  34.653  49.025  1.00  0.00     0.041 C 
ATOM      9  O   UNL     1      21.118  35.015  49.277  1.00  0.00    -0.550 OA
ATOM     10  O   UNL     1      18.905  35.578  49.105  1.00  0.00    -0.550 OA
ENDBRANCH   7   8
ENDBRANCH   6   7
ENDBRANCH   5   6
ENDBRANCH   4   5
ENDBRANCH   3   4
ENDBRANCH   2   3
ENDBRANCH   1   2
BRANCH   1  11
ATOM     11  C   UNL     1      20.267  28.377  48.229  1.00  0.00     0.000 C 
BRANCH  11  12
ATOM     12  C   UNL     1      21.004  27.448  47.258  1.00  0.00     0.000 C 
BRANCH  12  13
ATOM     13  C   UNL     1      22.243  28.135  46.671  1.00  0.00     0.000 C 
BRANCH  13  14
ATOM     14  C   UNL     1      23.402  28.134  47.676  1.00  0.00     0.000 C 
BRANCH  14  15
ATOM     15  C   UNL     1      23.878  29.565  47.967  1.00  0.00     0.000 C 
BRANCH  15  16
ATOM     16  C   UNL     1      23.200  30.614  47.066  1.00  0.00     0.006 C 
BRANCH  16  17
ATOM     17  C   UNL     1      24.133  31.740  46.595  1.00  0.00     0.053 C 
BRANCH  17  18
ATOM     18  C   UNL     1      24.892  31.360  45.360  1.00  0.00     0.041 C 
ATOM     19  O   UNL     1      24.506  30.393  44.652  1.00  0.00    -0.550 OA
ATOM     20  O   UNL     1      26.044  32.053  45.010  1.00  0.00    -0.550 OA
ENDBRANCH  17  18
ENDBRANCH  16  17
ENDBRANCH  15  16
ENDBRANCH  14  15
ENDBRANCH  13  14
ENDBRANCH  12  13
ENDBRANCH  11  12
ENDBRANCH   1  11
TORSDOF 15
ENDMDL
MODEL 4
REMARK VINA RESULT:    -2.646      1.570      5.196
REMARK INTER + INTRA:          -7.470
REMARK INTER:                  -5.234
REMARK INTRA:                  -2.235
REMARK UNBOUND:                -2.502
REMARK SMILES O=C([O-])CCCCCCCCCCCCCCC(=O)[O-]
REMARK SMILES IDX 10 1 9 2 8 3 7 4 6 5 5 6 4 7 2 8 1 9 3 10 11 11 12 12 13 13
REMARK SMILES IDX 14 14 15 15 16 16 17 17 18 18 19 19 20 20
REMARK H PARENT
REMARK Flexibility Score: inf
ROOT
ATOM      1  C   UNL     1      23.354  25.461  49.344  1.00  0.00     0.000 C 
ENDROOT
BRANCH   1   2
ATOM      2  C   UNL     1      22.455  26.116  50.399  1.00  0.00     0.000 C 
BRANCH   2   3
ATOM      3  C   UNL     1      21.178  26.681  49.759  1.00  0.00     0.000 C 
BRANCH   3   4
ATOM      4  C   UNL     1      20.968  28.177  50.058  1.00  0.00     0.000 C 
BRANCH   4   5
ATOM      5  C   UNL     1      22.144  28.874  50.771  1.00  0.00     0.000 C 
BRANCH   5   6
ATOM      6  C   UNL     1      22.301  30.377  50.469  1.00  0.00     0.006 C 
BRANCH   6   7
ATOM      7  C   UNL     1      21.100  31.232  50.913  1.00  0.00     0.053 C 
BRANCH   7   8
ATOM      8  C   UNL     1      20.495  32.004  49.779  1.00  0.00     0.041 C 
ATOM      9  O   UNL     1      19.851  31.407  48.878  1.00  0.00    -0.550 OA
ATOM     10  O   UNL     1      20.674  33.379  49.700  1.00  0.00    -0.550 OA
ENDBRANCH   7   8
ENDBRANCH   6   7
ENDBRANCH   5   6
ENDBRANCH   4   5
ENDBRANCH   3   4
ENDBRANCH   2   3
ENDBRANCH   1   2
BRANCH   1  11
ATOM     11  C   UNL     1      24.039  26.519  48.471  1.00  0.00     0.000 C 
BRANCH  11  12
ATOM     12  C   UNL     1      23.648  26.354  46.998  1.00  0.00     0.000 C 
BRANCH  12  13
ATOM     13  C   UNL     1      22.873  27.577  46.493  1.00  0.00     0.000 C 
BRANCH  13  14
ATOM     14  C   UNL     1      23.358  28.859  47.180  1.00  0.00     0.000 C 
BRANCH  14  15
ATOM     15  C   UNL     1      22.469  30.054  46.803  1.00  0.00     0.000 C 
BRANCH  15  16
ATOM     16  C   UNL     1      23.195  31.405  46.942  1.00  0.00     0.006 C 
BRANCH  16  17
ATOM     17  C   UNL     1      24.651  31.394  46.450  1.00  0.00     0.053 C 
BRANCH  17  18
ATOM     18  C   UNL     1      24.760  31.801  45.012  1.00  0.00     0.041 C 
ATOM     19  O   UNL     1      23.778  32.328  44.427  1.00  0.00    -0.550 OA
ATOM     20  O   UNL     1      25.935  31.567  44.310  1.00  0.00    -0.550 OA
ENDBRANCH  17  18
ENDBRANCH  16  17
ENDBRANCH  15  16
ENDBRANCH  14  15
ENDBRANCH  13  14
ENDBRANCH  12  13
ENDBRANCH  11  12
ENDBRANCH   1  11
TORSDOF 15
ENDMDL
MODEL 5
REMARK VINA RESULT:    -2.638      2.372      5.549
REMARK INTER + INTRA:          -7.453
REMARK INTER:                  -5.042
REMARK INTRA:                  -2.411
REMARK UNBOUND:                -2.502
REMARK SMILES O=C([O-])CCCCCCCCCCCCCCC(=O)[O-]
REMARK SMILES IDX 10 1 9 2 8 3 7 4 6 5 5 6 4 7 2 8 1 9 3 10 11 11 12 12 13 13
REMARK SMILES IDX 14 14 15 15 16 16 17 17 18 18 19 19 20 20
REMARK H PARENT
REMARK Flexibility Score: inf
ROOT
ATOM      1  C   UNL     1      20.160  31.148  46.681  1.00  0.00     0.000 C 
ENDROOT
BRANCH   1   2
ATOM      2  C   UNL     1      19.704  32.273  47.618  1.00  0.00     0.000 C 
BRANCH   2   3
ATOM      3  C   UNL     1      19.765  31.825  49.086  1.00  0.00     0.000 C 
BRANCH   3   4
ATOM      4  C   UNL     1      21.125  32.117  49.747  1.00  0.00     0.000 C 
BRANCH   4   5
ATOM      5  C   UNL     1      21.458  31.243  50.972  1.00  0.00     0.000 C 
BRANCH   5   6
ATOM      6  C   UNL     1      21.267  29.727  50.773  1.00  0.00     0.006 C 
BRANCH   6   7
ATOM      7  C   UNL     1      22.586  28.943  50.647  1.00  0.00     0.053 C 
BRANCH   7   8
ATOM      8  C   UNL     1      22.364  27.487  50.368  1.00  0.00     0.041 C 
ATOM      9  O   UNL     1      21.221  27.070  50.046  1.00  0.00    -0.550 OA
ATOM     10  O   UNL     1      23.413  26.585  50.498  1.00  0.00    -0.550 OA
ENDBRANCH   7   8
ENDBRANCH   6   7
ENDBRANCH   5   6
ENDBRANCH   4   5
ENDBRANCH   3   4
ENDBRANCH   2   3
ENDBRANCH   1   2
BRANCH   1  11
ATOM     11  C   UNL     1      19.771  29.774  47.242  1.00  0.00     0.000 C 
BRANCH  11  12
ATOM     12  C   UNL     1      20.873  28.741  46.978  1.00  0.00     0.000 C 
BRANCH  12  13
ATOM     13  C   UNL     1      21.964  29.321  46.069  1.00  0.00     0.000 C 
BRANCH  13  14
ATOM     14  C   UNL     1      23.357  29.100  46.672  1.00  0.00     0.000 C 
BRANCH  14  15
ATOM     15  C   UNL     1      23.767  30.286  47.557  1.00  0.00     0.000 C 
BRANCH  15  16
ATOM     16  C   UNL     1      23.809  31.619  46.786  1.00  0.00     0.006 C 
BRANCH  16  17
ATOM     17  C   UNL     1      24.966  31.732  45.780  1.00  0.00     0.053 C 
BRANCH  17  18
ATOM     18  C   UNL     1      24.489  32.154  44.423  1.00  0.00     0.041 C 
ATOM     19  O   UNL     1      23.278  32.016  44.106  1.00  0.00    -0.550 OA
ATOM     20  O   UNL     1      25.389  32.667  43.498  1.00  0.00    -0.550 OA
ENDBRANCH  17  18
ENDBRANCH  16  17
ENDBRANCH  15  16
ENDBRANCH  14  15
ENDBRANCH  13  14
ENDBRANCH  12  13
ENDBRANCH  11  12
ENDBRANCH   1  11
TORSDOF 15
ENDMDL
MODEL 6
REMARK VINA RESULT:    -2.625      1.476      2.249
REMARK INTER + INTRA:          -7.430
REMARK INTER:                  -5.207
REMARK INTRA:                  -2.223
REMARK UNBOUND:                -2.502
REMARK SMILES O=C([O-])CCCCCCCCCCCCCCC(=O)[O-]
REMARK SMILES IDX 10 1 9 2 8 3 7 4 6 5 5 6 4 7 2 8 1 9 3 10 11 11 12 12 13 13
REMARK SMILES IDX 14 14 15 15 16 16 17 17 18 18 19 19 20 20
REMARK H PARENT
REMARK Flexibility Score: inf
ROOT
ATOM      1  C   UNL     1      22.456  27.509  49.553  1.00  0.00     0.000 C 
ENDROOT
BRANCH   1   2
ATOM      2  C   UNL     1      23.547  27.500  48.474  1.00  0.00     0.000 C 
BRANCH   2   3
ATOM      3  C   UNL     1      22.953  27.800  47.091  1.00  0.00     0.000 C 
BRANCH   3   4
ATOM      4  C   UNL     1      22.751  29.305  46.837  1.00  0.00     0.000 C 
BRANCH   4   5
ATOM      5  C   UNL     1      23.870  30.216  47.380  1.00  0.00     0.000 C 
BRANCH   5   6
ATOM      6  C   UNL     1      24.216  31.433  46.500  1.00  0.00     0.006 C 
BRANCH   6   7
ATOM      7  C   UNL     1      23.086  31.853  45.542  1.00  0.00     0.053 C 
BRANCH   7   8
ATOM      8  C   UNL     1      23.511  31.822  44.105  1.00  0.00     0.041 C 
ATOM      9  O   UNL     1      23.191  30.852  43.369  1.00  0.00    -0.550 OA
ATOM     10  O   UNL     1      24.289  32.850  43.587  1.00  0.00    -0.550 OA
ENDBRANCH   7   8
ENDBRANCH   6   7
ENDBRANCH   5   6
ENDBRANCH   4   5
ENDBRANCH   3   4
ENDBRANCH   2   3
ENDBRANCH   1   2
BRANCH   1  11
ATOM     11  C   UNL     1      22.819  28.469  50.693  1.00  0.00     0.000 C 
BRANCH  11  12
ATOM     12  C   UNL     1      21.717  29.514  50.903  1.00  0.00     0.000 C 
BRANCH  12  13
ATOM     13  C   UNL     1      20.559  29.297  49.921  1.00  0.00     0.000 C 
BRANCH  13  14
ATOM     14  C   UNL     1      20.167  30.610  49.232  1.00  0.00     0.000 C 
BRANCH  14  15
ATOM     15  C   UNL     1      21.164  31.728  49.573  1.00  0.00     0.000 C 
BRANCH  15  16
ATOM     16  C   UNL     1      21.188  32.849  48.518  1.00  0.00     0.006 C 
BRANCH  16  17
ATOM     17  C   UNL     1      20.757  34.226  49.048  1.00  0.00     0.053 C 
BRANCH  17  18
ATOM     18  C   UNL     1      19.304  34.493  48.797  1.00  0.00     0.041 C 
ATOM     19  O   UNL     1      18.952  35.240  47.847  1.00  0.00    -0.550 OA
ATOM     20  O   UNL     1      18.342  33.942  49.634  1.00  0.00    -0.550 OA
ENDBRANCH  17  18
ENDBRANCH  16  17
ENDBRANCH  15  16
ENDBRANCH  14  15
ENDBRANCH  13  14
ENDBRANCH  12  13
ENDBRANCH  11  12
ENDBRANCH   1  11
TORSDOF 15
ENDMDL
MODEL 7
REMARK VINA RESULT:    -2.617      1.774      2.593
REMARK INTER + INTRA:          -7.415
REMARK INTER:                  -5.808
REMARK INTRA:                  -1.607
REMARK UNBOUND:                -2.502
REMARK SMILES O=C([O-])CCCCCCCCCCCCCCC(=O)[O-]
REMARK SMILES IDX 10 1 9 2 8 3 7 4 6 5 5 6 4 7 2 8 1 9 3 10 11 11 12 12 13 13
REMARK SMILES IDX 14 14 15 15 16 16 17 17 18 18 19 19 20 20
REMARK H PARENT
REMARK Flexibility Score: inf
ROOT
ATOM      1  C   UNL     1      22.892  27.910  46.334  1.00  0.00     0.000 C 
ENDROOT
BRANCH   1   2
ATOM      2  C   UNL     1      23.566  29.257  46.621  1.00  0.00     0.000 C 
BRANCH   2   3
ATOM      3  C   UNL     1      22.678  30.424  46.168  1.00  0.00     0.000 C 
BRANCH   3   4
ATOM      4  C   UNL     1      23.385  31.789  46.260  1.00  0.00     0.000 C 
BRANCH   4   5
ATOM      5  C   UNL     1      24.925  31.733  46.211  1.00  0.00     0.000 C 
BRANCH   5   6
ATOM      6  C   UNL     1      25.550  31.957  44.820  1.00  0.00     0.006 C 
BRANCH   6   7
ATOM      7  C   UNL     1      25.587  30.693  43.942  1.00  0.00     0.053 C 
BRANCH   7   8
ATOM      8  C   UNL     1      26.215  30.942  42.604  1.00  0.00     0.041 C 
ATOM      9  O   UNL     1      25.995  32.019  41.990  1.00  0.00    -0.550 OA
ATOM     10  O   UNL     1      27.017  29.970  42.019  1.00  0.00    -0.550 OA
ENDBRANCH   7   8
ENDBRANCH   6   7
ENDBRANCH   5   6
ENDBRANCH   4   5
ENDBRANCH   3   4
ENDBRANCH   2   3
ENDBRANCH   1   2
BRANCH   1  11
ATOM     11  C   UNL     1      23.161  26.908  47.463  1.00  0.00     0.000 C 
BRANCH  11  12
ATOM     12  C   UNL     1      23.813  27.598  48.666  1.00  0.00     0.000 C 
BRANCH  12  13
ATOM     13  C   UNL     1      23.176  27.132  49.981  1.00  0.00     0.000 C 
BRANCH  13  14
ATOM     14  C   UNL     1      22.164  28.163  50.499  1.00  0.00     0.000 C 
BRANCH  14  15
ATOM     15  C   UNL     1      22.588  29.588  50.116  1.00  0.00     0.000 C 
BRANCH  15  16
ATOM     16  C   UNL     1      21.409  30.452  49.633  1.00  0.00     0.006 C 
BRANCH  16  17
ATOM     17  C   UNL     1      21.200  31.745  50.438  1.00  0.00     0.053 C 
BRANCH  17  18
ATOM     18  C   UNL     1      20.419  32.765  49.667  1.00  0.00     0.041 C 
ATOM     19  O   UNL     1      19.163  32.793  49.745  1.00  0.00    -0.550 OA
ATOM     20  O   UNL     1      21.078  33.663  48.837  1.00  0.00    -0.550 OA
ENDBRANCH  17  18
ENDBRANCH  16  17
ENDBRANCH  15  16
ENDBRANCH  14  15
ENDBRANCH  13  14
ENDBRANCH  12  13
ENDBRANCH  11  12
ENDBRANCH   1  11
TORSDOF 15
ENDMDL
MODEL 8
REMARK VINA RESULT:    -2.584      1.564      6.056
REMARK INTER + INTRA:          -7.353
REMARK INTER:                  -5.393
REMARK INTRA:                  -1.960
REMARK UNBOUND:                -2.502
REMARK SMILES O=C([O-])CCCCCCCCCCCCCCC(=O)[O-]
REMARK SMILES IDX 10 1 9 2 8 3 7 4 6 5 5 6 4 7 2 8 1 9 3 10 11 11 12 12 13 13
REMARK SMILES IDX 14 14 15 15 16 16 17 17 18 18 19 19 20 20
REMARK H PARENT
REMARK Flexibility Score: inf
ROOT
ATOM      1  C   UNL     1      23.518  27.558  47.888  1.00  0.00     0.000 C 
ENDROOT
BRANCH   1   2
ATOM      2  C   UNL     1      22.959  26.883  49.147  1.00  0.00     0.000 C 
BRANCH   2   3
ATOM      3  C   UNL     1      21.941  27.792  49.852  1.00  0.00     0.000 C 
BRANCH   3   4
ATOM      4  C   UNL     1      22.604  28.913  50.672  1.00  0.00     0.000 C 
BRANCH   4   5
ATOM      5  C   UNL     1      21.802  30.227  50.753  1.00  0.00     0.000 C 
BRANCH   5   6
ATOM      6  C   UNL     1      21.627  30.977  49.419  1.00  0.00     0.006 C 
BRANCH   6   7
ATOM      7  C   UNL     1      20.166  31.336  49.091  1.00  0.00     0.053 C 
BRANCH   7   8
ATOM      8  C   UNL     1      19.800  32.718  49.540  1.00  0.00     0.041 C 
ATOM      9  O   UNL     1      20.684  33.609  49.636  1.00  0.00    -0.550 OA
ATOM     10  O   UNL     1      18.487  33.014  49.884  1.00  0.00    -0.550 OA
ENDBRANCH   7   8
ENDBRANCH   6   7
ENDBRANCH   5   6
ENDBRANCH   4   5
ENDBRANCH   3   4
ENDBRANCH   2   3
ENDBRANCH   1   2
BRANCH   1  11
ATOM     11  C   UNL     1      22.387  28.120  47.018  1.00  0.00     0.000 C 
BRANCH  11  12
ATOM     12  C   UNL     1      22.829  29.403  46.304  1.00  0.00     0.000 C 
BRANCH  12  13
ATOM     13  C   UNL     1      24.053  30.022  46.992  1.00  0.00     0.000 C 
BRANCH  13  14
ATOM     14  C   UNL     1      24.175  31.514  46.660  1.00  0.00     0.000 C 
BRANCH  14  15
ATOM     15  C   UNL     1      23.242  31.897  45.502  1.00  0.00     0.000 C 
BRANCH  15  16
ATOM     16  C   UNL     1      23.999  32.166  44.188  1.00  0.00     0.006 C 
BRANCH  16  17
ATOM     17  C   UNL     1      25.461  31.693  44.193  1.00  0.00     0.053 C 
BRANCH  17  18
ATOM     18  C   UNL     1      25.645  30.432  43.405  1.00  0.00     0.041 C 
ATOM     19  O   UNL     1      24.691  29.621  43.276  1.00  0.00    -0.550 OA
ATOM     20  O   UNL     1      26.880  30.139  42.841  1.00  0.00    -0.550 OA
ENDBRANCH  17  18
ENDBRANCH  16  17
ENDBRANCH  15  16
ENDBRANCH  14  15
ENDBRANCH  13  14
ENDBRANCH  12  13
ENDBRANCH  11  12
ENDBRANCH   1  11
TORSDOF 15
ENDMDL
MODEL 9
REMARK VINA RESULT:    -2.582      2.935      5.985
REMARK INTER + INTRA:          -7.348
REMARK INTER:                  -5.475
REMARK INTRA:                  -1.873
REMARK UNBOUND:                -2.502
REMARK SMILES O=C([O-])CCCCCCCCCCCCCCC(=O)[O-]
REMARK SMILES IDX 10 1 9 2 8 3 7 4 6 5 5 6 4 7 2 8 1 9 3 10 11 11 12 12 13 13
REMARK SMILES IDX 14 14 15 15 16 16 17 17 18 18 19 19 20 20
REMARK H PARENT
REMARK Flexibility Score: inf
ROOT
ATOM      1  C   UNL     1      20.138  31.679  48.761  1.00  0.00     0.000 C 
ENDROOT
BRANCH   1   2
ATOM      2  C   UNL     1      19.903  31.560  50.272  1.00  0.00     0.000 C 
BRANCH   2   3
ATOM      3  C   UNL     1      21.198  31.173  51.001  1.00  0.00     0.000 C 
BRANCH   3   4
ATOM      4  C   UNL     1      21.408  29.650  51.086  1.00  0.00     0.000 C 
BRANCH   4   5
ATOM      5  C   UNL     1      22.752  29.142  50.528  1.00  0.00     0.000 C 
BRANCH   5   6
ATOM      6  C   UNL     1      22.848  27.618  50.322  1.00  0.00     0.006 C 
BRANCH   6   7
ATOM      7  C   UNL     1      23.686  27.205  49.098  1.00  0.00     0.053 C 
BRANCH   7   8
ATOM      8  C   UNL     1      22.841  26.923  47.893  1.00  0.00     0.041 C 
ATOM      9  O   UNL     1      21.595  26.783  48.009  1.00  0.00    -0.550 OA
ATOM     10  O   UNL     1      23.434  26.781  46.644  1.00  0.00    -0.550 OA
ENDBRANCH   7   8
ENDBRANCH   6   7
ENDBRANCH   5   6
ENDBRANCH   4   5
ENDBRANCH   3   4
ENDBRANCH   2   3
ENDBRANCH   1   2
BRANCH   1  11
ATOM     11  C   UNL     1      21.335  32.590  48.460  1.00  0.00     0.000 C 
BRANCH  11  12
ATOM     12  C   UNL     1      22.097  32.105  47.222  1.00  0.00     0.000 C 
BRANCH  12  13
ATOM     13  C   UNL     1      22.450  30.617  47.340  1.00  0.00     0.000 C 
BRANCH  13  14
ATOM     14  C   UNL     1      23.926  30.372  47.001  1.00  0.00     0.000 C 
BRANCH  14  15
ATOM     15  C   UNL     1      24.585  31.650  46.464  1.00  0.00     0.000 C 
BRANCH  15  16
ATOM     16  C   UNL     1      25.205  31.461  45.066  1.00  0.00     0.006 C 
BRANCH  16  17
ATOM     17  C   UNL     1      24.191  31.099  43.969  1.00  0.00     0.053 C 
BRANCH  17  18
ATOM     18  C   UNL     1      24.452  29.741  43.391  1.00  0.00     0.041 C 
ATOM     19  O   UNL     1      23.705  28.772  43.689  1.00  0.00    -0.550 OA
ATOM     20  O   UNL     1      25.539  29.541  42.551  1.00  0.00    -0.550 OA
ENDBRANCH  17  18
ENDBRANCH  16  17
ENDBRANCH  15  16
ENDBRANCH  14  15
ENDBRANCH  13  14
ENDBRANCH  12  13
ENDBRANCH  11  12
ENDBRANCH   1  11
TORSDOF 15
ENDMDL
