MODEL 1
REMARK VINA RESULT:    -4.158      0.000      0.000
REMARK INTER + INTRA:          -4.540
REMARK INTER:                  -4.523
REMARK INTRA:                  -0.017
REMARK UNBOUND:                -0.017
REMARK SMILES OCc1ccccc1
REMARK SMILES IDX 2 1 3 2 6 3 5 4 7 5 4 6 8 7 1 8
REMARK H PARENT 1 9
REMARK Flexibility Score: inf
ROOT
ATOM      1  C   UNL     1      34.764   5.114  19.361  1.00  0.00     0.191 C 
ENDROOT
BRANCH   1   2
ATOM      2  C   UNL     1      33.572   5.937  19.764  1.00  0.00    -0.023 A 
ATOM      3  C   UNL     1      31.300   7.421  20.479  1.00  0.00     0.000 A 
ATOM      4  C   UNL     1      31.734   6.371  21.294  1.00  0.00     0.000 A 
ATOM      5  C   UNL     1      31.992   7.725  19.304  1.00  0.00     0.000 A 
ATOM      6  C   UNL     1      32.862   5.626  20.936  1.00  0.00     0.006 A 
ATOM      7  C   UNL     1      33.121   6.983  18.943  1.00  0.00     0.006 A 
ENDBRANCH   1   2
BRANCH   1   8
ATOM      8  O   UNL     1      34.865   5.066  17.964  1.00  0.00    -0.392 OA
ATOM      9  H   UNL     1      34.012   5.426  17.605  1.00  0.00     0.211 HD
ENDBRANCH   1   8
TORSDOF 2
ENDMDL
MODEL 2
REMARK VINA RESULT:    -4.142     14.610     15.175
REMARK INTER + INTRA:          -4.523
REMARK INTER:                  -4.512
REMARK INTRA:                  -0.010
REMARK UNBOUND:                -0.017
REMARK SMILES OCc1ccccc1
REMARK SMILES IDX 2 1 3 2 6 3 5 4 7 5 4 6 8 7 1 8
REMARK H PARENT 1 9
REMARK Flexibility Score: inf
ROOT
ATOM      1  C   UNL     1      20.458  10.230  13.005  1.00  0.00     0.191 C 
ENDROOT
BRANCH   1   2
ATOM      2  C   UNL     1      19.748   9.822  14.266  1.00  0.00    -0.023 A 
ATOM      3  C   UNL     1      18.367   9.116  16.605  1.00  0.00     0.000 A 
ATOM      4  C   UNL     1      18.054   8.492  15.393  1.00  0.00     0.000 A 
ATOM      5  C   UNL     1      19.360  10.097  16.650  1.00  0.00     0.000 A 
ATOM      6  C   UNL     1      18.737   8.847  14.226  1.00  0.00     0.006 A 
ATOM      7  C   UNL     1      20.046  10.455  15.485  1.00  0.00     0.006 A 
ENDBRANCH   1   2
BRANCH   1   8
ATOM      8  O   UNL     1      19.625  11.045  12.226  1.00  0.00    -0.392 OA
ATOM      9  H   UNL     1      20.219  11.562  11.623  1.00  0.00     0.211 HD
ENDBRANCH   1   8
TORSDOF 2
ENDMDL
MODEL 3
REMARK VINA RESULT:    -4.102      2.587      3.592
REMARK INTER + INTRA:          -4.479
REMARK INTER:                  -4.467
REMARK INTRA:                  -0.012
REMARK UNBOUND:                -0.017
REMARK SMILES OCc1ccccc1
REMARK SMILES IDX 2 1 3 2 6 3 5 4 7 5 4 6 8 7 1 8
REMARK H PARENT 1 9
REMARK Flexibility Score: inf
ROOT
ATOM      1  C   UNL     1      30.607   7.140  22.413  1.00  0.00     0.191 C 
ENDROOT
BRANCH   1   2
ATOM      2  C   UNL     1      31.503   6.960  21.219  1.00  0.00    -0.023 A 
ATOM      3  C   UNL     1      33.231   6.668  19.027  1.00  0.00     0.000 A 
ATOM      4  C   UNL     1      33.297   5.767  20.094  1.00  0.00     0.000 A 
ATOM      5  C   UNL     1      32.311   7.719  19.056  1.00  0.00     0.000 A 
ATOM      6  C   UNL     1      32.441   5.915  21.190  1.00  0.00     0.006 A 
ATOM      7  C   UNL     1      31.453   7.870  20.150  1.00  0.00     0.006 A 
ENDBRANCH   1   2
BRANCH   1   8
ATOM      8  O   UNL     1      31.375   7.392  23.557  1.00  0.00    -0.392 OA
ATOM      9  H   UNL     1      31.602   6.509  23.947  1.00  0.00     0.211 HD
ENDBRANCH   1   8
TORSDOF 2
ENDMDL
MODEL 4
REMARK VINA RESULT:    -4.077     14.591     15.220
REMARK INTER + INTRA:          -4.452
REMARK INTER:                  -4.440
REMARK INTRA:                  -0.012
REMARK UNBOUND:                -0.017
REMARK SMILES OCc1ccccc1
REMARK SMILES IDX 2 1 3 2 6 3 5 4 7 5 4 6 8 7 1 8
REMARK H PARENT 1 9
REMARK Flexibility Score: inf
ROOT
ATOM      1  C   UNL     1      18.847   8.501  13.986  1.00  0.00     0.191 C 
ENDROOT
BRANCH   1   2
ATOM      2  C   UNL     1      18.845   9.119  15.357  1.00  0.00    -0.023 A 
ATOM      3  C   UNL     1      18.790  10.329  17.889  1.00  0.00     0.000 A 
ATOM      4  C   UNL     1      17.847   9.351  17.561  1.00  0.00     0.000 A 
ATOM      5  C   UNL     1      19.755  10.711  16.952  1.00  0.00     0.000 A 
ATOM      6  C   UNL     1      17.869   8.751  16.298  1.00  0.00     0.006 A 
ATOM      7  C   UNL     1      19.780  10.114  15.688  1.00  0.00     0.006 A 
ENDBRANCH   1   2
BRANCH   1   8
ATOM      8  O   UNL     1      18.648   9.489  13.013  1.00  0.00    -0.392 OA
ATOM      9  H   UNL     1      18.199  10.249  13.467  1.00  0.00     0.211 HD
ENDBRANCH   1   8
TORSDOF 2
ENDMDL
MODEL 5
REMARK VINA RESULT:    -4.074     14.184     15.293
REMARK INTER + INTRA:          -4.449
REMARK INTER:                  -4.436
REMARK INTRA:                  -0.012
REMARK UNBOUND:                -0.017
REMARK SMILES OCc1ccccc1
REMARK SMILES IDX 2 1 3 2 6 3 5 4 7 5 4 6 8 7 1 8
REMARK H PARENT 1 9
REMARK Flexibility Score: inf
ROOT
ATOM      1  C   UNL     1      30.656  -6.724  10.409  1.00  0.00     0.191 C 
ENDROOT
BRANCH   1   2
ATOM      2  C   UNL     1      31.134  -6.718  11.835  1.00  0.00    -0.023 A 
ATOM      3  C   UNL     1      32.085  -6.758  14.475  1.00  0.00     0.000 A 
ATOM      4  C   UNL     1      32.597  -5.832  13.561  1.00  0.00     0.000 A 
ATOM      5  C   UNL     1      31.107  -7.670  14.071  1.00  0.00     0.000 A 
ATOM      6  C   UNL     1      32.129  -5.814  12.244  1.00  0.00     0.006 A 
ATOM      7  C   UNL     1      30.636  -7.656  12.754  1.00  0.00     0.006 A 
ENDBRANCH   1   2
BRANCH   1   8
ATOM      8  O   UNL     1      31.719  -7.022   9.546  1.00  0.00    -0.392 OA
ATOM      9  H   UNL     1      32.055  -6.155   9.199  1.00  0.00     0.211 HD
ENDBRANCH   1   8
TORSDOF 2
ENDMDL
MODEL 6
REMARK VINA RESULT:    -4.066      2.969      4.140
REMARK INTER + INTRA:          -4.440
REMARK INTER:                  -4.430
REMARK INTRA:                  -0.010
REMARK UNBOUND:                -0.017
REMARK SMILES OCc1ccccc1
REMARK SMILES IDX 2 1 3 2 6 3 5 4 7 5 4 6 8 7 1 8
REMARK H PARENT 1 9
REMARK Flexibility Score: inf
ROOT
ATOM      1  C   UNL     1      30.514   7.426  22.936  1.00  0.00     0.191 C 
ENDROOT
BRANCH   1   2
ATOM      2  C   UNL     1      31.008   7.761  21.556  1.00  0.00    -0.023 A 
ATOM      3  C   UNL     1      31.860   8.358  18.950  1.00  0.00     0.000 A 
ATOM      4  C   UNL     1      31.130   9.301  19.680  1.00  0.00     0.000 A 
ATOM      5  C   UNL     1      32.158   7.115  19.514  1.00  0.00     0.000 A 
ATOM      6  C   UNL     1      30.699   9.003  20.976  1.00  0.00     0.006 A 
ATOM      7  C   UNL     1      31.729   6.813  20.811  1.00  0.00     0.006 A 
ENDBRANCH   1   2
BRANCH   1   8
ATOM      8  O   UNL     1      31.586   7.405  23.838  1.00  0.00    -0.392 OA
ATOM      9  H   UNL     1      31.351   6.747  24.543  1.00  0.00     0.211 HD
ENDBRANCH   1   8
TORSDOF 2
ENDMDL
MODEL 7
REMARK VINA RESULT:    -4.055     15.284     15.850
REMARK INTER + INTRA:          -4.428
REMARK INTER:                  -4.409
REMARK INTRA:                  -0.020
REMARK UNBOUND:                -0.017
REMARK SMILES OCc1ccccc1
REMARK SMILES IDX 2 1 3 2 6 3 5 4 7 5 4 6 8 7 1 8
REMARK H PARENT 1 9
REMARK Flexibility Score: inf
ROOT
ATOM      1  C   UNL     1      21.569   4.174  10.771  1.00  0.00     0.191 C 
ENDROOT
BRANCH   1   2
ATOM      2  C   UNL     1      21.153   2.742  10.963  1.00  0.00    -0.023 A 
ATOM      3  C   UNL     1      20.374   0.060  11.241  1.00  0.00     0.000 A 
ATOM      4  C   UNL     1      21.730   0.387  11.139  1.00  0.00     0.000 A 
ATOM      5  C   UNL     1      19.407   1.067  11.196  1.00  0.00     0.000 A 
ATOM      6  C   UNL     1      22.119   1.722  10.994  1.00  0.00     0.006 A 
ATOM      7  C   UNL     1      19.792   2.404  11.051  1.00  0.00     0.006 A 
ENDBRANCH   1   2
BRANCH   1   8
ATOM      8  O   UNL     1      20.439   4.984  10.602  1.00  0.00    -0.392 OA
ATOM      9  H   UNL     1      19.670   4.482  10.978  1.00  0.00     0.211 HD
ENDBRANCH   1   8
TORSDOF 2
ENDMDL
MODEL 8
REMARK VINA RESULT:    -4.039      2.193      3.255
REMARK INTER + INTRA:          -4.411
REMARK INTER:                  -4.400
REMARK INTRA:                  -0.011
REMARK UNBOUND:                -0.017
REMARK SMILES OCc1ccccc1
REMARK SMILES IDX 2 1 3 2 6 3 5 4 7 5 4 6 8 7 1 8
REMARK H PARENT 1 9
REMARK Flexibility Score: inf
ROOT
ATOM      1  C   UNL     1      32.137   9.591  18.281  1.00  0.00     0.191 C 
ENDROOT
BRANCH   1   2
ATOM      2  C   UNL     1      32.222   8.290  19.030  1.00  0.00    -0.023 A 
ATOM      3  C   UNL     1      32.435   5.896  20.478  1.00  0.00     0.000 A 
ATOM      4  C   UNL     1      31.492   6.858  20.853  1.00  0.00     0.000 A 
ATOM      5  C   UNL     1      33.278   6.130  19.389  1.00  0.00     0.000 A 
ATOM      6  C   UNL     1      31.389   8.054  20.136  1.00  0.00     0.006 A 
ATOM      7  C   UNL     1      33.177   7.325  18.669  1.00  0.00     0.006 A 
ENDBRANCH   1   2
BRANCH   1   8
ATOM      8  O   UNL     1      33.234  10.402  18.597  1.00  0.00    -0.392 OA
ATOM      9  H   UNL     1      33.721   9.946  19.333  1.00  0.00     0.211 HD
ENDBRANCH   1   8
TORSDOF 2
ENDMDL
MODEL 9
REMARK VINA RESULT:    -3.996     13.946     14.943
REMARK INTER + INTRA:          -4.364
REMARK INTER:                  -4.353
REMARK INTRA:                  -0.011
REMARK UNBOUND:                -0.017
REMARK SMILES OCc1ccccc1
REMARK SMILES IDX 2 1 3 2 6 3 5 4 7 5 4 6 8 7 1 8
REMARK H PARENT 1 9
REMARK Flexibility Score: inf
ROOT
ATOM      1  C   UNL     1      30.687  -6.487  10.618  1.00  0.00     0.191 C 
ENDROOT
BRANCH   1   2
ATOM      2  C   UNL     1      31.386  -6.479  11.949  1.00  0.00    -0.023 A 
ATOM      3  C   UNL     1      32.639  -6.409  14.460  1.00  0.00     0.000 A 
ATOM      4  C   UNL     1      31.568  -7.281  14.237  1.00  0.00     0.000 A 
ATOM      5  C   UNL     1      33.078  -5.566  13.436  1.00  0.00     0.000 A 
ATOM      6  C   UNL     1      30.939  -7.313  12.988  1.00  0.00     0.006 A 
ATOM      7  C   UNL     1      32.452  -5.595  12.186  1.00  0.00     0.006 A 
ENDBRANCH   1   2
BRANCH   1   8
ATOM      8  O   UNL     1      31.589  -6.833   9.603  1.00  0.00    -0.392 OA
ATOM      9  H   UNL     1      32.092  -7.625   9.929  1.00  0.00     0.211 HD
ENDBRANCH   1   8
TORSDOF 2
ENDMDL
