MODEL 1
REMARK VINA RESULT:    -6.943      0.000      0.000
REMARK INTER + INTRA:          -6.943
REMARK INTER:                  -6.943
REMARK INTRA:                   0.000
REMARK UNBOUND:                 0.000
REMARK SMILES O=c1ccc2ccccc2o1
REMARK SMILES IDX 7 1 8 2 9 3 10 4 5 5 6 6 4 7 3 8 2 9 1 10 11 11
REMARK H PARENT
REMARK Flexibility Score: inf
ROOT
ATOM      1  C   UNL     1     -14.284 -32.423 -10.134  1.00  0.00     0.001 A 
ATOM      2  C   UNL     1     -15.571 -32.605 -10.651  1.00  0.00     0.004 A 
ATOM      3  C   UNL     1     -16.111 -31.672 -11.541  1.00  0.00     0.048 A 
ATOM      4  C   UNL     1     -15.364 -30.550 -11.919  1.00  0.00     0.138 A 
ATOM      5  C   UNL     1     -14.064 -30.364 -11.396  1.00  0.00     0.018 A 
ATOM      6  C   UNL     1     -13.528 -31.305 -10.504  1.00  0.00     0.012 A 
ATOM      7  C   UNL     1     -13.341 -29.235 -11.791  1.00  0.00     0.019 A 
ATOM      8  C   UNL     1     -13.920 -28.331 -12.681  1.00  0.00     0.094 A 
ATOM      9  C   UNL     1     -15.212 -28.579 -13.158  1.00  0.00     0.336 A 
ATOM     10  O   UNL     1     -15.749 -27.773 -13.962  1.00  0.00    -0.246 OA
ATOM     11  O   UNL     1     -15.877 -29.662 -12.767  1.00  0.00    -0.423 OA
ENDROOT
TORSDOF 0
ENDMDL
MODEL 2
REMARK VINA RESULT:    -6.880      1.271      2.155
REMARK INTER + INTRA:          -6.880
REMARK INTER:                  -6.880
REMARK INTRA:                   0.000
REMARK UNBOUND:                 0.000
REMARK SMILES O=c1ccc2ccccc2o1
REMARK SMILES IDX 7 1 8 2 9 3 10 4 5 5 6 6 4 7 3 8 2 9 1 10 11 11
REMARK H PARENT
REMARK Flexibility Score: inf
ROOT
ATOM      1  C   UNL     1     -15.510 -32.611 -10.705  1.00  0.00     0.001 A 
ATOM      2  C   UNL     1     -14.282 -32.338 -10.092  1.00  0.00     0.004 A 
ATOM      3  C   UNL     1     -13.549 -31.205 -10.457  1.00  0.00     0.048 A 
ATOM      4  C   UNL     1     -14.042 -30.338 -11.439  1.00  0.00     0.138 A 
ATOM      5  C   UNL     1     -15.282 -30.613 -12.060  1.00  0.00     0.018 A 
ATOM      6  C   UNL     1     -16.013 -31.751 -11.688  1.00  0.00     0.012 A 
ATOM      7  C   UNL     1     -15.749 -29.729 -13.036  1.00  0.00     0.019 A 
ATOM      8  C   UNL     1     -14.985 -28.611 -13.369  1.00  0.00     0.094 A 
ATOM      9  C   UNL     1     -13.767 -28.402 -12.713  1.00  0.00     0.336 A 
ATOM     10  O   UNL     1     -13.063 -27.398 -13.000  1.00  0.00    -0.246 OA
ATOM     11  O   UNL     1     -13.345 -29.259 -11.786  1.00  0.00    -0.423 OA
ENDROOT
TORSDOF 0
ENDMDL
MODEL 3
REMARK VINA RESULT:    -6.583      4.821      5.661
REMARK INTER + INTRA:          -6.583
REMARK INTER:                  -6.583
REMARK INTRA:                   0.000
REMARK UNBOUND:                 0.000
REMARK SMILES O=c1ccc2ccccc2o1
REMARK SMILES IDX 7 1 8 2 9 3 10 4 5 5 6 6 4 7 3 8 2 9 1 10 11 11
REMARK H PARENT
REMARK Flexibility Score: inf
ROOT
ATOM      1  C   UNL     1     -14.043 -36.934 -15.843  1.00  0.00     0.001 A 
ATOM      2  C   UNL     1     -14.093 -36.001 -16.885  1.00  0.00     0.004 A 
ATOM      3  C   UNL     1     -14.406 -34.664 -16.620  1.00  0.00     0.048 A 
ATOM      4  C   UNL     1     -14.670 -34.253 -15.308  1.00  0.00     0.138 A 
ATOM      5  C   UNL     1     -14.619 -35.195 -14.254  1.00  0.00     0.018 A 
ATOM      6  C   UNL     1     -14.305 -36.534 -14.528  1.00  0.00     0.012 A 
ATOM      7  C   UNL     1     -14.887 -34.756 -12.955  1.00  0.00     0.019 A 
ATOM      8  C   UNL     1     -15.195 -33.413 -12.737  1.00  0.00     0.094 A 
ATOM      9  C   UNL     1     -15.226 -32.538 -13.828  1.00  0.00     0.336 A 
ATOM     10  O   UNL     1     -15.502 -31.322 -13.650  1.00  0.00    -0.246 OA
ATOM     11  O   UNL     1     -14.967 -32.981 -15.055  1.00  0.00    -0.423 OA
ENDROOT
TORSDOF 0
ENDMDL
MODEL 4
REMARK VINA RESULT:    -6.517      3.491      4.832
REMARK INTER + INTRA:          -6.517
REMARK INTER:                  -6.517
REMARK INTRA:                   0.000
REMARK UNBOUND:                 0.000
REMARK SMILES O=c1ccc2ccccc2o1
REMARK SMILES IDX 7 1 8 2 9 3 10 4 5 5 6 6 4 7 3 8 2 9 1 10 11 11
REMARK H PARENT
REMARK Flexibility Score: inf
ROOT
ATOM      1  C   UNL     1     -15.627 -30.733 -11.703  1.00  0.00     0.001 A 
ATOM      2  C   UNL     1     -15.547 -31.638 -10.639  1.00  0.00     0.004 A 
ATOM      3  C   UNL     1     -15.358 -33.000 -10.886  1.00  0.00     0.048 A 
ATOM      4  C   UNL     1     -15.247 -33.466 -12.201  1.00  0.00     0.138 A 
ATOM      5  C   UNL     1     -15.329 -32.553 -13.277  1.00  0.00     0.018 A 
ATOM      6  C   UNL     1     -15.518 -31.187 -13.022  1.00  0.00     0.012 A 
ATOM      7  C   UNL     1     -15.215 -33.046 -14.580  1.00  0.00     0.019 A 
ATOM      8  C   UNL     1     -15.027 -34.414 -14.779  1.00  0.00     0.094 A 
ATOM      9  C   UNL     1     -14.956 -35.258 -13.666  1.00  0.00     0.336 A 
ATOM     10  O   UNL     1     -14.786 -36.496 -13.827  1.00  0.00    -0.246 OA
ATOM     11  O   UNL     1     -15.067 -34.763 -12.436  1.00  0.00    -0.423 OA
ENDROOT
TORSDOF 0
ENDMDL
MODEL 5
REMARK VINA RESULT:    -6.510      3.189      4.430
REMARK INTER + INTRA:          -6.510
REMARK INTER:                  -6.510
REMARK INTRA:                   0.000
REMARK UNBOUND:                 0.000
REMARK SMILES O=c1ccc2ccccc2o1
REMARK SMILES IDX 7 1 8 2 9 3 10 4 5 5 6 6 4 7 3 8 2 9 1 10 11 11
REMARK H PARENT
REMARK Flexibility Score: inf
ROOT
ATOM      1  C   UNL     1     -15.655 -31.724 -10.804  1.00  0.00     0.001 A 
ATOM      2  C   UNL     1     -15.724 -30.756 -11.813  1.00  0.00     0.004 A 
ATOM      3  C   UNL     1     -15.531 -31.116 -13.150  1.00  0.00     0.048 A 
ATOM      4  C   UNL     1     -15.267 -32.449 -13.485  1.00  0.00     0.138 A 
ATOM      5  C   UNL     1     -15.196 -33.428 -12.468  1.00  0.00     0.018 A 
ATOM      6  C   UNL     1     -15.391 -33.060 -11.129  1.00  0.00     0.012 A 
ATOM      7  C   UNL     1     -14.932 -34.751 -12.833  1.00  0.00     0.019 A 
ATOM      8  C   UNL     1     -14.746 -35.064 -14.179  1.00  0.00     0.094 A 
ATOM      9  C   UNL     1     -14.831 -34.043 -15.132  1.00  0.00     0.336 A 
ATOM     10  O   UNL     1     -14.666 -34.308 -16.352  1.00  0.00    -0.246 OA
ATOM     11  O   UNL     1     -15.084 -32.792 -14.758  1.00  0.00    -0.423 OA
ENDROOT
TORSDOF 0
ENDMDL
MODEL 6
REMARK VINA RESULT:    -6.427      4.949      6.016
REMARK INTER + INTRA:          -6.427
REMARK INTER:                  -6.427
REMARK INTRA:                   0.000
REMARK UNBOUND:                 0.000
REMARK SMILES O=c1ccc2ccccc2o1
REMARK SMILES IDX 7 1 8 2 9 3 10 4 5 5 6 6 4 7 3 8 2 9 1 10 11 11
REMARK H PARENT
REMARK Flexibility Score: inf
ROOT
ATOM      1  C   UNL     1     -15.274 -33.019 -12.297  1.00  0.00     0.001 A 
ATOM      2  C   UNL     1     -15.345 -32.124 -13.371  1.00  0.00     0.004 A 
ATOM      3  C   UNL     1     -15.144 -32.575 -14.679  1.00  0.00     0.048 A 
ATOM      4  C   UNL     1     -14.871 -33.926 -14.920  1.00  0.00     0.138 A 
ATOM      5  C   UNL     1     -14.798 -34.832 -13.837  1.00  0.00     0.018 A 
ATOM      6  C   UNL     1     -15.001 -34.373 -12.527  1.00  0.00     0.012 A 
ATOM      7  C   UNL     1     -14.524 -36.175 -14.108  1.00  0.00     0.019 A 
ATOM      8  C   UNL     1     -14.331 -36.580 -15.428  1.00  0.00     0.094 A 
ATOM      9  C   UNL     1     -14.417 -35.629 -16.450  1.00  0.00     0.336 A 
ATOM     10  O   UNL     1     -14.246 -35.976 -17.648  1.00  0.00    -0.246 OA
ATOM     11  O   UNL     1     -14.680 -34.356 -16.165  1.00  0.00    -0.423 OA
ENDROOT
TORSDOF 0
ENDMDL
MODEL 7
REMARK VINA RESULT:    -6.424      5.019      5.801
REMARK INTER + INTRA:          -6.424
REMARK INTER:                  -6.424
REMARK INTRA:                   0.000
REMARK UNBOUND:                 0.000
REMARK SMILES O=c1ccc2ccccc2o1
REMARK SMILES IDX 7 1 8 2 9 3 10 4 5 5 6 6 4 7 3 8 2 9 1 10 11 11
REMARK H PARENT
REMARK Flexibility Score: inf
ROOT
ATOM      1  C   UNL     1     -14.113 -36.369 -16.678  1.00  0.00     0.001 A 
ATOM      2  C   UNL     1     -14.113 -37.079 -15.472  1.00  0.00     0.004 A 
ATOM      3  C   UNL     1     -14.387 -36.423 -14.268  1.00  0.00     0.048 A 
ATOM      4  C   UNL     1     -14.662 -35.051 -14.264  1.00  0.00     0.138 A 
ATOM      5  C   UNL     1     -14.661 -34.332 -15.481  1.00  0.00     0.018 A 
ATOM      6  C   UNL     1     -14.386 -34.996 -16.686  1.00  0.00     0.012 A 
ATOM      7  C   UNL     1     -14.940 -32.963 -15.447  1.00  0.00     0.019 A 
ATOM      8  C   UNL     1     -15.207 -32.350 -14.223  1.00  0.00     0.094 A 
ATOM      9  C   UNL     1     -15.190 -33.125 -13.058  1.00  0.00     0.336 A 
ATOM     10  O   UNL     1     -15.429 -32.589 -11.944  1.00  0.00    -0.246 OA
ATOM     11  O   UNL     1     -14.923 -34.427 -13.118  1.00  0.00    -0.423 OA
ENDROOT
TORSDOF 0
ENDMDL
MODEL 8
REMARK VINA RESULT:    -6.371      1.782      4.423
REMARK INTER + INTRA:          -6.371
REMARK INTER:                  -6.371
REMARK INTRA:                   0.000
REMARK UNBOUND:                 0.000
REMARK SMILES O=c1ccc2ccccc2o1
REMARK SMILES IDX 7 1 8 2 9 3 10 4 5 5 6 6 4 7 3 8 2 9 1 10 11 11
REMARK H PARENT
REMARK Flexibility Score: inf
ROOT
ATOM      1  C   UNL     1     -15.256 -26.913 -13.638  1.00  0.00     0.001 A 
ATOM      2  C   UNL     1     -14.056 -26.803 -12.927  1.00  0.00     0.004 A 
ATOM      3  C   UNL     1     -13.554 -27.899 -12.218  1.00  0.00     0.048 A 
ATOM      4  C   UNL     1     -14.252 -29.112 -12.217  1.00  0.00     0.138 A 
ATOM      5  C   UNL     1     -15.465 -29.224 -12.935  1.00  0.00     0.018 A 
ATOM      6  C   UNL     1     -15.962 -28.121 -13.644  1.00  0.00     0.012 A 
ATOM      7  C   UNL     1     -16.139 -30.448 -12.916  1.00  0.00     0.019 A 
ATOM      8  C   UNL     1     -15.602 -31.514 -12.195  1.00  0.00     0.094 A 
ATOM      9  C   UNL     1     -14.397 -31.331 -11.508  1.00  0.00     0.336 A 
ATOM     10  O   UNL     1     -13.897 -32.282 -10.853  1.00  0.00    -0.246 OA
ATOM     11  O   UNL     1     -13.774 -30.155 -11.543  1.00  0.00    -0.423 OA
ENDROOT
TORSDOF 0
ENDMDL
MODEL 9
REMARK VINA RESULT:    -6.363      1.309      3.971
REMARK INTER + INTRA:          -6.363
REMARK INTER:                  -6.363
REMARK INTRA:                   0.000
REMARK UNBOUND:                 0.000
REMARK SMILES O=c1ccc2ccccc2o1
REMARK SMILES IDX 7 1 8 2 9 3 10 4 5 5 6 6 4 7 3 8 2 9 1 10 11 11
REMARK H PARENT
REMARK Flexibility Score: inf
ROOT
ATOM      1  C   UNL     1     -13.975 -26.565 -13.305  1.00  0.00     0.001 A 
ATOM      2  C   UNL     1     -15.253 -26.815 -13.816  1.00  0.00     0.004 A 
ATOM      3  C   UNL     1     -15.893 -28.029 -13.550  1.00  0.00     0.048 A 
ATOM      4  C   UNL     1     -15.256 -29.001 -12.769  1.00  0.00     0.138 A 
ATOM      5  C   UNL     1     -13.964 -28.749 -12.252  1.00  0.00     0.018 A 
ATOM      6  C   UNL     1     -13.328 -27.529 -12.523  1.00  0.00     0.012 A 
ATOM      7  C   UNL     1     -13.353 -29.737 -11.475  1.00  0.00     0.019 A 
ATOM      8  C   UNL     1     -14.028 -30.933 -11.235  1.00  0.00     0.094 A 
ATOM      9  C   UNL     1     -15.305 -31.113 -11.779  1.00  0.00     0.336 A 
ATOM     10  O   UNL     1     -15.930 -32.187 -11.572  1.00  0.00    -0.246 OA
ATOM     11  O   UNL     1     -15.865 -30.156 -12.514  1.00  0.00    -0.423 OA
ENDROOT
TORSDOF 0
ENDMDL
