MODEL 1
REMARK VINA RESULT:    -5.704      0.000      0.000
REMARK INTER + INTRA:          -6.427
REMARK INTER:                  -6.371
REMARK INTRA:                  -0.056
REMARK UNBOUND:                -0.056
REMARK SMILES COc1cc2ccc(=O)oc2c(O)c1O
REMARK SMILES IDX 3 1 14 2 12 3 11 4 5 5 4 6 6 7 7 8 8 9 9 10 10 11 2 12 1 13
REMARK SMILES IDX 15 14 13 16
REMARK H PARENT 15 15 13 17
REMARK Flexibility Score: inf
ROOT
ATOM      1  C   UNL     1      10.264 -16.013   6.124  1.00  0.00     0.165 A 
ATOM      2  C   UNL     1       9.698 -16.643   7.243  1.00  0.00     0.204 A 
ATOM      3  C   UNL     1       8.378 -16.353   7.633  1.00  0.00     0.205 A 
ATOM      4  C   UNL     1       7.621 -15.425   6.899  1.00  0.00     0.184 A 
ATOM      5  C   UNL     1       8.188 -14.791   5.774  1.00  0.00     0.025 A 
ATOM      6  C   UNL     1       9.503 -15.084   5.390  1.00  0.00     0.062 A 
ATOM      7  C   UNL     1       7.411 -13.872   5.062  1.00  0.00     0.020 A 
ATOM      8  C   UNL     1       6.107 -13.609   5.478  1.00  0.00     0.094 A 
ATOM      9  C   UNL     1       5.609 -14.275   6.601  1.00  0.00     0.336 A 
ATOM     10  O   UNL     1       4.434 -14.052   6.993  1.00  0.00    -0.246 OA
ATOM     11  O   UNL     1       6.370 -15.145   7.261  1.00  0.00    -0.419 OA
ENDROOT
BRANCH   1  12
ATOM     12  O   UNL     1      11.585 -16.337   5.776  1.00  0.00    -0.493 OA
ATOM     13  C   UNL     1      12.732 -15.599   6.186  1.00  0.00     0.278 C 
ENDBRANCH   1  12
BRANCH   2  14
ATOM     14  O   UNL     1      10.466 -17.563   7.961  1.00  0.00    -0.502 OA
ATOM     15  H   UNL     1      10.412 -17.642   8.969  1.00  0.00     0.293 HD
ENDBRANCH   2  14
BRANCH   3  16
ATOM     16  O   UNL     1       7.834 -16.991   8.749  1.00  0.00    -0.502 OA
ATOM     17  H   UNL     1       8.396 -17.248   9.552  1.00  0.00     0.293 HD
ENDBRANCH   3  16
TORSDOF 3
ENDMDL
MODEL 2
REMARK VINA RESULT:    -5.515      1.604      5.432
REMARK INTER + INTRA:          -6.217
REMARK INTER:                  -6.154
REMARK INTRA:                  -0.062
REMARK UNBOUND:                -0.056
REMARK SMILES COc1cc2ccc(=O)oc2c(O)c1O
REMARK SMILES IDX 3 1 14 2 12 3 11 4 5 5 4 6 6 7 7 8 8 9 9 10 10 11 2 12 1 13
REMARK SMILES IDX 15 14 13 16
REMARK H PARENT 15 15 13 17
REMARK Flexibility Score: inf
ROOT
ATOM      1  C   UNL     1       6.157 -14.932   6.857  1.00  0.00     0.165 A 
ATOM      2  C   UNL     1       6.632 -14.140   5.800  1.00  0.00     0.204 A 
ATOM      3  C   UNL     1       7.961 -14.265   5.358  1.00  0.00     0.205 A 
ATOM      4  C   UNL     1       8.821 -15.187   5.979  1.00  0.00     0.184 A 
ATOM      5  C   UNL     1       8.344 -15.983   7.042  1.00  0.00     0.025 A 
ATOM      6  C   UNL     1       7.019 -15.855   7.477  1.00  0.00     0.062 A 
ATOM      7  C   UNL     1       9.222 -16.892   7.642  1.00  0.00     0.020 A 
ATOM      8  C   UNL     1      10.533 -16.988   7.177  1.00  0.00     0.094 A 
ATOM      9  C   UNL     1      10.936 -16.169   6.120  1.00  0.00     0.336 A 
ATOM     10  O   UNL     1      12.115 -16.239   5.685  1.00  0.00    -0.246 OA
ATOM     11  O   UNL     1      10.081 -15.312   5.567  1.00  0.00    -0.419 OA
ENDROOT
BRANCH   1  12
ATOM     12  O   UNL     1       4.822 -14.770   7.261  1.00  0.00    -0.493 OA
ATOM     13  C   UNL     1       3.743 -15.594   6.830  1.00  0.00     0.278 C 
ENDBRANCH   1  12
BRANCH   2  14
ATOM     14  O   UNL     1       5.763 -13.230   5.194  1.00  0.00    -0.502 OA
ATOM     15  H   UNL     1       4.946 -12.866   5.668  1.00  0.00     0.293 HD
ENDBRANCH   2  14
BRANCH   3  16
ATOM     16  O   UNL     1       8.415 -13.469   4.305  1.00  0.00    -0.502 OA
ATOM     17  H   UNL     1       9.112 -12.746   4.436  1.00  0.00     0.293 HD
ENDBRANCH   3  16
TORSDOF 3
ENDMDL
MODEL 3
REMARK VINA RESULT:    -5.295      1.987      5.560
REMARK INTER + INTRA:          -5.970
REMARK INTER:                  -5.900
REMARK INTRA:                  -0.070
REMARK UNBOUND:                -0.056
REMARK SMILES COc1cc2ccc(=O)oc2c(O)c1O
REMARK SMILES IDX 3 1 14 2 12 3 11 4 5 5 4 6 6 7 7 8 8 9 9 10 10 11 2 12 1 13
REMARK SMILES IDX 15 14 13 16
REMARK H PARENT 15 15 13 17
REMARK Flexibility Score: inf
ROOT
ATOM      1  C   UNL     1       5.188 -15.310   8.770  1.00  0.00     0.165 A 
ATOM      2  C   UNL     1       5.064 -14.420   7.691  1.00  0.00     0.204 A 
ATOM      3  C   UNL     1       6.088 -14.316   6.732  1.00  0.00     0.205 A 
ATOM      4  C   UNL     1       7.243 -15.107   6.853  1.00  0.00     0.184 A 
ATOM      5  C   UNL     1       7.368 -16.002   7.937  1.00  0.00     0.025 A 
ATOM      6  C   UNL     1       6.345 -16.101   8.889  1.00  0.00     0.062 A 
ATOM      7  C   UNL     1       8.528 -16.777   8.033  1.00  0.00     0.020 A 
ATOM      8  C   UNL     1       9.522 -16.647   7.063  1.00  0.00     0.094 A 
ATOM      9  C   UNL     1       9.330 -15.741   6.017  1.00  0.00     0.336 A 
ATOM     10  O   UNL     1      10.215 -15.608   5.131  1.00  0.00    -0.246 OA
ATOM     11  O   UNL     1       8.217 -15.015   5.950  1.00  0.00    -0.419 OA
ENDROOT
BRANCH   1  12
ATOM     12  O   UNL     1       4.139 -15.377   9.700  1.00  0.00    -0.493 OA
ATOM     13  C   UNL     1       3.203 -16.447   9.784  1.00  0.00     0.278 C 
ENDBRANCH   1  12
BRANCH   2  14
ATOM     14  O   UNL     1       3.909 -13.642   7.587  1.00  0.00    -0.502 OA
ATOM     15  H   UNL     1       3.004 -14.045   7.381  1.00  0.00     0.293 HD
ENDBRANCH   2  14
BRANCH   3  16
ATOM     16  O   UNL     1       5.945 -13.425   5.667  1.00  0.00    -0.502 OA
ATOM     17  H   UNL     1       5.644 -12.467   5.801  1.00  0.00     0.293 HD
ENDBRANCH   3  16
TORSDOF 3
ENDMDL
MODEL 4
REMARK VINA RESULT:    -5.292      2.313      5.387
REMARK INTER + INTRA:          -5.967
REMARK INTER:                  -5.926
REMARK INTRA:                  -0.041
REMARK UNBOUND:                -0.056
REMARK SMILES COc1cc2ccc(=O)oc2c(O)c1O
REMARK SMILES IDX 3 1 14 2 12 3 11 4 5 5 4 6 6 7 7 8 8 9 9 10 10 11 2 12 1 13
REMARK SMILES IDX 15 14 13 16
REMARK H PARENT 15 15 13 17
REMARK Flexibility Score: inf
ROOT
ATOM      1  C   UNL     1       3.866 -14.826   8.423  1.00  0.00     0.165 A 
ATOM      2  C   UNL     1       4.804 -15.631   9.089  1.00  0.00     0.204 A 
ATOM      3  C   UNL     1       6.099 -15.797   8.566  1.00  0.00     0.205 A 
ATOM      4  C   UNL     1       6.457 -15.154   7.369  1.00  0.00     0.184 A 
ATOM      5  C   UNL     1       5.516 -14.345   6.700  1.00  0.00     0.025 A 
ATOM      6  C   UNL     1       4.227 -14.183   7.225  1.00  0.00     0.062 A 
ATOM      7  C   UNL     1       5.900 -13.717   5.510  1.00  0.00     0.020 A 
ATOM      8  C   UNL     1       7.192 -13.905   5.022  1.00  0.00     0.094 A 
ATOM      9  C   UNL     1       8.073 -14.720   5.738  1.00  0.00     0.336 A 
ATOM     10  O   UNL     1       9.244 -14.903   5.315  1.00  0.00    -0.246 OA
ATOM     11  O   UNL     1       7.682 -15.305   6.867  1.00  0.00    -0.419 OA
ENDROOT
BRANCH   1  12
ATOM     12  O   UNL     1       2.586 -14.692   8.986  1.00  0.00    -0.493 OA
ATOM     13  C   UNL     1       1.480 -15.535   8.683  1.00  0.00     0.278 C 
ENDBRANCH   1  12
BRANCH   2  14
ATOM     14  O   UNL     1       4.429 -16.262  10.277  1.00  0.00    -0.502 OA
ATOM     15  H   UNL     1       4.569 -17.253  10.430  1.00  0.00     0.293 HD
ENDBRANCH   2  14
BRANCH   3  16
ATOM     16  O   UNL     1       7.017 -16.602   9.243  1.00  0.00    -0.502 OA
ATOM     17  H   UNL     1       7.245 -16.458  10.219  1.00  0.00     0.293 HD
ENDBRANCH   3  16
TORSDOF 3
ENDMDL
MODEL 5
REMARK VINA RESULT:    -5.253      2.081      3.639
REMARK INTER + INTRA:          -5.924
REMARK INTER:                  -5.873
REMARK INTRA:                  -0.051
REMARK UNBOUND:                -0.056
REMARK SMILES COc1cc2ccc(=O)oc2c(O)c1O
REMARK SMILES IDX 3 1 14 2 12 3 11 4 5 5 4 6 6 7 7 8 8 9 9 10 10 11 2 12 1 13
REMARK SMILES IDX 15 14 13 16
REMARK H PARENT 15 15 13 17
REMARK Flexibility Score: inf
ROOT
ATOM      1  C   UNL     1       8.095 -15.506   6.649  1.00  0.00     0.165 A 
ATOM      2  C   UNL     1       7.462 -14.608   5.775  1.00  0.00     0.204 A 
ATOM      3  C   UNL     1       6.163 -14.143   6.048  1.00  0.00     0.205 A 
ATOM      4  C   UNL     1       5.492 -14.581   7.202  1.00  0.00     0.184 A 
ATOM      5  C   UNL     1       6.127 -15.483   8.082  1.00  0.00     0.025 A 
ATOM      6  C   UNL     1       7.421 -15.942   7.805  1.00  0.00     0.062 A 
ATOM      7  C   UNL     1       5.436 -15.901   9.224  1.00  0.00     0.020 A 
ATOM      8  C   UNL     1       4.150 -15.419   9.461  1.00  0.00     0.094 A 
ATOM      9  C   UNL     1       3.583 -14.527   8.547  1.00  0.00     0.336 A 
ATOM     10  O   UNL     1       2.423 -14.080   8.743  1.00  0.00    -0.246 OA
ATOM     11  O   UNL     1       4.262 -14.145   7.469  1.00  0.00    -0.419 OA
ENDROOT
BRANCH   1  12
ATOM     12  O   UNL     1       9.392 -15.940   6.333  1.00  0.00    -0.493 OA
ATOM     13  C   UNL     1      10.103 -16.946   7.048  1.00  0.00     0.278 C 
ENDBRANCH   1  12
BRANCH   2  14
ATOM     14  O   UNL     1       8.145 -14.184   4.632  1.00  0.00    -0.502 OA
ATOM     15  H   UNL     1       8.760 -13.381   4.638  1.00  0.00     0.293 HD
ENDBRANCH   2  14
BRANCH   3  16
ATOM     16  O   UNL     1       5.552 -13.251   5.165  1.00  0.00    -0.502 OA
ATOM     17  H   UNL     1       5.920 -13.069   4.239  1.00  0.00     0.293 HD
ENDBRANCH   3  16
TORSDOF 3
ENDMDL
MODEL 6
REMARK VINA RESULT:    -5.046      5.661      6.988
REMARK INTER + INTRA:          -5.693
REMARK INTER:                  -5.623
REMARK INTRA:                  -0.070
REMARK UNBOUND:                -0.056
REMARK SMILES COc1cc2ccc(=O)oc2c(O)c1O
REMARK SMILES IDX 3 1 14 2 12 3 11 4 5 5 4 6 6 7 7 8 8 9 9 10 10 11 2 12 1 13
REMARK SMILES IDX 15 14 13 16
REMARK H PARENT 15 15 13 17
REMARK Flexibility Score: inf
ROOT
ATOM      1  C   UNL     1       7.943 -15.003  11.023  1.00  0.00     0.165 A 
ATOM      2  C   UNL     1       6.996 -13.967  11.046  1.00  0.00     0.204 A 
ATOM      3  C   UNL     1       7.326 -12.711  11.586  1.00  0.00     0.205 A 
ATOM      4  C   UNL     1       8.612 -12.491  12.107  1.00  0.00     0.184 A 
ATOM      5  C   UNL     1       9.565 -13.531  12.084  1.00  0.00     0.025 A 
ATOM      6  C   UNL     1       9.230 -14.780  11.544  1.00  0.00     0.062 A 
ATOM      7  C   UNL     1      10.838 -13.284  12.609  1.00  0.00     0.020 A 
ATOM      8  C   UNL     1      11.129 -12.027  13.137  1.00  0.00     0.094 A 
ATOM      9  C   UNL     1      10.137 -11.043  13.127  1.00  0.00     0.336 A 
ATOM     10  O   UNL     1      10.379  -9.902  13.598  1.00  0.00    -0.246 OA
ATOM     11  O   UNL     1       8.934 -11.305  12.621  1.00  0.00    -0.419 OA
ENDROOT
BRANCH   1  12
ATOM     12  O   UNL     1       7.564 -16.238  10.472  1.00  0.00    -0.493 OA
ATOM     13  C   UNL     1       7.947 -16.696   9.179  1.00  0.00     0.278 C 
ENDBRANCH   1  12
BRANCH   2  14
ATOM     14  O   UNL     1       5.722 -14.204  10.524  1.00  0.00    -0.502 OA
ATOM     15  H   UNL     1       5.576 -14.749   9.683  1.00  0.00     0.293 HD
ENDBRANCH   2  14
BRANCH   3  16
ATOM     16  O   UNL     1       6.370 -11.695  11.601  1.00  0.00    -0.502 OA
ATOM     17  H   UNL     1       6.622 -10.715  11.553  1.00  0.00     0.293 HD
ENDBRANCH   3  16
TORSDOF 3
ENDMDL
MODEL 7
REMARK VINA RESULT:    -5.015      2.225      3.237
REMARK INTER + INTRA:          -5.658
REMARK INTER:                  -5.592
REMARK INTRA:                  -0.067
REMARK UNBOUND:                -0.056
REMARK SMILES COc1cc2ccc(=O)oc2c(O)c1O
REMARK SMILES IDX 3 1 14 2 12 3 11 4 5 5 4 6 6 7 7 8 8 9 9 10 10 11 2 12 1 13
REMARK SMILES IDX 15 14 13 16
REMARK H PARENT 15 15 13 17
REMARK Flexibility Score: inf
ROOT
ATOM      1  C   UNL     1       7.394 -14.893   6.071  1.00  0.00     0.165 A 
ATOM      2  C   UNL     1       7.878 -15.741   7.080  1.00  0.00     0.204 A 
ATOM      3  C   UNL     1       7.048 -16.124   8.149  1.00  0.00     0.205 A 
ATOM      4  C   UNL     1       5.725 -15.654   8.209  1.00  0.00     0.184 A 
ATOM      5  C   UNL     1       5.237 -14.802   7.196  1.00  0.00     0.025 A 
ATOM      6  C   UNL     1       6.068 -14.425   6.134  1.00  0.00     0.062 A 
ATOM      7  C   UNL     1       3.916 -14.350   7.282  1.00  0.00     0.020 A 
ATOM      8  C   UNL     1       3.122 -14.750   8.356  1.00  0.00     0.094 A 
ATOM      9  C   UNL     1       3.672 -15.596   9.323  1.00  0.00     0.336 A 
ATOM     10  O   UNL     1       2.973 -15.970  10.301  1.00  0.00    -0.246 OA
ATOM     11  O   UNL     1       4.931 -16.012   9.217  1.00  0.00    -0.419 OA
ENDROOT
BRANCH   1  12
ATOM     12  O   UNL     1       8.261 -14.541   5.025  1.00  0.00    -0.493 OA
ATOM     13  C   UNL     1       8.976 -13.312   4.951  1.00  0.00     0.278 C 
ENDBRANCH   1  12
BRANCH   2  14
ATOM     14  O   UNL     1       9.195 -16.198   7.003  1.00  0.00    -0.502 OA
ATOM     15  H   UNL     1       9.935 -15.647   6.587  1.00  0.00     0.293 HD
ENDBRANCH   2  14
BRANCH   3  16
ATOM     16  O   UNL     1       7.548 -16.968   9.142  1.00  0.00    -0.502 OA
ATOM     17  H   UNL     1       6.968 -17.323   9.892  1.00  0.00     0.293 HD
ENDBRANCH   3  16
TORSDOF 3
ENDMDL
MODEL 8
REMARK VINA RESULT:    -4.799     10.613     12.669
REMARK INTER + INTRA:          -5.416
REMARK INTER:                  -5.347
REMARK INTRA:                  -0.069
REMARK UNBOUND:                -0.056
REMARK SMILES COc1cc2ccc(=O)oc2c(O)c1O
REMARK SMILES IDX 3 1 14 2 12 3 11 4 5 5 4 6 6 7 7 8 8 9 9 10 10 11 2 12 1 13
REMARK SMILES IDX 15 14 13 16
REMARK H PARENT 15 15 13 17
REMARK Flexibility Score: inf
ROOT
ATOM      1  C   UNL     1      14.693 -21.967  13.732  1.00  0.00     0.165 A 
ATOM      2  C   UNL     1      13.933 -22.215  12.579  1.00  0.00     0.204 A 
ATOM      3  C   UNL     1      13.123 -23.362  12.491  1.00  0.00     0.205 A 
ATOM      4  C   UNL     1      13.075 -24.267  13.565  1.00  0.00     0.184 A 
ATOM      5  C   UNL     1      13.838 -24.019  14.725  1.00  0.00     0.025 A 
ATOM      6  C   UNL     1      14.642 -22.875  14.807  1.00  0.00     0.062 A 
ATOM      7  C   UNL     1      13.770 -24.936  15.779  1.00  0.00     0.020 A 
ATOM      8  C   UNL     1      12.957 -26.062  15.656  1.00  0.00     0.094 A 
ATOM      9  C   UNL     1      12.228 -26.243  14.478  1.00  0.00     0.336 A 
ATOM     10  O   UNL     1      11.487 -27.253  14.347  1.00  0.00    -0.246 OA
ATOM     11  O   UNL     1      12.310 -25.355  13.491  1.00  0.00    -0.419 OA
ENDROOT
BRANCH   1  12
ATOM     12  O   UNL     1      15.485 -20.809  13.771  1.00  0.00    -0.493 OA
ATOM     13  C   UNL     1      16.892 -20.786  13.554  1.00  0.00     0.278 C 
ENDBRANCH   1  12
BRANCH   2  14
ATOM     14  O   UNL     1      13.994 -21.304  11.521  1.00  0.00    -0.502 OA
ATOM     15  H   UNL     1      13.429 -20.465  11.498  1.00  0.00     0.293 HD
ENDBRANCH   2  14
BRANCH   3  16
ATOM     16  O   UNL     1      12.375 -23.590  11.335  1.00  0.00    -0.502 OA
ATOM     17  H   UNL     1      12.798 -23.617  10.415  1.00  0.00     0.293 HD
ENDBRANCH   3  16
TORSDOF 3
ENDMDL
MODEL 9
REMARK VINA RESULT:    -4.798      8.102      9.444
REMARK INTER + INTRA:          -5.415
REMARK INTER:                  -5.351
REMARK INTRA:                  -0.064
REMARK UNBOUND:                -0.056
REMARK SMILES COc1cc2ccc(=O)oc2c(O)c1O
REMARK SMILES IDX 3 1 14 2 12 3 11 4 5 5 4 6 6 7 7 8 8 9 9 10 10 11 2 12 1 13
REMARK SMILES IDX 15 14 13 16
REMARK H PARENT 15 15 13 17
REMARK Flexibility Score: inf
ROOT
ATOM      1  C   UNL     1       9.073 -11.181  14.183  1.00  0.00     0.165 A 
ATOM      2  C   UNL     1      10.249 -11.098  13.423  1.00  0.00     0.204 A 
ATOM      3  C   UNL     1      11.074 -12.226  13.260  1.00  0.00     0.205 A 
ATOM      4  C   UNL     1      10.719 -13.444  13.864  1.00  0.00     0.184 A 
ATOM      5  C   UNL     1       9.536 -13.529  14.628  1.00  0.00     0.025 A 
ATOM      6  C   UNL     1       8.719 -12.402  14.786  1.00  0.00     0.062 A 
ATOM      7  C   UNL     1       9.207 -14.754  15.218  1.00  0.00     0.020 A 
ATOM      8  C   UNL     1      10.049 -15.850  15.035  1.00  0.00     0.094 A 
ATOM      9  C   UNL     1      11.204 -15.694  14.264  1.00  0.00     0.336 A 
ATOM     10  O   UNL     1      11.977 -16.671  14.087  1.00  0.00    -0.246 OA
ATOM     11  O   UNL     1      11.493 -14.518  13.715  1.00  0.00    -0.419 OA
ENDROOT
BRANCH   1  12
ATOM     12  O   UNL     1       8.283 -10.027  14.315  1.00  0.00    -0.493 OA
ATOM     13  C   UNL     1       6.915  -9.939  13.933  1.00  0.00     0.278 C 
ENDBRANCH   1  12
BRANCH   2  14
ATOM     14  O   UNL     1      10.586  -9.879  12.830  1.00  0.00    -0.502 OA
ATOM     15  H   UNL     1      10.306  -8.991  13.226  1.00  0.00     0.293 HD
ENDBRANCH   2  14
BRANCH   3  16
ATOM     16  O   UNL     1      12.240 -12.123  12.499  1.00  0.00    -0.502 OA
ATOM     17  H   UNL     1      12.343 -12.585  11.604  1.00  0.00     0.293 HD
ENDBRANCH   3  16
TORSDOF 3
ENDMDL
