MODEL 1
REMARK VINA RESULT:    -4.155      0.000      0.000
REMARK INTER + INTRA:          -6.574
REMARK INTER:                  -6.098
REMARK INTRA:                  -0.476
REMARK UNBOUND:                -0.476
REMARK SMILES C=C1C=C[C@H](C(C)C)CCC(C)=CCC1
REMARK SMILES IDX 3 1 4 2 5 3 9 4 10 5 11 6 12 7 13 8 6 10 7 11 8 12 2 13 1 14
REMARK SMILES IDX 15 15 14 16
REMARK H PARENT
REMARK Flexibility Score: 70.00
ROOT
ATOM      1  C   UNL     1     143.558 147.215 164.983  1.00  0.00    -0.001 C 
ATOM      2  C   UNL     1     142.578 146.292 164.950  1.00  0.00    -0.023 C 
ENDROOT
BRANCH   2   3
ATOM      3  C   UNL     1     142.279 145.361 163.790  1.00  0.00     0.014 C 
BRANCH   3   4
ATOM      4  C   UNL     1     142.799 143.921 164.073  1.00  0.00     0.012 C 
BRANCH   4   5
ATOM      5  C   UNL     1     143.868 143.814 165.184  1.00  0.00     0.031 C 
BRANCH   5   6
ATOM      6  C   UNL     1     145.290 143.519 164.718  1.00  0.00    -0.077 C 
ATOM      7  C   UNL     1     145.614 142.133 164.218  1.00  0.00     0.039 C 
ATOM      8  C   UNL     1     146.292 144.431 164.727  1.00  0.00    -0.028 CG0
ATOM      9  G   UNL     1     146.156 145.888 165.095  1.00  0.00     0.000 G0
ENDBRANCH   5   6
ENDBRANCH   4   5
ENDBRANCH   3   4
BRANCH   3  10
ATOM     10  C   UNL     1     140.779 145.371 163.351  1.00  0.00    -0.010 C 
ATOM     11  C   UNL     1     140.640 145.669 161.849  1.00  0.00     0.008 C 
ATOM     12  C   UNL     1     139.877 146.324 164.162  1.00  0.00     0.008 C 
ENDBRANCH   3  10
ENDBRANCH   2   3
BRANCH   1  13
ATOM     13  C   UNL     1     144.566 147.482 163.921  1.00  0.00    -0.055 C 
ATOM     14  C   UNL     1     144.209 148.256 162.892  1.00  0.00     0.012 C 
BRANCH  13  15
ATOM     15  C   UNL     1     145.911 146.789 163.882  1.00  0.00     0.039 C 
BRANCH  15  16
ATOM     16  C   UNL     1     146.165 145.885 165.114  1.00  0.00     0.032 CG0
ATOM     17  G   UNL     1     146.286 144.432 164.724  1.00  0.00     0.000 G0
ENDBRANCH  15  16
ENDBRANCH  13  15
ENDBRANCH   1  13
TORSDOF 1
ENDMDL
MODEL 2
REMARK VINA RESULT:    -4.077      3.546      5.107
REMARK INTER + INTRA:          -6.460
REMARK INTER:                  -6.098
REMARK INTRA:                  -0.362
REMARK UNBOUND:                -0.476
REMARK SMILES C=C1C=C[C@H](C(C)C)CCC(C)=CCC1
REMARK SMILES IDX 3 1 4 2 5 3 9 4 10 5 11 6 12 7 13 8 6 10 7 11 8 12 2 13 1 14
REMARK SMILES IDX 15 15 14 16
REMARK H PARENT
REMARK Flexibility Score: 70.00
ROOT
ATOM      1  C   UNL     1     147.097 143.231 164.117  1.00  0.00    -0.001 C 
ATOM      2  C   UNL     1     145.958 142.628 164.507  1.00  0.00    -0.023 C 
ENDROOT
BRANCH   2   3
ATOM      3  C   UNL     1     144.908 142.039 163.582  1.00  0.00     0.014 C 
BRANCH   3   4
ATOM      4  C   UNL     1     145.332 140.631 163.072  1.00  0.00     0.012 C 
BRANCH   4   5
ATOM      5  C   UNL     1     145.646 140.546 161.561  1.00  0.00     0.031 C 
BRANCH   5   6
ATOM      6  C   UNL     1     144.830 141.462 160.656  1.00  0.00    -0.077 C 
ATOM      7  C   UNL     1     143.396 141.096 160.360  1.00  0.00     0.039 C 
ATOM      8  C   UNL     1     145.316 142.594 160.091  1.00  0.00    -0.028 CG0
ATOM      9  G   UNL     1     146.683 143.185 160.334  1.00  0.00     0.000 G0
ENDBRANCH   5   6
ENDBRANCH   4   5
ENDBRANCH   3   4
BRANCH   3  10
ATOM     10  C   UNL     1     143.469 142.038 164.192  1.00  0.00    -0.010 C 
ATOM     11  C   UNL     1     143.215 143.308 165.021  1.00  0.00     0.008 C 
ATOM     12  C   UNL     1     143.123 140.788 165.026  1.00  0.00     0.008 C 
ENDBRANCH   3  10
ENDBRANCH   2   3
BRANCH   1  13
ATOM     13  C   UNL     1     147.580 143.406 162.720  1.00  0.00    -0.055 C 
ATOM     14  C   UNL     1     148.864 143.141 162.458  1.00  0.00     0.012 C 
BRANCH  13  15
ATOM     15  C   UNL     1     146.724 144.018 161.632  1.00  0.00     0.039 C 
BRANCH  15  16
ATOM     16  C   UNL     1     146.689 143.169 160.336  1.00  0.00     0.032 CG0
ATOM     17  G   UNL     1     145.323 142.575 160.096  1.00  0.00     0.000 G0
ENDBRANCH  15  16
ENDBRANCH  13  15
ENDBRANCH   1  13
TORSDOF 1
ENDMDL
MODEL 3
REMARK VINA RESULT:    -4.055      2.555      3.823
REMARK INTER + INTRA:          -6.427
REMARK INTER:                  -5.800
REMARK INTRA:                  -0.627
REMARK UNBOUND:                -0.476
REMARK SMILES C=C1C=C[C@H](C(C)C)CCC(C)=CCC1
REMARK SMILES IDX 3 1 4 2 5 3 9 4 10 5 11 6 12 7 13 8 6 10 7 11 8 12 2 13 1 14
REMARK SMILES IDX 15 15 14 16
REMARK H PARENT
REMARK Flexibility Score: 70.00
ROOT
ATOM      1  C   UNL     1     140.126 145.903 162.507  1.00  0.00    -0.001 C 
ATOM      2  C   UNL     1     140.775 145.692 161.345  1.00  0.00    -0.023 C 
ENDROOT
BRANCH   2   3
ATOM      3  C   UNL     1     142.249 145.953 161.096  1.00  0.00     0.014 C 
BRANCH   3   4
ATOM      4  C   UNL     1     142.995 144.645 160.702  1.00  0.00     0.012 C 
BRANCH   4   5
ATOM      5  C   UNL     1     143.937 144.073 161.785  1.00  0.00     0.031 C 
BRANCH   5   6
ATOM      6  C   UNL     1     143.294 143.139 162.805  1.00  0.00    -0.077 C 
ATOM      7  C   UNL     1     143.275 141.658 162.520  1.00  0.00     0.039 C 
ATOM      8  C   UNL     1     142.730 143.560 163.963  1.00  0.00    -0.028 CG0
ATOM      9  G   UNL     1     142.729 144.978 164.480  1.00  0.00     0.000 G0
ENDBRANCH   5   6
ENDBRANCH   4   5
ENDBRANCH   3   4
BRANCH   3  10
ATOM     10  C   UNL     1     142.515 147.113 160.082  1.00  0.00    -0.010 C 
ATOM     11  C   UNL     1     143.273 148.272 160.750  1.00  0.00     0.008 C 
ATOM     12  C   UNL     1     141.256 147.648 159.371  1.00  0.00     0.008 C 
ENDBRANCH   3  10
ENDBRANCH   2   3
BRANCH   1  13
ATOM     13  C   UNL     1     140.720 146.387 163.783  1.00  0.00    -0.055 C 
ATOM     14  C   UNL     1     140.882 147.704 163.944  1.00  0.00     0.012 C 
BRANCH  13  15
ATOM     15  C   UNL     1     141.287 145.448 164.826  1.00  0.00     0.039 C 
BRANCH  15  16
ATOM     16  C   UNL     1     142.726 144.975 164.500  1.00  0.00     0.032 CG0
ATOM     17  G   UNL     1     142.742 143.561 163.973  1.00  0.00     0.000 G0
ENDBRANCH  15  16
ENDBRANCH  13  15
ENDBRANCH   1  13
TORSDOF 1
ENDMDL
MODEL 4
REMARK VINA RESULT:    -4.048      1.758      4.189
REMARK INTER + INTRA:          -6.417
REMARK INTER:                  -5.926
REMARK INTRA:                  -0.491
REMARK UNBOUND:                -0.476
REMARK SMILES C=C1C=C[C@H](C(C)C)CCC(C)=CCC1
REMARK SMILES IDX 3 1 4 2 5 3 9 4 10 5 11 6 12 7 13 8 6 10 7 11 8 12 2 13 1 14
REMARK SMILES IDX 15 15 14 16
REMARK H PARENT
REMARK Flexibility Score: 70.00
ROOT
ATOM      1  C   UNL     1     143.111 147.258 162.878  1.00  0.00    -0.001 C 
ATOM      2  C   UNL     1     143.984 148.218 162.517  1.00  0.00    -0.023 C 
ENDROOT
BRANCH   2   3
ATOM      3  C   UNL     1     145.122 148.745 163.371  1.00  0.00     0.014 C 
BRANCH   3   4
ATOM      4  C   UNL     1     146.394 147.860 163.226  1.00  0.00     0.012 C 
BRANCH   4   5
ATOM      5  C   UNL     1     146.901 147.215 164.535  1.00  0.00     0.031 C 
BRANCH   5   6
ATOM      6  C   UNL     1     147.137 145.709 164.491  1.00  0.00    -0.077 C 
ATOM      7  C   UNL     1     148.483 145.200 164.037  1.00  0.00     0.039 C 
ATOM      8  C   UNL     1     146.203 144.787 164.833  1.00  0.00    -0.028 CG0
ATOM      9  G   UNL     1     144.837 145.084 165.400  1.00  0.00     0.000 G0
ENDBRANCH   5   6
ENDBRANCH   4   5
ENDBRANCH   3   4
BRANCH   3  10
ATOM     10  C   UNL     1     145.427 150.260 163.139  1.00  0.00    -0.010 C 
ATOM     11  C   UNL     1     146.289 150.469 161.883  1.00  0.00     0.008 C 
ATOM     12  C   UNL     1     146.069 150.980 164.343  1.00  0.00     0.008 C 
ENDBRANCH   3  10
ENDBRANCH   2   3
BRANCH   1  13
ATOM     13  C   UNL     1     143.106 146.493 164.154  1.00  0.00    -0.055 C 
ATOM     14  C   UNL     1     142.644 147.100 165.252  1.00  0.00     0.012 C 
BRANCH  13  15
ATOM     15  C   UNL     1     143.745 145.127 164.289  1.00  0.00     0.039 C 
BRANCH  15  16
ATOM     16  C   UNL     1     144.824 145.068 165.399  1.00  0.00     0.032 CG0
ATOM     17  G   UNL     1     146.194 144.794 164.830  1.00  0.00     0.000 G0
ENDBRANCH  15  16
ENDBRANCH  13  15
ENDBRANCH   1  13
TORSDOF 1
ENDMDL
MODEL 5
REMARK VINA RESULT:    -4.021      2.941      5.484
REMARK INTER + INTRA:          -6.378
REMARK INTER:                  -5.912
REMARK INTRA:                  -0.466
REMARK UNBOUND:                -0.476
REMARK SMILES C=C1C=C[C@H](C(C)C)CCC(C)=CCC1
REMARK SMILES IDX 3 1 4 2 5 3 9 4 10 5 11 6 12 7 13 8 6 10 7 11 8 12 2 13 1 14
REMARK SMILES IDX 15 15 14 16
REMARK H PARENT
REMARK Flexibility Score: 70.00
ROOT
ATOM      1  C   UNL     1     146.072 150.800 163.117  1.00  0.00    -0.001 C 
ATOM      2  C   UNL     1     145.780 150.600 161.818  1.00  0.00    -0.023 C 
ENDROOT
BRANCH   2   3
ATOM      3  C   UNL     1     145.641 149.248 161.141  1.00  0.00     0.014 C 
BRANCH   3   4
ATOM      4  C   UNL     1     144.146 148.889 160.900  1.00  0.00     0.012 C 
BRANCH   4   5
ATOM      5  C   UNL     1     143.718 147.487 161.391  1.00  0.00     0.031 C 
BRANCH   5   6
ATOM      6  C   UNL     1     142.840 147.456 162.637  1.00  0.00    -0.077 C 
ATOM      7  C   UNL     1     141.352 147.267 162.470  1.00  0.00     0.039 C 
ATOM      8  C   UNL     1     143.315 147.591 163.899  1.00  0.00    -0.028 CG0
ATOM      9  G   UNL     1     144.769 147.693 164.289  1.00  0.00     0.000 G0
ENDBRANCH   5   6
ENDBRANCH   4   5
ENDBRANCH   3   4
BRANCH   3  10
ATOM     10  C   UNL     1     146.499 149.109 159.842  1.00  0.00    -0.010 C 
ATOM     11  C   UNL     1     146.627 147.638 159.414  1.00  0.00     0.008 C 
ATOM     12  C   UNL     1     147.897 149.757 159.921  1.00  0.00     0.008 C 
ENDBRANCH   3  10
ENDBRANCH   2   3
BRANCH   1  13
ATOM     13  C   UNL     1     146.274 149.755 164.156  1.00  0.00    -0.055 C 
ATOM     14  C   UNL     1     147.512 149.291 164.353  1.00  0.00     0.012 C 
BRANCH  13  15
ATOM     15  C   UNL     1     145.121 149.089 164.878  1.00  0.00     0.039 C 
BRANCH  15  16
ATOM     16  C   UNL     1     144.771 147.693 164.306  1.00  0.00     0.032 CG0
ATOM     17  G   UNL     1     143.319 147.604 163.904  1.00  0.00     0.000 G0
ENDBRANCH  15  16
ENDBRANCH  13  15
ENDBRANCH   1  13
TORSDOF 1
ENDMDL
MODEL 6
REMARK VINA RESULT:    -4.013      1.260      3.385
REMARK INTER + INTRA:          -6.367
REMARK INTER:                  -5.774
REMARK INTRA:                  -0.592
REMARK UNBOUND:                -0.476
REMARK SMILES C=C1C=C[C@H](C(C)C)CCC(C)=CCC1
REMARK SMILES IDX 3 1 4 2 5 3 9 4 10 5 11 6 12 7 13 8 6 10 7 11 8 12 2 13 1 14
REMARK SMILES IDX 15 15 14 16
REMARK H PARENT
REMARK Flexibility Score: 70.00
ROOT
ATOM      1  C   UNL     1     143.767 144.543 162.621  1.00  0.00    -0.001 C 
ATOM      2  C   UNL     1     143.201 145.729 162.327  1.00  0.00    -0.023 C 
ENDROOT
BRANCH   2   3
ATOM      3  C   UNL     1     142.716 146.752 163.338  1.00  0.00     0.014 C 
BRANCH   3   4
ATOM      4  C   UNL     1     143.581 148.045 163.291  1.00  0.00     0.012 C 
BRANCH   4   5
ATOM      5  C   UNL     1     144.623 148.182 164.424  1.00  0.00     0.031 C 
BRANCH   5   6
ATOM      6  C   UNL     1     146.018 147.647 164.117  1.00  0.00    -0.077 C 
ATOM      7  C   UNL     1     146.973 148.521 163.343  1.00  0.00     0.039 C 
ATOM      8  C   UNL     1     146.458 146.423 164.497  1.00  0.00    -0.028 CG0
ATOM      9  G   UNL     1     145.700 145.440 165.355  1.00  0.00     0.000 G0
ENDBRANCH   5   6
ENDBRANCH   4   5
ENDBRANCH   3   4
BRANCH   3  10
ATOM     10  C   UNL     1     141.187 147.059 163.231  1.00  0.00    -0.010 C 
ATOM     11  C   UNL     1     140.679 147.798 164.480  1.00  0.00     0.008 C 
ATOM     12  C   UNL     1     140.301 145.829 162.951  1.00  0.00     0.008 C 
ENDBRANCH   3  10
ENDBRANCH   2   3
BRANCH   1  13
ATOM     13  C   UNL     1     144.073 144.014 163.978  1.00  0.00    -0.055 C 
ATOM     14  C   UNL     1     143.057 143.569 164.725  1.00  0.00     0.012 C 
BRANCH  13  15
ATOM     15  C   UNL     1     145.451 144.106 164.598  1.00  0.00     0.039 C 
BRANCH  15  16
ATOM     16  C   UNL     1     145.689 145.438 165.353  1.00  0.00     0.032 CG0
ATOM     17  G   UNL     1     146.466 146.423 164.514  1.00  0.00     0.000 G0
ENDBRANCH  15  16
ENDBRANCH  13  15
ENDBRANCH   1  13
TORSDOF 1
ENDMDL
MODEL 7
REMARK VINA RESULT:    -3.997      3.486      6.133
REMARK INTER + INTRA:          -6.343
REMARK INTER:                  -5.816
REMARK INTRA:                  -0.527
REMARK UNBOUND:                -0.476
REMARK SMILES C=C1C=C[C@H](C(C)C)CCC(C)=CCC1
REMARK SMILES IDX 3 1 4 2 5 3 9 4 10 5 11 6 12 7 13 8 6 10 7 11 8 12 2 13 1 14
REMARK SMILES IDX 15 15 14 16
REMARK H PARENT
REMARK Flexibility Score: 70.00
ROOT
ATOM      1  C   UNL     1     143.080 140.910 160.401  1.00  0.00    -0.001 C 
ATOM      2  C   UNL     1     143.581 140.919 161.652  1.00  0.00    -0.023 C 
ENDROOT
BRANCH   2   3
ATOM      3  C   UNL     1     144.203 142.117 162.346  1.00  0.00     0.014 C 
BRANCH   3   4
ATOM      4  C   UNL     1     143.167 142.847 163.249  1.00  0.00     0.012 C 
BRANCH   4   5
ATOM      5  C   UNL     1     143.042 144.369 163.011  1.00  0.00     0.031 C 
BRANCH   5   6
ATOM      6  C   UNL     1     141.694 144.855 162.489  1.00  0.00    -0.077 C 
ATOM      7  C   UNL     1     140.682 145.378 163.478  1.00  0.00     0.039 C 
ATOM      8  C   UNL     1     141.343 144.845 161.181  1.00  0.00    -0.028 CG0
ATOM      9  G   UNL     1     142.237 144.455 160.030  1.00  0.00     0.000 G0
ENDBRANCH   5   6
ENDBRANCH   4   5
ENDBRANCH   3   4
BRANCH   3  10
ATOM     10  C   UNL     1     145.521 141.778 163.114  1.00  0.00    -0.010 C 
ATOM     11  C   UNL     1     145.343 141.954 164.631  1.00  0.00     0.008 C 
ATOM     12  C   UNL     1     146.764 142.557 162.637  1.00  0.00     0.008 C 
ENDBRANCH   3  10
ENDBRANCH   2   3
BRANCH   1  13
ATOM     13  C   UNL     1     142.993 142.065 159.468  1.00  0.00    -0.055 C 
ATOM     14  C   UNL     1     144.047 142.326 158.687  1.00  0.00     0.012 C 
BRANCH  13  15
ATOM     15  C   UNL     1     141.836 143.041 159.483  1.00  0.00     0.039 C 
BRANCH  15  16
ATOM     16  C   UNL     1     142.224 144.436 160.031  1.00  0.00     0.032 CG0
ATOM     17  G   UNL     1     141.337 144.850 161.179  1.00  0.00     0.000 G0
ENDBRANCH  15  16
ENDBRANCH  13  15
ENDBRANCH   1  13
TORSDOF 1
ENDMDL
MODEL 8
REMARK VINA RESULT:    -3.993      4.025      5.829
REMARK INTER + INTRA:          -6.336
REMARK INTER:                  -5.858
REMARK INTRA:                  -0.478
REMARK UNBOUND:                -0.476
REMARK SMILES C=C1C=C[C@H](C(C)C)CCC(C)=CCC1
REMARK SMILES IDX 3 1 4 2 5 3 9 4 10 5 11 6 12 7 13 8 6 10 7 11 8 12 2 13 1 14
REMARK SMILES IDX 15 15 14 16
REMARK H PARENT
REMARK Flexibility Score: 70.00
ROOT
ATOM      1  C   UNL     1     147.625 149.596 159.811  1.00  0.00    -0.001 C 
ATOM      2  C   UNL     1     147.302 149.770 161.106  1.00  0.00    -0.023 C 
ENDROOT
BRANCH   2   3
ATOM      3  C   UNL     1     146.569 148.767 161.978  1.00  0.00     0.014 C 
BRANCH   3   4
ATOM      4  C   UNL     1     147.557 147.980 162.886  1.00  0.00     0.012 C 
BRANCH   4   5
ATOM      5  C   UNL     1     147.551 146.446 162.693  1.00  0.00     0.031 C 
BRANCH   5   6
ATOM      6  C   UNL     1     148.810 145.845 162.078  1.00  0.00    -0.077 C 
ATOM      7  C   UNL     1     149.919 145.394 162.996  1.00  0.00     0.039 C 
ATOM      8  C   UNL     1     149.001 145.692 160.745  1.00  0.00    -0.028 CG0
ATOM      9  G   UNL     1     147.986 145.988 159.669  1.00  0.00     0.000 G0
ENDBRANCH   5   6
ENDBRANCH   4   5
ENDBRANCH   3   4
BRANCH   3  10
ATOM     10  C   UNL     1     145.388 149.391 162.791  1.00  0.00    -0.010 C 
ATOM     11  C   UNL     1     145.843 150.638 163.566  1.00  0.00     0.008 C 
ATOM     12  C   UNL     1     144.674 148.411 163.744  1.00  0.00     0.008 C 
ENDBRANCH   3  10
ENDBRANCH   2   3
BRANCH   1  13
ATOM     13  C   UNL     1     147.374 148.383 158.986  1.00  0.00    -0.055 C 
ATOM     14  C   UNL     1     146.157 148.220 158.457  1.00  0.00     0.012 C 
BRANCH  13  15
ATOM     15  C   UNL     1     148.382 147.261 158.857  1.00  0.00     0.039 C 
BRANCH  15  16
ATOM     16  C   UNL     1     147.986 145.993 159.654  1.00  0.00     0.032 CG0
ATOM     17  G   UNL     1     148.988 145.682 160.739  1.00  0.00     0.000 G0
ENDBRANCH  15  16
ENDBRANCH  13  15
ENDBRANCH   1  13
TORSDOF 1
ENDMDL
MODEL 9
REMARK VINA RESULT:    -3.968      1.744      4.128
REMARK INTER + INTRA:          -6.300
REMARK INTER:                  -5.672
REMARK INTRA:                  -0.628
REMARK UNBOUND:                -0.476
REMARK SMILES C=C1C=C[C@H](C(C)C)CCC(C)=CCC1
REMARK SMILES IDX 3 1 4 2 5 3 9 4 10 5 11 6 12 7 13 8 6 10 7 11 8 12 2 13 1 14
REMARK SMILES IDX 15 15 14 16
REMARK H PARENT
REMARK Flexibility Score: 70.00
ROOT
ATOM      1  C   UNL     1     143.070 143.920 164.440  1.00  0.00    -0.001 C 
ATOM      2  C   UNL     1     144.016 143.074 164.889  1.00  0.00    -0.023 C 
ENDROOT
BRANCH   2   3
ATOM      3  C   UNL     1     145.212 142.582 164.095  1.00  0.00     0.014 C 
BRANCH   3   4
ATOM      4  C   UNL     1     146.548 143.084 164.716  1.00  0.00     0.012 C 
BRANCH   4   5
ATOM      5  C   UNL     1     146.510 144.519 165.287  1.00  0.00     0.031 C 
BRANCH   5   6
ATOM      6  C   UNL     1     146.849 145.637 164.307  1.00  0.00    -0.077 C 
ATOM      7  C   UNL     1     148.281 145.796 163.857  1.00  0.00     0.039 C 
ATOM      8  C   UNL     1     145.938 146.509 163.812  1.00  0.00    -0.028 CG0
ATOM      9  G   UNL     1     144.450 146.465 164.057  1.00  0.00     0.000 G0
ENDBRANCH   5   6
ENDBRANCH   4   5
ENDBRANCH   3   4
BRANCH   3  10
ATOM     10  C   UNL     1     145.213 141.037 163.860  1.00  0.00    -0.010 C 
ATOM     11  C   UNL     1     144.783 140.691 162.425  1.00  0.00     0.008 C 
ATOM     12  C   UNL     1     144.371 140.231 164.870  1.00  0.00     0.008 C 
ENDBRANCH   3  10
ENDBRANCH   2   3
BRANCH   1  13
ATOM     13  C   UNL     1     143.022 144.575 163.104  1.00  0.00    -0.055 C 
ATOM     14  C   UNL     1     142.490 143.893 162.085  1.00  0.00     0.012 C 
BRANCH  13  15
ATOM     15  C   UNL     1     143.690 145.905 162.824  1.00  0.00     0.039 C 
BRANCH  15  16
ATOM     16  C   UNL     1     144.447 146.475 164.049  1.00  0.00     0.032 CG0
ATOM     17  G   UNL     1     145.938 146.505 163.818  1.00  0.00     0.000 G0
ENDBRANCH  15  16
ENDBRANCH  13  15
ENDBRANCH   1  13
TORSDOF 1
ENDMDL
