MODEL 1
REMARK VINA RESULT:    -4.657      0.000      0.000
REMARK INTER + INTRA:          -4.657
REMARK INTER:                  -4.657
REMARK INTRA:                   0.000
REMARK UNBOUND:                 0.000
REMARK SMILES CC(C)=C1CC[C@@H](C)CC1=O
REMARK SMILES IDX 8 1 7 2 6 3 5 4 4 5 2 6 1 7 3 8 10 9 11 10 9 11
REMARK H PARENT
REMARK Flexibility Score: inf
ROOT
ATOM      1  C   UNL     1      16.314  44.586  18.663  1.00  0.00     0.008 C 
ATOM      2  C   UNL     1      14.794  44.636  18.476  1.00  0.00    -0.006 C 
ATOM      3  C   UNL     1      14.279  46.078  18.620  1.00  0.00     0.008 C 
ATOM      4  C   UNL     1      12.773  46.163  18.334  1.00  0.00     0.039 C 
ATOM      5  C   UNL     1      11.966  45.168  19.158  1.00  0.00    -0.006 C 
ATOM      6  C   UNL     1      10.693  45.451  19.566  1.00  0.00    -0.070 C 
ATOM      7  C   UNL     1       9.903  44.497  20.431  1.00  0.00     0.039 C 
ATOM      8  C   UNL     1      10.027  46.758  19.200  1.00  0.00     0.039 C 
ATOM      9  C   UNL     1      12.602  43.837  19.388  1.00  0.00     0.159 C 
ATOM     10  O   UNL     1      11.911  42.789  19.486  1.00  0.00    -0.295 OA
ATOM     11  C   UNL     1      14.095  43.726  19.497  1.00  0.00     0.084 C 
ENDROOT
TORSDOF 0
ENDMDL
MODEL 2
REMARK VINA RESULT:    -4.594      1.311      4.047
REMARK INTER + INTRA:          -4.594
REMARK INTER:                  -4.594
REMARK INTRA:                   0.000
REMARK UNBOUND:                 0.000
REMARK SMILES CC(C)=C1CC[C@@H](C)CC1=O
REMARK SMILES IDX 8 1 7 2 6 3 5 4 4 5 2 6 1 7 3 8 10 9 11 10 9 11
REMARK H PARENT
REMARK Flexibility Score: inf
ROOT
ATOM      1  C   UNL     1       9.380  48.469  18.402  1.00  0.00     0.008 C 
ATOM      2  C   UNL     1      10.371  47.462  18.997  1.00  0.00    -0.006 C 
ATOM      3  C   UNL     1      11.550  47.232  18.037  1.00  0.00     0.008 C 
ATOM      4  C   UNL     1      12.603  46.306  18.660  1.00  0.00     0.039 C 
ATOM      5  C   UNL     1      12.004  45.003  19.173  1.00  0.00    -0.006 C 
ATOM      6  C   UNL     1      12.719  43.839  19.160  1.00  0.00    -0.070 C 
ATOM      7  C   UNL     1      12.117  42.529  19.614  1.00  0.00     0.039 C 
ATOM      8  C   UNL     1      14.142  43.800  18.653  1.00  0.00     0.039 C 
ATOM      9  C   UNL     1      10.647  45.102  19.790  1.00  0.00     0.159 C 
ATOM     10  O   UNL     1      10.299  44.342  20.732  1.00  0.00    -0.295 OA
ATOM     11  C   UNL     1       9.670  46.128  19.294  1.00  0.00     0.084 C 
ENDROOT
TORSDOF 0
ENDMDL
MODEL 3
REMARK VINA RESULT:    -4.528      1.485      2.322
REMARK INTER + INTRA:          -4.528
REMARK INTER:                  -4.528
REMARK INTRA:                   0.000
REMARK UNBOUND:                 0.000
REMARK SMILES CC(C)=C1CC[C@@H](C)CC1=O
REMARK SMILES IDX 8 1 7 2 6 3 5 4 4 5 2 6 1 7 3 8 10 9 11 10 9 11
REMARK H PARENT
REMARK Flexibility Score: inf
ROOT
ATOM      1  C   UNL     1      16.131  44.321  18.482  1.00  0.00     0.008 C 
ATOM      2  C   UNL     1      14.780  44.440  19.195  1.00  0.00    -0.006 C 
ATOM      3  C   UNL     1      13.814  43.347  18.710  1.00  0.00     0.008 C 
ATOM      4  C   UNL     1      12.491  43.387  19.487  1.00  0.00     0.039 C 
ATOM      5  C   UNL     1      11.856  44.771  19.487  1.00  0.00    -0.006 C 
ATOM      6  C   UNL     1      10.500  44.930  19.517  1.00  0.00    -0.070 C 
ATOM      7  C   UNL     1       9.856  46.296  19.460  1.00  0.00     0.039 C 
ATOM      8  C   UNL     1       9.573  43.737  19.569  1.00  0.00     0.039 C 
ATOM      9  C   UNL     1      12.799  45.926  19.570  1.00  0.00     0.159 C 
ATOM     10  O   UNL     1      12.477  46.993  20.157  1.00  0.00    -0.295 OA
ATOM     11  C   UNL     1      14.165  45.827  18.956  1.00  0.00     0.084 C 
ENDROOT
TORSDOF 0
ENDMDL
MODEL 4
REMARK VINA RESULT:    -4.405      1.880      3.940
REMARK INTER + INTRA:          -4.405
REMARK INTER:                  -4.405
REMARK INTRA:                   0.000
REMARK UNBOUND:                 0.000
REMARK SMILES CC(C)=C1CC[C@@H](C)CC1=O
REMARK SMILES IDX 8 1 7 2 6 3 5 4 4 5 2 6 1 7 3 8 10 9 11 10 9 11
REMARK H PARENT
REMARK Flexibility Score: inf
ROOT
ATOM      1  C   UNL     1       9.371  41.865  20.422  1.00  0.00     0.008 C 
ATOM      2  C   UNL     1      10.083  43.217  20.302  1.00  0.00    -0.006 C 
ATOM      3  C   UNL     1       9.195  44.232  19.564  1.00  0.00     0.008 C 
ATOM      4  C   UNL     1       9.849  45.620  19.525  1.00  0.00     0.039 C 
ATOM      5  C   UNL     1      11.271  45.580  18.981  1.00  0.00    -0.006 C 
ATOM      6  C   UNL     1      11.791  46.629  18.277  1.00  0.00    -0.070 C 
ATOM      7  C   UNL     1      13.180  46.579  17.683  1.00  0.00     0.039 C 
ATOM      8  C   UNL     1      10.983  47.882  18.026  1.00  0.00     0.039 C 
ATOM      9  C   UNL     1      12.086  44.387  19.359  1.00  0.00     0.159 C 
ATOM     10  O   UNL     1      13.332  44.470  19.519  1.00  0.00    -0.295 OA
ATOM     11  C   UNL     1      11.421  43.058  19.566  1.00  0.00     0.084 C 
ENDROOT
TORSDOF 0
ENDMDL
MODEL 5
REMARK VINA RESULT:    -4.384      3.986      6.182
REMARK INTER + INTRA:          -4.384
REMARK INTER:                  -4.384
REMARK INTRA:                   0.000
REMARK UNBOUND:                 0.000
REMARK SMILES CC(C)=C1CC[C@@H](C)CC1=O
REMARK SMILES IDX 8 1 7 2 6 3 5 4 4 5 2 6 1 7 3 8 10 9 11 10 9 11
REMARK H PARENT
REMARK Flexibility Score: inf
ROOT
ATOM      1  C   UNL     1      20.025  48.599  20.982  1.00  0.00     0.008 C 
ATOM      2  C   UNL     1      19.207  47.303  20.991  1.00  0.00    -0.006 C 
ATOM      3  C   UNL     1      19.930  46.201  20.198  1.00  0.00     0.008 C 
ATOM      4  C   UNL     1      19.175  44.868  20.283  1.00  0.00     0.039 C 
ATOM      5  C   UNL     1      17.708  45.001  19.895  1.00  0.00    -0.006 C 
ATOM      6  C   UNL     1      17.037  43.976  19.291  1.00  0.00    -0.070 C 
ATOM      7  C   UNL     1      15.599  44.116  18.850  1.00  0.00     0.039 C 
ATOM      8  C   UNL     1      17.719  42.658  19.001  1.00  0.00     0.039 C 
ATOM      9  C   UNL     1      17.031  46.264  20.315  1.00  0.00     0.159 C 
ATOM     10  O   UNL     1      15.807  46.282  20.612  1.00  0.00    -0.295 OA
ATOM     11  C   UNL     1      17.810  47.543  20.399  1.00  0.00     0.084 C 
ENDROOT
TORSDOF 0
ENDMDL
MODEL 6
REMARK VINA RESULT:    -4.376      1.432      4.306
REMARK INTER + INTRA:          -4.376
REMARK INTER:                  -4.376
REMARK INTRA:                   0.000
REMARK UNBOUND:                 0.000
REMARK SMILES CC(C)=C1CC[C@@H](C)CC1=O
REMARK SMILES IDX 8 1 7 2 6 3 5 4 4 5 2 6 1 7 3 8 10 9 11 10 9 11
REMARK H PARENT
REMARK Flexibility Score: inf
ROOT
ATOM      1  C   UNL     1      10.226  45.073  19.628  1.00  0.00     0.008 C 
ATOM      2  C   UNL     1      11.690  44.920  20.053  1.00  0.00    -0.006 C 
ATOM      3  C   UNL     1      12.421  46.270  19.973  1.00  0.00     0.008 C 
ATOM      4  C   UNL     1      13.860  46.157  20.493  1.00  0.00     0.039 C 
ATOM      5  C   UNL     1      14.636  45.030  19.823  1.00  0.00    -0.006 C 
ATOM      6  C   UNL     1      15.984  45.120  19.619  1.00  0.00    -0.070 C 
ATOM      7  C   UNL     1      16.755  44.034  18.905  1.00  0.00     0.039 C 
ATOM      8  C   UNL     1      16.764  46.334  20.067  1.00  0.00     0.039 C 
ATOM      9  C   UNL     1      13.860  43.792  19.514  1.00  0.00     0.159 C 
ATOM     10  O   UNL     1      14.403  42.656  19.543  1.00  0.00    -0.295 OA
ATOM     11  C   UNL     1      12.402  43.885  19.171  1.00  0.00     0.084 C 
ENDROOT
TORSDOF 0
ENDMDL
MODEL 7
REMARK VINA RESULT:    -4.354      1.746      4.648
REMARK INTER + INTRA:          -4.354
REMARK INTER:                  -4.354
REMARK INTRA:                   0.000
REMARK UNBOUND:                 0.000
REMARK SMILES CC(C)=C1CC[C@@H](C)CC1=O
REMARK SMILES IDX 8 1 7 2 6 3 5 4 4 5 2 6 1 7 3 8 10 9 11 10 9 11
REMARK H PARENT
REMARK Flexibility Score: inf
ROOT
ATOM      1  C   UNL     1       9.877  45.871  19.502  1.00  0.00     0.008 C 
ATOM      2  C   UNL     1      11.236  45.295  19.088  1.00  0.00    -0.006 C 
ATOM      3  C   UNL     1      11.515  43.979  19.833  1.00  0.00     0.008 C 
ATOM      4  C   UNL     1      12.824  43.336  19.356  1.00  0.00     0.039 C 
ATOM      5  C   UNL     1      14.002  44.300  19.408  1.00  0.00    -0.006 C 
ATOM      6  C   UNL     1      15.270  43.859  19.659  1.00  0.00    -0.070 C 
ATOM      7  C   UNL     1      16.438  44.811  19.770  1.00  0.00     0.039 C 
ATOM      8  C   UNL     1      15.559  42.391  19.878  1.00  0.00     0.039 C 
ATOM      9  C   UNL     1      13.704  45.720  19.056  1.00  0.00     0.159 C 
ATOM     10  O   UNL     1      14.561  46.448  18.489  1.00  0.00    -0.295 OA
ATOM     11  C   UNL     1      12.358  46.305  19.369  1.00  0.00     0.084 C 
ENDROOT
TORSDOF 0
ENDMDL
MODEL 8
REMARK VINA RESULT:    -4.278      5.906      7.549
REMARK INTER + INTRA:          -4.278
REMARK INTER:                  -4.278
REMARK INTRA:                   0.000
REMARK UNBOUND:                 0.000
REMARK SMILES CC(C)=C1CC[C@@H](C)CC1=O
REMARK SMILES IDX 8 1 7 2 6 3 5 4 4 5 2 6 1 7 3 8 10 9 11 10 9 11
REMARK H PARENT
REMARK Flexibility Score: inf
ROOT
ATOM      1  C   UNL     1      18.841  50.200  20.278  1.00  0.00     0.008 C 
ATOM      2  C   UNL     1      18.932  48.754  20.776  1.00  0.00    -0.006 C 
ATOM      3  C   UNL     1      20.294  48.140  20.412  1.00  0.00     0.008 C 
ATOM      4  C   UNL     1      20.442  46.728  20.993  1.00  0.00     0.039 C 
ATOM      5  C   UNL     1      19.275  45.821  20.626  1.00  0.00    -0.006 C 
ATOM      6  C   UNL     1      19.448  44.477  20.452  1.00  0.00    -0.070 C 
ATOM      7  C   UNL     1      18.310  43.575  20.032  1.00  0.00     0.039 C 
ATOM      8  C   UNL     1      20.803  43.831  20.635  1.00  0.00     0.039 C 
ATOM      9  C   UNL     1      17.930  46.466  20.584  1.00  0.00     0.159 C 
ATOM     10  O   UNL     1      16.888  45.829  20.890  1.00  0.00    -0.295 OA
ATOM     11  C   UNL     1      17.799  47.906  20.179  1.00  0.00     0.084 C 
ENDROOT
TORSDOF 0
ENDMDL
MODEL 9
REMARK VINA RESULT:    -4.270      2.319      3.267
REMARK INTER + INTRA:          -4.270
REMARK INTER:                  -4.270
REMARK INTRA:                   0.000
REMARK UNBOUND:                 0.000
REMARK SMILES CC(C)=C1CC[C@@H](C)CC1=O
REMARK SMILES IDX 8 1 7 2 6 3 5 4 4 5 2 6 1 7 3 8 10 9 11 10 9 11
REMARK H PARENT
REMARK Flexibility Score: inf
ROOT
ATOM      1  C   UNL     1      17.048  43.629  20.648  1.00  0.00     0.008 C 
ATOM      2  C   UNL     1      16.068  44.741  20.260  1.00  0.00    -0.006 C 
ATOM      3  C   UNL     1      14.624  44.329  20.592  1.00  0.00     0.008 C 
ATOM      4  C   UNL     1      13.639  45.470  20.307  1.00  0.00     0.039 C 
ATOM      5  C   UNL     1      13.780  46.024  18.895  1.00  0.00    -0.006 C 
ATOM      6  C   UNL     1      12.704  46.523  18.217  1.00  0.00    -0.070 C 
ATOM      7  C   UNL     1      12.820  47.022  16.795  1.00  0.00     0.039 C 
ATOM      8  C   UNL     1      11.331  46.564  18.849  1.00  0.00     0.039 C 
ATOM      9  C   UNL     1      15.169  46.091  18.352  1.00  0.00     0.159 C 
ATOM     10  O   UNL     1      15.516  47.000  17.551  1.00  0.00    -0.295 OA
ATOM     11  C   UNL     1      16.188  45.070  18.765  1.00  0.00     0.084 C 
ENDROOT
TORSDOF 0
ENDMDL
