MODEL 1
REMARK VINA RESULT:    -4.941      0.000      0.000
REMARK INTER + INTRA:          -5.375
REMARK INTER:                  -5.375
REMARK INTRA:                   0.000
REMARK UNBOUND:                 0.000
REMARK SMILES Cc1cc(O)c2c(c1)C(=O)c1cc(O)cc(O)c1C2=O
REMARK SMILES IDX 1 1 2 2 8 3 7 4 6 5 4 6 3 7 19 8 20 9 18 10 11 11 9 12 10 13
REMARK SMILES IDX 12 14 13 15 15 16 16 17 5 18 17 20 14 22
REMARK H PARENT 5 19 17 21 14 23
REMARK Flexibility Score: inf
ROOT
ATOM      1  C   UNL     1     130.197 118.807 110.139  1.00  0.00     0.044 C 
ATOM      2  C   UNL     1     129.459 117.509 109.987  1.00  0.00    -0.047 A 
ATOM      3  C   UNL     1     128.098 117.507 109.665  1.00  0.00     0.016 A 
ATOM      4  C   UNL     1     127.404 116.297 109.493  1.00  0.00     0.038 A 
ATOM      5  C   UNL     1     128.086 115.068 109.645  1.00  0.00     0.076 A 
ATOM      6  C   UNL     1     129.483 115.078 109.888  1.00  0.00     0.127 A 
ATOM      7  C   UNL     1     130.148 116.294 110.076  1.00  0.00     0.050 A 
ATOM      8  C   UNL     1     127.291 113.814 109.603  1.00  0.00     0.201 C 
ATOM      9  O   UNL     1     127.669 112.809 110.263  1.00  0.00    -0.288 OA
ATOM     10  C   UNL     1     125.961 113.805 108.940  1.00  0.00     0.076 A 
ATOM     11  C   UNL     1     125.283 115.037 108.786  1.00  0.00     0.041 A 
ATOM     12  C   UNL     1     125.964 116.304 109.145  1.00  0.00     0.194 C 
ATOM     13  O   UNL     1     125.323 117.391 109.130  1.00  0.00    -0.289 OA
ATOM     14  C   UNL     1     123.968 115.053 108.290  1.00  0.00     0.059 A 
ATOM     15  C   UNL     1     123.330 113.863 107.932  1.00  0.00     0.120 A 
ATOM     16  C   UNL     1     124.010 112.651 108.044  1.00  0.00     0.093 A 
ATOM     17  C   UNL     1     125.325 112.608 108.516  1.00  0.00     0.131 A 
ENDROOT
BRANCH   6  18
ATOM     18  O   UNL     1     130.253 113.913 109.914  1.00  0.00    -0.507 OA
ATOM     19  H   UNL     1     130.524 113.441 110.767  1.00  0.00     0.293 HD
ENDBRANCH   6  18
BRANCH  17  20
ATOM     20  O   UNL     1     125.971 111.370 108.514  1.00  0.00    -0.507 OA
ATOM     21  H   UNL     1     126.920 111.236 108.191  1.00  0.00     0.293 HD
ENDBRANCH  17  20
BRANCH  15  22
ATOM     22  O   UNL     1     122.022 113.875 107.452  1.00  0.00    -0.508 OA
ATOM     23  H   UNL     1     121.721 113.244 106.718  1.00  0.00     0.293 HD
ENDBRANCH  15  22
TORSDOF 3
ENDMDL
MODEL 2
REMARK VINA RESULT:    -4.635      3.550      7.678
REMARK INTER + INTRA:          -5.042
REMARK INTER:                  -5.042
REMARK INTRA:                   0.000
REMARK UNBOUND:                 0.000
REMARK SMILES Cc1cc(O)c2c(c1)C(=O)c1cc(O)cc(O)c1C2=O
REMARK SMILES IDX 1 1 2 2 8 3 7 4 6 5 4 6 3 7 19 8 20 9 18 10 11 11 9 12 10 13
REMARK SMILES IDX 12 14 13 15 15 16 16 17 5 18 17 20 14 22
REMARK H PARENT 5 19 17 21 14 23
REMARK Flexibility Score: inf
ROOT
ATOM      1  C   UNL     1     124.925 105.407 108.369  1.00  0.00     0.044 C 
ATOM      2  C   UNL     1     124.346 106.792 108.412  1.00  0.00    -0.047 A 
ATOM      3  C   UNL     1     125.176 107.894 108.640  1.00  0.00     0.016 A 
ATOM      4  C   UNL     1     124.648 109.197 108.654  1.00  0.00     0.038 A 
ATOM      5  C   UNL     1     123.266 109.398 108.437  1.00  0.00     0.076 A 
ATOM      6  C   UNL     1     122.446 108.284 108.123  1.00  0.00     0.127 A 
ATOM      7  C   UNL     1     122.990 106.995 108.135  1.00  0.00     0.050 A 
ATOM      8  C   UNL     1     122.720 110.769 108.606  1.00  0.00     0.201 C 
ATOM      9  O   UNL     1     121.530 110.928 108.990  1.00  0.00    -0.288 OA
ATOM     10  C   UNL     1     123.628 111.942 108.507  1.00  0.00     0.076 A 
ATOM     11  C   UNL     1     125.010 111.737 108.723  1.00  0.00     0.041 A 
ATOM     12  C   UNL     1     125.535 110.360 108.890  1.00  0.00     0.194 C 
ATOM     13  O   UNL     1     126.743 110.180 109.207  1.00  0.00    -0.289 OA
ATOM     14  C   UNL     1     125.880 112.839 108.774  1.00  0.00     0.059 A 
ATOM     15  C   UNL     1     125.392 114.136 108.598  1.00  0.00     0.120 A 
ATOM     16  C   UNL     1     124.037 114.339 108.345  1.00  0.00     0.093 A 
ATOM     17  C   UNL     1     123.152 113.258 108.270  1.00  0.00     0.131 A 
ENDROOT
BRANCH   6  18
ATOM     18  O   UNL     1     121.103 108.412 107.760  1.00  0.00    -0.507 OA
ATOM     19  H   UNL     1     120.695 109.276 107.427  1.00  0.00     0.293 HD
ENDBRANCH   6  18
BRANCH  17  20
ATOM     20  O   UNL     1     121.828 113.532 107.922  1.00  0.00    -0.507 OA
ATOM     21  H   UNL     1     121.449 113.376 106.998  1.00  0.00     0.293 HD
ENDBRANCH  17  20
BRANCH  15  22
ATOM     22  O   UNL     1     126.251 115.232 108.660  1.00  0.00    -0.508 OA
ATOM     23  H   UNL     1     125.965 116.148 108.335  1.00  0.00     0.293 HD
ENDBRANCH  15  22
TORSDOF 3
ENDMDL
MODEL 3
REMARK VINA RESULT:    -4.593      1.660      2.573
REMARK INTER + INTRA:          -4.996
REMARK INTER:                  -4.996
REMARK INTRA:                   0.000
REMARK UNBOUND:                 0.000
REMARK SMILES Cc1cc(O)c2c(c1)C(=O)c1cc(O)cc(O)c1C2=O
REMARK SMILES IDX 1 1 2 2 8 3 7 4 6 5 4 6 3 7 19 8 20 9 18 10 11 11 9 12 10 13
REMARK SMILES IDX 12 14 13 15 15 16 16 17 5 18 17 20 14 22
REMARK H PARENT 5 19 17 21 14 23
REMARK Flexibility Score: inf
ROOT
ATOM      1  C   UNL     1     126.209 119.101 108.729  1.00  0.00     0.044 C 
ATOM      2  C   UNL     1     126.332 117.625 108.972  1.00  0.00    -0.047 A 
ATOM      3  C   UNL     1     125.215 116.794 108.836  1.00  0.00     0.016 A 
ATOM      4  C   UNL     1     125.326 115.407 109.033  1.00  0.00     0.038 A 
ATOM      5  C   UNL     1     126.576 114.843 109.373  1.00  0.00     0.076 A 
ATOM      6  C   UNL     1     127.720 115.679 109.426  1.00  0.00     0.127 A 
ATOM      7  C   UNL     1     127.582 117.060 109.246  1.00  0.00     0.050 A 
ATOM      8  C   UNL     1     126.625 113.399 109.718  1.00  0.00     0.201 C 
ATOM      9  O   UNL     1     127.487 112.979 110.536  1.00  0.00    -0.288 OA
ATOM     10  C   UNL     1     125.545 112.491 109.250  1.00  0.00     0.076 A 
ATOM     11  C   UNL     1     124.297 113.059 108.908  1.00  0.00     0.041 A 
ATOM     12  C   UNL     1     124.139 114.533 108.880  1.00  0.00     0.194 C 
ATOM     13  O   UNL     1     122.998 115.042 108.700  1.00  0.00    -0.289 OA
ATOM     14  C   UNL     1     123.212 112.223 108.594  1.00  0.00     0.059 A 
ATOM     15  C   UNL     1     123.362 110.834 108.600  1.00  0.00     0.120 A 
ATOM     16  C   UNL     1     124.602 110.272 108.897  1.00  0.00     0.093 A 
ATOM     17  C   UNL     1     125.703 111.081 109.195  1.00  0.00     0.131 A 
ENDROOT
BRANCH   6  18
ATOM     18  O   UNL     1     129.011 115.182 109.618  1.00  0.00    -0.507 OA
ATOM     19  H   UNL     1     129.248 114.502 110.329  1.00  0.00     0.293 HD
ENDBRANCH   6  18
BRANCH  17  20
ATOM     20  O   UNL     1     126.933 110.450 109.391  1.00  0.00    -0.507 OA
ATOM     21  H   UNL     1     127.193 109.990 110.253  1.00  0.00     0.293 HD
ENDBRANCH  17  20
BRANCH  15  22
ATOM     22  O   UNL     1     122.285 110.002 108.301  1.00  0.00    -0.508 OA
ATOM     23  H   UNL     1     121.327 110.313 108.416  1.00  0.00     0.293 HD
ENDBRANCH  15  22
TORSDOF 3
ENDMDL
MODEL 4
REMARK VINA RESULT:    -4.484     15.021     16.693
REMARK INTER + INTRA:          -4.877
REMARK INTER:                  -4.877
REMARK INTRA:                   0.000
REMARK UNBOUND:                 0.000
REMARK SMILES Cc1cc(O)c2c(c1)C(=O)c1cc(O)cc(O)c1C2=O
REMARK SMILES IDX 1 1 2 2 8 3 7 4 6 5 4 6 3 7 19 8 20 9 18 10 11 11 9 12 10 13
REMARK SMILES IDX 12 14 13 15 15 16 16 17 5 18 17 20 14 22
REMARK H PARENT 5 19 17 21 14 23
REMARK Flexibility Score: inf
ROOT
ATOM      1  C   UNL     1     115.067 106.557 121.432  1.00  0.00     0.044 C 
ATOM      2  C   UNL     1     116.533 106.775 121.669  1.00  0.00    -0.047 A 
ATOM      3  C   UNL     1     117.171 107.902 121.139  1.00  0.00     0.016 A 
ATOM      4  C   UNL     1     118.537 108.130 121.379  1.00  0.00     0.038 A 
ATOM      5  C   UNL     1     119.276 107.214 122.162  1.00  0.00     0.076 A 
ATOM      6  C   UNL     1     118.605 106.120 122.765  1.00  0.00     0.127 A 
ATOM      7  C   UNL     1     117.250 105.903 122.495  1.00  0.00     0.050 A 
ATOM      8  C   UNL     1     120.746 107.408 122.270  1.00  0.00     0.201 C 
ATOM      9  O   UNL     1     121.499 106.411 122.426  1.00  0.00    -0.288 OA
ATOM     10  C   UNL     1     121.335 108.747 122.006  1.00  0.00     0.076 A 
ATOM     11  C   UNL     1     120.591 109.661 121.225  1.00  0.00     0.041 A 
ATOM     12  C   UNL     1     119.204 109.330 120.820  1.00  0.00     0.194 C 
ATOM     13  O   UNL     1     118.582 110.083 120.021  1.00  0.00    -0.289 OA
ATOM     14  C   UNL     1     121.170 110.882 120.838  1.00  0.00     0.059 A 
ATOM     15  C   UNL     1     122.470 111.207 121.234  1.00  0.00     0.120 A 
ATOM     16  C   UNL     1     123.191 110.326 122.038  1.00  0.00     0.093 A 
ATOM     17  C   UNL     1     122.632 109.113 122.452  1.00  0.00     0.131 A 
ENDROOT
BRANCH   6  18
ATOM     18  O   UNL     1     119.230 105.251 123.661  1.00  0.00    -0.507 OA
ATOM     19  H   UNL     1     119.566 105.535 124.572  1.00  0.00     0.293 HD
ENDBRANCH   6  18
BRANCH  17  20
ATOM     20  O   UNL     1     123.379 108.324 123.330  1.00  0.00    -0.507 OA
ATOM     21  H   UNL     1     124.268 107.909 123.089  1.00  0.00     0.293 HD
ENDBRANCH  17  20
BRANCH  15  22
ATOM     22  O   UNL     1     123.052 112.411 120.842  1.00  0.00    -0.508 OA
ATOM     23  H   UNL     1     123.735 112.883 121.423  1.00  0.00     0.293 HD
ENDBRANCH  15  22
TORSDOF 3
ENDMDL
MODEL 5
REMARK VINA RESULT:    -4.428      1.433      6.239
REMARK INTER + INTRA:          -4.816
REMARK INTER:                  -4.816
REMARK INTRA:                   0.000
REMARK UNBOUND:                 0.000
REMARK SMILES Cc1cc(O)c2c(c1)C(=O)c1cc(O)cc(O)c1C2=O
REMARK SMILES IDX 1 1 2 2 8 3 7 4 6 5 4 6 3 7 19 8 20 9 18 10 11 11 9 12 10 13
REMARK SMILES IDX 12 14 13 15 15 16 16 17 5 18 17 20 14 22
REMARK H PARENT 5 19 17 21 14 23
REMARK Flexibility Score: inf
ROOT
ATOM      1  C   UNL     1     124.189 109.647 108.815  1.00  0.00     0.044 C 
ATOM      2  C   UNL     1     124.518 111.112 108.814  1.00  0.00    -0.047 A 
ATOM      3  C   UNL     1     125.642 111.581 109.501  1.00  0.00     0.016 A 
ATOM      4  C   UNL     1     125.974 112.947 109.483  1.00  0.00     0.038 A 
ATOM      5  C   UNL     1     125.166 113.857 108.765  1.00  0.00     0.076 A 
ATOM      6  C   UNL     1     124.077 113.363 108.003  1.00  0.00     0.127 A 
ATOM      7  C   UNL     1     123.754 112.003 108.052  1.00  0.00     0.050 A 
ATOM      8  C   UNL     1     125.461 115.308 108.891  1.00  0.00     0.201 C 
ATOM      9  O   UNL     1     124.527 116.148 108.789  1.00  0.00    -0.288 OA
ATOM     10  C   UNL     1     126.812 115.752 109.322  1.00  0.00     0.076 A 
ATOM     11  C   UNL     1     127.619 114.837 110.037  1.00  0.00     0.041 A 
ATOM     12  C   UNL     1     127.171 113.434 110.208  1.00  0.00     0.194 C 
ATOM     13  O   UNL     1     127.823 112.650 110.950  1.00  0.00    -0.289 OA
ATOM     14  C   UNL     1     128.843 115.262 110.580  1.00  0.00     0.059 A 
ATOM     15  C   UNL     1     129.278 116.579 110.405  1.00  0.00     0.120 A 
ATOM     16  C   UNL     1     128.505 117.472 109.665  1.00  0.00     0.093 A 
ATOM     17  C   UNL     1     127.291 117.070 109.098  1.00  0.00     0.131 A 
ENDROOT
BRANCH   6  18
ATOM     18  O   UNL     1     123.316 114.175 107.159  1.00  0.00    -0.507 OA
ATOM     19  H   UNL     1     122.537 113.835 106.610  1.00  0.00     0.293 HD
ENDBRANCH   6  18
BRANCH  17  20
ATOM     20  O   UNL     1     126.617 117.992 108.295  1.00  0.00    -0.507 OA
ATOM     21  H   UNL     1     125.692 118.343 108.503  1.00  0.00     0.293 HD
ENDBRANCH  17  20
BRANCH  15  22
ATOM     22  O   UNL     1     130.486 117.006 110.952  1.00  0.00    -0.508 OA
ATOM     23  H   UNL     1     130.536 117.398 111.885  1.00  0.00     0.293 HD
ENDBRANCH  15  22
TORSDOF 3
ENDMDL
MODEL 6
REMARK VINA RESULT:    -4.345     14.216     15.758
REMARK INTER + INTRA:          -4.726
REMARK INTER:                  -4.726
REMARK INTRA:                   0.000
REMARK UNBOUND:                 0.000
REMARK SMILES Cc1cc(O)c2c(c1)C(=O)c1cc(O)cc(O)c1C2=O
REMARK SMILES IDX 1 1 2 2 8 3 7 4 6 5 4 6 3 7 19 8 20 9 18 10 11 11 9 12 10 13
REMARK SMILES IDX 12 14 13 15 15 16 16 17 5 18 17 20 14 22
REMARK H PARENT 5 19 17 21 14 23
REMARK Flexibility Score: inf
ROOT
ATOM      1  C   UNL     1     116.293 112.522 118.939  1.00  0.00     0.044 C 
ATOM      2  C   UNL     1     117.116 111.454 119.598  1.00  0.00    -0.047 A 
ATOM      3  C   UNL     1     118.485 111.648 119.806  1.00  0.00     0.016 A 
ATOM      4  C   UNL     1     119.259 110.665 120.447  1.00  0.00     0.038 A 
ATOM      5  C   UNL     1     118.650 109.467 120.886  1.00  0.00     0.076 A 
ATOM      6  C   UNL     1     117.248 109.312 120.747  1.00  0.00     0.127 A 
ATOM      7  C   UNL     1     116.502 110.296 120.088  1.00  0.00     0.050 A 
ATOM      8  C   UNL     1     119.524 108.392 121.423  1.00  0.00     0.201 C 
ATOM      9  O   UNL     1     119.186 107.185 121.290  1.00  0.00    -0.288 OA
ATOM     10  C   UNL     1     120.875 108.729 121.943  1.00  0.00     0.076 A 
ATOM     11  C   UNL     1     121.479 109.929 121.505  1.00  0.00     0.041 A 
ATOM     12  C   UNL     1     120.708 110.882 120.671  1.00  0.00     0.194 C 
ATOM     13  O   UNL     1     121.279 111.891 120.173  1.00  0.00    -0.289 OA
ATOM     14  C   UNL     1     122.807 110.215 121.865  1.00  0.00     0.059 A 
ATOM     15  C   UNL     1     123.530 109.329 122.667  1.00  0.00     0.120 A 
ATOM     16  C   UNL     1     122.925 108.164 123.134  1.00  0.00     0.093 A 
ATOM     17  C   UNL     1     121.598 107.865 122.807  1.00  0.00     0.131 A 
ENDROOT
BRANCH   6  18
ATOM     18  O   UNL     1     116.552 108.224 121.276  1.00  0.00    -0.507 OA
ATOM     19  H   UNL     1     115.547 108.120 121.214  1.00  0.00     0.293 HD
ENDBRANCH   6  18
BRANCH  17  20
ATOM     20  O   UNL     1     121.032 106.728 123.387  1.00  0.00    -0.507 OA
ATOM     21  H   UNL     1     121.403 105.795 123.266  1.00  0.00     0.293 HD
ENDBRANCH  17  20
BRANCH  15  22
ATOM     22  O   UNL     1     124.851 109.603 123.015  1.00  0.00    -0.508 OA
ATOM     23  H   UNL     1     125.140 110.528 123.313  1.00  0.00     0.293 HD
ENDBRANCH  15  22
TORSDOF 3
ENDMDL
MODEL 7
REMARK VINA RESULT:    -4.278     14.193     14.827
REMARK INTER + INTRA:          -4.653
REMARK INTER:                  -4.653
REMARK INTRA:                   0.000
REMARK UNBOUND:                 0.000
REMARK SMILES Cc1cc(O)c2c(c1)C(=O)c1cc(O)cc(O)c1C2=O
REMARK SMILES IDX 1 1 2 2 8 3 7 4 6 5 4 6 3 7 19 8 20 9 18 10 11 11 9 12 10 13
REMARK SMILES IDX 12 14 13 15 15 16 16 17 5 18 17 20 14 22
REMARK H PARENT 5 19 17 21 14 23
REMARK Flexibility Score: inf
ROOT
ATOM      1  C   UNL     1     124.434 113.258 120.411  1.00  0.00     0.044 C 
ATOM      2  C   UNL     1     123.713 112.079 120.996  1.00  0.00    -0.047 A 
ATOM      3  C   UNL     1     122.391 111.810 120.627  1.00  0.00     0.016 A 
ATOM      4  C   UNL     1     121.716 110.691 121.147  1.00  0.00     0.038 A 
ATOM      5  C   UNL     1     122.377 109.829 122.051  1.00  0.00     0.076 A 
ATOM      6  C   UNL     1     123.743 110.060 122.355  1.00  0.00     0.127 A 
ATOM      7  C   UNL     1     124.387 111.191 121.841  1.00  0.00     0.050 A 
ATOM      8  C   UNL     1     121.588 108.746 122.693  1.00  0.00     0.201 C 
ATOM      9  O   UNL     1     121.896 108.346 123.847  1.00  0.00    -0.288 OA
ATOM     10  C   UNL     1     120.331 108.272 122.057  1.00  0.00     0.076 A 
ATOM     11  C   UNL     1     119.674 109.136 121.151  1.00  0.00     0.041 A 
ATOM     12  C   UNL     1     120.318 110.410 120.746  1.00  0.00     0.194 C 
ATOM     13  O   UNL     1     119.683 111.240 120.040  1.00  0.00    -0.289 OA
ATOM     14  C   UNL     1     118.416 108.782 120.636  1.00  0.00     0.059 A 
ATOM     15  C   UNL     1     117.815 107.575 120.999  1.00  0.00     0.120 A 
ATOM     16  C   UNL     1     118.478 106.702 121.860  1.00  0.00     0.093 A 
ATOM     17  C   UNL     1     119.739 107.021 122.373  1.00  0.00     0.131 A 
ENDROOT
BRANCH   6  18
ATOM     18  O   UNL     1     124.505 109.181 123.127  1.00  0.00    -0.507 OA
ATOM     19  H   UNL     1     125.046 108.420 122.737  1.00  0.00     0.293 HD
ENDBRANCH   6  18
BRANCH  17  20
ATOM     20  O   UNL     1     120.380 106.058 123.155  1.00  0.00    -0.507 OA
ATOM     21  H   UNL     1     121.187 106.254 123.733  1.00  0.00     0.293 HD
ENDBRANCH  17  20
BRANCH  15  22
ATOM     22  O   UNL     1     116.562 107.226 120.500  1.00  0.00    -0.508 OA
ATOM     23  H   UNL     1     116.372 107.216 119.504  1.00  0.00     0.293 HD
ENDBRANCH  15  22
TORSDOF 3
ENDMDL
MODEL 8
REMARK VINA RESULT:    -4.239     15.538     16.977
REMARK INTER + INTRA:          -4.611
REMARK INTER:                  -4.611
REMARK INTRA:                   0.000
REMARK UNBOUND:                 0.000
REMARK SMILES Cc1cc(O)c2c(c1)C(=O)c1cc(O)cc(O)c1C2=O
REMARK SMILES IDX 1 1 2 2 8 3 7 4 6 5 4 6 3 7 19 8 20 9 18 10 11 11 9 12 10 13
REMARK SMILES IDX 12 14 13 15 15 16 16 17 5 18 17 20 14 22
REMARK H PARENT 5 19 17 21 14 23
REMARK Flexibility Score: inf
ROOT
ATOM      1  C   UNL     1     123.734 109.405 122.971  1.00  0.00     0.044 C 
ATOM      2  C   UNL     1     122.971 108.181 122.557  1.00  0.00    -0.047 A 
ATOM      3  C   UNL     1     123.628 107.126 121.916  1.00  0.00     0.016 A 
ATOM      4  C   UNL     1     122.928 105.963 121.549  1.00  0.00     0.038 A 
ATOM      5  C   UNL     1     121.547 105.857 121.830  1.00  0.00     0.076 A 
ATOM      6  C   UNL     1     120.906 106.894 122.555  1.00  0.00     0.127 A 
ATOM      7  C   UNL     1     121.619 108.050 122.891  1.00  0.00     0.050 A 
ATOM      8  C   UNL     1     120.810 104.681 121.297  1.00  0.00     0.201 C 
ATOM      9  O   UNL     1     119.590 104.787 121.004  1.00  0.00    -0.288 OA
ATOM     10  C   UNL     1     121.554 103.447 120.935  1.00  0.00     0.076 A 
ATOM     11  C   UNL     1     122.936 103.557 120.658  1.00  0.00     0.041 A 
ATOM     12  C   UNL     1     123.633 104.847 120.877  1.00  0.00     0.194 C 
ATOM     13  O   UNL     1     124.833 104.986 120.513  1.00  0.00    -0.289 OA
ATOM     14  C   UNL     1     123.644 102.441 120.180  1.00  0.00     0.059 A 
ATOM     15  C   UNL     1     122.995 101.218 119.991  1.00  0.00     0.120 A 
ATOM     16  C   UNL     1     121.643 101.095 120.302  1.00  0.00     0.093 A 
ATOM     17  C   UNL     1     120.919 102.185 120.797  1.00  0.00     0.131 A 
ENDROOT
BRANCH   6  18
ATOM     18  O   UNL     1     119.583 106.804 122.991  1.00  0.00    -0.507 OA
ATOM     19  H   UNL     1     118.784 106.898 122.377  1.00  0.00     0.293 HD
ENDBRANCH   6  18
BRANCH  17  20
ATOM     20  O   UNL     1     119.592 101.961 121.172  1.00  0.00    -0.507 OA
ATOM     21  H   UNL     1     118.872 101.668 120.526  1.00  0.00     0.293 HD
ENDBRANCH  17  20
BRANCH  15  22
ATOM     22  O   UNL     1     123.692 100.113 119.505  1.00  0.00    -0.508 OA
ATOM     23  H   UNL     1     123.233  99.400 118.949  1.00  0.00     0.293 HD
ENDBRANCH  15  22
TORSDOF 3
ENDMDL
MODEL 9
REMARK VINA RESULT:    -4.184     14.458     15.384
REMARK INTER + INTRA:          -4.551
REMARK INTER:                  -4.551
REMARK INTRA:                   0.000
REMARK UNBOUND:                 0.000
REMARK SMILES Cc1cc(O)c2c(c1)C(=O)c1cc(O)cc(O)c1C2=O
REMARK SMILES IDX 1 1 2 2 8 3 7 4 6 5 4 6 3 7 19 8 20 9 18 10 11 11 9 12 10 13
REMARK SMILES IDX 12 14 13 15 15 16 16 17 5 18 17 20 14 22
REMARK H PARENT 5 19 17 21 14 23
REMARK Flexibility Score: inf
ROOT
ATOM      1  C   UNL     1     125.899 111.541 122.480  1.00  0.00     0.044 C 
ATOM      2  C   UNL     1     124.523 111.051 122.134  1.00  0.00    -0.047 A 
ATOM      3  C   UNL     1     124.190 109.705 122.314  1.00  0.00     0.016 A 
ATOM      4  C   UNL     1     122.895 109.242 122.019  1.00  0.00     0.038 A 
ATOM      5  C   UNL     1     121.920 110.143 121.536  1.00  0.00     0.076 A 
ATOM      6  C   UNL     1     122.239 111.521 121.436  1.00  0.00     0.127 A 
ATOM      7  C   UNL     1     123.540 111.955 121.715  1.00  0.00     0.050 A 
ATOM      8  C   UNL     1     120.611 109.592 121.096  1.00  0.00     0.201 C 
ATOM      9  O   UNL     1     119.965 110.168 120.181  1.00  0.00    -0.288 OA
ATOM     10  C   UNL     1     120.162 108.267 121.598  1.00  0.00     0.076 A 
ATOM     11  C   UNL     1     121.141 107.370 122.084  1.00  0.00     0.041 A 
ATOM     12  C   UNL     1     122.549 107.815 122.220  1.00  0.00     0.194 C 
ATOM     13  O   UNL     1     123.446 106.985 122.532  1.00  0.00    -0.289 OA
ATOM     14  C   UNL     1     120.774 106.061 122.438  1.00  0.00     0.059 A 
ATOM     15  C   UNL     1     119.445 105.643 122.330  1.00  0.00     0.120 A 
ATOM     16  C   UNL     1     118.471 106.537 121.891  1.00  0.00     0.093 A 
ATOM     17  C   UNL     1     118.806 107.851 121.550  1.00  0.00     0.131 A 
ENDROOT
BRANCH   6  18
ATOM     18  O   UNL     1     121.295 112.493 121.100  1.00  0.00    -0.507 OA
ATOM     19  H   UNL     1     120.375 112.547 121.519  1.00  0.00     0.293 HD
ENDBRANCH   6  18
BRANCH  17  20
ATOM     20  O   UNL     1     117.763 108.714 121.206  1.00  0.00    -0.507 OA
ATOM     21  H   UNL     1     117.817 109.383 120.450  1.00  0.00     0.293 HD
ENDBRANCH  17  20
BRANCH  15  22
ATOM     22  O   UNL     1     119.080 104.342 122.669  1.00  0.00    -0.508 OA
ATOM     23  H   UNL     1     118.508 104.146 123.483  1.00  0.00     0.293 HD
ENDBRANCH  15  22
TORSDOF 3
ENDMDL
