MODEL 1
REMARK VINA RESULT:    -5.503      0.000      0.000
REMARK INTER + INTRA:          -9.505
REMARK INTER:                  -8.399
REMARK INTRA:                  -1.106
REMARK UNBOUND:                -1.106
REMARK SMILES CC(=O)CCC=C(C)CCC=C(C)CCC=C(C)C
REMARK SMILES IDX 10 1 11 2 12 3 13 4 14 5 15 6 16 7 18 8 17 9 19 10 9 11 7 12
REMARK SMILES IDX 6 13 8 14 5 15 4 16 2 17 3 18 1 19
REMARK H PARENT
REMARK Flexibility Score: inf
ROOT
ATOM      1  C   UNL     1     -33.068  19.514  24.468  1.00  0.00     0.032 C 
ENDROOT
BRANCH   1   2
ATOM      2  C   UNL     1     -33.730  18.578  25.447  1.00  0.00    -0.028 C 
ATOM      3  C   UNL     1     -33.900  17.250  25.242  1.00  0.00    -0.077 C 
ATOM      4  C   UNL     1     -33.389  16.563  23.996  1.00  0.00     0.039 C 
BRANCH   3   5
ATOM      5  C   UNL     1     -34.608  16.430  26.298  1.00  0.00     0.034 C 
BRANCH   5   6
ATOM      6  C   UNL     1     -33.666  16.115  27.466  1.00  0.00     0.032 C 
BRANCH   6   7
ATOM      7  C   UNL     1     -33.938  14.743  28.033  1.00  0.00    -0.028 C 
ATOM      8  C   UNL     1     -32.031  14.930  29.635  1.00  0.00     0.039 C 
ATOM      9  C   UNL     1     -33.199  14.194  29.021  1.00  0.00    -0.080 C 
ATOM     10  C   UNL     1     -33.556  12.815  29.513  1.00  0.00     0.039 C 
ENDBRANCH   6   7
ENDBRANCH   5   6
ENDBRANCH   3   5
ENDBRANCH   1   2
BRANCH   1  11
ATOM     11  C   UNL     1     -31.707  19.983  24.995  1.00  0.00     0.034 C 
BRANCH  11  12
ATOM     12  C   UNL     1     -30.746  20.234  23.853  1.00  0.00    -0.077 C 
ATOM     13  C   UNL     1     -29.870  21.260  23.944  1.00  0.00    -0.028 C 
ATOM     14  C   UNL     1     -30.776  19.314  22.655  1.00  0.00     0.039 C 
BRANCH  13  15
ATOM     15  C   UNL     1     -28.880  21.634  22.869  1.00  0.00     0.035 C 
BRANCH  15  16
ATOM     16  C   UNL     1     -27.444  21.416  23.351  1.00  0.00     0.079 C 
BRANCH  16  17
ATOM     17  C   UNL     1     -27.116  19.948  23.379  1.00  0.00     0.130 C 
ATOM     18  O   UNL     1     -26.924  19.352  22.330  1.00  0.00    -0.300 OA
ATOM     19  C   UNL     1     -26.981  19.214  24.680  1.00  0.00     0.087 C 
ENDBRANCH  16  17
ENDBRANCH  15  16
ENDBRANCH  13  15
ENDBRANCH  11  12
ENDBRANCH   1  11
TORSDOF 9
ENDMDL
MODEL 2
REMARK VINA RESULT:    -5.454      4.844      7.494
REMARK INTER + INTRA:          -9.429
REMARK INTER:                  -8.376
REMARK INTRA:                  -1.054
REMARK UNBOUND:                -1.106
REMARK SMILES CC(=O)CCC=C(C)CCC=C(C)CCC=C(C)C
REMARK SMILES IDX 10 1 11 2 12 3 13 4 14 5 15 6 16 7 18 8 17 9 19 10 9 11 7 12
REMARK SMILES IDX 6 13 8 14 5 15 4 16 2 17 3 18 1 19
REMARK H PARENT
REMARK Flexibility Score: inf
ROOT
ATOM      1  C   UNL     1     -29.003  22.559  26.033  1.00  0.00     0.032 C 
ENDROOT
BRANCH   1   2
ATOM      2  C   UNL     1     -29.304  21.341  25.196  1.00  0.00    -0.028 C 
ATOM      3  C   UNL     1     -28.765  21.096  23.979  1.00  0.00    -0.077 C 
ATOM      4  C   UNL     1     -27.753  22.026  23.351  1.00  0.00     0.039 C 
BRANCH   3   5
ATOM      5  C   UNL     1     -29.177  19.845  23.233  1.00  0.00     0.034 C 
BRANCH   5   6
ATOM      6  C   UNL     1     -30.674  19.874  22.905  1.00  0.00     0.032 C 
BRANCH   6   7
ATOM      7  C   UNL     1     -31.383  18.669  23.474  1.00  0.00    -0.028 C 
ATOM      8  C   UNL     1     -33.135  20.094  24.542  1.00  0.00     0.039 C 
ATOM      9  C   UNL     1     -32.504  18.759  24.221  1.00  0.00    -0.080 C 
ATOM     10  C   UNL     1     -33.132  17.492  24.743  1.00  0.00     0.039 C 
ENDBRANCH   6   7
ENDBRANCH   5   6
ENDBRANCH   3   5
ENDBRANCH   1   2
BRANCH   1  11
ATOM     11  C   UNL     1     -28.286  22.166  27.330  1.00  0.00     0.034 C 
BRANCH  11  12
ATOM     12  C   UNL     1     -29.229  22.252  28.511  1.00  0.00    -0.077 C 
ATOM     13  C   UNL     1     -30.493  22.692  28.312  1.00  0.00    -0.028 C 
ATOM     14  C   UNL     1     -28.740  21.820  29.873  1.00  0.00     0.039 C 
BRANCH  13  15
ATOM     15  C   UNL     1     -31.522  22.850  29.403  1.00  0.00     0.035 C 
BRANCH  15  16
ATOM     16  C   UNL     1     -31.597  24.305  29.874  1.00  0.00     0.079 C 
BRANCH  16  17
ATOM     17  C   UNL     1     -32.777  24.502  30.786  1.00  0.00     0.130 C 
ATOM     18  O   UNL     1     -32.824  23.904  31.851  1.00  0.00    -0.300 OA
ATOM     19  C   UNL     1     -33.879  25.453  30.425  1.00  0.00     0.087 C 
ENDBRANCH  16  17
ENDBRANCH  15  16
ENDBRANCH  13  15
ENDBRANCH  11  12
ENDBRANCH   1  11
TORSDOF 9
ENDMDL
MODEL 3
REMARK VINA RESULT:    -5.395      2.199      4.721
REMARK INTER + INTRA:          -9.340
REMARK INTER:                  -7.875
REMARK INTRA:                  -1.465
REMARK UNBOUND:                -1.106
REMARK SMILES CC(=O)CCC=C(C)CCC=C(C)CCC=C(C)C
REMARK SMILES IDX 10 1 11 2 12 3 13 4 14 5 15 6 16 7 18 8 17 9 19 10 9 11 7 12
REMARK SMILES IDX 6 13 8 14 5 15 4 16 2 17 3 18 1 19
REMARK H PARENT
REMARK Flexibility Score: inf
ROOT
ATOM      1  C   UNL     1     -28.853  21.610  22.879  1.00  0.00     0.032 C 
ENDROOT
BRANCH   1   2
ATOM      2  C   UNL     1     -29.842  21.225  23.950  1.00  0.00    -0.028 C 
ATOM      3  C   UNL     1     -30.679  20.164  23.874  1.00  0.00    -0.077 C 
ATOM      4  C   UNL     1     -30.666  19.220  22.694  1.00  0.00     0.039 C 
BRANCH   3   5
ATOM      5  C   UNL     1     -31.643  19.908  25.012  1.00  0.00     0.034 C 
BRANCH   5   6
ATOM      6  C   UNL     1     -33.024  19.510  24.477  1.00  0.00     0.032 C 
BRANCH   6   7
ATOM      7  C   UNL     1     -33.750  18.615  25.452  1.00  0.00    -0.028 C 
ATOM      8  C   UNL     1     -33.399  16.608  24.008  1.00  0.00     0.039 C 
ATOM      9  C   UNL     1     -33.926  17.292  25.247  1.00  0.00    -0.080 C 
ATOM     10  C   UNL     1     -34.669  16.490  26.285  1.00  0.00     0.039 C 
ENDBRANCH   6   7
ENDBRANCH   5   6
ENDBRANCH   3   5
ENDBRANCH   1   2
BRANCH   1  11
ATOM     11  C   UNL     1     -27.414  21.387  23.358  1.00  0.00     0.034 C 
BRANCH  11  12
ATOM     12  C   UNL     1     -27.060  19.916  23.326  1.00  0.00    -0.077 C 
ATOM     13  C   UNL     1     -26.779  19.334  22.138  1.00  0.00    -0.028 C 
ATOM     14  C   UNL     1     -27.004  19.147  24.624  1.00  0.00     0.039 C 
BRANCH  13  15
ATOM     15  C   UNL     1     -26.438  17.875  21.963  1.00  0.00     0.035 C 
BRANCH  15  16
ATOM     16  C   UNL     1     -26.193  17.546  20.488  1.00  0.00     0.079 C 
BRANCH  16  17
ATOM     17  C   UNL     1     -27.364  16.796  19.915  1.00  0.00     0.130 C 
ATOM     18  O   UNL     1     -27.277  16.300  18.801  1.00  0.00    -0.300 OA
ATOM     19  C   UNL     1     -28.624  16.614  20.707  1.00  0.00     0.087 C 
ENDBRANCH  16  17
ENDBRANCH  15  16
ENDBRANCH  13  15
ENDBRANCH  11  12
ENDBRANCH   1  11
TORSDOF 9
ENDMDL
MODEL 4
REMARK VINA RESULT:    -5.393      4.921      6.365
REMARK INTER + INTRA:          -9.336
REMARK INTER:                  -8.089
REMARK INTRA:                  -1.247
REMARK UNBOUND:                -1.106
REMARK SMILES CC(=O)CCC=C(C)CCC=C(C)CCC=C(C)C
REMARK SMILES IDX 10 1 11 2 12 3 13 4 14 5 15 6 16 7 18 8 17 9 19 10 9 11 7 12
REMARK SMILES IDX 6 13 8 14 5 15 4 16 2 17 3 18 1 19
REMARK H PARENT
REMARK Flexibility Score: inf
ROOT
ATOM      1  C   UNL     1     -29.769  20.291  26.445  1.00  0.00     0.032 C 
ENDROOT
BRANCH   1   2
ATOM      2  C   UNL     1     -31.212  20.003  26.111  1.00  0.00    -0.028 C 
ATOM      3  C   UNL     1     -31.692  19.856  24.854  1.00  0.00    -0.077 C 
ATOM      4  C   UNL     1     -30.793  19.927  23.642  1.00  0.00     0.039 C 
BRANCH   3   5
ATOM      5  C   UNL     1     -33.171  19.598  24.660  1.00  0.00     0.034 C 
BRANCH   5   6
ATOM      6  C   UNL     1     -33.437  18.108  24.414  1.00  0.00     0.032 C 
BRANCH   6   7
ATOM      7  C   UNL     1     -34.091  17.464  25.612  1.00  0.00    -0.028 C 
ATOM      8  C   UNL     1     -31.949  16.386  26.313  1.00  0.00     0.039 C 
ATOM      9  C   UNL     1     -33.422  16.678  26.483  1.00  0.00    -0.080 C 
ATOM     10  C   UNL     1     -34.172  16.083  27.647  1.00  0.00     0.039 C 
ENDBRANCH   6   7
ENDBRANCH   5   6
ENDBRANCH   3   5
ENDBRANCH   1   2
BRANCH   1  11
ATOM     11  C   UNL     1     -29.556  21.788  26.699  1.00  0.00     0.034 C 
BRANCH  11  12
ATOM     12  C   UNL     1     -29.797  22.124  28.154  1.00  0.00    -0.077 C 
ATOM     13  C   UNL     1     -30.944  22.750  28.503  1.00  0.00    -0.028 C 
ATOM     14  C   UNL     1     -28.761  21.728  29.179  1.00  0.00     0.039 C 
BRANCH  13  15
ATOM     15  C   UNL     1     -31.295  23.165  29.909  1.00  0.00     0.035 C 
BRANCH  15  16
ATOM     16  C   UNL     1     -31.514  24.678  29.993  1.00  0.00     0.079 C 
BRANCH  16  17
ATOM     17  C   UNL     1     -32.507  25.007  31.074  1.00  0.00     0.130 C 
ATOM     18  O   UNL     1     -32.189  24.871  32.247  1.00  0.00    -0.300 OA
ATOM     19  C   UNL     1     -33.868  25.537  30.735  1.00  0.00     0.087 C 
ENDBRANCH  16  17
ENDBRANCH  15  16
ENDBRANCH  13  15
ENDBRANCH  11  12
ENDBRANCH   1  11
TORSDOF 9
ENDMDL
MODEL 5
REMARK VINA RESULT:    -5.370      3.293      8.640
REMARK INTER + INTRA:          -9.301
REMARK INTER:                  -8.313
REMARK INTRA:                  -0.988
REMARK UNBOUND:                -1.106
REMARK SMILES CC(=O)CCC=C(C)CCC=C(C)CCC=C(C)C
REMARK SMILES IDX 10 1 11 2 12 3 13 4 14 5 15 6 16 7 18 8 17 9 19 10 9 11 7 12
REMARK SMILES IDX 6 13 8 14 5 15 4 16 2 17 3 18 1 19
REMARK H PARENT
REMARK Flexibility Score: inf
ROOT
ATOM      1  C   UNL     1     -34.194  17.007  24.982  1.00  0.00     0.032 C 
ENDROOT
BRANCH   1   2
ATOM      2  C   UNL     1     -33.518  18.332  24.736  1.00  0.00    -0.028 C 
ATOM      3  C   UNL     1     -32.215  18.476  24.397  1.00  0.00    -0.077 C 
ATOM      4  C   UNL     1     -31.308  17.286  24.188  1.00  0.00     0.039 C 
BRANCH   3   5
ATOM      5  C   UNL     1     -31.657  19.870  24.207  1.00  0.00     0.034 C 
BRANCH   5   6
ATOM      6  C   UNL     1     -30.728  19.924  22.989  1.00  0.00     0.032 C 
BRANCH   6   7
ATOM      7  C   UNL     1     -29.758  21.076  23.092  1.00  0.00    -0.028 C 
ATOM      8  C   UNL     1     -27.791  19.537  23.041  1.00  0.00     0.039 C 
ATOM      9  C   UNL     1     -28.418  20.910  23.116  1.00  0.00    -0.080 C 
ATOM     10  C   UNL     1     -27.538  22.129  23.222  1.00  0.00     0.039 C 
ENDBRANCH   6   7
ENDBRANCH   5   6
ENDBRANCH   3   5
ENDBRANCH   1   2
BRANCH   1  11
ATOM     11  C   UNL     1     -34.292  16.714  26.484  1.00  0.00     0.034 C 
BRANCH  11  12
ATOM     12  C   UNL     1     -33.778  15.325  26.794  1.00  0.00    -0.077 C 
ATOM     13  C   UNL     1     -33.798  14.887  28.073  1.00  0.00    -0.028 C 
ATOM     14  C   UNL     1     -33.283  14.457  25.661  1.00  0.00     0.039 C 
BRANCH  13  15
ATOM     15  C   UNL     1     -33.293  13.538  28.521  1.00  0.00     0.035 C 
BRANCH  15  16
ATOM     16  C   UNL     1     -32.920  13.561  30.005  1.00  0.00     0.079 C 
BRANCH  16  17
ATOM     17  C   UNL     1     -33.695  12.515  30.758  1.00  0.00     0.130 C 
ATOM     18  O   UNL     1     -34.587  11.900  30.192  1.00  0.00    -0.300 OA
ATOM     19  C   UNL     1     -33.363  12.186  32.183  1.00  0.00     0.087 C 
ENDBRANCH  16  17
ENDBRANCH  15  16
ENDBRANCH  13  15
ENDBRANCH  11  12
ENDBRANCH   1  11
TORSDOF 9
ENDMDL
MODEL 6
REMARK VINA RESULT:    -5.349      4.541      7.540
REMARK INTER + INTRA:          -9.268
REMARK INTER:                  -8.275
REMARK INTRA:                  -0.994
REMARK UNBOUND:                -1.106
REMARK SMILES CC(=O)CCC=C(C)CCC=C(C)CCC=C(C)C
REMARK SMILES IDX 10 1 11 2 12 3 13 4 14 5 15 6 16 7 18 8 17 9 19 10 9 11 7 12
REMARK SMILES IDX 6 13 8 14 5 15 4 16 2 17 3 18 1 19
REMARK H PARENT
REMARK Flexibility Score: inf
ROOT
ATOM      1  C   UNL     1     -30.355  19.892  25.732  1.00  0.00     0.032 C 
ENDROOT
BRANCH   1   2
ATOM      2  C   UNL     1     -30.987  20.431  26.990  1.00  0.00    -0.028 C 
ATOM      3  C   UNL     1     -30.562  21.535  27.648  1.00  0.00    -0.077 C 
ATOM      4  C   UNL     1     -29.411  22.373  27.142  1.00  0.00     0.039 C 
BRANCH   3   5
ATOM      5  C   UNL     1     -31.272  21.950  28.919  1.00  0.00     0.034 C 
BRANCH   5   6
ATOM      6  C   UNL     1     -30.934  23.400  29.285  1.00  0.00     0.032 C 
BRANCH   6   7
ATOM      7  C   UNL     1     -32.185  24.219  29.487  1.00  0.00    -0.028 C 
ATOM      8  C   UNL     1     -31.693  24.532  31.916  1.00  0.00     0.039 C 
ATOM      9  C   UNL     1     -32.539  24.740  30.681  1.00  0.00    -0.080 C 
ATOM     10  C   UNL     1     -33.811  25.543  30.774  1.00  0.00     0.039 C 
ENDBRANCH   6   7
ENDBRANCH   5   6
ENDBRANCH   3   5
ENDBRANCH   1   2
BRANCH   1  11
ATOM     11  C   UNL     1     -31.200  20.243  24.502  1.00  0.00     0.034 C 
BRANCH  11  12
ATOM     12  C   UNL     1     -32.529  19.520  24.540  1.00  0.00    -0.077 C 
ATOM     13  C   UNL     1     -32.541  18.175  24.683  1.00  0.00    -0.028 C 
ATOM     14  C   UNL     1     -33.804  20.324  24.446  1.00  0.00     0.039 C 
BRANCH  13  15
ATOM     15  C   UNL     1     -33.792  17.332  24.709  1.00  0.00     0.035 C 
BRANCH  15  16
ATOM     16  C   UNL     1     -34.212  17.025  26.148  1.00  0.00     0.079 C 
BRANCH  16  17
ATOM     17  C   UNL     1     -33.894  15.596  26.496  1.00  0.00     0.130 C 
ATOM     18  O   UNL     1     -33.489  14.839  25.626  1.00  0.00    -0.300 OA
ATOM     19  C   UNL     1     -34.030  15.098  27.904  1.00  0.00     0.087 C 
ENDBRANCH  16  17
ENDBRANCH  15  16
ENDBRANCH  13  15
ENDBRANCH  11  12
ENDBRANCH   1  11
TORSDOF 9
ENDMDL
MODEL 7
REMARK VINA RESULT:    -5.294      4.847      7.331
REMARK INTER + INTRA:          -9.186
REMARK INTER:                  -8.187
REMARK INTRA:                  -0.999
REMARK UNBOUND:                -1.106
REMARK SMILES CC(=O)CCC=C(C)CCC=C(C)CCC=C(C)C
REMARK SMILES IDX 10 1 11 2 12 3 13 4 14 5 15 6 16 7 18 8 17 9 19 10 9 11 7 12
REMARK SMILES IDX 6 13 8 14 5 15 4 16 2 17 3 18 1 19
REMARK H PARENT
REMARK Flexibility Score: inf
ROOT
ATOM      1  C   UNL     1     -28.497  22.336  26.064  1.00  0.00     0.032 C 
ENDROOT
BRANCH   1   2
ATOM      2  C   UNL     1     -29.719  22.445  26.940  1.00  0.00    -0.028 C 
ATOM      3  C   UNL     1     -29.727  22.226  28.276  1.00  0.00    -0.077 C 
ATOM      4  C   UNL     1     -28.466  21.884  29.036  1.00  0.00     0.039 C 
BRANCH   3   5
ATOM      5  C   UNL     1     -31.033  22.343  29.031  1.00  0.00     0.034 C 
BRANCH   5   6
ATOM      6  C   UNL     1     -31.051  23.607  29.898  1.00  0.00     0.032 C 
BRANCH   6   7
ATOM      7  C   UNL     1     -32.351  24.358  29.742  1.00  0.00    -0.028 C 
ATOM      8  C   UNL     1     -32.524  24.746  32.203  1.00  0.00     0.039 C 
ATOM      9  C   UNL     1     -33.029  24.881  30.786  1.00  0.00    -0.080 C 
ATOM     10  C   UNL     1     -34.320  25.612  30.519  1.00  0.00     0.039 C 
ENDBRANCH   6   7
ENDBRANCH   5   6
ENDBRANCH   3   5
ENDBRANCH   1   2
BRANCH   1  11
ATOM     11  C   UNL     1     -28.323  20.904  25.546  1.00  0.00     0.034 C 
BRANCH  11  12
ATOM     12  C   UNL     1     -29.333  20.600  24.461  1.00  0.00    -0.077 C 
ATOM     13  C   UNL     1     -30.103  19.493  24.572  1.00  0.00    -0.028 C 
ATOM     14  C   UNL     1     -29.473  21.556  23.300  1.00  0.00     0.039 C 
BRANCH  13  15
ATOM     15  C   UNL     1     -31.127  19.061  23.552  1.00  0.00     0.035 C 
BRANCH  15  16
ATOM     16  C   UNL     1     -32.113  18.061  24.160  1.00  0.00     0.079 C 
BRANCH  16  17
ATOM     17  C   UNL     1     -33.266  18.784  24.802  1.00  0.00     0.130 C 
ATOM     18  O   UNL     1     -33.883  18.248  25.710  1.00  0.00    -0.300 OA
ATOM     19  C   UNL     1     -33.643  20.169  24.370  1.00  0.00     0.087 C 
ENDBRANCH  16  17
ENDBRANCH  15  16
ENDBRANCH  13  15
ENDBRANCH  11  12
ENDBRANCH   1  11
TORSDOF 9
ENDMDL
MODEL 8
REMARK VINA RESULT:    -5.288      3.501      5.071
REMARK INTER + INTRA:          -9.177
REMARK INTER:                  -7.756
REMARK INTRA:                  -1.420
REMARK UNBOUND:                -1.106
REMARK SMILES CC(=O)CCC=C(C)CCC=C(C)CCC=C(C)C
REMARK SMILES IDX 10 1 11 2 12 3 13 4 14 5 15 6 16 7 18 8 17 9 19 10 9 11 7 12
REMARK SMILES IDX 6 13 8 14 5 15 4 16 2 17 3 18 1 19
REMARK H PARENT
REMARK Flexibility Score: inf
ROOT
ATOM      1  C   UNL     1     -29.214  20.415  23.597  1.00  0.00     0.032 C 
ENDROOT
BRANCH   1   2
ATOM      2  C   UNL     1     -30.695  20.363  23.874  1.00  0.00    -0.028 C 
ATOM      3  C   UNL     1     -31.349  19.275  24.345  1.00  0.00    -0.077 C 
ATOM      4  C   UNL     1     -30.624  17.993  24.685  1.00  0.00     0.039 C 
BRANCH   3   5
ATOM      5  C   UNL     1     -32.846  19.351  24.551  1.00  0.00     0.034 C 
BRANCH   5   6
ATOM      6  C   UNL     1     -33.486  17.965  24.420  1.00  0.00     0.032 C 
BRANCH   6   7
ATOM      7  C   UNL     1     -34.026  17.484  25.744  1.00  0.00    -0.028 C 
ATOM      8  C   UNL     1     -33.163  15.172  25.357  1.00  0.00     0.039 C 
ATOM      9  C   UNL     1     -33.884  16.214  26.180  1.00  0.00    -0.080 C 
ATOM     10  C   UNL     1     -34.464  15.838  27.520  1.00  0.00     0.039 C 
ENDBRANCH   6   7
ENDBRANCH   5   6
ENDBRANCH   3   5
ENDBRANCH   1   2
BRANCH   1  11
ATOM     11  C   UNL     1     -28.574  21.633  24.273  1.00  0.00     0.034 C 
BRANCH  11  12
ATOM     12  C   UNL     1     -28.714  21.547  25.777  1.00  0.00    -0.077 C 
ATOM     13  C   UNL     1     -29.399  22.514  26.430  1.00  0.00    -0.028 C 
ATOM     14  C   UNL     1     -28.108  20.369  26.503  1.00  0.00     0.039 C 
BRANCH  13  15
ATOM     15  C   UNL     1     -29.590  22.561  27.925  1.00  0.00     0.035 C 
BRANCH  15  16
ATOM     16  C   UNL     1     -30.930  21.940  28.324  1.00  0.00     0.079 C 
BRANCH  16  17
ATOM     17  C   UNL     1     -31.544  22.702  29.466  1.00  0.00     0.130 C 
ATOM     18  O   UNL     1     -32.083  22.093  30.378  1.00  0.00    -0.300 OA
ATOM     19  C   UNL     1     -31.470  24.199  29.522  1.00  0.00     0.087 C 
ENDBRANCH  16  17
ENDBRANCH  15  16
ENDBRANCH  13  15
ENDBRANCH  11  12
ENDBRANCH   1  11
TORSDOF 9
ENDMDL
MODEL 9
REMARK VINA RESULT:    -5.258      2.337      3.534
REMARK INTER + INTRA:          -9.130
REMARK INTER:                  -7.538
REMARK INTRA:                  -1.592
REMARK UNBOUND:                -1.106
REMARK SMILES CC(=O)CCC=C(C)CCC=C(C)CCC=C(C)C
REMARK SMILES IDX 10 1 11 2 12 3 13 4 14 5 15 6 16 7 18 8 17 9 19 10 9 11 7 12
REMARK SMILES IDX 6 13 8 14 5 15 4 16 2 17 3 18 1 19
REMARK H PARENT
REMARK Flexibility Score: inf
ROOT
ATOM      1  C   UNL     1     -30.067  19.555  23.392  1.00  0.00     0.032 C 
ENDROOT
BRANCH   1   2
ATOM      2  C   UNL     1     -31.540  19.375  23.658  1.00  0.00    -0.028 C 
ATOM      3  C   UNL     1     -32.077  19.169  24.884  1.00  0.00    -0.077 C 
ATOM      4  C   UNL     1     -31.228  19.145  26.134  1.00  0.00     0.039 C 
BRANCH   3   5
ATOM      5  C   UNL     1     -33.573  18.975  25.006  1.00  0.00     0.034 C 
BRANCH   5   6
ATOM      6  C   UNL     1     -33.955  17.511  24.760  1.00  0.00     0.032 C 
BRANCH   6   7
ATOM      7  C   UNL     1     -34.364  16.829  26.042  1.00  0.00    -0.028 C 
ATOM      8  C   UNL     1     -32.279  15.453  26.079  1.00  0.00     0.039 C 
ATOM      9  C   UNL     1     -33.608  15.890  26.651  1.00  0.00    -0.080 C 
ATOM     10  C   UNL     1     -34.111  15.271  27.929  1.00  0.00     0.039 C 
ENDBRANCH   6   7
ENDBRANCH   5   6
ENDBRANCH   3   5
ENDBRANCH   1   2
BRANCH   1  11
ATOM     11  C   UNL     1     -29.771  20.978  22.903  1.00  0.00     0.034 C 
BRANCH  11  12
ATOM     12  C   UNL     1     -28.813  21.679  23.842  1.00  0.00    -0.077 C 
ATOM     13  C   UNL     1     -29.202  21.924  25.114  1.00  0.00    -0.028 C 
ATOM     14  C   UNL     1     -27.441  22.061  23.339  1.00  0.00     0.039 C 
BRANCH  13  15
ATOM     15  C   UNL     1     -28.357  22.636  26.141  1.00  0.00     0.035 C 
BRANCH  15  16
ATOM     16  C   UNL     1     -28.543  22.013  27.527  1.00  0.00     0.079 C 
BRANCH  16  17
ATOM     17  C   UNL     1     -27.445  21.025  27.810  1.00  0.00     0.130 C 
ATOM     18  O   UNL     1     -26.510  21.350  28.526  1.00  0.00    -0.300 OA
ATOM     19  C   UNL     1     -27.502  19.631  27.259  1.00  0.00     0.087 C 
ENDBRANCH  16  17
ENDBRANCH  15  16
ENDBRANCH  13  15
ENDBRANCH  11  12
ENDBRANCH   1  11
TORSDOF 9
ENDMDL
