MODEL 1
REMARK VINA RESULT:    -4.071      0.000      0.000
REMARK INTER + INTRA:          -4.510
REMARK INTER:                  -4.547
REMARK INTRA:                   0.037
REMARK UNBOUND:                 0.037
REMARK SMILES CCCC(=O)[O-]
REMARK SMILES IDX 3 1 4 2 5 3 6 4 2 5 1 6
REMARK H PARENT
REMARK Flexibility Score: inf
ROOT
ATOM      1  C   UNL     1      -3.707   8.251  -0.381  1.00  0.00     0.052 C 
ENDROOT
BRANCH   1   2
ATOM      2  C   UNL     1      -4.433   9.115  -1.363  1.00  0.00     0.041 C 
ATOM      3  O   UNL     1      -5.132  10.081  -0.962  1.00  0.00    -0.550 OA
ATOM      4  O   UNL     1      -4.298   8.882  -2.726  1.00  0.00    -0.550 OA
ENDBRANCH   1   2
BRANCH   1   5
ATOM      5  C   UNL     1      -2.259   8.723  -0.221  1.00  0.00     0.003 C 
ATOM      6  C   UNL     1      -1.376   8.177  -1.338  1.00  0.00     0.004 C 
ENDBRANCH   1   5
TORSDOF 2
ENDMDL
MODEL 2
REMARK VINA RESULT:    -3.568      1.048      1.955
REMARK INTER + INTRA:          -3.949
REMARK INTER:                  -3.898
REMARK INTRA:                  -0.051
REMARK UNBOUND:                 0.037
REMARK SMILES CCCC(=O)[O-]
REMARK SMILES IDX 3 1 4 2 5 3 6 4 2 5 1 6
REMARK H PARENT
REMARK Flexibility Score: inf
ROOT
ATOM      1  C   UNL     1      -4.039   8.159  -0.524  1.00  0.00     0.052 C 
ENDROOT
BRANCH   1   2
ATOM      2  C   UNL     1      -4.617   8.961  -1.645  1.00  0.00     0.041 C 
ATOM      3  O   UNL     1      -3.977   9.101  -2.720  1.00  0.00    -0.550 OA
ATOM      4  O   UNL     1      -5.885   9.514  -1.523  1.00  0.00    -0.550 OA
ENDBRANCH   1   2
BRANCH   1   5
ATOM      5  C   UNL     1      -2.819   8.869   0.069  1.00  0.00     0.003 C 
ATOM      6  C   UNL     1      -3.232   9.870   1.144  1.00  0.00     0.004 C 
ENDBRANCH   1   5
TORSDOF 2
ENDMDL
MODEL 3
REMARK VINA RESULT:    -3.316     10.508     11.047
REMARK INTER + INTRA:          -3.667
REMARK INTER:                  -3.613
REMARK INTRA:                  -0.054
REMARK UNBOUND:                 0.037
REMARK SMILES CCCC(=O)[O-]
REMARK SMILES IDX 3 1 4 2 5 3 6 4 2 5 1 6
REMARK H PARENT
REMARK Flexibility Score: inf
ROOT
ATOM      1  C   UNL     1      -4.338   5.613   9.411  1.00  0.00     0.052 C 
ENDROOT
BRANCH   1   2
ATOM      2  C   UNL     1      -5.233   4.415   9.420  1.00  0.00     0.041 C 
ATOM      3  O   UNL     1      -6.484   4.557   9.440  1.00  0.00    -0.550 OA
ATOM      4  O   UNL     1      -4.687   3.139   9.356  1.00  0.00    -0.550 OA
ENDBRANCH   1   2
BRANCH   1   5
ATOM      5  C   UNL     1      -3.112   5.359   8.530  1.00  0.00     0.003 C 
ATOM      6  C   UNL     1      -3.447   5.542   7.053  1.00  0.00     0.004 C 
ENDBRANCH   1   5
TORSDOF 2
ENDMDL
MODEL 4
REMARK VINA RESULT:    -3.313     10.118     10.811
REMARK INTER + INTRA:          -3.664
REMARK INTER:                  -3.658
REMARK INTRA:                  -0.006
REMARK UNBOUND:                 0.037
REMARK SMILES CCCC(=O)[O-]
REMARK SMILES IDX 3 1 4 2 5 3 6 4 2 5 1 6
REMARK H PARENT
REMARK Flexibility Score: inf
ROOT
ATOM      1  C   UNL     1      -4.180   4.273   8.265  1.00  0.00     0.052 C 
ENDROOT
BRANCH   1   2
ATOM      2  C   UNL     1      -3.145   5.329   8.035  1.00  0.00     0.041 C 
ATOM      3  O   UNL     1      -2.348   5.647   8.956  1.00  0.00    -0.550 OA
ATOM      4  O   UNL     1      -3.029   5.927   6.787  1.00  0.00    -0.550 OA
ENDBRANCH   1   2
BRANCH   1   5
ATOM      5  C   UNL     1      -5.089   4.661   9.435  1.00  0.00     0.003 C 
ATOM      6  C   UNL     1      -6.301   3.738   9.519  1.00  0.00     0.004 C 
ENDBRANCH   1   5
TORSDOF 2
ENDMDL
MODEL 5
REMARK VINA RESULT:    -3.301     10.116     10.855
REMARK INTER + INTRA:          -3.650
REMARK INTER:                  -3.644
REMARK INTRA:                  -0.006
REMARK UNBOUND:                 0.037
REMARK SMILES CCCC(=O)[O-]
REMARK SMILES IDX 3 1 4 2 5 3 6 4 2 5 1 6
REMARK H PARENT
REMARK Flexibility Score: inf
ROOT
ATOM      1  C   UNL     1      -4.214   4.218   8.189  1.00  0.00     0.052 C 
ENDROOT
BRANCH   1   2
ATOM      2  C   UNL     1      -3.176   5.270   7.958  1.00  0.00     0.041 C 
ATOM      3  O   UNL     1      -3.093   5.844   6.841  1.00  0.00    -0.550 OA
ATOM      4  O   UNL     1      -2.333   5.652   8.992  1.00  0.00    -0.550 OA
ENDBRANCH   1   2
BRANCH   1   5
ATOM      5  C   UNL     1      -5.084   4.579   9.396  1.00  0.00     0.003 C 
ATOM      6  C   UNL     1      -6.316   3.682   9.475  1.00  0.00     0.004 C 
ENDBRANCH   1   5
TORSDOF 2
ENDMDL
MODEL 6
REMARK VINA RESULT:    -2.999     13.415     14.030
REMARK INTER + INTRA:          -3.313
REMARK INTER:                  -3.303
REMARK INTRA:                  -0.010
REMARK UNBOUND:                 0.037
REMARK SMILES CCCC(=O)[O-]
REMARK SMILES IDX 3 1 4 2 5 3 6 4 2 5 1 6
REMARK H PARENT
REMARK Flexibility Score: inf
ROOT
ATOM      1  C   UNL     1       9.679   7.067  -6.688  1.00  0.00     0.052 C 
ENDROOT
BRANCH   1   2
ATOM      2  C   UNL     1       9.067   8.124  -7.551  1.00  0.00     0.041 C 
ATOM      3  O   UNL     1       9.594   9.264  -7.627  1.00  0.00    -0.550 OA
ATOM      4  O   UNL     1       7.940   7.835  -8.310  1.00  0.00    -0.550 OA
ENDBRANCH   1   2
BRANCH   1   5
ATOM      5  C   UNL     1       8.591   6.247  -5.991  1.00  0.00     0.003 C 
ATOM      6  C   UNL     1       9.162   4.960  -5.403  1.00  0.00     0.004 C 
ENDBRANCH   1   5
TORSDOF 2
ENDMDL
MODEL 7
REMARK VINA RESULT:    -2.980     10.407     11.140
REMARK INTER + INTRA:          -3.292
REMARK INTER:                  -3.289
REMARK INTRA:                  -0.003
REMARK UNBOUND:                 0.037
REMARK SMILES CCCC(=O)[O-]
REMARK SMILES IDX 3 1 4 2 5 3 6 4 2 5 1 6
REMARK H PARENT
REMARK Flexibility Score: inf
ROOT
ATOM      1  C   UNL     1      -4.003   4.832   7.803  1.00  0.00     0.052 C 
ENDROOT
BRANCH   1   2
ATOM      2  C   UNL     1      -3.482   5.604   8.973  1.00  0.00     0.041 C 
ATOM      3  O   UNL     1      -2.242   5.737   9.143  1.00  0.00    -0.550 OA
ATOM      4  O   UNL     1      -4.366   6.219   9.850  1.00  0.00    -0.550 OA
ENDBRANCH   1   2
BRANCH   1   5
ATOM      5  C   UNL     1      -4.193   3.359   8.174  1.00  0.00     0.003 C 
ATOM      6  C   UNL     1      -5.482   3.151   8.963  1.00  0.00     0.004 C 
ENDBRANCH   1   5
TORSDOF 2
ENDMDL
MODEL 8
REMARK VINA RESULT:    -2.835     10.647     11.049
REMARK INTER + INTRA:          -3.130
REMARK INTER:                  -3.124
REMARK INTRA:                  -0.006
REMARK UNBOUND:                 0.037
REMARK SMILES CCCC(=O)[O-]
REMARK SMILES IDX 3 1 4 2 5 3 6 4 2 5 1 6
REMARK H PARENT
REMARK Flexibility Score: inf
ROOT
ATOM      1  C   UNL     1      -3.662   5.324   8.287  1.00  0.00     0.052 C 
ENDROOT
BRANCH   1   2
ATOM      2  C   UNL     1      -4.580   4.205   8.663  1.00  0.00     0.041 C 
ATOM      3  O   UNL     1      -4.197   3.010   8.564  1.00  0.00    -0.550 OA
ATOM      4  O   UNL     1      -5.843   4.483   9.170  1.00  0.00    -0.550 OA
ENDBRANCH   1   2
BRANCH   1   5
ATOM      5  C   UNL     1      -3.216   6.093   9.533  1.00  0.00     0.003 C 
ATOM      6  C   UNL     1      -1.833   6.707   9.337  1.00  0.00     0.004 C 
ENDBRANCH   1   5
TORSDOF 2
ENDMDL
MODEL 9
REMARK VINA RESULT:    -2.758     13.779     14.408
REMARK INTER + INTRA:          -3.044
REMARK INTER:                  -3.035
REMARK INTRA:                  -0.009
REMARK UNBOUND:                 0.037
REMARK SMILES CCCC(=O)[O-]
REMARK SMILES IDX 3 1 4 2 5 3 6 4 2 5 1 6
REMARK H PARENT
REMARK Flexibility Score: inf
ROOT
ATOM      1  C   UNL     1       8.648   6.010  -5.951  1.00  0.00     0.052 C 
ENDROOT
BRANCH   1   2
ATOM      2  C   UNL     1       9.476   4.927  -5.336  1.00  0.00     0.041 C 
ATOM      3  O   UNL     1      10.125   4.134  -6.067  1.00  0.00    -0.550 OA
ATOM      4  O   UNL     1       9.572   4.824  -3.955  1.00  0.00    -0.550 OA
ENDBRANCH   1   2
BRANCH   1   5
ATOM      5  C   UNL     1       9.544   7.062  -6.609  1.00  0.00     0.003 C 
ATOM      6  C   UNL     1       8.768   7.883  -7.636  1.00  0.00     0.004 C 
ENDBRANCH   1   5
TORSDOF 2
ENDMDL
