MODEL 1
REMARK VINA RESULT:    -4.361      0.000      0.000
REMARK INTER + INTRA:          -5.132
REMARK INTER:                  -4.998
REMARK INTRA:                  -0.134
REMARK UNBOUND:                -0.134
REMARK SMILES O=C([O-])C=Cc1ccc(O)cc1
REMARK SMILES IDX 6 1 7 2 12 3 8 4 11 5 9 6 5 7 4 8 2 9 1 10 3 11 10 12
REMARK H PARENT 10 13
REMARK Flexibility Score: inf
ROOT
ATOM      1  C   UNL     1       4.188  38.160   7.145  1.00  0.00    -0.025 A 
ATOM      2  C   UNL     1       4.694  37.514   8.286  1.00  0.00     0.012 A 
ATOM      3  C   UNL     1       5.024  39.048   6.438  1.00  0.00     0.012 A 
ATOM      4  C   UNL     1       5.997  37.766   8.726  1.00  0.00     0.047 A 
ATOM      5  C   UNL     1       6.328  39.296   6.882  1.00  0.00     0.047 A 
ATOM      6  C   UNL     1       6.816  38.658   8.028  1.00  0.00     0.115 A 
ENDROOT
BRANCH   1   7
ATOM      7  C   UNL     1       2.802  37.853   6.712  1.00  0.00     0.010 C 
ATOM      8  C   UNL     1       2.503  37.007   5.715  1.00  0.00     0.025 C 
BRANCH   8   9
ATOM      9  C   UNL     1       1.115  36.735   5.306  1.00  0.00     0.064 C 
ATOM     10  O   UNL     1       0.419  37.615   4.733  1.00  0.00    -0.545 OA
ATOM     11  O   UNL     1       0.561  35.486   5.557  1.00  0.00    -0.545 OA
ENDBRANCH   8   9
ENDBRANCH   1   7
BRANCH   6  12
ATOM     12  O   UNL     1       8.112  38.900   8.479  1.00  0.00    -0.508 OA
ATOM     13  H   UNL     1       8.690  38.156   8.853  1.00  0.00     0.293 HD
ENDBRANCH   6  12
TORSDOF 3
ENDMDL
MODEL 2
REMARK VINA RESULT:    -4.301      1.294      5.938
REMARK INTER + INTRA:          -5.064
REMARK INTER:                  -4.929
REMARK INTRA:                  -0.135
REMARK UNBOUND:                -0.134
REMARK SMILES O=C([O-])C=Cc1ccc(O)cc1
REMARK SMILES IDX 6 1 7 2 12 3 8 4 11 5 9 6 5 7 4 8 2 9 1 10 3 11 10 12
REMARK H PARENT 10 13
REMARK Flexibility Score: inf
ROOT
ATOM      1  C   UNL     1       2.633  37.659   6.481  1.00  0.00    -0.025 A 
ATOM      2  C   UNL     1       1.478  38.207   7.062  1.00  0.00     0.012 A 
ATOM      3  C   UNL     1       2.492  36.650   5.506  1.00  0.00     0.012 A 
ATOM      4  C   UNL     1       0.210  37.744   6.698  1.00  0.00     0.047 A 
ATOM      5  C   UNL     1       1.221  36.190   5.144  1.00  0.00     0.047 A 
ATOM      6  C   UNL     1       0.077  36.734   5.741  1.00  0.00     0.115 A 
ENDROOT
BRANCH   1   7
ATOM      7  C   UNL     1       3.956  38.191   6.893  1.00  0.00     0.010 C 
ATOM      8  C   UNL     1       4.618  37.780   7.984  1.00  0.00     0.025 C 
BRANCH   8   9
ATOM      9  C   UNL     1       5.925  38.340   8.367  1.00  0.00     0.064 C 
ATOM     10  O   UNL     1       6.771  37.651   8.996  1.00  0.00    -0.545 OA
ATOM     11  O   UNL     1       6.230  39.653   8.029  1.00  0.00    -0.545 OA
ENDBRANCH   8   9
ENDBRANCH   1   7
BRANCH   6  12
ATOM     12  O   UNL     1      -1.192  36.281   5.389  1.00  0.00    -0.508 OA
ATOM     13  H   UNL     1      -1.340  35.704   4.570  1.00  0.00     0.293 HD
ENDBRANCH   6  12
TORSDOF 3
ENDMDL
MODEL 3
REMARK VINA RESULT:    -4.266      1.278      5.955
REMARK INTER + INTRA:          -5.023
REMARK INTER:                  -4.888
REMARK INTRA:                  -0.136
REMARK UNBOUND:                -0.134
REMARK SMILES O=C([O-])C=Cc1ccc(O)cc1
REMARK SMILES IDX 6 1 7 2 12 3 8 4 11 5 9 6 5 7 4 8 2 9 1 10 3 11 10 12
REMARK H PARENT 10 13
REMARK Flexibility Score: inf
ROOT
ATOM      1  C   UNL     1       2.630  37.697   6.514  1.00  0.00    -0.025 A 
ATOM      2  C   UNL     1       2.513  36.682   5.549  1.00  0.00     0.012 A 
ATOM      3  C   UNL     1       1.458  38.214   7.102  1.00  0.00     0.012 A 
ATOM      4  C   UNL     1       1.256  36.210   5.161  1.00  0.00     0.047 A 
ATOM      5  C   UNL     1       0.201  37.738   6.712  1.00  0.00     0.047 A 
ATOM      6  C   UNL     1       0.098  36.737   5.739  1.00  0.00     0.115 A 
ENDROOT
BRANCH   1   7
ATOM      7  C   UNL     1       3.987  38.157   6.899  1.00  0.00     0.010 C 
ATOM      8  C   UNL     1       4.618  37.767   8.016  1.00  0.00     0.025 C 
BRANCH   8   9
ATOM      9  C   UNL     1       5.961  38.255   8.371  1.00  0.00     0.064 C 
ATOM     10  O   UNL     1       6.738  37.566   9.085  1.00  0.00    -0.545 OA
ATOM     11  O   UNL     1       6.379  39.497   7.912  1.00  0.00    -0.545 OA
ENDBRANCH   8   9
ENDBRANCH   1   7
BRANCH   6  12
ATOM     12  O   UNL     1      -1.149  36.258   5.342  1.00  0.00    -0.508 OA
ATOM     13  H   UNL     1      -1.395  36.170   4.363  1.00  0.00     0.293 HD
ENDBRANCH   6  12
TORSDOF 3
ENDMDL
MODEL 4
REMARK VINA RESULT:    -3.759      3.720      5.409
REMARK INTER + INTRA:          -4.443
REMARK INTER:                  -4.302
REMARK INTRA:                  -0.141
REMARK UNBOUND:                -0.134
REMARK SMILES O=C([O-])C=Cc1ccc(O)cc1
REMARK SMILES IDX 6 1 7 2 12 3 8 4 11 5 9 6 5 7 4 8 2 9 1 10 3 11 10 12
REMARK H PARENT 10 13
REMARK Flexibility Score: inf
ROOT
ATOM      1  C   UNL     1      -0.136  35.918   6.111  1.00  0.00    -0.025 A 
ATOM      2  C   UNL     1       0.018  37.222   6.611  1.00  0.00     0.012 A 
ATOM      3  C   UNL     1       0.921  35.341   5.377  1.00  0.00     0.012 A 
ATOM      4  C   UNL     1       1.190  37.945   6.365  1.00  0.00     0.047 A 
ATOM      5  C   UNL     1       2.092  36.067   5.134  1.00  0.00     0.047 A 
ATOM      6  C   UNL     1       2.228  37.372   5.625  1.00  0.00     0.115 A 
ENDROOT
BRANCH   1   7
ATOM      7  C   UNL     1      -1.394  35.188   6.407  1.00  0.00     0.010 C 
ATOM      8  C   UNL     1      -1.842  34.948   7.648  1.00  0.00     0.025 C 
BRANCH   8   9
ATOM      9  C   UNL     1      -3.090  34.210   7.903  1.00  0.00     0.064 C 
ATOM     10  O   UNL     1      -4.188  34.598   7.422  1.00  0.00    -0.545 OA
ATOM     11  O   UNL     1      -3.057  33.065   8.690  1.00  0.00    -0.545 OA
ENDBRANCH   8   9
ENDBRANCH   1   7
BRANCH   6  12
ATOM     12  O   UNL     1       3.389  38.104   5.387  1.00  0.00    -0.508 OA
ATOM     13  H   UNL     1       3.564  38.985   5.854  1.00  0.00     0.293 HD
ENDBRANCH   6  12
TORSDOF 3
ENDMDL
MODEL 5
REMARK VINA RESULT:    -3.747     16.308     17.034
REMARK INTER + INTRA:          -4.428
REMARK INTER:                  -4.280
REMARK INTRA:                  -0.148
REMARK UNBOUND:                -0.134
REMARK SMILES O=C([O-])C=Cc1ccc(O)cc1
REMARK SMILES IDX 6 1 7 2 12 3 8 4 11 5 9 6 5 7 4 8 2 9 1 10 3 11 10 12
REMARK H PARENT 10 13
REMARK Flexibility Score: inf
ROOT
ATOM      1  C   UNL     1      -5.811  50.799   9.693  1.00  0.00    -0.025 A 
ATOM      2  C   UNL     1      -5.054  51.967   9.889  1.00  0.00     0.012 A 
ATOM      3  C   UNL     1      -5.224  49.551   9.986  1.00  0.00     0.012 A 
ATOM      4  C   UNL     1      -3.734  51.891  10.342  1.00  0.00     0.047 A 
ATOM      5  C   UNL     1      -3.903  49.480  10.441  1.00  0.00     0.047 A 
ATOM      6  C   UNL     1      -3.155  50.650  10.618  1.00  0.00     0.115 A 
ENDROOT
BRANCH   1   7
ATOM      7  C   UNL     1      -7.211  50.932   9.219  1.00  0.00     0.010 C 
ATOM      8  C   UNL     1      -7.671  51.992   8.539  1.00  0.00     0.025 C 
BRANCH   8   9
ATOM      9  C   UNL     1      -9.071  52.093   8.095  1.00  0.00     0.064 C 
ATOM     10  O   UNL     1      -9.944  52.653   8.810  1.00  0.00    -0.545 OA
ATOM     11  O   UNL     1      -9.438  51.560   6.866  1.00  0.00    -0.545 OA
ENDBRANCH   8   9
ENDBRANCH   1   7
BRANCH   6  12
ATOM     12  O   UNL     1      -1.837  50.589  11.068  1.00  0.00    -0.508 OA
ATOM     13  H   UNL     1      -1.375  51.401  11.460  1.00  0.00     0.293 HD
ENDBRANCH   6  12
TORSDOF 3
ENDMDL
MODEL 6
REMARK VINA RESULT:    -3.736      2.242      2.896
REMARK INTER + INTRA:          -4.416
REMARK INTER:                  -4.281
REMARK INTRA:                  -0.135
REMARK UNBOUND:                -0.134
REMARK SMILES O=C([O-])C=Cc1ccc(O)cc1
REMARK SMILES IDX 6 1 7 2 12 3 8 4 11 5 9 6 5 7 4 8 2 9 1 10 3 11 10 12
REMARK H PARENT 10 13
REMARK Flexibility Score: inf
ROOT
ATOM      1  C   UNL     1       2.688  37.464   5.419  1.00  0.00    -0.025 A 
ATOM      2  C   UNL     1       3.349  37.889   6.584  1.00  0.00     0.012 A 
ATOM      3  C   UNL     1       3.043  38.046   4.185  1.00  0.00     0.012 A 
ATOM      4  C   UNL     1       4.324  38.889   6.525  1.00  0.00     0.047 A 
ATOM      5  C   UNL     1       4.020  39.046   4.130  1.00  0.00     0.047 A 
ATOM      6  C   UNL     1       4.661  39.471   5.300  1.00  0.00     0.115 A 
ENDROOT
BRANCH   1   7
ATOM      7  C   UNL     1       1.668  36.392   5.532  1.00  0.00     0.010 C 
ATOM      8  C   UNL     1       0.376  36.618   5.809  1.00  0.00     0.025 C 
BRANCH   8   9
ATOM      9  C   UNL     1      -0.606  35.527   5.925  1.00  0.00     0.064 C 
ATOM     10  O   UNL     1      -1.819  35.707   5.637  1.00  0.00    -0.545 OA
ATOM     11  O   UNL     1      -0.188  34.276   6.361  1.00  0.00    -0.545 OA
ENDBRANCH   8   9
ENDBRANCH   1   7
BRANCH   6  12
ATOM     12  O   UNL     1       5.633  40.468   5.255  1.00  0.00    -0.508 OA
ATOM     13  H   UNL     1       5.592  41.274   5.868  1.00  0.00     0.293 HD
ENDBRANCH   6  12
TORSDOF 3
ENDMDL
MODEL 7
REMARK VINA RESULT:    -3.664     13.339     14.231
REMARK INTER + INTRA:          -4.334
REMARK INTER:                  -4.196
REMARK INTRA:                  -0.138
REMARK UNBOUND:                -0.134
REMARK SMILES O=C([O-])C=Cc1ccc(O)cc1
REMARK SMILES IDX 6 1 7 2 12 3 8 4 11 5 9 6 5 7 4 8 2 9 1 10 3 11 10 12
REMARK H PARENT 10 13
REMARK Flexibility Score: inf
ROOT
ATOM      1  C   UNL     1      -4.619  48.787   9.528  1.00  0.00    -0.025 A 
ATOM      2  C   UNL     1      -5.640  49.740   9.367  1.00  0.00     0.012 A 
ATOM      3  C   UNL     1      -3.470  49.140  10.264  1.00  0.00     0.012 A 
ATOM      4  C   UNL     1      -5.507  51.023   9.905  1.00  0.00     0.047 A 
ATOM      5  C   UNL     1      -3.341  50.425  10.803  1.00  0.00     0.047 A 
ATOM      6  C   UNL     1      -4.358  51.370  10.622  1.00  0.00     0.115 A 
ENDROOT
BRANCH   1   7
ATOM      7  C   UNL     1      -4.812  47.435   8.946  1.00  0.00     0.010 C 
ATOM      8  C   UNL     1      -3.975  46.409   9.153  1.00  0.00     0.025 C 
BRANCH   8   9
ATOM      9  C   UNL     1      -4.193  45.084   8.549  1.00  0.00     0.064 C 
ATOM     10  O   UNL     1      -4.835  44.187   9.158  1.00  0.00    -0.545 OA
ATOM     11  O   UNL     1      -3.681  44.817   7.286  1.00  0.00    -0.545 OA
ENDBRANCH   8   9
ENDBRANCH   1   7
BRANCH   6  12
ATOM     12  O   UNL     1      -4.239  52.653  11.152  1.00  0.00    -0.508 OA
ATOM     13  H   UNL     1      -4.265  52.817  12.151  1.00  0.00     0.293 HD
ENDBRANCH   6  12
TORSDOF 3
ENDMDL
MODEL 8
REMARK VINA RESULT:    -3.647     12.149     13.181
REMARK INTER + INTRA:          -4.315
REMARK INTER:                  -4.180
REMARK INTRA:                  -0.135
REMARK UNBOUND:                -0.134
REMARK SMILES O=C([O-])C=Cc1ccc(O)cc1
REMARK SMILES IDX 6 1 7 2 12 3 8 4 11 5 9 6 5 7 4 8 2 9 1 10 3 11 10 12
REMARK H PARENT 10 13
REMARK Flexibility Score: inf
ROOT
ATOM      1  C   UNL     1      -4.303  47.369   8.966  1.00  0.00    -0.025 A 
ATOM      2  C   UNL     1      -3.528  47.984   9.963  1.00  0.00     0.012 A 
ATOM      3  C   UNL     1      -5.359  48.097   8.379  1.00  0.00     0.012 A 
ATOM      4  C   UNL     1      -3.814  49.286  10.385  1.00  0.00     0.047 A 
ATOM      5  C   UNL     1      -5.641  49.400   8.803  1.00  0.00     0.047 A 
ATOM      6  C   UNL     1      -4.870  49.997   9.808  1.00  0.00     0.115 A 
ENDROOT
BRANCH   1   7
ATOM      7  C   UNL     1      -3.954  45.989   8.545  1.00  0.00     0.010 C 
ATOM      8  C   UNL     1      -4.640  44.900   8.920  1.00  0.00     0.025 C 
BRANCH   8   9
ATOM      9  C   UNL     1      -4.256  43.544   8.491  1.00  0.00     0.064 C 
ATOM     10  O   UNL     1      -3.694  43.345   7.381  1.00  0.00    -0.545 OA
ATOM     11  O   UNL     1      -4.520  42.465   9.325  1.00  0.00    -0.545 OA
ENDBRANCH   8   9
ENDBRANCH   1   7
BRANCH   6  12
ATOM     12  O   UNL     1      -5.145  51.293  10.239  1.00  0.00    -0.508 OA
ATOM     13  H   UNL     1      -4.531  52.066  10.013  1.00  0.00     0.293 HD
ENDBRANCH   6  12
TORSDOF 3
ENDMDL
