MODEL 1
REMARK VINA RESULT:    -3.168      0.000      0.000
REMARK INTER + INTRA:          -3.747
REMARK INTER:                  -3.723
REMARK INTRA:                  -0.024
REMARK UNBOUND:                -0.024
REMARK SMILES CCCCC(=O)[O-]
REMARK SMILES IDX 4 1 5 2 6 3 7 4 3 5 2 6 1 7
REMARK H PARENT
REMARK Flexibility Score: inf
ROOT
ATOM      1  C   UNL     1      -0.403   5.697   6.459  1.00  0.00     0.053 C 
ENDROOT
BRANCH   1   2
ATOM      2  C   UNL     1      -0.505   5.988   4.992  1.00  0.00     0.041 C 
ATOM      3  O   UNL     1       0.005   5.199   4.154  1.00  0.00    -0.550 OA
ATOM      4  O   UNL     1      -1.193   7.112   4.551  1.00  0.00    -0.550 OA
ENDBRANCH   1   2
BRANCH   1   5
ATOM      5  C   UNL     1       0.592   4.564   6.747  1.00  0.00     0.006 C 
BRANCH   5   6
ATOM      6  C   UNL     1       0.316   3.878   8.093  1.00  0.00    -0.003 C 
ATOM      7  C   UNL     1       1.024   2.529   8.177  1.00  0.00     0.004 C 
ENDBRANCH   5   6
ENDBRANCH   1   5
TORSDOF 3
ENDMDL
MODEL 2
REMARK VINA RESULT:    -3.145      0.334      1.270
REMARK INTER + INTRA:          -3.720
REMARK INTER:                  -3.699
REMARK INTRA:                  -0.021
REMARK UNBOUND:                -0.024
REMARK SMILES CCCCC(=O)[O-]
REMARK SMILES IDX 4 1 5 2 6 3 7 4 3 5 2 6 1 7
REMARK H PARENT
REMARK Flexibility Score: inf
ROOT
ATOM      1  C   UNL     1      -0.584   5.935   6.507  1.00  0.00     0.053 C 
ENDROOT
BRANCH   1   2
ATOM      2  C   UNL     1      -0.647   6.134   5.023  1.00  0.00     0.041 C 
ATOM      3  O   UNL     1      -1.228   7.144   4.545  1.00  0.00    -0.550 OA
ATOM      4  O   UNL     1      -0.037   5.222   4.172  1.00  0.00    -0.550 OA
ENDBRANCH   1   2
BRANCH   1   5
ATOM      5  C   UNL     1       0.386   4.809   6.890  1.00  0.00     0.006 C 
BRANCH   5   6
ATOM      6  C   UNL     1       0.103   4.253   8.294  1.00  0.00    -0.003 C 
ATOM      7  C   UNL     1       0.723   2.869   8.471  1.00  0.00     0.004 C 
ENDBRANCH   5   6
ENDBRANCH   1   5
TORSDOF 3
ENDMDL
MODEL 3
REMARK VINA RESULT:    -2.951      1.321      1.625
REMARK INTER + INTRA:          -3.492
REMARK INTER:                  -3.473
REMARK INTRA:                  -0.019
REMARK UNBOUND:                -0.024
REMARK SMILES CCCCC(=O)[O-]
REMARK SMILES IDX 4 1 5 2 6 3 7 4 3 5 2 6 1 7
REMARK H PARENT
REMARK Flexibility Score: inf
ROOT
ATOM      1  C   UNL     1      -0.201   5.386   5.018  1.00  0.00     0.053 C 
ENDROOT
BRANCH   1   2
ATOM      2  C   UNL     1      -1.078   6.595   5.149  1.00  0.00     0.041 C 
ATOM      3  O   UNL     1      -1.798   6.745   6.171  1.00  0.00    -0.550 OA
ATOM      4  O   UNL     1      -1.073   7.569   4.160  1.00  0.00    -0.550 OA
ENDBRANCH   1   2
BRANCH   1   5
ATOM      5  C   UNL     1       0.335   4.921   6.378  1.00  0.00     0.006 C 
BRANCH   5   6
ATOM      6  C   UNL     1       1.328   3.757   6.243  1.00  0.00    -0.003 C 
ATOM      7  C   UNL     1       1.202   2.788   7.415  1.00  0.00     0.004 C 
ENDBRANCH   5   6
ENDBRANCH   1   5
TORSDOF 3
ENDMDL
MODEL 4
REMARK VINA RESULT:    -2.850      8.281      8.663
REMARK INTER + INTRA:          -3.373
REMARK INTER:                  -3.326
REMARK INTRA:                  -0.047
REMARK UNBOUND:                -0.024
REMARK SMILES CCCCC(=O)[O-]
REMARK SMILES IDX 4 1 5 2 6 3 7 4 3 5 2 6 1 7
REMARK H PARENT
REMARK Flexibility Score: inf
ROOT
ATOM      1  C   UNL     1      -3.114  -1.508   4.118  1.00  0.00     0.053 C 
ENDROOT
BRANCH   1   2
ATOM      2  C   UNL     1      -3.265  -2.758   3.305  1.00  0.00     0.041 C 
ATOM      3  O   UNL     1      -2.246  -3.349   2.860  1.00  0.00    -0.550 OA
ATOM      4  O   UNL     1      -4.527  -3.287   3.070  1.00  0.00    -0.550 OA
ENDBRANCH   1   2
BRANCH   1   5
ATOM      5  C   UNL     1      -4.475  -0.917   4.512  1.00  0.00     0.006 C 
BRANCH   5   6
ATOM      6  C   UNL     1      -4.845  -1.232   5.969  1.00  0.00    -0.003 C 
ATOM      7  C   UNL     1      -5.680  -0.111   6.579  1.00  0.00     0.004 C 
ENDBRANCH   5   6
ENDBRANCH   1   5
TORSDOF 3
ENDMDL
MODEL 5
REMARK VINA RESULT:    -2.806     12.266     12.745
REMARK INTER + INTRA:          -3.322
REMARK INTER:                  -3.296
REMARK INTRA:                  -0.026
REMARK UNBOUND:                -0.024
REMARK SMILES CCCCC(=O)[O-]
REMARK SMILES IDX 4 1 5 2 6 3 7 4 3 5 2 6 1 7
REMARK H PARENT
REMARK Flexibility Score: inf
ROOT
ATOM      1  C   UNL     1      -0.702  -3.444  -3.897  1.00  0.00     0.053 C 
ENDROOT
BRANCH   1   2
ATOM      2  C   UNL     1      -1.167  -2.115  -4.412  1.00  0.00     0.041 C 
ATOM      3  O   UNL     1      -1.047  -1.084  -3.700  1.00  0.00    -0.550 OA
ATOM      4  O   UNL     1      -1.700  -2.012  -5.690  1.00  0.00    -0.550 OA
ENDBRANCH   1   2
BRANCH   1   5
ATOM      5  C   UNL     1      -0.908  -3.571  -2.381  1.00  0.00     0.006 C 
BRANCH   5   6
ATOM      6  C   UNL     1      -0.501  -4.955  -1.854  1.00  0.00    -0.003 C 
ATOM      7  C   UNL     1       0.908  -5.323  -2.309  1.00  0.00     0.004 C 
ENDBRANCH   5   6
ENDBRANCH   1   5
TORSDOF 3
ENDMDL
MODEL 6
REMARK VINA RESULT:    -2.793      7.168      7.770
REMARK INTER + INTRA:          -3.306
REMARK INTER:                  -3.258
REMARK INTRA:                  -0.049
REMARK UNBOUND:                -0.024
REMARK SMILES CCCCC(=O)[O-]
REMARK SMILES IDX 4 1 5 2 6 3 7 4 3 5 2 6 1 7
REMARK H PARENT
REMARK Flexibility Score: inf
ROOT
ATOM      1  C   UNL     1       2.170  -0.980   6.222  1.00  0.00     0.053 C 
ENDROOT
BRANCH   1   2
ATOM      2  C   UNL     1       3.366  -1.672   5.643  1.00  0.00     0.041 C 
ATOM      3  O   UNL     1       4.451  -1.700   6.281  1.00  0.00    -0.550 OA
ATOM      4  O   UNL     1       3.272  -2.313   4.414  1.00  0.00    -0.550 OA
ENDBRANCH   1   2
BRANCH   1   5
ATOM      5  C   UNL     1       0.938  -1.118   5.317  1.00  0.00     0.006 C 
BRANCH   5   6
ATOM      6  C   UNL     1      -0.014  -2.223   5.798  1.00  0.00    -0.003 C 
ATOM      7  C   UNL     1      -1.236  -2.329   4.890  1.00  0.00     0.004 C 
ENDBRANCH   5   6
ENDBRANCH   1   5
TORSDOF 3
ENDMDL
MODEL 7
REMARK VINA RESULT:    -2.653      6.965      7.768
REMARK INTER + INTRA:          -3.142
REMARK INTER:                  -3.123
REMARK INTRA:                  -0.019
REMARK UNBOUND:                -0.024
REMARK SMILES CCCCC(=O)[O-]
REMARK SMILES IDX 4 1 5 2 6 3 7 4 3 5 2 6 1 7
REMARK H PARENT
REMARK Flexibility Score: inf
ROOT
ATOM      1  C   UNL     1       0.102  -2.349   6.052  1.00  0.00     0.053 C 
ENDROOT
BRANCH   1   2
ATOM      2  C   UNL     1      -1.149  -2.643   5.281  1.00  0.00     0.041 C 
ATOM      3  O   UNL     1      -1.695  -3.774   5.370  1.00  0.00    -0.550 OA
ATOM      4  O   UNL     1      -1.728  -1.658   4.492  1.00  0.00    -0.550 OA
ENDBRANCH   1   2
BRANCH   1   5
ATOM      5  C   UNL     1       1.060  -1.447   5.262  1.00  0.00     0.006 C 
BRANCH   5   6
ATOM      6  C   UNL     1       2.511  -1.574   5.749  1.00  0.00    -0.003 C 
ATOM      7  C   UNL     1       3.326  -2.469   4.820  1.00  0.00     0.004 C 
ENDBRANCH   5   6
ENDBRANCH   1   5
TORSDOF 3
ENDMDL
MODEL 8
REMARK VINA RESULT:    -2.627      7.830      8.665
REMARK INTER + INTRA:          -3.112
REMARK INTER:                  -2.976
REMARK INTRA:                  -0.136
REMARK UNBOUND:                -0.024
REMARK SMILES CCCCC(=O)[O-]
REMARK SMILES IDX 4 1 5 2 6 3 7 4 3 5 2 6 1 7
REMARK H PARENT
REMARK Flexibility Score: inf
ROOT
ATOM      1  C   UNL     1      -2.300  -2.957   3.568  1.00  0.00     0.053 C 
ENDROOT
BRANCH   1   2
ATOM      2  C   UNL     1      -1.574  -2.845   4.874  1.00  0.00     0.041 C 
ATOM      3  O   UNL     1      -1.982  -3.481   5.881  1.00  0.00    -0.550 OA
ATOM      4  O   UNL     1      -0.429  -2.064   4.968  1.00  0.00    -0.550 OA
ENDBRANCH   1   2
BRANCH   1   5
ATOM      5  C   UNL     1      -3.778  -2.564   3.701  1.00  0.00     0.006 C 
BRANCH   5   6
ATOM      6  C   UNL     1      -3.952  -1.099   4.129  1.00  0.00    -0.003 C 
ATOM      7  C   UNL     1      -4.824  -0.991   5.377  1.00  0.00     0.004 C 
ENDBRANCH   5   6
ENDBRANCH   1   5
TORSDOF 3
ENDMDL
