MODEL 1
REMARK VINA RESULT:    -3.647      0.000      0.000
REMARK INTER + INTRA:          -5.690
REMARK INTER:                  -5.353
REMARK INTRA:                  -0.337
REMARK UNBOUND:                -0.337
REMARK SMILES O=C([O-])CCCCCCCC(=O)[O-]
REMARK SMILES IDX 7 1 6 2 5 3 4 4 2 5 1 6 3 7 8 8 9 9 10 10 11 11 12 12 13 13
REMARK H PARENT
REMARK Flexibility Score: inf
ROOT
ATOM      1  C   UNL     1      57.476  27.441  50.680  1.00  0.00     0.000 C 
ENDROOT
BRANCH   1   2
ATOM      2  C   UNL     1      58.384  28.600  50.244  1.00  0.00     0.000 C 
BRANCH   2   3
ATOM      3  C   UNL     1      59.693  28.121  49.590  1.00  0.00     0.006 C 
BRANCH   3   4
ATOM      4  C   UNL     1      59.929  26.604  49.684  1.00  0.00     0.053 C 
BRANCH   4   5
ATOM      5  C   UNL     1      61.338  26.278  50.072  1.00  0.00     0.041 C 
ATOM      6  O   UNL     1      62.291  26.985  49.650  1.00  0.00    -0.550 OA
ATOM      7  O   UNL     1      61.595  25.214  50.927  1.00  0.00    -0.550 OA
ENDBRANCH   4   5
ENDBRANCH   3   4
ENDBRANCH   2   3
ENDBRANCH   1   2
BRANCH   1   8
ATOM      8  C   UNL     1      56.077  27.952  51.057  1.00  0.00     0.000 C 
BRANCH   8   9
ATOM      9  C   UNL     1      54.949  27.193  50.335  1.00  0.00     0.006 C 
BRANCH   9  10
ATOM     10  C   UNL     1      55.326  25.767  49.898  1.00  0.00     0.053 C 
BRANCH  10  11
ATOM     11  C   UNL     1      54.117  24.934  49.602  1.00  0.00     0.041 C 
ATOM     12  O   UNL     1      53.314  25.282  48.697  1.00  0.00    -0.550 OA
ATOM     13  O   UNL     1      53.861  23.791  50.349  1.00  0.00    -0.550 OA
ENDBRANCH  10  11
ENDBRANCH   9  10
ENDBRANCH   8   9
ENDBRANCH   1   8
TORSDOF 8
ENDMDL
MODEL 2
REMARK VINA RESULT:    -3.586      0.832      6.021
REMARK INTER + INTRA:          -5.600
REMARK INTER:                  -5.253
REMARK INTRA:                  -0.347
REMARK UNBOUND:                -0.337
REMARK SMILES O=C([O-])CCCCCCCC(=O)[O-]
REMARK SMILES IDX 7 1 6 2 5 3 4 4 2 5 1 6 3 7 8 8 9 9 10 10 11 11 12 12 13 13
REMARK H PARENT
REMARK Flexibility Score: inf
ROOT
ATOM      1  C   UNL     1      57.149  27.573  50.874  1.00  0.00     0.000 C 
ENDROOT
BRANCH   1   2
ATOM      2  C   UNL     1      55.750  28.203  50.938  1.00  0.00     0.000 C 
BRANCH   2   3
ATOM      3  C   UNL     1      54.656  27.290  50.357  1.00  0.00     0.006 C 
BRANCH   3   4
ATOM      4  C   UNL     1      55.151  25.896  49.939  1.00  0.00     0.053 C 
BRANCH   4   5
ATOM      5  C   UNL     1      54.019  24.978  49.594  1.00  0.00     0.041 C 
ATOM      6  O   UNL     1      53.142  25.337  48.765  1.00  0.00    -0.550 OA
ATOM      7  O   UNL     1      53.951  23.713  50.164  1.00  0.00    -0.550 OA
ENDBRANCH   4   5
ENDBRANCH   3   4
ENDBRANCH   2   3
ENDBRANCH   1   2
BRANCH   1   8
ATOM      8  C   UNL     1      58.141  28.508  50.165  1.00  0.00     0.000 C 
BRANCH   8   9
ATOM      9  C   UNL     1      59.602  28.252  50.577  1.00  0.00     0.006 C 
BRANCH   9  10
ATOM     10  C   UNL     1      60.425  27.479  49.534  1.00  0.00     0.053 C 
BRANCH  10  11
ATOM     11  C   UNL     1      60.633  26.050  49.931  1.00  0.00     0.041 C 
ATOM     12  O   UNL     1      61.793  25.617  50.160  1.00  0.00    -0.550 OA
ATOM     13  O   UNL     1      59.546  25.187  50.015  1.00  0.00    -0.550 OA
ENDBRANCH  10  11
ENDBRANCH   9  10
ENDBRANCH   8   9
ENDBRANCH   1   8
TORSDOF 8
ENDMDL
MODEL 3
REMARK VINA RESULT:    -3.480      0.863      1.474
REMARK INTER + INTRA:          -5.444
REMARK INTER:                  -4.950
REMARK INTRA:                  -0.495
REMARK UNBOUND:                -0.337
REMARK SMILES O=C([O-])CCCCCCCC(=O)[O-]
REMARK SMILES IDX 7 1 6 2 5 3 4 4 2 5 1 6 3 7 8 8 9 9 10 10 11 11 12 12 13 13
REMARK H PARENT
REMARK Flexibility Score: inf
ROOT
ATOM      1  C   UNL     1      58.082  27.995  51.135  1.00  0.00     0.000 C 
ENDROOT
BRANCH   1   2
ATOM      2  C   UNL     1      58.889  28.540  49.948  1.00  0.00     0.000 C 
BRANCH   2   3
ATOM      3  C   UNL     1      59.994  27.574  49.483  1.00  0.00     0.006 C 
BRANCH   3   4
ATOM      4  C   UNL     1      59.709  26.094  49.786  1.00  0.00     0.053 C 
BRANCH   4   5
ATOM      5  C   UNL     1      60.942  25.361  50.216  1.00  0.00     0.041 C 
ATOM      6  O   UNL     1      60.966  24.101  50.207  1.00  0.00    -0.550 OA
ATOM      7  O   UNL     1      62.076  26.069  50.594  1.00  0.00    -0.550 OA
ENDBRANCH   4   5
ENDBRANCH   3   4
ENDBRANCH   2   3
ENDBRANCH   1   2
BRANCH   1   8
ATOM      8  C   UNL     1      56.589  27.895  50.784  1.00  0.00     0.000 C 
BRANCH   8   9
ATOM      9  C   UNL     1      55.975  26.538  51.170  1.00  0.00     0.006 C 
BRANCH   9  10
ATOM     10  C   UNL     1      55.828  25.554  49.998  1.00  0.00     0.053 C 
BRANCH  10  11
ATOM     11  C   UNL     1      54.459  24.948  49.942  1.00  0.00     0.041 C 
ATOM     12  O   UNL     1      54.070  24.176  50.857  1.00  0.00    -0.550 OA
ATOM     13  O   UNL     1      53.627  25.212  48.861  1.00  0.00    -0.550 OA
ENDBRANCH  10  11
ENDBRANCH   9  10
ENDBRANCH   8   9
ENDBRANCH   1   8
TORSDOF 8
ENDMDL
MODEL 4
REMARK VINA RESULT:    -3.465      1.735      5.512
REMARK INTER + INTRA:          -5.423
REMARK INTER:                  -4.857
REMARK INTRA:                  -0.566
REMARK UNBOUND:                -0.337
REMARK SMILES O=C([O-])CCCCCCCC(=O)[O-]
REMARK SMILES IDX 7 1 6 2 5 3 4 4 2 5 1 6 3 7 8 8 9 9 10 10 11 11 12 12 13 13
REMARK H PARENT
REMARK Flexibility Score: inf
ROOT
ATOM      1  C   UNL     1      59.068  28.614  51.425  1.00  0.00     0.000 C 
ENDROOT
BRANCH   1   2
ATOM      2  C   UNL     1      57.583  28.570  51.815  1.00  0.00     0.000 C 
BRANCH   2   3
ATOM      3  C   UNL     1      56.686  28.029  50.688  1.00  0.00     0.006 C 
BRANCH   3   4
ATOM      4  C   UNL     1      55.180  28.084  50.996  1.00  0.00     0.053 C 
BRANCH   4   5
ATOM      5  C   UNL     1      54.400  27.120  50.157  1.00  0.00     0.041 C 
ATOM      6  O   UNL     1      53.239  27.415  49.766  1.00  0.00    -0.550 OA
ATOM      7  O   UNL     1      54.966  25.909  49.779  1.00  0.00    -0.550 OA
ENDBRANCH   4   5
ENDBRANCH   3   4
ENDBRANCH   2   3
ENDBRANCH   1   2
BRANCH   1   8
ATOM      8  C   UNL     1      59.235  28.607  49.898  1.00  0.00     0.000 C 
BRANCH   8   9
ATOM      9  C   UNL     1      60.097  27.434  49.396  1.00  0.00     0.006 C 
BRANCH   9  10
ATOM     10  C   UNL     1      60.507  26.437  50.492  1.00  0.00     0.053 C 
BRANCH  10  11
ATOM     11  C   UNL     1      59.797  25.126  50.351  1.00  0.00     0.041 C 
ATOM     12  O   UNL     1      58.540  25.091  50.273  1.00  0.00    -0.550 OA
ATOM     13  O   UNL     1      60.522  23.941  50.339  1.00  0.00    -0.550 OA
ENDBRANCH  10  11
ENDBRANCH   9  10
ENDBRANCH   8   9
ENDBRANCH   1   8
TORSDOF 8
ENDMDL
MODEL 5
REMARK VINA RESULT:    -3.412     12.175     14.083
REMARK INTER + INTRA:          -5.345
REMARK INTER:                  -4.779
REMARK INTRA:                  -0.566
REMARK UNBOUND:                -0.337
REMARK SMILES O=C([O-])CCCCCCCC(=O)[O-]
REMARK SMILES IDX 7 1 6 2 5 3 4 4 2 5 1 6 3 7 8 8 9 9 10 10 11 11 12 12 13 13
REMARK H PARENT
REMARK Flexibility Score: inf
ROOT
ATOM      1  C   UNL     1      61.279  31.036  59.808  1.00  0.00     0.000 C 
ENDROOT
BRANCH   1   2
ATOM      2  C   UNL     1      61.154  30.946  61.336  1.00  0.00     0.000 C 
BRANCH   2   3
ATOM      3  C   UNL     1      61.892  29.731  61.925  1.00  0.00     0.006 C 
BRANCH   3   4
ATOM      4  C   UNL     1      63.395  29.686  61.603  1.00  0.00     0.053 C 
BRANCH   4   5
ATOM      5  C   UNL     1      63.753  28.502  60.758  1.00  0.00     0.041 C 
ATOM      6  O   UNL     1      64.256  28.667  59.616  1.00  0.00    -0.550 OA
ATOM      7  O   UNL     1      63.562  27.216  61.247  1.00  0.00    -0.550 OA
ENDBRANCH   4   5
ENDBRANCH   3   4
ENDBRANCH   2   3
ENDBRANCH   1   2
BRANCH   1   8
ATOM      8  C   UNL     1      61.781  32.424  59.379  1.00  0.00     0.000 C 
BRANCH   8   9
ATOM      9  C   UNL     1      62.194  33.304  60.573  1.00  0.00     0.006 C 
BRANCH   9  10
ATOM     10  C   UNL     1      63.713  33.484  60.729  1.00  0.00     0.053 C 
BRANCH  10  11
ATOM     11  C   UNL     1      64.056  34.762  61.431  1.00  0.00     0.041 C 
ATOM     12  O   UNL     1      65.176  34.897  61.990  1.00  0.00    -0.550 OA
ATOM     13  O   UNL     1      63.124  35.791  61.496  1.00  0.00    -0.550 OA
ENDBRANCH  10  11
ENDBRANCH   9  10
ENDBRANCH   8   9
ENDBRANCH   1   8
TORSDOF 8
ENDMDL
MODEL 6
REMARK VINA RESULT:    -3.408     12.662     13.968
REMARK INTER + INTRA:          -5.340
REMARK INTER:                  -4.836
REMARK INTRA:                  -0.504
REMARK UNBOUND:                -0.337
REMARK SMILES O=C([O-])CCCCCCCC(=O)[O-]
REMARK SMILES IDX 7 1 6 2 5 3 4 4 2 5 1 6 3 7 8 8 9 9 10 10 11 11 12 12 13 13
REMARK H PARENT
REMARK Flexibility Score: inf
ROOT
ATOM      1  C   UNL     1      62.268  31.961  60.129  1.00  0.00     0.000 C 
ENDROOT
BRANCH   1   2
ATOM      2  C   UNL     1      61.890  33.446  60.021  1.00  0.00     0.000 C 
BRANCH   2   3
ATOM      3  C   UNL     1      62.768  34.352  60.902  1.00  0.00     0.006 C 
BRANCH   3   4
ATOM      4  C   UNL     1      64.196  33.825  61.126  1.00  0.00     0.053 C 
BRANCH   4   5
ATOM      5  C   UNL     1      65.231  34.864  60.821  1.00  0.00     0.041 C 
ATOM      6  O   UNL     1      65.882  35.402  61.756  1.00  0.00    -0.550 OA
ATOM      7  O   UNL     1      65.501  35.212  59.504  1.00  0.00    -0.550 OA
ENDBRANCH   4   5
ENDBRANCH   3   4
ENDBRANCH   2   3
ENDBRANCH   1   2
BRANCH   1   8
ATOM      8  C   UNL     1      61.228  31.189  60.955  1.00  0.00     0.000 C 
BRANCH   8   9
ATOM      9  C   UNL     1      61.860  30.117  61.861  1.00  0.00     0.006 C 
BRANCH   9  10
ATOM     10  C   UNL     1      63.349  29.853  61.582  1.00  0.00     0.053 C 
BRANCH  10  11
ATOM     11  C   UNL     1      63.603  28.428  61.198  1.00  0.00     0.041 C 
ATOM     12  O   UNL     1      64.615  28.127  60.511  1.00  0.00    -0.550 OA
ATOM     13  O   UNL     1      62.704  27.436  61.572  1.00  0.00    -0.550 OA
ENDBRANCH  10  11
ENDBRANCH   9  10
ENDBRANCH   8   9
ENDBRANCH   1   8
TORSDOF 8
ENDMDL
MODEL 7
REMARK VINA RESULT:    -3.314     12.460     13.955
REMARK INTER + INTRA:          -5.201
REMARK INTER:                  -4.661
REMARK INTRA:                  -0.540
REMARK UNBOUND:                -0.337
REMARK SMILES O=C([O-])CCCCCCCC(=O)[O-]
REMARK SMILES IDX 7 1 6 2 5 3 4 4 2 5 1 6 3 7 8 8 9 9 10 10 11 11 12 12 13 13
REMARK H PARENT
REMARK Flexibility Score: inf
ROOT
ATOM      1  C   UNL     1      61.121  30.511  60.085  1.00  0.00     0.000 C 
ENDROOT
BRANCH   1   2
ATOM      2  C   UNL     1      61.478  30.307  61.564  1.00  0.00     0.000 C 
BRANCH   2   3
ATOM      3  C   UNL     1      62.657  29.339  61.767  1.00  0.00     0.006 C 
BRANCH   3   4
ATOM      4  C   UNL     1      63.488  29.080  60.500  1.00  0.00     0.053 C 
BRANCH   4   5
ATOM      5  C   UNL     1      64.811  29.781  60.543  1.00  0.00     0.041 C 
ATOM      6  O   UNL     1      64.876  30.988  60.898  1.00  0.00    -0.550 OA
ATOM      7  O   UNL     1      65.974  29.093  60.224  1.00  0.00    -0.550 OA
ENDBRANCH   4   5
ENDBRANCH   3   4
ENDBRANCH   2   3
ENDBRANCH   1   2
BRANCH   1   8
ATOM      8  C   UNL     1      61.237  31.991  59.691  1.00  0.00     0.000 C 
BRANCH   8   9
ATOM      9  C   UNL     1      62.082  32.809  60.685  1.00  0.00     0.006 C 
BRANCH   9  10
ATOM     10  C   UNL     1      62.344  34.259  60.248  1.00  0.00     0.053 C 
BRANCH  10  11
ATOM     11  C   UNL     1      63.290  34.961  61.173  1.00  0.00     0.041 C 
ATOM     12  O   UNL     1      63.034  36.125  61.579  1.00  0.00    -0.550 OA
ATOM     13  O   UNL     1      64.472  34.341  61.559  1.00  0.00    -0.550 OA
ENDBRANCH  10  11
ENDBRANCH   9  10
ENDBRANCH   8   9
ENDBRANCH   1   8
TORSDOF 8
ENDMDL
MODEL 8
REMARK VINA RESULT:    -3.303      1.603      7.033
REMARK INTER + INTRA:          -5.186
REMARK INTER:                  -4.881
REMARK INTRA:                  -0.305
REMARK UNBOUND:                -0.337
REMARK SMILES O=C([O-])CCCCCCCC(=O)[O-]
REMARK SMILES IDX 7 1 6 2 5 3 4 4 2 5 1 6 3 7 8 8 9 9 10 10 11 11 12 12 13 13
REMARK H PARENT
REMARK Flexibility Score: inf
ROOT
ATOM      1  C   UNL     1      59.755  28.043  49.601  1.00  0.00     0.000 C 
ENDROOT
BRANCH   1   2
ATOM      2  C   UNL     1      58.465  28.527  50.278  1.00  0.00     0.000 C 
BRANCH   2   3
ATOM      3  C   UNL     1      57.517  27.374  50.653  1.00  0.00     0.006 C 
BRANCH   3   4
ATOM      4  C   UNL     1      56.081  27.816  50.981  1.00  0.00     0.053 C 
BRANCH   4   5
ATOM      5  C   UNL     1      55.061  26.984  50.267  1.00  0.00     0.041 C 
ATOM      6  O   UNL     1      55.294  25.771  50.018  1.00  0.00    -0.550 OA
ATOM      7  O   UNL     1      53.840  27.539  49.907  1.00  0.00    -0.550 OA
ENDBRANCH   4   5
ENDBRANCH   3   4
ENDBRANCH   2   3
ENDBRANCH   1   2
BRANCH   1   8
ATOM      8  C   UNL     1      59.871  26.512  49.673  1.00  0.00     0.000 C 
BRANCH   8   9
ATOM      9  C   UNL     1      61.288  26.037  50.043  1.00  0.00     0.006 C 
BRANCH   9  10
ATOM     10  C   UNL     1      62.398  27.050  49.719  1.00  0.00     0.053 C 
BRANCH  10  11
ATOM     11  C   UNL     1      63.754  26.414  49.716  1.00  0.00     0.041 C 
ATOM     12  O   UNL     1      64.042  25.531  50.567  1.00  0.00    -0.550 OA
ATOM     13  O   UNL     1      64.711  26.821  48.794  1.00  0.00    -0.550 OA
ENDBRANCH  10  11
ENDBRANCH   9  10
ENDBRANCH   8   9
ENDBRANCH   1   8
TORSDOF 8
ENDMDL
MODEL 9
REMARK VINA RESULT:    -3.270      1.982      2.853
REMARK INTER + INTRA:          -5.136
REMARK INTER:                  -4.469
REMARK INTRA:                  -0.667
REMARK UNBOUND:                -0.337
REMARK SMILES O=C([O-])CCCCCCCC(=O)[O-]
REMARK SMILES IDX 7 1 6 2 5 3 4 4 2 5 1 6 3 7 8 8 9 9 10 10 11 11 12 12 13 13
REMARK H PARENT
REMARK Flexibility Score: inf
ROOT
ATOM      1  C   UNL     1      59.266  28.537  49.578  1.00  0.00     0.000 C 
ENDROOT
BRANCH   1   2
ATOM      2  C   UNL     1      60.388  27.491  49.638  1.00  0.00     0.000 C 
BRANCH   2   3
ATOM      3  C   UNL     1      59.859  26.046  49.641  1.00  0.00     0.006 C 
BRANCH   3   4
ATOM      4  C   UNL     1      60.291  25.216  50.862  1.00  0.00     0.053 C 
BRANCH   4   5
ATOM      5  C   UNL     1      61.264  24.139  50.493  1.00  0.00     0.041 C 
ATOM      6  O   UNL     1      60.854  22.977  50.232  1.00  0.00    -0.550 OA
ATOM      7  O   UNL     1      62.620  24.427  50.403  1.00  0.00    -0.550 OA
ENDBRANCH   4   5
ENDBRANCH   3   4
ENDBRANCH   2   3
ENDBRANCH   1   2
BRANCH   1   8
ATOM      8  C   UNL     1      58.515  28.613  50.917  1.00  0.00     0.000 C 
BRANCH   8   9
ATOM      9  C   UNL     1      57.038  28.197  50.797  1.00  0.00     0.006 C 
BRANCH   9  10
ATOM     10  C   UNL     1      56.578  27.185  51.859  1.00  0.00     0.053 C 
BRANCH  10  11
ATOM     11  C   UNL     1      56.537  25.788  51.322  1.00  0.00     0.041 C 
ATOM     12  O   UNL     1      56.869  24.817  52.053  1.00  0.00    -0.550 OA
ATOM     13  O   UNL     1      56.164  25.561  50.003  1.00  0.00    -0.550 OA
ENDBRANCH  10  11
ENDBRANCH   9  10
ENDBRANCH   8   9
ENDBRANCH   1   8
TORSDOF 8
ENDMDL
