MODEL 1
REMARK VINA RESULT:    -4.603      0.000      0.000
REMARK INTER + INTRA:          -9.457
REMARK INTER:                  -8.640
REMARK INTRA:                  -0.818
REMARK UNBOUND:                -0.818
REMARK SMILES O=C([O-])CCCCCCCCCCCCCCC(=O)[O-]
REMARK SMILES IDX 10 1 9 2 8 3 7 4 6 5 5 6 4 7 2 8 1 9 3 10 11 11 12 12 13 13
REMARK SMILES IDX 14 14 15 15 16 16 17 17 18 18 19 19 20 20
REMARK H PARENT
REMARK Flexibility Score: inf
ROOT
ATOM      1  C   UNL     1      11.437  35.335  22.446  1.00  0.00     0.000 C 
ENDROOT
BRANCH   1   2
ATOM      2  C   UNL     1      10.293  36.306  22.121  1.00  0.00     0.000 C 
BRANCH   2   3
ATOM      3  C   UNL     1       9.744  36.128  20.694  1.00  0.00     0.000 C 
BRANCH   3   4
ATOM      4  C   UNL     1       9.101  34.757  20.411  1.00  0.00     0.000 C 
BRANCH   4   5
ATOM      5  C   UNL     1       7.576  34.784  20.200  1.00  0.00     0.000 C 
BRANCH   5   6
ATOM      6  C   UNL     1       6.974  33.409  19.842  1.00  0.00     0.006 C 
BRANCH   6   7
ATOM      7  C   UNL     1       5.855  32.989  20.804  1.00  0.00     0.053 C 
BRANCH   7   8
ATOM      8  C   UNL     1       5.432  31.580  20.531  1.00  0.00     0.041 C 
ATOM      9  O   UNL     1       6.291  30.662  20.463  1.00  0.00    -0.550 OA
ATOM     10  O   UNL     1       4.083  31.272  20.403  1.00  0.00    -0.550 OA
ENDBRANCH   7   8
ENDBRANCH   6   7
ENDBRANCH   5   6
ENDBRANCH   4   5
ENDBRANCH   3   4
ENDBRANCH   2   3
ENDBRANCH   1   2
BRANCH   1  11
ATOM     11  C   UNL     1      12.653  35.597  21.544  1.00  0.00     0.000 C 
BRANCH  11  12
ATOM     12  C   UNL     1      13.098  34.343  20.773  1.00  0.00     0.000 C 
BRANCH  12  13
ATOM     13  C   UNL     1      14.599  34.363  20.434  1.00  0.00     0.000 C 
BRANCH  13  14
ATOM     14  C   UNL     1      15.360  33.177  21.046  1.00  0.00     0.000 C 
BRANCH  14  15
ATOM     15  C   UNL     1      14.425  32.101  21.619  1.00  0.00     0.000 C 
BRANCH  15  16
ATOM     16  C   UNL     1      15.203  31.110  22.498  1.00  0.00     0.006 C 
BRANCH  16  17
ATOM     17  C   UNL     1      16.709  31.400  22.508  1.00  0.00     0.053 C 
BRANCH  17  18
ATOM     18  C   UNL     1      17.330  31.055  23.828  1.00  0.00     0.041 C 
ATOM     19  O   UNL     1      16.662  30.442  24.702  1.00  0.00    -0.550 OA
ATOM     20  O   UNL     1      18.656  31.383  24.078  1.00  0.00    -0.550 OA
ENDBRANCH  17  18
ENDBRANCH  16  17
ENDBRANCH  15  16
ENDBRANCH  14  15
ENDBRANCH  13  14
ENDBRANCH  12  13
ENDBRANCH  11  12
ENDBRANCH   1  11
TORSDOF 15
ENDMDL
MODEL 2
REMARK VINA RESULT:    -4.560      2.804      3.435
REMARK INTER + INTRA:          -9.375
REMARK INTER:                  -7.605
REMARK INTRA:                  -1.771
REMARK UNBOUND:                -0.818
REMARK SMILES O=C([O-])CCCCCCCCCCCCCCC(=O)[O-]
REMARK SMILES IDX 10 1 9 2 8 3 7 4 6 5 5 6 4 7 2 8 1 9 3 10 11 11 12 12 13 13
REMARK SMILES IDX 14 14 15 15 16 16 17 17 18 18 19 19 20 20
REMARK H PARENT
REMARK Flexibility Score: inf
ROOT
ATOM      1  C   UNL     1      11.858  35.998  22.210  1.00  0.00     0.000 C 
ENDROOT
BRANCH   1   2
ATOM      2  C   UNL     1      10.335  36.188  22.220  1.00  0.00     0.000 C 
BRANCH   2   3
ATOM      3  C   UNL     1       9.724  36.214  20.807  1.00  0.00     0.000 C 
BRANCH   3   4
ATOM      4  C   UNL     1       8.948  34.944  20.411  1.00  0.00     0.000 C 
BRANCH   4   5
ATOM      5  C   UNL     1       9.673  34.021  19.414  1.00  0.00     0.000 C 
BRANCH   5   6
ATOM      6  C   UNL     1      10.006  32.627  19.987  1.00  0.00     0.006 C 
BRANCH   6   7
ATOM      7  C   UNL     1      11.516  32.381  20.095  1.00  0.00     0.053 C 
BRANCH   7   8
ATOM      8  C   UNL     1      11.856  31.791  21.427  1.00  0.00     0.041 C 
ATOM      9  O   UNL     1      12.447  32.484  22.296  1.00  0.00    -0.550 OA
ATOM     10  O   UNL     1      11.472  30.490  21.729  1.00  0.00    -0.550 OA
ENDBRANCH   7   8
ENDBRANCH   6   7
ENDBRANCH   5   6
ENDBRANCH   4   5
ENDBRANCH   3   4
ENDBRANCH   2   3
ENDBRANCH   1   2
BRANCH   1  11
ATOM     11  C   UNL     1      12.433  36.246  20.807  1.00  0.00     0.000 C 
BRANCH  11  12
ATOM     12  C   UNL     1      13.761  35.507  20.573  1.00  0.00     0.000 C 
BRANCH  12  13
ATOM     13  C   UNL     1      13.854  34.896  19.163  1.00  0.00     0.000 C 
BRANCH  13  14
ATOM     14  C   UNL     1      14.769  33.663  19.111  1.00  0.00     0.000 C 
BRANCH  14  15
ATOM     15  C   UNL     1      15.418  33.345  20.466  1.00  0.00     0.000 C 
BRANCH  15  16
ATOM     16  C   UNL     1      16.417  32.186  20.338  1.00  0.00     0.006 C 
BRANCH  16  17
ATOM     17  C   UNL     1      17.710  32.443  21.122  1.00  0.00     0.053 C 
BRANCH  17  18
ATOM     18  C   UNL     1      18.002  31.335  22.087  1.00  0.00     0.041 C 
ATOM     19  O   UNL     1      18.721  30.361  21.736  1.00  0.00    -0.550 OA
ATOM     20  O   UNL     1      17.508  31.394  23.384  1.00  0.00    -0.550 OA
ENDBRANCH  17  18
ENDBRANCH  16  17
ENDBRANCH  15  16
ENDBRANCH  14  15
ENDBRANCH  13  14
ENDBRANCH  12  13
ENDBRANCH  11  12
ENDBRANCH   1  11
TORSDOF 15
ENDMDL
MODEL 3
REMARK VINA RESULT:    -4.551      2.464      2.947
REMARK INTER + INTRA:          -9.360
REMARK INTER:                  -7.915
REMARK INTRA:                  -1.445
REMARK UNBOUND:                -0.818
REMARK SMILES O=C([O-])CCCCCCCCCCCCCCC(=O)[O-]
REMARK SMILES IDX 10 1 9 2 8 3 7 4 6 5 5 6 4 7 2 8 1 9 3 10 11 11 12 12 13 13
REMARK SMILES IDX 14 14 15 15 16 16 17 17 18 18 19 19 20 20
REMARK H PARENT
REMARK Flexibility Score: inf
ROOT
ATOM      1  C   UNL     1      10.760  35.626  22.087  1.00  0.00     0.000 C 
ENDROOT
BRANCH   1   2
ATOM      2  C   UNL     1       9.893  36.418  21.097  1.00  0.00     0.000 C 
BRANCH   2   3
ATOM      3  C   UNL     1       8.765  35.572  20.479  1.00  0.00     0.000 C 
BRANCH   3   4
ATOM      4  C   UNL     1       9.233  34.303  19.742  1.00  0.00     0.000 C 
BRANCH   4   5
ATOM      5  C   UNL     1       8.368  33.053  19.984  1.00  0.00     0.000 C 
BRANCH   5   6
ATOM      6  C   UNL     1       6.853  33.345  20.033  1.00  0.00     0.006 C 
BRANCH   6   7
ATOM      7  C   UNL     1       6.012  32.178  19.499  1.00  0.00     0.053 C 
BRANCH   7   8
ATOM      8  C   UNL     1       4.919  31.839  20.462  1.00  0.00     0.041 C 
ATOM      9  O   UNL     1       4.893  32.368  21.604  1.00  0.00    -0.550 OA
ATOM     10  O   UNL     1       3.898  30.977  20.079  1.00  0.00    -0.550 OA
ENDBRANCH   7   8
ENDBRANCH   6   7
ENDBRANCH   5   6
ENDBRANCH   4   5
ENDBRANCH   3   4
ENDBRANCH   2   3
ENDBRANCH   1   2
BRANCH   1  11
ATOM     11  C   UNL     1      12.253  35.796  21.767  1.00  0.00     0.000 C 
BRANCH  11  12
ATOM     12  C   UNL     1      12.500  36.247  20.318  1.00  0.00     0.000 C 
BRANCH  12  13
ATOM     13  C   UNL     1      13.720  35.552  19.686  1.00  0.00     0.000 C 
BRANCH  13  14
ATOM     14  C   UNL     1      14.465  34.647  20.678  1.00  0.00     0.000 C 
BRANCH  14  15
ATOM     15  C   UNL     1      15.099  33.420  20.005  1.00  0.00     0.000 C 
BRANCH  15  16
ATOM     16  C   UNL     1      14.547  32.118  20.605  1.00  0.00     0.006 C 
BRANCH  16  17
ATOM     17  C   UNL     1      13.120  31.818  20.129  1.00  0.00     0.053 C 
BRANCH  17  18
ATOM     18  C   UNL     1      12.184  31.614  21.281  1.00  0.00     0.041 C 
ATOM     19  O   UNL     1      11.271  30.748  21.211  1.00  0.00    -0.550 OA
ATOM     20  O   UNL     1      12.341  32.358  22.445  1.00  0.00    -0.550 OA
ENDBRANCH  17  18
ENDBRANCH  16  17
ENDBRANCH  15  16
ENDBRANCH  14  15
ENDBRANCH  13  14
ENDBRANCH  12  13
ENDBRANCH  11  12
ENDBRANCH   1  11
TORSDOF 15
ENDMDL
MODEL 4
REMARK VINA RESULT:    -4.542      0.612      9.081
REMARK INTER + INTRA:          -9.342
REMARK INTER:                  -8.370
REMARK INTRA:                  -0.972
REMARK UNBOUND:                -0.818
REMARK SMILES O=C([O-])CCCCCCCCCCCCCCC(=O)[O-]
REMARK SMILES IDX 10 1 9 2 8 3 7 4 6 5 5 6 4 7 2 8 1 9 3 10 11 11 12 12 13 13
REMARK SMILES IDX 14 14 15 15 16 16 17 17 18 18 19 19 20 20
REMARK H PARENT
REMARK Flexibility Score: inf
ROOT
ATOM      1  C   UNL     1      12.506  36.077  21.257  1.00  0.00     0.000 C 
ENDROOT
BRANCH   1   2
ATOM      2  C   UNL     1      13.348  34.833  20.940  1.00  0.00     0.000 C 
BRANCH   2   3
ATOM      3  C   UNL     1      12.750  33.540  21.522  1.00  0.00     0.000 C 
BRANCH   3   4
ATOM      4  C   UNL     1      13.607  32.277  21.318  1.00  0.00     0.000 C 
BRANCH   4   5
ATOM      5  C   UNL     1      15.040  32.536  20.817  1.00  0.00     0.000 C 
BRANCH   5   6
ATOM      6  C   UNL     1      16.075  31.518  21.339  1.00  0.00     0.006 C 
BRANCH   6   7
ATOM      7  C   UNL     1      15.739  31.008  22.747  1.00  0.00     0.053 C 
BRANCH   7   8
ATOM      8  C   UNL     1      16.971  30.967  23.595  1.00  0.00     0.041 C 
ATOM      9  O   UNL     1      16.921  30.498  24.763  1.00  0.00    -0.550 OA
ATOM     10  O   UNL     1      18.186  31.396  23.077  1.00  0.00    -0.550 OA
ENDBRANCH   7   8
ENDBRANCH   6   7
ENDBRANCH   5   6
ENDBRANCH   4   5
ENDBRANCH   3   4
ENDBRANCH   2   3
ENDBRANCH   1   2
BRANCH   1  11
ATOM     11  C   UNL     1      11.540  35.805  22.419  1.00  0.00     0.000 C 
BRANCH  11  12
ATOM     12  C   UNL     1      10.115  36.308  22.135  1.00  0.00     0.000 C 
BRANCH  12  13
ATOM     13  C   UNL     1       9.699  36.098  20.668  1.00  0.00     0.000 C 
BRANCH  13  14
ATOM     14  C   UNL     1       9.070  34.718  20.423  1.00  0.00     0.000 C 
BRANCH  14  15
ATOM     15  C   UNL     1       7.572  34.795  20.091  1.00  0.00     0.000 C 
BRANCH  15  16
ATOM     16  C   UNL     1       6.989  33.395  19.852  1.00  0.00     0.006 C 
BRANCH  16  17
ATOM     17  C   UNL     1       5.882  33.047  20.854  1.00  0.00     0.053 C 
BRANCH  17  18
ATOM     18  C   UNL     1       5.358  31.659  20.641  1.00  0.00     0.041 C 
ATOM     19  O   UNL     1       6.138  30.671  20.701  1.00  0.00    -0.550 OA
ATOM     20  O   UNL     1       4.004  31.455  20.409  1.00  0.00    -0.550 OA
ENDBRANCH  17  18
ENDBRANCH  16  17
ENDBRANCH  15  16
ENDBRANCH  14  15
ENDBRANCH  13  14
ENDBRANCH  12  13
ENDBRANCH  11  12
ENDBRANCH   1  11
TORSDOF 15
ENDMDL
MODEL 5
REMARK VINA RESULT:    -4.481      1.213      1.807
REMARK INTER + INTRA:          -9.228
REMARK INTER:                  -7.974
REMARK INTRA:                  -1.254
REMARK UNBOUND:                -0.818
REMARK SMILES O=C([O-])CCCCCCCCCCCCCCC(=O)[O-]
REMARK SMILES IDX 10 1 9 2 8 3 7 4 6 5 5 6 4 7 2 8 1 9 3 10 11 11 12 12 13 13
REMARK SMILES IDX 14 14 15 15 16 16 17 17 18 18 19 19 20 20
REMARK H PARENT
REMARK Flexibility Score: inf
ROOT
ATOM      1  C   UNL     1      10.162  36.194  22.104  1.00  0.00     0.000 C 
ENDROOT
BRANCH   1   2
ATOM      2  C   UNL     1      10.030  36.508  20.606  1.00  0.00     0.000 C 
BRANCH   2   3
ATOM      3  C   UNL     1       8.900  35.715  19.925  1.00  0.00     0.000 C 
BRANCH   3   4
ATOM      4  C   UNL     1       9.284  34.294  19.472  1.00  0.00     0.000 C 
BRANCH   4   5
ATOM      5  C   UNL     1       8.413  33.166  20.055  1.00  0.00     0.000 C 
BRANCH   5   6
ATOM      6  C   UNL     1       6.905  33.494  20.078  1.00  0.00     0.006 C 
BRANCH   6   7
ATOM      7  C   UNL     1       6.048  32.353  19.515  1.00  0.00     0.053 C 
BRANCH   7   8
ATOM      8  C   UNL     1       5.059  31.889  20.537  1.00  0.00     0.041 C 
ATOM      9  O   UNL     1       4.355  30.868  20.320  1.00  0.00    -0.550 OA
ATOM     10  O   UNL     1       4.954  32.552  21.753  1.00  0.00    -0.550 OA
ENDBRANCH   7   8
ENDBRANCH   6   7
ENDBRANCH   5   6
ENDBRANCH   4   5
ENDBRANCH   3   4
ENDBRANCH   2   3
ENDBRANCH   1   2
BRANCH   1  11
ATOM     11  C   UNL     1      11.546  35.610  22.423  1.00  0.00     0.000 C 
BRANCH  11  12
ATOM     12  C   UNL     1      12.574  35.883  21.313  1.00  0.00     0.000 C 
BRANCH  12  13
ATOM     13  C   UNL     1      13.215  34.592  20.773  1.00  0.00     0.000 C 
BRANCH  13  14
ATOM     14  C   UNL     1      12.707  33.334  21.493  1.00  0.00     0.000 C 
BRANCH  14  15
ATOM     15  C   UNL     1      13.587  32.102  21.234  1.00  0.00     0.000 C 
BRANCH  15  16
ATOM     16  C   UNL     1      15.076  32.479  21.237  1.00  0.00     0.006 C 
BRANCH  16  17
ATOM     17  C   UNL     1      15.922  31.498  22.059  1.00  0.00     0.053 C 
BRANCH  17  18
ATOM     18  C   UNL     1      17.382  31.824  21.978  1.00  0.00     0.041 C 
ATOM     19  O   UNL     1      17.833  32.476  20.998  1.00  0.00    -0.550 OA
ATOM     20  O   UNL     1      18.238  31.435  23.000  1.00  0.00    -0.550 OA
ENDBRANCH  17  18
ENDBRANCH  16  17
ENDBRANCH  15  16
ENDBRANCH  14  15
ENDBRANCH  13  14
ENDBRANCH  12  13
ENDBRANCH  11  12
ENDBRANCH   1  11
TORSDOF 15
ENDMDL
MODEL 6
REMARK VINA RESULT:    -4.451      2.193      7.977
REMARK INTER + INTRA:          -9.172
REMARK INTER:                  -7.696
REMARK INTRA:                  -1.476
REMARK UNBOUND:                -0.818
REMARK SMILES O=C([O-])CCCCCCCCCCCCCCC(=O)[O-]
REMARK SMILES IDX 10 1 9 2 8 3 7 4 6 5 5 6 4 7 2 8 1 9 3 10 11 11 12 12 13 13
REMARK SMILES IDX 14 14 15 15 16 16 17 17 18 18 19 19 20 20
REMARK H PARENT
REMARK Flexibility Score: inf
ROOT
ATOM      1  C   UNL     1      11.829  34.990  21.620  1.00  0.00     0.000 C 
ENDROOT
BRANCH   1   2
ATOM      2  C   UNL     1      13.128  35.528  21.004  1.00  0.00     0.000 C 
BRANCH   2   3
ATOM      3  C   UNL     1      13.310  35.113  19.533  1.00  0.00     0.000 C 
BRANCH   3   4
ATOM      4  C   UNL     1      14.520  34.200  19.259  1.00  0.00     0.000 C 
BRANCH   4   5
ATOM      5  C   UNL     1      15.371  33.858  20.497  1.00  0.00     0.000 C 
BRANCH   5   6
ATOM      6  C   UNL     1      15.542  32.342  20.734  1.00  0.00     0.006 C 
BRANCH   6   7
ATOM      7  C   UNL     1      14.757  31.847  21.956  1.00  0.00     0.053 C 
BRANCH   7   8
ATOM      8  C   UNL     1      13.354  31.499  21.569  1.00  0.00     0.041 C 
ATOM      9  O   UNL     1      12.412  31.656  22.390  1.00  0.00    -0.550 OA
ATOM     10  O   UNL     1      13.078  31.051  20.283  1.00  0.00    -0.550 OA
ENDBRANCH   7   8
ENDBRANCH   6   7
ENDBRANCH   5   6
ENDBRANCH   4   5
ENDBRANCH   3   4
ENDBRANCH   2   3
ENDBRANCH   1   2
BRANCH   1  11
ATOM     11  C   UNL     1      11.048  36.112  22.322  1.00  0.00     0.000 C 
BRANCH  11  12
ATOM     12  C   UNL     1       9.633  36.296  21.749  1.00  0.00     0.000 C 
BRANCH  12  13
ATOM     13  C   UNL     1       9.643  36.578  20.236  1.00  0.00     0.000 C 
BRANCH  13  14
ATOM     14  C   UNL     1       8.600  35.747  19.473  1.00  0.00     0.000 C 
BRANCH  14  15
ATOM     15  C   UNL     1       8.503  34.300  19.979  1.00  0.00     0.000 C 
BRANCH  15  16
ATOM     16  C   UNL     1       7.043  33.912  20.258  1.00  0.00     0.006 C 
BRANCH  16  17
ATOM     17  C   UNL     1       6.721  32.488  19.787  1.00  0.00     0.053 C 
BRANCH  17  18
ATOM     18  C   UNL     1       5.769  31.800  20.718  1.00  0.00     0.041 C 
ATOM     19  O   UNL     1       5.805  30.547  20.851  1.00  0.00    -0.550 OA
ATOM     20  O   UNL     1       4.865  32.546  21.464  1.00  0.00    -0.550 OA
ENDBRANCH  17  18
ENDBRANCH  16  17
ENDBRANCH  15  16
ENDBRANCH  14  15
ENDBRANCH  13  14
ENDBRANCH  12  13
ENDBRANCH  11  12
ENDBRANCH   1  11
TORSDOF 15
ENDMDL
MODEL 7
REMARK VINA RESULT:    -4.392      1.338      9.140
REMARK INTER + INTRA:          -9.061
REMARK INTER:                  -7.981
REMARK INTRA:                  -1.080
REMARK UNBOUND:                -0.818
REMARK SMILES O=C([O-])CCCCCCCCCCCCCCC(=O)[O-]
REMARK SMILES IDX 10 1 9 2 8 3 7 4 6 5 5 6 4 7 2 8 1 9 3 10 11 11 12 12 13 13
REMARK SMILES IDX 14 14 15 15 16 16 17 17 18 18 19 19 20 20
REMARK H PARENT
REMARK Flexibility Score: inf
ROOT
ATOM      1  C   UNL     1      12.951  33.640  21.154  1.00  0.00     0.000 C 
ENDROOT
BRANCH   1   2
ATOM      2  C   UNL     1      14.070  32.638  20.838  1.00  0.00     0.000 C 
BRANCH   2   3
ATOM      3  C   UNL     1      15.322  33.306  20.241  1.00  0.00     0.000 C 
BRANCH   3   4
ATOM      4  C   UNL     1      16.618  33.094  21.046  1.00  0.00     0.000 C 
BRANCH   4   5
ATOM      5  C   UNL     1      17.337  31.757  20.785  1.00  0.00     0.000 C 
BRANCH   5   6
ATOM      6  C   UNL     1      17.118  30.707  21.894  1.00  0.00     0.006 C 
BRANCH   6   7
ATOM      7  C   UNL     1      18.263  30.686  22.915  1.00  0.00     0.053 C 
BRANCH   7   8
ATOM      8  C   UNL     1      17.763  31.082  24.269  1.00  0.00     0.041 C 
ATOM      9  O   UNL     1      18.439  31.859  24.992  1.00  0.00    -0.550 OA
ATOM     10  O   UNL     1      16.524  30.634  24.710  1.00  0.00    -0.550 OA
ENDBRANCH   7   8
ENDBRANCH   6   7
ENDBRANCH   5   6
ENDBRANCH   4   5
ENDBRANCH   3   4
ENDBRANCH   2   3
ENDBRANCH   1   2
BRANCH   1  11
ATOM     11  C   UNL     1      13.392  35.076  20.832  1.00  0.00     0.000 C 
BRANCH  11  12
ATOM     12  C   UNL     1      12.596  36.131  21.618  1.00  0.00     0.000 C 
BRANCH  12  13
ATOM     13  C   UNL     1      11.357  35.536  22.311  1.00  0.00     0.000 C 
BRANCH  13  14
ATOM     14  C   UNL     1      10.072  36.317  21.997  1.00  0.00     0.000 C 
BRANCH  14  15
ATOM     15  C   UNL     1       9.773  36.395  20.493  1.00  0.00     0.000 C 
BRANCH  15  16
ATOM     16  C   UNL     1       9.257  35.048  19.966  1.00  0.00     0.006 C 
BRANCH  16  17
ATOM     17  C   UNL     1       7.742  34.893  20.151  1.00  0.00     0.053 C 
BRANCH  17  18
ATOM     18  C   UNL     1       7.319  33.458  20.075  1.00  0.00     0.041 C 
ATOM     19  O   UNL     1       6.139  33.128  20.370  1.00  0.00    -0.550 OA
ATOM     20  O   UNL     1       8.218  32.490  19.645  1.00  0.00    -0.550 OA
ENDBRANCH  17  18
ENDBRANCH  16  17
ENDBRANCH  15  16
ENDBRANCH  14  15
ENDBRANCH  13  14
ENDBRANCH  12  13
ENDBRANCH  11  12
ENDBRANCH   1  11
TORSDOF 15
ENDMDL
MODEL 8
REMARK VINA RESULT:    -4.281      1.458      2.467
REMARK INTER + INTRA:          -8.852
REMARK INTER:                  -7.687
REMARK INTRA:                  -1.165
REMARK UNBOUND:                -0.818
REMARK SMILES O=C([O-])CCCCCCCCCCCCCCC(=O)[O-]
REMARK SMILES IDX 10 1 9 2 8 3 7 4 6 5 5 6 4 7 2 8 1 9 3 10 11 11 12 12 13 13
REMARK SMILES IDX 14 14 15 15 16 16 17 17 18 18 19 19 20 20
REMARK H PARENT
REMARK Flexibility Score: inf
ROOT
ATOM      1  C   UNL     1      12.903  34.599  20.780  1.00  0.00     0.000 C 
ENDROOT
BRANCH   1   2
ATOM      2  C   UNL     1      12.546  35.864  21.574  1.00  0.00     0.000 C 
BRANCH   2   3
ATOM      3  C   UNL     1      11.303  35.684  22.463  1.00  0.00     0.000 C 
BRANCH   3   4
ATOM      4  C   UNL     1       9.997  36.254  21.878  1.00  0.00     0.000 C 
BRANCH   4   5
ATOM      5  C   UNL     1      10.059  36.626  20.385  1.00  0.00     0.000 C 
BRANCH   5   6
ATOM      6  C   UNL     1       8.975  35.939  19.528  1.00  0.00     0.006 C 
BRANCH   6   7
ATOM      7  C   UNL     1       8.806  34.454  19.875  1.00  0.00     0.053 C 
BRANCH   7   8
ATOM      8  C   UNL     1       7.362  34.130  20.094  1.00  0.00     0.041 C 
ATOM      9  O   UNL     1       6.629  34.914  20.753  1.00  0.00    -0.550 OA
ATOM     10  O   UNL     1       6.812  32.988  19.525  1.00  0.00    -0.550 OA
ENDBRANCH   7   8
ENDBRANCH   6   7
ENDBRANCH   5   6
ENDBRANCH   4   5
ENDBRANCH   3   4
ENDBRANCH   2   3
ENDBRANCH   1   2
BRANCH   1  11
ATOM     11  C   UNL     1      14.268  34.750  20.092  1.00  0.00     0.000 C 
BRANCH  11  12
ATOM     12  C   UNL     1      15.328  33.795  20.665  1.00  0.00     0.000 C 
BRANCH  12  13
ATOM     13  C   UNL     1      15.431  32.483  19.867  1.00  0.00     0.000 C 
BRANCH  13  14
ATOM     14  C   UNL     1      15.204  31.240  20.740  1.00  0.00     0.000 C 
BRANCH  14  15
ATOM     15  C   UNL     1      14.899  31.587  22.205  1.00  0.00     0.000 C 
BRANCH  15  16
ATOM     16  C   UNL     1      15.621  30.624  23.159  1.00  0.00     0.006 C 
BRANCH  16  17
ATOM     17  C   UNL     1      16.985  30.182  22.616  1.00  0.00     0.053 C 
BRANCH  17  18
ATOM     18  C   UNL     1      18.114  30.763  23.411  1.00  0.00     0.041 C 
ATOM     19  O   UNL     1      17.884  31.355  24.500  1.00  0.00    -0.550 OA
ATOM     20  O   UNL     1      19.423  30.624  22.966  1.00  0.00    -0.550 OA
ENDBRANCH  17  18
ENDBRANCH  16  17
ENDBRANCH  15  16
ENDBRANCH  14  15
ENDBRANCH  13  14
ENDBRANCH  12  13
ENDBRANCH  11  12
ENDBRANCH   1  11
TORSDOF 15
ENDMDL
MODEL 9
REMARK VINA RESULT:    -4.275      3.262      4.126
REMARK INTER + INTRA:          -8.842
REMARK INTER:                  -7.547
REMARK INTRA:                  -1.295
REMARK UNBOUND:                -0.818
REMARK SMILES O=C([O-])CCCCCCCCCCCCCCC(=O)[O-]
REMARK SMILES IDX 10 1 9 2 8 3 7 4 6 5 5 6 4 7 2 8 1 9 3 10 11 11 12 12 13 13
REMARK SMILES IDX 14 14 15 15 16 16 17 17 18 18 19 19 20 20
REMARK H PARENT
REMARK Flexibility Score: inf
ROOT
ATOM      1  C   UNL     1      13.455  34.369  20.542  1.00  0.00     0.000 C 
ENDROOT
BRANCH   1   2
ATOM      2  C   UNL     1      13.464  35.897  20.400  1.00  0.00     0.000 C 
BRANCH   2   3
ATOM      3  C   UNL     1      12.703  36.388  19.155  1.00  0.00     0.000 C 
BRANCH   3   4
ATOM      4  C   UNL     1      11.307  36.977  19.436  1.00  0.00     0.000 C 
BRANCH   4   5
ATOM      5  C   UNL     1      10.166  35.945  19.506  1.00  0.00     0.000 C 
BRANCH   5   6
ATOM      6  C   UNL     1       9.878  35.433  20.932  1.00  0.00     0.006 C 
BRANCH   6   7
ATOM      7  C   UNL     1      10.284  36.444  22.013  1.00  0.00     0.053 C 
BRANCH   7   8
ATOM      8  C   UNL     1      10.853  35.736  23.202  1.00  0.00     0.041 C 
ATOM      9  O   UNL     1      11.365  34.593  23.075  1.00  0.00    -0.550 OA
ATOM     10  O   UNL     1      10.866  36.362  24.443  1.00  0.00    -0.550 OA
ENDBRANCH   7   8
ENDBRANCH   6   7
ENDBRANCH   5   6
ENDBRANCH   4   5
ENDBRANCH   3   4
ENDBRANCH   2   3
ENDBRANCH   1   2
BRANCH   1  11
ATOM     11  C   UNL     1      13.942  33.694  19.251  1.00  0.00     0.000 C 
BRANCH  11  12
ATOM     12  C   UNL     1      15.088  32.699  19.499  1.00  0.00     0.000 C 
BRANCH  12  13
ATOM     13  C   UNL     1      14.625  31.234  19.413  1.00  0.00     0.000 C 
BRANCH  13  14
ATOM     14  C   UNL     1      14.597  30.540  20.783  1.00  0.00     0.000 C 
BRANCH  14  15
ATOM     15  C   UNL     1      14.907  31.498  21.943  1.00  0.00     0.000 C 
BRANCH  15  16
ATOM     16  C   UNL     1      16.011  30.928  22.846  1.00  0.00     0.006 C 
BRANCH  16  17
ATOM     17  C   UNL     1      17.402  31.446  22.461  1.00  0.00     0.053 C 
BRANCH  17  18
ATOM     18  C   UNL     1      18.418  31.144  23.520  1.00  0.00     0.041 C 
ATOM     19  O   UNL     1      19.481  30.536  23.225  1.00  0.00    -0.550 OA
ATOM     20  O   UNL     1      18.204  31.563  24.828  1.00  0.00    -0.550 OA
ENDBRANCH  17  18
ENDBRANCH  16  17
ENDBRANCH  15  16
ENDBRANCH  14  15
ENDBRANCH  13  14
ENDBRANCH  12  13
ENDBRANCH  11  12
ENDBRANCH   1  11
TORSDOF 15
ENDMDL
