MODEL 1
REMARK VINA RESULT:    -6.153      0.000      0.000
REMARK INTER + INTRA:          -6.153
REMARK INTER:                  -6.153
REMARK INTRA:                   0.000
REMARK UNBOUND:                 0.000
REMARK SMILES Cc1cc2cc3c(C)cc(=O)oc3c(C)c2o1
REMARK SMILES IDX 8 1 7 2 9 3 10 4 11 5 12 6 13 7 6 8 5 9 4 10 3 11 2 12 17 13
REMARK SMILES IDX 16 14 14 15 15 16 1 17
REMARK H PARENT
REMARK Flexibility Score: inf
ROOT
ATOM      1  C   UNL     1       8.804  -5.465  25.276  1.00  0.00     0.045 C 
ATOM      2  C   UNL     1       8.768  -6.535  26.336  1.00  0.00    -0.033 A 
ATOM      3  C   UNL     1       7.721  -6.542  27.267  1.00  0.00     0.098 A 
ATOM      4  C   UNL     1       7.682  -7.529  28.253  1.00  0.00     0.336 A 
ATOM      5  O   UNL     1       6.743  -7.540  29.092  1.00  0.00    -0.246 OA
ATOM      6  O   UNL     1       8.626  -8.460  28.315  1.00  0.00    -0.422 OA
ATOM      7  C   UNL     1       9.647  -8.512  27.463  1.00  0.00     0.145 A 
ATOM      8  C   UNL     1       9.762  -7.535  26.424  1.00  0.00     0.022 A 
ATOM      9  C   UNL     1      10.858  -7.594  25.528  1.00  0.00     0.024 A 
ATOM     10  C   UNL     1      11.791  -8.610  25.700  1.00  0.00     0.022 A 
ATOM     11  C   UNL     1      12.939  -8.896  24.998  1.00  0.00     0.054 A 
ATOM     12  C   UNL     1      13.457 -10.018  25.634  1.00  0.00     0.102 A 
ATOM     13  O   UNL     1      12.687 -10.383  26.644  1.00  0.00    -0.461 OA
ATOM     14  C   UNL     1      11.679  -9.544  26.693  1.00  0.00     0.140 A 
ATOM     15  C   UNL     1      10.612  -9.540  27.595  1.00  0.00     0.036 A 
ATOM     16  C   UNL     1      10.522 -10.556  28.698  1.00  0.00     0.052 C 
ATOM     17  C   UNL     1      14.720 -10.715  25.258  1.00  0.00     0.087 C 
ENDROOT
TORSDOF 0
ENDMDL
MODEL 2
REMARK VINA RESULT:    -5.628      3.368      5.782
REMARK INTER + INTRA:          -5.628
REMARK INTER:                  -5.628
REMARK INTRA:                   0.000
REMARK UNBOUND:                 0.000
REMARK SMILES Cc1cc2cc3c(C)cc(=O)oc3c(C)c2o1
REMARK SMILES IDX 8 1 7 2 9 3 10 4 11 5 12 6 13 7 6 8 5 9 4 10 3 11 2 12 17 13
REMARK SMILES IDX 16 14 14 15 15 16 1 17
REMARK H PARENT
REMARK Flexibility Score: inf
ROOT
ATOM      1  C   UNL     1      10.251 -11.109  32.991  1.00  0.00     0.045 C 
ATOM      2  C   UNL     1       8.875 -10.686  32.548  1.00  0.00    -0.033 A 
ATOM      3  C   UNL     1       7.767 -11.022  33.336  1.00  0.00     0.098 A 
ATOM      4  C   UNL     1       6.489 -10.635  32.930  1.00  0.00     0.336 A 
ATOM      5  O   UNL     1       5.490 -10.935  33.635  1.00  0.00    -0.246 OA
ATOM      6  O   UNL     1       6.315  -9.950  31.807  1.00  0.00    -0.422 OA
ATOM      7  C   UNL     1       7.322  -9.596  31.013  1.00  0.00     0.145 A 
ATOM      8  C   UNL     1       8.664  -9.957  31.355  1.00  0.00     0.022 A 
ATOM      9  C   UNL     1       9.728  -9.585  30.498  1.00  0.00     0.024 A 
ATOM     10  C   UNL     1       9.421  -8.877  29.341  1.00  0.00     0.022 A 
ATOM     11  C   UNL     1      10.238  -8.406  28.339  1.00  0.00     0.054 A 
ATOM     12  C   UNL     1       9.365  -7.788  27.451  1.00  0.00     0.102 A 
ATOM     13  O   UNL     1       8.118  -7.879  27.877  1.00  0.00    -0.461 OA
ATOM     14  C   UNL     1       8.138  -8.532  29.016  1.00  0.00     0.140 A 
ATOM     15  C   UNL     1       7.054  -8.863  29.831  1.00  0.00     0.036 A 
ATOM     16  C   UNL     1       5.649  -8.501  29.442  1.00  0.00     0.052 C 
ATOM     17  C   UNL     1       9.761  -7.126  26.175  1.00  0.00     0.087 C 
ENDROOT
TORSDOF 0
ENDMDL
MODEL 3
REMARK VINA RESULT:    -5.615      4.178      6.271
REMARK INTER + INTRA:          -5.615
REMARK INTER:                  -5.615
REMARK INTRA:                   0.000
REMARK UNBOUND:                 0.000
REMARK SMILES Cc1cc2cc3c(C)cc(=O)oc3c(C)c2o1
REMARK SMILES IDX 8 1 7 2 9 3 10 4 11 5 12 6 13 7 6 8 5 9 4 10 3 11 2 12 17 13
REMARK SMILES IDX 16 14 14 15 15 16 1 17
REMARK H PARENT
REMARK Flexibility Score: inf
ROOT
ATOM      1  C   UNL     1       7.651  -4.759  23.884  1.00  0.00     0.045 C 
ATOM      2  C   UNL     1       8.902  -5.253  24.563  1.00  0.00    -0.033 A 
ATOM      3  C   UNL     1       9.080  -6.629  24.755  1.00  0.00     0.098 A 
ATOM      4  C   UNL     1      10.234  -7.094  25.385  1.00  0.00     0.336 A 
ATOM      5  O   UNL     1      10.399  -8.330  25.559  1.00  0.00    -0.246 OA
ATOM      6  O   UNL     1      11.165  -6.245  25.803  1.00  0.00    -0.422 OA
ATOM      7  C   UNL     1      11.061  -4.927  25.653  1.00  0.00     0.145 A 
ATOM      8  C   UNL     1       9.906  -4.368  25.019  1.00  0.00     0.022 A 
ATOM      9  C   UNL     1       9.800  -2.964  24.872  1.00  0.00     0.024 A 
ATOM     10  C   UNL     1      10.835  -2.174  25.361  1.00  0.00     0.022 A 
ATOM     11  C   UNL     1      10.989  -0.807  25.366  1.00  0.00     0.054 A 
ATOM     12  C   UNL     1      12.213  -0.605  25.992  1.00  0.00     0.102 A 
ATOM     13  O   UNL     1      12.758  -1.756  26.342  1.00  0.00    -0.461 OA
ATOM     14  C   UNL     1      11.939  -2.710  25.966  1.00  0.00     0.140 A 
ATOM     15  C   UNL     1      12.099  -4.088  26.124  1.00  0.00     0.036 A 
ATOM     16  C   UNL     1      13.305  -4.656  26.818  1.00  0.00     0.052 C 
ATOM     17  C   UNL     1      12.833   0.725  26.261  1.00  0.00     0.087 C 
ENDROOT
TORSDOF 0
ENDMDL
MODEL 4
REMARK VINA RESULT:    -5.604      2.218      5.020
REMARK INTER + INTRA:          -5.604
REMARK INTER:                  -5.604
REMARK INTRA:                   0.000
REMARK UNBOUND:                 0.000
REMARK SMILES Cc1cc2cc3c(C)cc(=O)oc3c(C)c2o1
REMARK SMILES IDX 8 1 7 2 9 3 10 4 11 5 12 6 13 7 6 8 5 9 4 10 3 11 2 12 17 13
REMARK SMILES IDX 16 14 14 15 15 16 1 17
REMARK H PARENT
REMARK Flexibility Score: inf
ROOT
ATOM      1  C   UNL     1      12.252  -9.564  26.011  1.00  0.00     0.045 C 
ATOM      2  C   UNL     1      11.028  -8.707  26.207  1.00  0.00    -0.033 A 
ATOM      3  C   UNL     1      10.651  -7.810  25.199  1.00  0.00     0.098 A 
ATOM      4  C   UNL     1       9.520  -7.011  25.374  1.00  0.00     0.336 A 
ATOM      5  O   UNL     1       9.178  -6.203  24.472  1.00  0.00    -0.246 OA
ATOM      6  O   UNL     1       8.799  -7.096  26.486  1.00  0.00    -0.422 OA
ATOM      7  C   UNL     1       9.099  -7.926  27.481  1.00  0.00     0.145 A 
ATOM      8  C   UNL     1      10.245  -8.777  27.382  1.00  0.00     0.022 A 
ATOM      9  C   UNL     1      10.562  -9.650  28.451  1.00  0.00     0.024 A 
ATOM     10  C   UNL     1       9.737  -9.642  29.569  1.00  0.00     0.022 A 
ATOM     11  C   UNL     1       9.811 -10.363  30.739  1.00  0.00     0.054 A 
ATOM     12  C   UNL     1       8.721  -9.923  31.480  1.00  0.00     0.102 A 
ATOM     13  O   UNL     1       8.040  -9.006  30.816  1.00  0.00    -0.461 OA
ATOM     14  C   UNL     1       8.641  -8.828  29.663  1.00  0.00     0.140 A 
ATOM     15  C   UNL     1       8.277  -7.958  28.633  1.00  0.00     0.036 A 
ATOM     16  C   UNL     1       7.087  -7.051  28.766  1.00  0.00     0.052 C 
ATOM     17  C   UNL     1       8.364 -10.393  32.850  1.00  0.00     0.087 C 
ENDROOT
TORSDOF 0
ENDMDL
MODEL 5
REMARK VINA RESULT:    -5.447      5.440      7.279
REMARK INTER + INTRA:          -5.447
REMARK INTER:                  -5.447
REMARK INTRA:                   0.000
REMARK UNBOUND:                 0.000
REMARK SMILES Cc1cc2cc3c(C)cc(=O)oc3c(C)c2o1
REMARK SMILES IDX 8 1 7 2 9 3 10 4 11 5 12 6 13 7 6 8 5 9 4 10 3 11 2 12 17 13
REMARK SMILES IDX 16 14 14 15 15 16 1 17
REMARK H PARENT
REMARK Flexibility Score: inf
ROOT
ATOM      1  C   UNL     1      11.833   0.916  25.420  1.00  0.00     0.045 C 
ATOM      2  C   UNL     1      12.610  -0.289  25.883  1.00  0.00    -0.033 A 
ATOM      3  C   UNL     1      13.882  -0.111  26.443  1.00  0.00     0.098 A 
ATOM      4  C   UNL     1      14.608  -1.223  26.872  1.00  0.00     0.336 A 
ATOM      5  O   UNL     1      15.751  -1.068  27.376  1.00  0.00    -0.246 OA
ATOM      6  O   UNL     1      14.104  -2.445  26.755  1.00  0.00    -0.422 OA
ATOM      7  C   UNL     1      12.904  -2.686  26.235  1.00  0.00     0.145 A 
ATOM      8  C   UNL     1      12.096  -1.601  25.768  1.00  0.00     0.022 A 
ATOM      9  C   UNL     1      10.823  -1.868  25.206  1.00  0.00     0.024 A 
ATOM     10  C   UNL     1      10.408  -3.192  25.127  1.00  0.00     0.022 A 
ATOM     11  C   UNL     1       9.247  -3.735  24.626  1.00  0.00     0.054 A 
ATOM     12  C   UNL     1       9.402  -5.104  24.813  1.00  0.00     0.102 A 
ATOM     13  O   UNL     1      10.566  -5.371  25.379  1.00  0.00    -0.461 OA
ATOM     14  C   UNL     1      11.180  -4.229  25.575  1.00  0.00     0.140 A 
ATOM     15  C   UNL     1      12.436  -4.020  26.149  1.00  0.00     0.036 A 
ATOM     16  C   UNL     1      13.283  -5.173  26.607  1.00  0.00     0.052 C 
ATOM     17  C   UNL     1       8.412  -6.145  24.415  1.00  0.00     0.087 C 
ENDROOT
TORSDOF 0
ENDMDL
MODEL 6
REMARK VINA RESULT:    -5.375      2.392      5.270
REMARK INTER + INTRA:          -5.375
REMARK INTER:                  -5.375
REMARK INTRA:                   0.000
REMARK UNBOUND:                 0.000
REMARK SMILES Cc1cc2cc3c(C)cc(=O)oc3c(C)c2o1
REMARK SMILES IDX 8 1 7 2 9 3 10 4 11 5 12 6 13 7 6 8 5 9 4 10 3 11 2 12 17 13
REMARK SMILES IDX 16 14 14 15 15 16 1 17
REMARK H PARENT
REMARK Flexibility Score: inf
ROOT
ATOM      1  C   UNL     1       8.360  -5.027  24.941  1.00  0.00     0.045 C 
ATOM      2  C   UNL     1       9.252  -5.887  25.799  1.00  0.00    -0.033 A 
ATOM      3  C   UNL     1      10.634  -5.884  25.570  1.00  0.00     0.098 A 
ATOM      4  C   UNL     1      11.466  -6.679  26.359  1.00  0.00     0.336 A 
ATOM      5  O   UNL     1      12.708  -6.680  26.157  1.00  0.00    -0.246 OA
ATOM      6  O   UNL     1      10.959  -7.437  27.324  1.00  0.00    -0.422 OA
ATOM      7  C   UNL     1       9.658  -7.487  27.596  1.00  0.00     0.145 A 
ATOM      8  C   UNL     1       8.736  -6.704  26.831  1.00  0.00     0.022 A 
ATOM      9  C   UNL     1       7.352  -6.772  27.122  1.00  0.00     0.024 A 
ATOM     10  C   UNL     1       6.939  -7.611  28.150  1.00  0.00     0.022 A 
ATOM     11  C   UNL     1       5.679  -7.879  28.632  1.00  0.00     0.054 A 
ATOM     12  C   UNL     1       5.893  -8.797  29.654  1.00  0.00     0.102 A 
ATOM     13  O   UNL     1       7.179  -9.068  29.780  1.00  0.00    -0.461 OA
ATOM     14  C   UNL     1       7.821  -8.359  28.881  1.00  0.00     0.140 A 
ATOM     15  C   UNL     1       9.197  -8.320  28.644  1.00  0.00     0.036 A 
ATOM     16  C   UNL     1      10.147  -9.171  29.438  1.00  0.00     0.052 C 
ATOM     17  C   UNL     1       4.826  -9.419  30.490  1.00  0.00     0.087 C 
ENDROOT
TORSDOF 0
ENDMDL
MODEL 7
REMARK VINA RESULT:    -5.332      5.569      7.069
REMARK INTER + INTRA:          -5.332
REMARK INTER:                  -5.332
REMARK INTRA:                   0.000
REMARK UNBOUND:                 0.000
REMARK SMILES Cc1cc2cc3c(C)cc(=O)oc3c(C)c2o1
REMARK SMILES IDX 8 1 7 2 9 3 10 4 11 5 12 6 13 7 6 8 5 9 4 10 3 11 2 12 17 13
REMARK SMILES IDX 16 14 14 15 15 16 1 17
REMARK H PARENT
REMARK Flexibility Score: inf
ROOT
ATOM      1  C   UNL     1      14.862  -1.378  27.460  1.00  0.00     0.045 C 
ATOM      2  C   UNL     1      13.576  -1.152  26.707  1.00  0.00    -0.033 A 
ATOM      3  C   UNL     1      13.208   0.153  26.356  1.00  0.00     0.098 A 
ATOM      4  C   UNL     1      12.017   0.370  25.660  1.00  0.00     0.336 A 
ATOM      5  O   UNL     1      11.682   1.541  25.342  1.00  0.00    -0.246 OA
ATOM      6  O   UNL     1      11.233  -0.648  25.329  1.00  0.00    -0.422 OA
ATOM      7  C   UNL     1      11.523  -1.912  25.630  1.00  0.00     0.145 A 
ATOM      8  C   UNL     1      12.723  -2.219  26.344  1.00  0.00     0.022 A 
ATOM      9  C   UNL     1      13.018  -3.567  26.669  1.00  0.00     0.024 A 
ATOM     10  C   UNL     1      12.114  -4.547  26.278  1.00  0.00     0.022 A 
ATOM     11  C   UNL     1      12.137  -5.910  26.466  1.00  0.00     0.054 A 
ATOM     12  C   UNL     1      10.967  -6.357  25.864  1.00  0.00     0.102 A 
ATOM     13  O   UNL     1      10.286  -5.347  25.353  1.00  0.00    -0.461 OA
ATOM     14  C   UNL     1      10.966  -4.251  25.594  1.00  0.00     0.140 A 
ATOM     15  C   UNL     1      10.635  -2.942  25.237  1.00  0.00     0.036 A 
ATOM     16  C   UNL     1       9.356  -2.634  24.512  1.00  0.00     0.052 C 
ATOM     17  C   UNL     1      10.515  -7.777  25.810  1.00  0.00     0.087 C 
ENDROOT
TORSDOF 0
ENDMDL
MODEL 8
REMARK VINA RESULT:    -5.321      1.301      2.897
REMARK INTER + INTRA:          -5.321
REMARK INTER:                  -5.321
REMARK INTRA:                   0.000
REMARK UNBOUND:                 0.000
REMARK SMILES Cc1cc2cc3c(C)cc(=O)oc3c(C)c2o1
REMARK SMILES IDX 8 1 7 2 9 3 10 4 11 5 12 6 13 7 6 8 5 9 4 10 3 11 2 12 17 13
REMARK SMILES IDX 16 14 14 15 15 16 1 17
REMARK H PARENT
REMARK Flexibility Score: inf
ROOT
ATOM      1  C   UNL     1       9.237 -10.008  30.683  1.00  0.00     0.045 C 
ATOM      2  C   UNL     1       9.033  -9.139  29.469  1.00  0.00    -0.033 A 
ATOM      3  C   UNL     1       7.980  -8.215  29.457  1.00  0.00     0.098 A 
ATOM      4  C   UNL     1       7.784  -7.409  28.335  1.00  0.00     0.336 A 
ATOM      5  O   UNL     1       6.839  -6.577  28.319  1.00  0.00    -0.246 OA
ATOM      6  O   UNL     1       8.586  -7.509  27.282  1.00  0.00    -0.422 OA
ATOM      7  C   UNL     1       9.605  -8.363  27.228  1.00  0.00     0.145 A 
ATOM      8  C   UNL     1       9.872  -9.228  28.336  1.00  0.00     0.022 A 
ATOM      9  C   UNL     1      10.953 -10.141  28.264  1.00  0.00     0.024 A 
ATOM     10  C   UNL     1      11.717 -10.162  27.103  1.00  0.00     0.022 A 
ATOM     11  C   UNL     1      12.798 -10.940  26.760  1.00  0.00     0.054 A 
ATOM     12  C   UNL     1      13.132 -10.514  25.479  1.00  0.00     0.102 A 
ATOM     13  O   UNL     1      12.316  -9.556  25.075  1.00  0.00    -0.461 OA
ATOM     14  C   UNL     1      11.461  -9.333  26.045  1.00  0.00     0.140 A 
ATOM     15  C   UNL     1      10.416  -8.406  26.069  1.00  0.00     0.036 A 
ATOM     16  C   UNL     1      10.132  -7.525  24.885  1.00  0.00     0.052 C 
ATOM     17  C   UNL     1      14.241 -11.066  24.649  1.00  0.00     0.087 C 
ENDROOT
TORSDOF 0
ENDMDL
MODEL 9
REMARK VINA RESULT:    -5.259      9.091     10.247
REMARK INTER + INTRA:          -5.259
REMARK INTER:                  -5.259
REMARK INTRA:                   0.000
REMARK UNBOUND:                 0.000
REMARK SMILES Cc1cc2cc3c(C)cc(=O)oc3c(C)c2o1
REMARK SMILES IDX 8 1 7 2 9 3 10 4 11 5 12 6 13 7 6 8 5 9 4 10 3 11 2 12 17 13
REMARK SMILES IDX 16 14 14 15 15 16 1 17
REMARK H PARENT
REMARK Flexibility Score: inf
ROOT
ATOM      1  C   UNL     1      12.466   2.973  24.475  1.00  0.00     0.045 C 
ATOM      2  C   UNL     1      12.364   1.667  25.218  1.00  0.00    -0.033 A 
ATOM      3  C   UNL     1      11.347   0.765  24.883  1.00  0.00     0.098 A 
ATOM      4  C   UNL     1      11.245  -0.446  25.569  1.00  0.00     0.336 A 
ATOM      5  O   UNL     1      10.332  -1.261  25.271  1.00  0.00    -0.246 OA
ATOM      6  O   UNL     1      12.104  -0.750  26.534  1.00  0.00    -0.422 OA
ATOM      7  C   UNL     1      13.093   0.059  26.903  1.00  0.00     0.145 A 
ATOM      8  C   UNL     1      13.265   1.321  26.251  1.00  0.00     0.022 A 
ATOM      9  C   UNL     1      14.316   2.180  26.658  1.00  0.00     0.024 A 
ATOM     10  C   UNL     1      15.145   1.757  27.689  1.00  0.00     0.022 A 
ATOM     11  C   UNL     1      16.217   2.380  28.286  1.00  0.00     0.054 A 
ATOM     12  C   UNL     1      16.640   1.478  29.255  1.00  0.00     0.102 A 
ATOM     13  O   UNL     1      15.884   0.395  29.251  1.00  0.00    -0.461 OA
ATOM     14  C   UNL     1      14.981   0.549  28.311  1.00  0.00     0.140 A 
ATOM     15  C   UNL     1      13.970  -0.340  27.941  1.00  0.00     0.036 A 
ATOM     16  C   UNL     1      13.786  -1.649  28.655  1.00  0.00     0.052 C 
ATOM     17  C   UNL     1      17.776   1.695  30.197  1.00  0.00     0.087 C 
ENDROOT
TORSDOF 0
ENDMDL
