MODEL 1
REMARK VINA RESULT:    -5.948      0.000      0.000
REMARK INTER + INTRA:          -7.658
REMARK INTER:                  -7.339
REMARK INTRA:                  -0.319
REMARK UNBOUND:                -0.319
REMARK SMILES Oc1cc(O)c2cc(O)c(-c3cc(O)c(O)c(O)c3)[o+]c2c1.[Cl-]
REMARK SMILES IDX 10 1 20 2 21 3 22 4 2 5 3 6 4 7 6 8 7 9 8 10 11 11 12 12
REMARK SMILES IDX 13 13 19 14 15 15 17 16 14 17 16 19 18 21 9 23 1 25 5 27
REMARK H PARENT 14 18 16 20 18 22 9 24 1 26 5 28
REMARK Flexibility Score: inf
ROOT
ATOM      1  C   UNL     1      24.627  -0.880  16.866  1.00  0.00     0.402 A 
ATOM      2  O   UNL     1      24.980  -0.160  17.928  1.00  0.00    -0.202 OA
ATOM      3  C   UNL     1      24.464  -0.347  19.139  1.00  0.00     0.368 A 
ATOM      4  C   UNL     1      24.896   0.462  20.193  1.00  0.00     0.162 A 
ATOM      5  C   UNL     1      24.368   0.292  21.476  1.00  0.00     0.128 A 
ATOM      6  C   UNL     1      23.402  -0.692  21.704  1.00  0.00     0.093 A 
ATOM      7  C   UNL     1      22.952  -1.515  20.665  1.00  0.00     0.136 A 
ATOM      8  C   UNL     1      23.487  -1.347  19.361  1.00  0.00     0.125 A 
ATOM      9  C   UNL     1      23.106  -2.134  18.262  1.00  0.00     0.078 A 
ATOM     10  C   UNL     1      23.681  -1.912  17.007  1.00  0.00     0.223 A 
ENDROOT
BRANCH   1  11
ATOM     11  C   UNL     1      25.267  -0.572  15.566  1.00  0.00     0.091 A 
ATOM     12  C   UNL     1      24.828   0.535  14.826  1.00  0.00     0.068 A 
ATOM     13  C   UNL     1      25.395   0.844  13.585  1.00  0.00     0.162 A 
ATOM     14  C   UNL     1      26.266  -1.398  15.028  1.00  0.00     0.068 A 
ATOM     15  C   UNL     1      26.420   0.020  13.059  1.00  0.00     0.200 A 
ATOM     16  C   UNL     1      26.843  -1.105  13.790  1.00  0.00     0.162 A 
BRANCH  13  17
ATOM     17  O   UNL     1      24.912   1.970  12.913  1.00  0.00    -0.504 OA
ATOM     18  H   UNL     1      25.392   2.858  12.878  1.00  0.00     0.293 HD
ENDBRANCH  13  17
BRANCH  15  19
ATOM     19  O   UNL     1      27.028   0.281  11.828  1.00  0.00    -0.502 OA
ATOM     20  H   UNL     1      27.388   1.182  11.553  1.00  0.00     0.293 HD
ENDBRANCH  15  19
BRANCH  16  21
ATOM     21  O   UNL     1      27.837  -1.951  13.298  1.00  0.00    -0.504 OA
ATOM     22  H   UNL     1      28.003  -2.873  13.683  1.00  0.00     0.293 HD
ENDBRANCH  16  21
ENDBRANCH   1  11
BRANCH  10  23
ATOM     23  O   UNL     1      23.339  -2.725  15.928  1.00  0.00    -0.500 OA
ATOM     24  H   UNL     1      22.387  -2.785  15.586  1.00  0.00     0.294 HD
ENDBRANCH  10  23
BRANCH   5  25
ATOM     25  O   UNL     1      24.794   1.093  22.532  1.00  0.00    -0.507 OA
ATOM     26  H   UNL     1      25.761   1.097  22.838  1.00  0.00     0.293 HD
ENDBRANCH   5  25
BRANCH   7  27
ATOM     27  O   UNL     1      21.982  -2.472  20.975  1.00  0.00    -0.507 OA
ATOM     28  H   UNL     1      21.354  -2.413  21.763  1.00  0.00     0.293 HD
ENDBRANCH   7  27
TORSDOF 7
ENDMDL
MODEL 2
REMARK VINA RESULT:    -5.619      1.412      2.658
REMARK INTER + INTRA:          -7.253
REMARK INTER:                  -6.956
REMARK INTRA:                  -0.296
REMARK UNBOUND:                -0.319
REMARK SMILES Oc1cc(O)c2cc(O)c(-c3cc(O)c(O)c(O)c3)[o+]c2c1.[Cl-]
REMARK SMILES IDX 10 1 20 2 21 3 22 4 2 5 3 6 4 7 6 8 7 9 8 10 11 11 12 12
REMARK SMILES IDX 13 13 19 14 15 15 17 16 14 17 16 19 18 21 9 23 1 25 5 27
REMARK H PARENT 14 18 16 20 18 22 9 24 1 26 5 28
REMARK Flexibility Score: inf
ROOT
ATOM      1  C   UNL     1      24.856  -1.083  16.872  1.00  0.00     0.402 A 
ATOM      2  O   UNL     1      23.576  -1.437  16.941  1.00  0.00    -0.202 OA
ATOM      3  C   UNL     1      22.975  -1.782  18.076  1.00  0.00     0.368 A 
ATOM      4  C   UNL     1      21.625  -2.142  18.047  1.00  0.00     0.162 A 
ATOM      5  C   UNL     1      20.969  -2.513  19.224  1.00  0.00     0.128 A 
ATOM      6  C   UNL     1      21.667  -2.524  20.435  1.00  0.00     0.093 A 
ATOM      7  C   UNL     1      23.019  -2.167  20.490  1.00  0.00     0.136 A 
ATOM      8  C   UNL     1      23.689  -1.788  19.298  1.00  0.00     0.125 A 
ATOM      9  C   UNL     1      25.039  -1.403  19.260  1.00  0.00     0.078 A 
ATOM     10  C   UNL     1      25.630  -1.037  18.046  1.00  0.00     0.223 A 
ENDROOT
BRANCH   1  11
ATOM     11  C   UNL     1      25.415  -0.728  15.547  1.00  0.00     0.091 A 
ATOM     12  C   UNL     1      24.944   0.414  14.883  1.00  0.00     0.068 A 
ATOM     13  C   UNL     1      25.433   0.769  13.622  1.00  0.00     0.162 A 
ATOM     14  C   UNL     1      26.364  -1.543  14.911  1.00  0.00     0.068 A 
ATOM     15  C   UNL     1      26.409  -0.045  12.996  1.00  0.00     0.200 A 
ATOM     16  C   UNL     1      26.863  -1.204  13.650  1.00  0.00     0.162 A 
BRANCH  13  17
ATOM     17  O   UNL     1      24.924   1.927  13.030  1.00  0.00    -0.504 OA
ATOM     18  H   UNL     1      24.541   1.966  12.096  1.00  0.00     0.293 HD
ENDBRANCH  13  17
BRANCH  15  19
ATOM     19  O   UNL     1      26.940   0.261  11.739  1.00  0.00    -0.502 OA
ATOM     20  H   UNL     1      27.547  -0.351  11.215  1.00  0.00     0.293 HD
ENDBRANCH  15  19
BRANCH  16  21
ATOM     21  O   UNL     1      27.811  -2.040  13.059  1.00  0.00    -0.504 OA
ATOM     22  H   UNL     1      27.551  -2.854  12.515  1.00  0.00     0.293 HD
ENDBRANCH  16  21
ENDBRANCH   1  11
BRANCH  10  23
ATOM     23  O   UNL     1      26.957  -0.608  18.016  1.00  0.00    -0.500 OA
ATOM     24  H   UNL     1      27.578  -0.739  18.806  1.00  0.00     0.294 HD
ENDBRANCH  10  23
BRANCH   5  25
ATOM     25  O   UNL     1      19.624  -2.873  19.204  1.00  0.00    -0.507 OA
ATOM     26  H   UNL     1      19.004  -2.651  19.976  1.00  0.00     0.293 HD
ENDBRANCH   5  25
BRANCH   7  27
ATOM     27  O   UNL     1      23.646  -2.208  21.739  1.00  0.00    -0.507 OA
ATOM     28  H   UNL     1      24.426  -2.806  21.966  1.00  0.00     0.293 HD
ENDBRANCH   7  27
TORSDOF 7
ENDMDL
MODEL 3
REMARK VINA RESULT:    -5.515      1.397      3.196
REMARK INTER + INTRA:          -7.124
REMARK INTER:                  -6.904
REMARK INTRA:                  -0.220
REMARK UNBOUND:                -0.319
REMARK SMILES Oc1cc(O)c2cc(O)c(-c3cc(O)c(O)c(O)c3)[o+]c2c1.[Cl-]
REMARK SMILES IDX 10 1 20 2 21 3 22 4 2 5 3 6 4 7 6 8 7 9 8 10 11 11 12 12
REMARK SMILES IDX 13 13 19 14 15 15 17 16 14 17 16 19 18 21 9 23 1 25 5 27
REMARK H PARENT 14 18 16 20 18 22 9 24 1 26 5 28
REMARK Flexibility Score: inf
ROOT
ATOM      1  C   UNL     1      24.728  -1.066  16.926  1.00  0.00     0.402 A 
ATOM      2  O   UNL     1      23.448  -1.417  17.030  1.00  0.00    -0.202 OA
ATOM      3  C   UNL     1      22.879  -1.764  18.179  1.00  0.00     0.368 A 
ATOM      4  C   UNL     1      21.527  -2.120  18.187  1.00  0.00     0.162 A 
ATOM      5  C   UNL     1      20.903  -2.494  19.380  1.00  0.00     0.128 A 
ATOM      6  C   UNL     1      21.634  -2.512  20.571  1.00  0.00     0.093 A 
ATOM      7  C   UNL     1      22.989  -2.159  20.590  1.00  0.00     0.136 A 
ATOM      8  C   UNL     1      23.626  -1.777  19.381  1.00  0.00     0.125 A 
ATOM      9  C   UNL     1      24.976  -1.397  19.307  1.00  0.00     0.078 A 
ATOM     10  C   UNL     1      25.534  -1.027  18.079  1.00  0.00     0.223 A 
ENDROOT
BRANCH   1  11
ATOM     11  C   UNL     1      25.250  -0.707  15.588  1.00  0.00     0.091 A 
ATOM     12  C   UNL     1      26.271  -1.480  15.016  1.00  0.00     0.068 A 
ATOM     13  C   UNL     1      26.804  -1.159  13.763  1.00  0.00     0.162 A 
ATOM     14  C   UNL     1      24.788   0.426  14.901  1.00  0.00     0.068 A 
ATOM     15  C   UNL     1      26.315  -0.028  13.064  1.00  0.00     0.200 A 
ATOM     16  C   UNL     1      25.309   0.762  13.649  1.00  0.00     0.162 A 
BRANCH  13  17
ATOM     17  O   UNL     1      27.810  -1.984  13.255  1.00  0.00    -0.504 OA
ATOM     18  H   UNL     1      28.076  -2.020  12.281  1.00  0.00     0.293 HD
ENDBRANCH  13  17
BRANCH  15  19
ATOM     19  O   UNL     1      26.804   0.340  11.807  1.00  0.00    -0.502 OA
ATOM     20  H   UNL     1      26.638   1.235  11.374  1.00  0.00     0.293 HD
ENDBRANCH  15  19
BRANCH  16  21
ATOM     21  O   UNL     1      24.814   1.894  13.000  1.00  0.00    -0.504 OA
ATOM     22  H   UNL     1      24.806   2.808  13.436  1.00  0.00     0.293 HD
ENDBRANCH  16  21
ENDBRANCH   1  11
BRANCH  10  23
ATOM     23  O   UNL     1      26.860  -0.602  18.013  1.00  0.00    -0.500 OA
ATOM     24  H   UNL     1      27.104   0.381  17.977  1.00  0.00     0.294 HD
ENDBRANCH  10  23
BRANCH   5  25
ATOM     25  O   UNL     1      19.556  -2.849  19.396  1.00  0.00    -0.507 OA
ATOM     26  H   UNL     1      19.202  -3.555  20.033  1.00  0.00     0.293 HD
ENDBRANCH   5  25
BRANCH   7  27
ATOM     27  O   UNL     1      23.650  -2.207  21.821  1.00  0.00    -0.507 OA
ATOM     28  H   UNL     1      24.174  -1.441  22.216  1.00  0.00     0.293 HD
ENDBRANCH   7  27
TORSDOF 7
ENDMDL
MODEL 4
REMARK VINA RESULT:    -5.452      3.397      5.601
REMARK INTER + INTRA:          -7.046
REMARK INTER:                  -6.698
REMARK INTRA:                  -0.348
REMARK UNBOUND:                -0.319
REMARK SMILES Oc1cc(O)c2cc(O)c(-c3cc(O)c(O)c(O)c3)[o+]c2c1.[Cl-]
REMARK SMILES IDX 10 1 20 2 21 3 22 4 2 5 3 6 4 7 6 8 7 9 8 10 11 11 12 12
REMARK SMILES IDX 13 13 19 14 15 15 17 16 14 17 16 19 18 21 9 23 1 25 5 27
REMARK H PARENT 14 18 16 20 18 22 9 24 1 26 5 28
REMARK Flexibility Score: inf
ROOT
ATOM      1  C   UNL     1      23.642  -2.516  18.066  1.00  0.00     0.402 A 
ATOM      2  O   UNL     1      22.619  -2.892  18.828  1.00  0.00    -0.202 OA
ATOM      3  C   UNL     1      21.662  -3.715  18.409  1.00  0.00     0.368 A 
ATOM      4  C   UNL     1      20.625  -4.050  19.284  1.00  0.00     0.162 A 
ATOM      5  C   UNL     1      19.603  -4.910  18.869  1.00  0.00     0.128 A 
ATOM      6  C   UNL     1      19.619  -5.435  17.575  1.00  0.00     0.093 A 
ATOM      7  C   UNL     1      20.647  -5.114  16.680  1.00  0.00     0.136 A 
ATOM      8  C   UNL     1      21.688  -4.244  17.097  1.00  0.00     0.125 A 
ATOM      9  C   UNL     1      22.764  -3.877  16.273  1.00  0.00     0.078 A 
ATOM     10  C   UNL     1      23.757  -3.018  16.756  1.00  0.00     0.223 A 
ENDROOT
BRANCH   1  11
ATOM     11  C   UNL     1      24.641  -1.587  18.642  1.00  0.00     0.091 A 
ATOM     12  C   UNL     1      24.382  -0.209  18.644  1.00  0.00     0.068 A 
ATOM     13  C   UNL     1      25.312   0.699  19.161  1.00  0.00     0.162 A 
ATOM     14  C   UNL     1      25.871  -2.050  19.135  1.00  0.00     0.068 A 
ATOM     15  C   UNL     1      26.542   0.224  19.679  1.00  0.00     0.200 A 
ATOM     16  C   UNL     1      26.812  -1.156  19.655  1.00  0.00     0.162 A 
BRANCH  13  17
ATOM     17  O   UNL     1      24.977   2.055  19.138  1.00  0.00    -0.504 OA
ATOM     18  H   UNL     1      25.508   2.763  18.651  1.00  0.00     0.293 HD
ENDBRANCH  13  17
BRANCH  15  19
ATOM     19  O   UNL     1      27.507   1.082  20.214  1.00  0.00    -0.502 OA
ATOM     20  H   UNL     1      28.400   1.269  19.785  1.00  0.00     0.293 HD
ENDBRANCH  15  19
BRANCH  16  21
ATOM     21  O   UNL     1      28.019  -1.662  20.140  1.00  0.00    -0.504 OA
ATOM     22  H   UNL     1      28.072  -2.532  20.657  1.00  0.00     0.293 HD
ENDBRANCH  16  21
ENDBRANCH   1  11
BRANCH  10  23
ATOM     23  O   UNL     1      24.851  -2.693  15.955  1.00  0.00    -0.500 OA
ATOM     24  H   UNL     1      25.733  -3.185  16.033  1.00  0.00     0.294 HD
ENDBRANCH  10  23
BRANCH   5  25
ATOM     25  O   UNL     1      18.566  -5.249  19.735  1.00  0.00    -0.507 OA
ATOM     26  H   UNL     1      17.655  -4.810  19.668  1.00  0.00     0.293 HD
ENDBRANCH   5  25
BRANCH   7  27
ATOM     27  O   UNL     1      20.588  -5.678  15.402  1.00  0.00    -0.507 OA
ATOM     28  H   UNL     1      21.375  -6.091  14.924  1.00  0.00     0.293 HD
ENDBRANCH   7  27
TORSDOF 7
ENDMDL
MODEL 5
REMARK VINA RESULT:    -5.448      2.340      7.153
REMARK INTER + INTRA:          -7.041
REMARK INTER:                  -6.664
REMARK INTRA:                  -0.377
REMARK UNBOUND:                -0.319
REMARK SMILES Oc1cc(O)c2cc(O)c(-c3cc(O)c(O)c(O)c3)[o+]c2c1.[Cl-]
REMARK SMILES IDX 10 1 20 2 21 3 22 4 2 5 3 6 4 7 6 8 7 9 8 10 11 11 12 12
REMARK SMILES IDX 13 13 19 14 15 15 17 16 14 17 16 19 18 21 9 23 1 25 5 27
REMARK H PARENT 14 18 16 20 18 22 9 24 1 26 5 28
REMARK Flexibility Score: inf
ROOT
ATOM      1  C   UNL     1      24.050  -1.745  16.292  1.00  0.00     0.402 A 
ATOM      2  O   UNL     1      23.584  -1.098  15.227  1.00  0.00    -0.202 OA
ATOM      3  C   UNL     1      24.359  -0.415  14.391  1.00  0.00     0.368 A 
ATOM      4  C   UNL     1      23.776   0.235  13.300  1.00  0.00     0.162 A 
ATOM      5  C   UNL     1      24.567   0.964  12.408  1.00  0.00     0.128 A 
ATOM      6  C   UNL     1      25.947   1.044  12.608  1.00  0.00     0.093 A 
ATOM      7  C   UNL     1      26.556   0.402  13.693  1.00  0.00     0.136 A 
ATOM      8  C   UNL     1      25.758  -0.341  14.601  1.00  0.00     0.125 A 
ATOM      9  C   UNL     1      26.282  -1.027  15.708  1.00  0.00     0.078 A 
ATOM     10  C   UNL     1      25.432  -1.743  16.557  1.00  0.00     0.223 A 
ENDROOT
BRANCH   1  11
ATOM     11  C   UNL     1      23.084  -2.464  17.154  1.00  0.00     0.091 A 
ATOM     12  C   UNL     1      22.577  -1.832  18.298  1.00  0.00     0.068 A 
ATOM     13  C   UNL     1      21.679  -2.488  19.147  1.00  0.00     0.162 A 
ATOM     14  C   UNL     1      22.709  -3.789  16.885  1.00  0.00     0.068 A 
ATOM     15  C   UNL     1      21.285  -3.818  18.856  1.00  0.00     0.200 A 
ATOM     16  C   UNL     1      21.813  -4.460  17.722  1.00  0.00     0.162 A 
BRANCH  13  17
ATOM     17  O   UNL     1      21.208  -1.788  20.260  1.00  0.00    -0.504 OA
ATOM     18  H   UNL     1      20.724  -0.904  20.210  1.00  0.00     0.293 HD
ENDBRANCH  13  17
BRANCH  15  19
ATOM     19  O   UNL     1      20.387  -4.522  19.662  1.00  0.00    -0.502 OA
ATOM     20  H   UNL     1      20.657  -5.084  20.456  1.00  0.00     0.293 HD
ENDBRANCH  15  19
BRANCH  16  21
ATOM     21  O   UNL     1      21.464  -5.775  17.411  1.00  0.00    -0.504 OA
ATOM     22  H   UNL     1      21.031  -6.394  18.085  1.00  0.00     0.293 HD
ENDBRANCH  16  21
ENDBRANCH   1  11
BRANCH  10  23
ATOM     23  O   UNL     1      25.958  -2.465  17.628  1.00  0.00    -0.500 OA
ATOM     24  H   UNL     1      26.122  -2.035  18.531  1.00  0.00     0.294 HD
ENDBRANCH  10  23
BRANCH   5  25
ATOM     25  O   UNL     1      23.993   1.614  11.318  1.00  0.00    -0.507 OA
ATOM     26  H   UNL     1      24.081   1.248  10.376  1.00  0.00     0.293 HD
ENDBRANCH   5  25
BRANCH   7  27
ATOM     27  O   UNL     1      27.941   0.534  13.825  1.00  0.00    -0.507 OA
ATOM     28  H   UNL     1      28.511  -0.021  14.447  1.00  0.00     0.293 HD
ENDBRANCH   7  27
TORSDOF 7
ENDMDL
MODEL 6
REMARK VINA RESULT:    -5.397      2.056      2.985
REMARK INTER + INTRA:          -6.979
REMARK INTER:                  -7.354
REMARK INTRA:                   0.375
REMARK UNBOUND:                -0.319
REMARK SMILES Oc1cc(O)c2cc(O)c(-c3cc(O)c(O)c(O)c3)[o+]c2c1.[Cl-]
REMARK SMILES IDX 10 1 20 2 21 3 22 4 2 5 3 6 4 7 6 8 7 9 8 10 11 11 12 12
REMARK SMILES IDX 13 13 19 14 15 15 17 16 14 17 16 19 18 21 9 23 1 25 5 27
REMARK H PARENT 14 18 16 20 18 22 9 24 1 26 5 28
REMARK Flexibility Score: inf
ROOT
ATOM      1  C   UNL     1      25.356   0.026  15.113  1.00  0.00     0.402 A 
ATOM      2  O   UNL     1      24.857   0.611  16.198  1.00  0.00    -0.202 OA
ATOM      3  C   UNL     1      25.050   0.150  17.430  1.00  0.00     0.368 A 
ATOM      4  C   UNL     1      24.482   0.834  18.508  1.00  0.00     0.162 A 
ATOM      5  C   UNL     1      24.665   0.370  19.813  1.00  0.00     0.128 A 
ATOM      6  C   UNL     1      25.420  -0.784  20.041  1.00  0.00     0.093 A 
ATOM      7  C   UNL     1      25.999  -1.487  18.978  1.00  0.00     0.136 A 
ATOM      8  C   UNL     1      25.817  -1.019  17.651  1.00  0.00     0.125 A 
ATOM      9  C   UNL     1      26.371  -1.651  16.526  1.00  0.00     0.078 A 
ATOM     10  C   UNL     1      26.153  -1.127  15.248  1.00  0.00     0.223 A 
ENDROOT
BRANCH   1  11
ATOM     11  C   UNL     1      25.063   0.630  13.793  1.00  0.00     0.091 A 
ATOM     12  C   UNL     1      24.330   1.824  13.728  1.00  0.00     0.068 A 
ATOM     13  C   UNL     1      24.018   2.412  12.498  1.00  0.00     0.162 A 
ATOM     14  C   UNL     1      25.452   0.003  12.599  1.00  0.00     0.068 A 
ATOM     15  C   UNL     1      24.435   1.787  11.297  1.00  0.00     0.200 A 
ATOM     16  C   UNL     1      25.148   0.577  11.361  1.00  0.00     0.162 A 
BRANCH  13  17
ATOM     17  O   UNL     1      23.295   3.607  12.515  1.00  0.00    -0.504 OA
ATOM     18  H   UNL     1      22.295   3.664  12.643  1.00  0.00     0.293 HD
ENDBRANCH  13  17
BRANCH  15  19
ATOM     19  O   UNL     1      24.158   2.330  10.039  1.00  0.00    -0.502 OA
ATOM     20  H   UNL     1      24.400   1.889   9.165  1.00  0.00     0.293 HD
ENDBRANCH  15  19
BRANCH  16  21
ATOM     21  O   UNL     1      25.561  -0.078  10.201  1.00  0.00    -0.504 OA
ATOM     22  H   UNL     1      24.954  -0.193   9.398  1.00  0.00     0.293 HD
ENDBRANCH  16  21
ENDBRANCH   1  11
BRANCH  10  23
ATOM     23  O   UNL     1      26.743  -1.726  14.136  1.00  0.00    -0.500 OA
ATOM     24  H   UNL     1      27.505  -1.285  13.634  1.00  0.00     0.294 HD
ENDBRANCH  10  23
BRANCH   5  25
ATOM     25  O   UNL     1      24.103   1.046  20.894  1.00  0.00    -0.507 OA
ATOM     26  H   UNL     1      23.569   0.558  21.605  1.00  0.00     0.293 HD
ENDBRANCH   5  25
BRANCH   7  27
ATOM     27  O   UNL     1      26.735  -2.634  19.289  1.00  0.00    -0.507 OA
ATOM     28  H   UNL     1      26.641  -3.157  20.148  1.00  0.00     0.293 HD
ENDBRANCH   7  27
TORSDOF 7
ENDMDL
MODEL 7
REMARK VINA RESULT:    -5.376      4.202      6.376
REMARK INTER + INTRA:          -6.953
REMARK INTER:                  -6.614
REMARK INTRA:                  -0.339
REMARK UNBOUND:                -0.319
REMARK SMILES Oc1cc(O)c2cc(O)c(-c3cc(O)c(O)c(O)c3)[o+]c2c1.[Cl-]
REMARK SMILES IDX 10 1 20 2 21 3 22 4 2 5 3 6 4 7 6 8 7 9 8 10 11 11 12 12
REMARK SMILES IDX 13 13 19 14 15 15 17 16 14 17 16 19 18 21 9 23 1 25 5 27
REMARK H PARENT 14 18 16 20 18 22 9 24 1 26 5 28
REMARK Flexibility Score: inf
ROOT
ATOM      1  C   UNL     1      22.238  -4.761  17.102  1.00  0.00     0.402 A 
ATOM      2  O   UNL     1      23.336  -4.013  17.028  1.00  0.00    -0.202 OA
ATOM      3  C   UNL     1      23.510  -2.901  17.733  1.00  0.00     0.368 A 
ATOM      4  C   UNL     1      24.698  -2.181  17.584  1.00  0.00     0.162 A 
ATOM      5  C   UNL     1      24.906  -1.005  18.310  1.00  0.00     0.128 A 
ATOM      6  C   UNL     1      23.921  -0.547  19.189  1.00  0.00     0.093 A 
ATOM      7  C   UNL     1      22.722  -1.251  19.356  1.00  0.00     0.136 A 
ATOM      8  C   UNL     1      22.507  -2.446  18.623  1.00  0.00     0.125 A 
ATOM      9  C   UNL     1      21.343  -3.223  18.736  1.00  0.00     0.078 A 
ATOM     10  C   UNL     1      21.204  -4.393  17.983  1.00  0.00     0.223 A 
ENDROOT
BRANCH   1  11
ATOM     11  C   UNL     1      22.158  -5.976  16.259  1.00  0.00     0.091 A 
ATOM     12  C   UNL     1      22.428  -7.229  16.827  1.00  0.00     0.068 A 
ATOM     13  C   UNL     1      22.382  -8.396  16.056  1.00  0.00     0.162 A 
ATOM     14  C   UNL     1      21.876  -5.896  14.886  1.00  0.00     0.068 A 
ATOM     15  C   UNL     1      22.073  -8.311  14.676  1.00  0.00     0.200 A 
ATOM     16  C   UNL     1      21.827  -7.051  14.101  1.00  0.00     0.162 A 
BRANCH  13  17
ATOM     17  O   UNL     1      22.650  -9.608  16.696  1.00  0.00    -0.504 OA
ATOM     18  H   UNL     1      22.421 -10.514  16.314  1.00  0.00     0.293 HD
ENDBRANCH  13  17
BRANCH  15  19
ATOM     19  O   UNL     1      22.006  -9.441  13.856  1.00  0.00    -0.502 OA
ATOM     20  H   UNL     1      21.522 -10.292  14.101  1.00  0.00     0.293 HD
ENDBRANCH  15  19
BRANCH  16  21
ATOM     21  O   UNL     1      21.536  -6.924  12.742  1.00  0.00    -0.504 OA
ATOM     22  H   UNL     1      20.916  -7.563  12.259  1.00  0.00     0.293 HD
ENDBRANCH  16  21
ENDBRANCH   1  11
BRANCH  10  23
ATOM     23  O   UNL     1      20.070  -5.190  18.132  1.00  0.00    -0.500 OA
ATOM     24  H   UNL     1      19.431  -5.070  18.910  1.00  0.00     0.294 HD
ENDBRANCH  10  23
BRANCH   5  25
ATOM     25  O   UNL     1      26.088  -0.282  18.167  1.00  0.00    -0.507 OA
ATOM     26  H   UNL     1      26.993  -0.708  18.330  1.00  0.00     0.293 HD
ENDBRANCH   5  25
BRANCH   7  27
ATOM     27  O   UNL     1      21.786  -0.724  20.252  1.00  0.00    -0.507 OA
ATOM     28  H   UNL     1      21.152  -1.280  20.807  1.00  0.00     0.293 HD
ENDBRANCH   7  27
TORSDOF 7
ENDMDL
MODEL 8
REMARK VINA RESULT:    -5.249      4.702      6.532
REMARK INTER + INTRA:          -6.796
REMARK INTER:                  -6.483
REMARK INTRA:                  -0.313
REMARK UNBOUND:                -0.319
REMARK SMILES Oc1cc(O)c2cc(O)c(-c3cc(O)c(O)c(O)c3)[o+]c2c1.[Cl-]
REMARK SMILES IDX 10 1 20 2 21 3 22 4 2 5 3 6 4 7 6 8 7 9 8 10 11 11 12 12
REMARK SMILES IDX 13 13 19 14 15 15 17 16 14 17 16 19 18 21 9 23 1 25 5 27
REMARK H PARENT 14 18 16 20 18 22 9 24 1 26 5 28
REMARK Flexibility Score: inf
ROOT
ATOM      1  C   UNL     1      21.672  -4.995  16.018  1.00  0.00     0.402 A 
ATOM      2  O   UNL     1      22.702  -4.178  15.813  1.00  0.00    -0.202 OA
ATOM      3  C   UNL     1      23.164  -3.341  16.736  1.00  0.00     0.368 A 
ATOM      4  C   UNL     1      24.250  -2.519  16.425  1.00  0.00     0.162 A 
ATOM      5  C   UNL     1      24.754  -1.626  17.375  1.00  0.00     0.128 A 
ATOM      6  C   UNL     1      24.167  -1.554  18.641  1.00  0.00     0.093 A 
ATOM      7  C   UNL     1      23.078  -2.366  18.977  1.00  0.00     0.136 A 
ATOM      8  C   UNL     1      22.564  -3.276  18.017  1.00  0.00     0.125 A 
ATOM      9  C   UNL     1      21.484  -4.137  18.269  1.00  0.00     0.078 A 
ATOM     10  C   UNL     1      21.036  -5.012  17.274  1.00  0.00     0.223 A 
ENDROOT
BRANCH   1  11
ATOM     11  C   UNL     1      21.244  -5.877  14.907  1.00  0.00     0.091 A 
ATOM     12  C   UNL     1      20.049  -5.601  14.229  1.00  0.00     0.068 A 
ATOM     13  C   UNL     1      19.603  -6.424  13.189  1.00  0.00     0.162 A 
ATOM     14  C   UNL     1      21.979  -7.020  14.556  1.00  0.00     0.068 A 
ATOM     15  C   UNL     1      20.362  -7.563  12.823  1.00  0.00     0.200 A 
ATOM     16  C   UNL     1      21.548  -7.854  13.521  1.00  0.00     0.162 A 
BRANCH  13  17
ATOM     17  O   UNL     1      18.409  -6.077  12.553  1.00  0.00    -0.504 OA
ATOM     18  H   UNL     1      18.253  -6.152  11.558  1.00  0.00     0.293 HD
ENDBRANCH  13  17
BRANCH  15  19
ATOM     19  O   UNL     1      19.971  -8.419  11.789  1.00  0.00    -0.502 OA
ATOM     20  H   UNL     1      19.544  -8.111  10.929  1.00  0.00     0.293 HD
ENDBRANCH  15  19
BRANCH  16  21
ATOM     21  O   UNL     1      22.315  -8.975  13.202  1.00  0.00    -0.504 OA
ATOM     22  H   UNL     1      22.942  -9.409  13.868  1.00  0.00     0.293 HD
ENDBRANCH  16  21
ENDBRANCH   1  11
BRANCH  10  23
ATOM     23  O   UNL     1      19.997  -5.901  17.540  1.00  0.00    -0.500 OA
ATOM     24  H   UNL     1      19.025  -5.618  17.486  1.00  0.00     0.294 HD
ENDBRANCH  10  23
BRANCH   5  25
ATOM     25  O   UNL     1      25.837  -0.804  17.073  1.00  0.00    -0.507 OA
ATOM     26  H   UNL     1      26.613  -1.135  16.509  1.00  0.00     0.293 HD
ENDBRANCH   5  25
BRANCH   7  27
ATOM     27  O   UNL     1      22.546  -2.231  20.262  1.00  0.00    -0.507 OA
ATOM     28  H   UNL     1      22.867  -2.744  21.070  1.00  0.00     0.293 HD
ENDBRANCH   7  27
TORSDOF 7
ENDMDL
MODEL 9
REMARK VINA RESULT:    -5.174      4.017      7.212
REMARK INTER + INTRA:          -6.704
REMARK INTER:                  -6.623
REMARK INTRA:                  -0.080
REMARK UNBOUND:                -0.319
REMARK SMILES Oc1cc(O)c2cc(O)c(-c3cc(O)c(O)c(O)c3)[o+]c2c1.[Cl-]
REMARK SMILES IDX 10 1 20 2 21 3 22 4 2 5 3 6 4 7 6 8 7 9 8 10 11 11 12 12
REMARK SMILES IDX 13 13 19 14 15 15 17 16 14 17 16 19 18 21 9 23 1 25 5 27
REMARK H PARENT 14 18 16 20 18 22 9 24 1 26 5 28
REMARK Flexibility Score: inf
ROOT
ATOM      1  C   UNL     1      22.190  -3.783  17.056  1.00  0.00     0.402 A 
ATOM      2  O   UNL     1      22.650  -4.768  16.287  1.00  0.00    -0.202 OA
ATOM      3  C   UNL     1      21.859  -5.594  15.611  1.00  0.00     0.368 A 
ATOM      4  C   UNL     1      22.436  -6.600  14.832  1.00  0.00     0.162 A 
ATOM      5  C   UNL     1      21.629  -7.487  14.113  1.00  0.00     0.128 A 
ATOM      6  C   UNL     1      20.238  -7.366  14.174  1.00  0.00     0.093 A 
ATOM      7  C   UNL     1      19.636  -6.366  14.947  1.00  0.00     0.136 A 
ATOM      8  C   UNL     1      20.451  -5.463  15.677  1.00  0.00     0.125 A 
ATOM      9  C   UNL     1      19.935  -4.423  16.468  1.00  0.00     0.078 A 
ATOM     10  C   UNL     1      20.803  -3.568  17.155  1.00  0.00     0.223 A 
ENDROOT
BRANCH   1  11
ATOM     11  C   UNL     1      23.172  -2.933  17.767  1.00  0.00     0.091 A 
ATOM     12  C   UNL     1      24.288  -2.440  17.076  1.00  0.00     0.068 A 
ATOM     13  C   UNL     1      25.246  -1.651  17.721  1.00  0.00     0.162 A 
ATOM     14  C   UNL     1      23.043  -2.656  19.137  1.00  0.00     0.068 A 
ATOM     15  C   UNL     1      25.097  -1.356  19.098  1.00  0.00     0.200 A 
ATOM     16  C   UNL     1      23.991  -1.870  19.798  1.00  0.00     0.162 A 
BRANCH  13  17
ATOM     17  O   UNL     1      26.323  -1.188  16.961  1.00  0.00    -0.504 OA
ATOM     18  H   UNL     1      26.706  -1.676  16.164  1.00  0.00     0.293 HD
ENDBRANCH  13  17
BRANCH  15  19
ATOM     19  O   UNL     1      26.018  -0.568  19.795  1.00  0.00    -0.502 OA
ATOM     20  H   UNL     1      26.569  -0.895  20.573  1.00  0.00     0.293 HD
ENDBRANCH  15  19
BRANCH  16  21
ATOM     21  O   UNL     1      23.818  -1.616  21.159  1.00  0.00    -0.504 OA
ATOM     22  H   UNL     1      24.278  -2.165  21.875  1.00  0.00     0.293 HD
ENDBRANCH  16  21
ENDBRANCH   1  11
BRANCH  10  23
ATOM     23  O   UNL     1      20.293  -2.506  17.900  1.00  0.00    -0.500 OA
ATOM     24  H   UNL     1      19.958  -2.631  18.848  1.00  0.00     0.294 HD
ENDBRANCH  10  23
BRANCH   5  25
ATOM     25  O   UNL     1      22.196  -8.492  13.334  1.00  0.00    -0.507 OA
ATOM     26  H   UNL     1      23.189  -8.506  13.127  1.00  0.00     0.293 HD
ENDBRANCH   5  25
BRANCH   7  27
ATOM     27  O   UNL     1      18.238  -6.315  14.959  1.00  0.00    -0.507 OA
ATOM     28  H   UNL     1      17.637  -7.093  14.730  1.00  0.00     0.293 HD
ENDBRANCH   7  27
TORSDOF 7
ENDMDL
