MODEL 1
REMARK VINA RESULT:    -7.000      0.000      0.000
REMARK INTER + INTRA:         -11.181
REMARK INTER:                  -9.251
REMARK INTRA:                  -1.930
REMARK UNBOUND:                -1.930
REMARK SMILES CC[C@@H](C=C[C@@H](C)[C@@H]1CC[C@H]2C3=CC[C@@H]4C[C@@H](O)CC[C@]4(C)[C@H]3CC[C@]21C)C(C)C
REMARK SMILES IDX 6 1 7 2 5 3 4 4 3 5 2 6 1 7 28 8 29 9 30 10 8 11 9 12 26 13
REMARK SMILES IDX 10 14 11 15 25 16 27 17 12 18 24 19 23 20 13 21 21 22 14 23
REMARK SMILES IDX 15 24 20 25 22 26 16 27 19 28 17 29 18 30
REMARK H PARENT 18 31
REMARK Flexibility Score: inf
ROOT
ATOM      1  C   UNL     1     113.149 116.089 128.628  1.00  0.00     0.012 C 
ATOM      2  C   UNL     1     111.612 115.981 128.718  1.00  0.00     0.012 C 
ENDROOT
BRANCH   1   3
ATOM      3  C   UNL     1     113.724 115.742 129.991  1.00  0.00    -0.028 C 
ATOM      4  C   UNL     1     115.009 115.907 130.380  1.00  0.00    -0.027 C 
BRANCH   4   5
ATOM      5  C   UNL     1     116.162 116.411 129.514  1.00  0.00     0.014 C 
BRANCH   5   6
ATOM      6  C   UNL     1     117.165 115.258 129.256  1.00  0.00     0.004 C 
ATOM      7  C   UNL     1     117.342 114.938 127.776  1.00  0.00     0.004 C 
ENDBRANCH   5   6
BRANCH   5   8
ATOM      8  C   UNL     1     116.898 117.634 130.151  1.00  0.00    -0.011 C 
ATOM      9  C   UNL     1     118.155 117.221 130.922  1.00  0.00     0.008 C 
ATOM     10  C   UNL     1     117.242 118.750 129.147  1.00  0.00     0.008 C 
ENDBRANCH   5   8
ENDBRANCH   4   5
ENDBRANCH   1   3
BRANCH   1  11
ATOM     11  C   UNL     1     113.555 117.538 128.163  1.00  0.00     0.002 C 
ATOM     12  C   UNL     1     112.534 118.595 128.644  1.00  0.00     0.005 C 
ATOM     13  C   UNL     1     113.789 117.803 126.624  1.00  0.00    -0.023 C 
ATOM     14  C   UNL     1     112.177 119.495 127.476  1.00  0.00     0.009 C 
ATOM     15  C   UNL     1     113.192 119.222 126.373  1.00  0.00     0.021 C 
ATOM     16  C   UNL     1     115.327 117.753 126.276  1.00  0.00     0.008 C 
ATOM     17  C   UNL     1     113.043 116.798 125.714  1.00  0.00     0.012 C 
ATOM     18  C   UNL     1     114.301 120.246 126.201  1.00  0.00    -0.067 C 
ATOM     19  C   UNL     1     115.733 118.567 125.022  1.00  0.00     0.009 C 
ATOM     20  C   UNL     1     115.109 120.003 124.945  1.00  0.00     0.021 C 
ATOM     21  C   UNL     1     114.813 120.952 127.234  1.00  0.00    -0.027 C 
ATOM     22  C   UNL     1     116.099 121.177 124.614  1.00  0.00    -0.023 C 
ATOM     23  C   UNL     1     116.058 121.792 127.131  1.00  0.00     0.031 C 
ATOM     24  C   UNL     1     116.934 121.507 125.884  1.00  0.00     0.002 C 
ATOM     25  C   UNL     1     115.281 122.431 124.148  1.00  0.00     0.010 C 
ATOM     26  C   UNL     1     117.030 120.744 123.440  1.00  0.00     0.012 C 
ATOM     27  C   UNL     1     117.931 122.667 125.639  1.00  0.00     0.036 C 
ATOM     28  C   UNL     1     115.866 123.805 124.546  1.00  0.00     0.032 C 
ATOM     29  C   UNL     1     117.387 123.837 124.773  1.00  0.00     0.114 C 
BRANCH  29  30
ATOM     30  O   UNL     1     118.042 123.880 123.529  1.00  0.00    -0.393 OA
ATOM     31  H   UNL     1     117.398 124.259 122.874  1.00  0.00     0.210 HD
ENDBRANCH  29  30
ENDBRANCH   1  11
TORSDOF 6
ENDMDL
MODEL 2
REMARK VINA RESULT:    -6.925      1.721      3.163
REMARK INTER + INTRA:         -11.081
REMARK INTER:                  -9.224
REMARK INTRA:                  -1.858
REMARK UNBOUND:                -1.930
REMARK SMILES CC[C@@H](C=C[C@@H](C)[C@@H]1CC[C@H]2C3=CC[C@@H]4C[C@@H](O)CC[C@]4(C)[C@H]3CC[C@]21C)C(C)C
REMARK SMILES IDX 6 1 7 2 5 3 4 4 3 5 2 6 1 7 28 8 29 9 30 10 8 11 9 12 26 13
REMARK SMILES IDX 10 14 11 15 25 16 27 17 12 18 24 19 23 20 13 21 21 22 14 23
REMARK SMILES IDX 15 24 20 25 22 26 16 27 19 28 17 29 18 30
REMARK H PARENT 18 31
REMARK Flexibility Score: inf
ROOT
ATOM      1  C   UNL     1     112.998 116.248 125.748  1.00  0.00     0.012 C 
ATOM      2  C   UNL     1     112.378 115.851 124.392  1.00  0.00     0.012 C 
ENDROOT
BRANCH   1   3
ATOM      3  C   UNL     1     112.040 115.816 126.847  1.00  0.00    -0.028 C 
ATOM      4  C   UNL     1     112.236 115.959 128.177  1.00  0.00    -0.027 C 
BRANCH   4   5
ATOM      5  C   UNL     1     113.484 116.519 128.856  1.00  0.00     0.014 C 
BRANCH   5   6
ATOM      6  C   UNL     1     114.139 115.421 129.734  1.00  0.00     0.004 C 
ATOM      7  C   UNL     1     115.644 115.603 129.897  1.00  0.00     0.004 C 
ENDBRANCH   5   6
BRANCH   5   8
ATOM      8  C   UNL     1     113.179 117.787 129.717  1.00  0.00    -0.011 C 
ATOM      9  C   UNL     1     112.501 118.894 128.906  1.00  0.00     0.008 C 
ATOM     10  C   UNL     1     112.364 117.497 130.991  1.00  0.00     0.008 C 
ENDBRANCH   5   8
ENDBRANCH   4   5
ENDBRANCH   1   3
BRANCH   1  11
ATOM     11  C   UNL     1     113.273 117.798 125.776  1.00  0.00     0.002 C 
ATOM     12  C   UNL     1     112.311 118.562 124.835  1.00  0.00     0.005 C 
ATOM     13  C   UNL     1     114.729 118.317 125.450  1.00  0.00    -0.023 C 
ATOM     14  C   UNL     1     113.119 119.531 123.993  1.00  0.00     0.009 C 
ATOM     15  C   UNL     1     114.508 119.615 124.614  1.00  0.00     0.021 C 
ATOM     16  C   UNL     1     115.527 118.612 126.778  1.00  0.00     0.008 C 
ATOM     17  C   UNL     1     115.549 117.324 124.590  1.00  0.00     0.012 C 
ATOM     18  C   UNL     1     114.803 120.847 125.453  1.00  0.00    -0.067 C 
ATOM     19  C   UNL     1     116.662 119.657 126.631  1.00  0.00     0.009 C 
ATOM     20  C   UNL     1     116.267 120.942 125.826  1.00  0.00     0.021 C 
ATOM     21  C   UNL     1     113.857 121.486 126.175  1.00  0.00    -0.027 C 
ATOM     22  C   UNL     1     116.646 122.319 126.480  1.00  0.00    -0.023 C 
ATOM     23  C   UNL     1     114.165 122.556 127.189  1.00  0.00     0.031 C 
ATOM     24  C   UNL     1     115.648 122.622 127.634  1.00  0.00     0.002 C 
ATOM     25  C   UNL     1     116.591 123.446 125.391  1.00  0.00     0.010 C 
ATOM     26  C   UNL     1     118.107 122.242 127.022  1.00  0.00     0.012 C 
ATOM     27  C   UNL     1     115.952 123.975 128.326  1.00  0.00     0.036 C 
ATOM     28  C   UNL     1     116.128 124.837 125.880  1.00  0.00     0.032 C 
ATOM     29  C   UNL     1     116.369 125.129 127.371  1.00  0.00     0.114 C 
BRANCH  29  30
ATOM     30  O   UNL     1     117.720 125.470 127.566  1.00  0.00    -0.393 OA
ATOM     31  H   UNL     1     118.006 125.989 126.768  1.00  0.00     0.210 HD
ENDBRANCH  29  30
ENDBRANCH   1  11
TORSDOF 6
ENDMDL
MODEL 3
REMARK VINA RESULT:    -6.808      1.810      4.393
REMARK INTER + INTRA:         -10.927
REMARK INTER:                  -8.919
REMARK INTRA:                  -2.008
REMARK UNBOUND:                -1.930
REMARK SMILES CC[C@@H](C=C[C@@H](C)[C@@H]1CC[C@H]2C3=CC[C@@H]4C[C@@H](O)CC[C@]4(C)[C@H]3CC[C@]21C)C(C)C
REMARK SMILES IDX 6 1 7 2 5 3 4 4 3 5 2 6 1 7 28 8 29 9 30 10 8 11 9 12 26 13
REMARK SMILES IDX 10 14 11 15 25 16 27 17 12 18 24 19 23 20 13 21 21 22 14 23
REMARK SMILES IDX 15 24 20 25 22 26 16 27 19 28 17 29 18 30
REMARK H PARENT 18 31
REMARK Flexibility Score: inf
ROOT
ATOM      1  C   UNL     1     114.885 115.480 125.469  1.00  0.00     0.012 C 
ATOM      2  C   UNL     1     115.761 114.482 124.683  1.00  0.00     0.012 C 
ENDROOT
BRANCH   1   3
ATOM      3  C   UNL     1     113.438 115.260 125.058  1.00  0.00    -0.028 C 
ATOM      4  C   UNL     1     112.355 115.864 125.598  1.00  0.00    -0.027 C 
BRANCH   4   5
ATOM      5  C   UNL     1     112.350 116.838 126.774  1.00  0.00     0.014 C 
BRANCH   5   6
ATOM      6  C   UNL     1     111.935 116.093 128.069  1.00  0.00     0.004 C 
ATOM      7  C   UNL     1     113.052 116.018 129.102  1.00  0.00     0.004 C 
ENDBRANCH   5   6
BRANCH   5   8
ATOM      8  C   UNL     1     111.412 118.064 126.533  1.00  0.00    -0.011 C 
ATOM      9  C   UNL     1     111.436 119.056 127.698  1.00  0.00     0.008 C 
ATOM     10  C   UNL     1     111.678 118.804 125.209  1.00  0.00     0.008 C 
ENDBRANCH   5   8
ENDBRANCH   4   5
ENDBRANCH   1   3
BRANCH   1  11
ATOM     11  C   UNL     1     115.366 116.952 125.183  1.00  0.00     0.002 C 
ATOM     12  C   UNL     1     116.371 117.003 124.008  1.00  0.00     0.005 C 
ATOM     13  C   UNL     1     116.008 117.784 126.362  1.00  0.00    -0.023 C 
ATOM     14  C   UNL     1     117.560 117.850 124.420  1.00  0.00     0.009 C 
ATOM     15  C   UNL     1     117.167 118.586 125.695  1.00  0.00     0.021 C 
ATOM     16  C   UNL     1     114.941 118.745 127.015  1.00  0.00     0.008 C 
ATOM     17  C   UNL     1     116.616 116.893 127.473  1.00  0.00     0.012 C 
ATOM     18  C   UNL     1     116.787 120.049 125.545  1.00  0.00    -0.067 C 
ATOM     19  C   UNL     1     115.535 119.995 127.711  1.00  0.00     0.009 C 
ATOM     20  C   UNL     1     116.641 120.738 126.885  1.00  0.00     0.021 C 
ATOM     21  C   UNL     1     116.186 120.541 124.439  1.00  0.00    -0.027 C 
ATOM     22  C   UNL     1     116.490 122.296 126.761  1.00  0.00    -0.023 C 
ATOM     23  C   UNL     1     115.593 121.922 124.359  1.00  0.00     0.031 C 
ATOM     24  C   UNL     1     115.372 122.615 125.727  1.00  0.00     0.002 C 
ATOM     25  C   UNL     1     117.856 122.918 126.307  1.00  0.00     0.010 C 
ATOM     26  C   UNL     1     116.131 122.888 128.159  1.00  0.00     0.012 C 
ATOM     27  C   UNL     1     115.169 124.140 125.542  1.00  0.00     0.036 C 
ATOM     28  C   UNL     1     117.764 124.157 125.389  1.00  0.00     0.032 C 
ATOM     29  C   UNL     1     116.474 124.985 125.522  1.00  0.00     0.114 C 
BRANCH  29  30
ATOM     30  O   UNL     1     116.557 125.796 126.668  1.00  0.00    -0.393 OA
ATOM     31  H   UNL     1     117.320 125.459 127.208  1.00  0.00     0.210 HD
ENDBRANCH  29  30
ENDBRANCH   1  11
TORSDOF 6
ENDMDL
MODEL 4
REMARK VINA RESULT:    -6.792      2.135      4.038
REMARK INTER + INTRA:         -10.906
REMARK INTER:                  -8.956
REMARK INTRA:                  -1.950
REMARK UNBOUND:                -1.930
REMARK SMILES CC[C@@H](C=C[C@@H](C)[C@@H]1CC[C@H]2C3=CC[C@@H]4C[C@@H](O)CC[C@]4(C)[C@H]3CC[C@]21C)C(C)C
REMARK SMILES IDX 6 1 7 2 5 3 4 4 3 5 2 6 1 7 28 8 29 9 30 10 8 11 9 12 26 13
REMARK SMILES IDX 10 14 11 15 25 16 27 17 12 18 24 19 23 20 13 21 21 22 14 23
REMARK SMILES IDX 15 24 20 25 22 26 16 27 19 28 17 29 18 30
REMARK H PARENT 18 31
REMARK Flexibility Score: inf
ROOT
ATOM      1  C   UNL     1     112.001 116.755 126.948  1.00  0.00     0.012 C 
ATOM      2  C   UNL     1     111.623 116.335 128.383  1.00  0.00     0.012 C 
ENDROOT
BRANCH   1   3
ATOM      3  C   UNL     1     112.379 115.502 126.176  1.00  0.00    -0.028 C 
ATOM      4  C   UNL     1     112.965 115.462 124.957  1.00  0.00    -0.027 C 
BRANCH   4   5
ATOM      5  C   UNL     1     113.305 116.660 124.074  1.00  0.00     0.014 C 
BRANCH   5   6
ATOM      6  C   UNL     1     112.329 116.716 122.870  1.00  0.00     0.004 C 
ATOM      7  C   UNL     1     111.463 117.970 122.859  1.00  0.00     0.004 C 
ENDBRANCH   5   6
BRANCH   5   8
ATOM      8  C   UNL     1     114.783 116.630 123.568  1.00  0.00    -0.011 C 
ATOM      9  C   UNL     1     115.727 117.425 124.475  1.00  0.00     0.008 C 
ATOM     10  C   UNL     1     115.341 115.211 123.348  1.00  0.00     0.008 C 
ENDBRANCH   5   8
ENDBRANCH   4   5
ENDBRANCH   1   3
BRANCH   1  11
ATOM     11  C   UNL     1     113.175 117.804 126.991  1.00  0.00     0.002 C 
ATOM     12  C   UNL     1     114.054 117.620 128.250  1.00  0.00     0.005 C 
ATOM     13  C   UNL     1     112.824 119.341 126.906  1.00  0.00    -0.023 C 
ATOM     14  C   UNL     1     114.269 118.976 128.897  1.00  0.00     0.009 C 
ATOM     15  C   UNL     1     113.817 120.028 127.892  1.00  0.00     0.021 C 
ATOM     16  C   UNL     1     113.008 119.876 125.433  1.00  0.00     0.008 C 
ATOM     17  C   UNL     1     111.382 119.661 127.371  1.00  0.00     0.012 C 
ATOM     18  C   UNL     1     114.912 120.754 127.129  1.00  0.00    -0.067 C 
ATOM     19  C   UNL     1     113.298 121.394 125.328  1.00  0.00     0.009 C 
ATOM     20  C   UNL     1     114.372 121.926 126.338  1.00  0.00     0.021 C 
ATOM     21  C   UNL     1     116.085 120.170 126.797  1.00  0.00    -0.027 C 
ATOM     22  C   UNL     1     115.503 122.835 125.738  1.00  0.00    -0.023 C 
ATOM     23  C   UNL     1     117.081 120.783 125.849  1.00  0.00     0.031 C 
ATOM     24  C   UNL     1     116.525 121.939 124.980  1.00  0.00     0.002 C 
ATOM     25  C   UNL     1     116.210 123.620 126.898  1.00  0.00     0.010 C 
ATOM     26  C   UNL     1     114.862 123.878 124.771  1.00  0.00     0.012 C 
ATOM     27  C   UNL     1     117.681 122.767 124.366  1.00  0.00     0.036 C 
ATOM     28  C   UNL     1     117.722 123.883 126.713  1.00  0.00     0.032 C 
ATOM     29  C   UNL     1     118.214 123.925 125.256  1.00  0.00     0.114 C 
BRANCH  29  30
ATOM     30  O   UNL     1     117.892 125.173 124.692  1.00  0.00    -0.393 OA
ATOM     31  H   UNL     1     117.763 125.808 125.446  1.00  0.00     0.210 HD
ENDBRANCH  29  30
ENDBRANCH   1  11
TORSDOF 6
ENDMDL
MODEL 5
REMARK VINA RESULT:    -6.778      2.796      4.779
REMARK INTER + INTRA:         -10.887
REMARK INTER:                  -8.937
REMARK INTRA:                  -1.950
REMARK UNBOUND:                -1.930
REMARK SMILES CC[C@@H](C=C[C@@H](C)[C@@H]1CC[C@H]2C3=CC[C@@H]4C[C@@H](O)CC[C@]4(C)[C@H]3CC[C@]21C)C(C)C
REMARK SMILES IDX 6 1 7 2 5 3 4 4 3 5 2 6 1 7 28 8 29 9 30 10 8 11 9 12 26 13
REMARK SMILES IDX 10 14 11 15 25 16 27 17 12 18 24 19 23 20 13 21 21 22 14 23
REMARK SMILES IDX 15 24 20 25 22 26 16 27 19 28 17 29 18 30
REMARK H PARENT 18 31
REMARK Flexibility Score: inf
ROOT
ATOM      1  C   UNL     1     112.033 118.513 126.105  1.00  0.00     0.012 C 
ATOM      2  C   UNL     1     110.875 119.087 126.948  1.00  0.00     0.012 C 
ENDROOT
BRANCH   1   3
ATOM      3  C   UNL     1     111.971 116.997 126.193  1.00  0.00    -0.028 C 
ATOM      4  C   UNL     1     112.398 116.126 125.250  1.00  0.00    -0.027 C 
BRANCH   4   5
ATOM      5  C   UNL     1     112.966 116.479 123.878  1.00  0.00     0.014 C 
BRANCH   5   6
ATOM      6  C   UNL     1     111.807 116.710 122.875  1.00  0.00     0.004 C 
ATOM      7  C   UNL     1     111.560 118.183 122.573  1.00  0.00     0.004 C 
ENDBRANCH   5   6
BRANCH   5   8
ATOM      8  C   UNL     1     113.940 115.384 123.334  1.00  0.00    -0.011 C 
ATOM      9  C   UNL     1     115.389 115.873 123.267  1.00  0.00     0.008 C 
ATOM     10  C   UNL     1     113.872 114.050 124.100  1.00  0.00     0.008 C 
ENDBRANCH   5   8
ENDBRANCH   4   5
ENDBRANCH   1   3
BRANCH   1  11
ATOM     11  C   UNL     1     113.406 119.082 126.627  1.00  0.00     0.002 C 
ATOM     12  C   UNL     1     113.217 119.940 127.900  1.00  0.00     0.005 C 
ATOM     13  C   UNL     1     114.300 119.930 125.639  1.00  0.00    -0.023 C 
ATOM     14  C   UNL     1     113.982 121.239 127.730  1.00  0.00     0.009 C 
ATOM     15  C   UNL     1     114.897 121.066 126.524  1.00  0.00     0.021 C 
ATOM     16  C   UNL     1     115.433 119.036 125.003  1.00  0.00     0.008 C 
ATOM     17  C   UNL     1     113.488 120.587 124.496  1.00  0.00     0.012 C 
ATOM     18  C   UNL     1     116.365 120.800 126.817  1.00  0.00    -0.067 C 
ATOM     19  C   UNL     1     116.689 119.815 124.540  1.00  0.00     0.009 C 
ATOM     20  C   UNL     1     117.216 120.875 125.569  1.00  0.00     0.021 C 
ATOM     21  C   UNL     1     116.782 120.116 127.906  1.00  0.00    -0.027 C 
ATOM     22  C   UNL     1     118.757 120.845 125.873  1.00  0.00    -0.023 C 
ATOM     23  C   UNL     1     118.197 119.639 128.097  1.00  0.00     0.031 C 
ATOM     24  C   UNL     1     119.064 119.643 126.812  1.00  0.00     0.002 C 
ATOM     25  C   UNL     1     119.180 122.197 126.547  1.00  0.00     0.010 C 
ATOM     26  C   UNL     1     119.540 120.709 124.531  1.00  0.00     0.012 C 
ATOM     27  C   UNL     1     120.569 119.553 127.167  1.00  0.00     0.036 C 
ATOM     28  C   UNL     1     120.307 122.103 127.599  1.00  0.00     0.032 C 
ATOM     29  C   UNL     1     121.270 120.915 127.435  1.00  0.00     0.114 C 
BRANCH  29  30
ATOM     30  O   UNL     1     122.197 121.204 126.417  1.00  0.00    -0.393 OA
ATOM     31  H   UNL     1     122.314 122.191 126.403  1.00  0.00     0.210 HD
ENDBRANCH  29  30
ENDBRANCH   1  11
TORSDOF 6
ENDMDL
MODEL 6
REMARK VINA RESULT:    -6.734      2.428      3.804
REMARK INTER + INTRA:         -10.829
REMARK INTER:                  -9.089
REMARK INTRA:                  -1.740
REMARK UNBOUND:                -1.930
REMARK SMILES CC[C@@H](C=C[C@@H](C)[C@@H]1CC[C@H]2C3=CC[C@@H]4C[C@@H](O)CC[C@]4(C)[C@H]3CC[C@]21C)C(C)C
REMARK SMILES IDX 6 1 7 2 5 3 4 4 3 5 2 6 1 7 28 8 29 9 30 10 8 11 9 12 26 13
REMARK SMILES IDX 10 14 11 15 25 16 27 17 12 18 24 19 23 20 13 21 21 22 14 23
REMARK SMILES IDX 15 24 20 25 22 26 16 27 19 28 17 29 18 30
REMARK H PARENT 18 31
REMARK Flexibility Score: inf
ROOT
ATOM      1  C   UNL     1     113.459 116.666 126.076  1.00  0.00     0.012 C 
ATOM      2  C   UNL     1     112.383 116.202 127.080  1.00  0.00     0.012 C 
ENDROOT
BRANCH   1   3
ATOM      3  C   UNL     1     114.590 115.650 126.098  1.00  0.00    -0.028 C 
ATOM      4  C   UNL     1     115.236 115.154 125.018  1.00  0.00    -0.027 C 
BRANCH   4   5
ATOM      5  C   UNL     1     114.922 115.454 123.555  1.00  0.00     0.014 C 
BRANCH   5   6
ATOM      6  C   UNL     1     114.284 114.207 122.889  1.00  0.00     0.004 C 
ATOM      7  C   UNL     1     114.238 112.994 123.810  1.00  0.00     0.004 C 
ENDBRANCH   5   6
BRANCH   5   8
ATOM      8  C   UNL     1     116.185 115.907 122.753  1.00  0.00    -0.011 C 
ATOM      9  C   UNL     1     117.301 116.425 123.664  1.00  0.00     0.008 C 
ATOM     10  C   UNL     1     116.743 114.830 121.803  1.00  0.00     0.008 C 
ENDBRANCH   5   8
ENDBRANCH   4   5
ENDBRANCH   1   3
BRANCH   1  11
ATOM     11  C   UNL     1     113.953 118.113 126.456  1.00  0.00     0.002 C 
ATOM     12  C   UNL     1     113.188 118.672 127.678  1.00  0.00     0.005 C 
ATOM     13  C   UNL     1     113.922 119.240 125.350  1.00  0.00    -0.023 C 
ATOM     14  C   UNL     1     112.735 120.085 127.365  1.00  0.00     0.009 C 
ATOM     15  C   UNL     1     113.476 120.526 126.110  1.00  0.00     0.021 C 
ATOM     16  C   UNL     1     115.346 119.419 124.693  1.00  0.00     0.008 C 
ATOM     17  C   UNL     1     112.892 118.961 124.228  1.00  0.00     0.012 C 
ATOM     18  C   UNL     1     114.656 121.464 126.311  1.00  0.00    -0.067 C 
ATOM     19  C   UNL     1     115.607 120.821 124.088  1.00  0.00     0.009 C 
ATOM     20  C   UNL     1     115.171 122.018 125.000  1.00  0.00     0.021 C 
ATOM     21  C   UNL     1     115.442 121.426 127.409  1.00  0.00    -0.027 C 
ATOM     22  C   UNL     1     116.223 123.169 125.192  1.00  0.00    -0.023 C 
ATOM     23  C   UNL     1     116.742 122.175 127.527  1.00  0.00     0.031 C 
ATOM     24  C   UNL     1     117.320 122.690 126.185  1.00  0.00     0.002 C 
ATOM     25  C   UNL     1     115.500 124.449 125.739  1.00  0.00     0.010 C 
ATOM     26  C   UNL     1     116.849 123.523 123.808  1.00  0.00     0.012 C 
ATOM     27  C   UNL     1     118.394 123.779 126.433  1.00  0.00     0.036 C 
ATOM     28  C   UNL     1     116.323 125.325 126.710  1.00  0.00     0.032 C 
ATOM     29  C   UNL     1     117.850 125.231 126.556  1.00  0.00     0.114 C 
BRANCH  29  30
ATOM     30  O   UNL     1     118.256 126.007 125.455  1.00  0.00    -0.393 OA
ATOM     31  H   UNL     1     119.219 126.218 125.588  1.00  0.00     0.210 HD
ENDBRANCH  29  30
ENDBRANCH   1  11
TORSDOF 6
ENDMDL
MODEL 7
REMARK VINA RESULT:    -6.562      2.609      3.996
REMARK INTER + INTRA:         -10.602
REMARK INTER:                  -8.923
REMARK INTRA:                  -1.679
REMARK UNBOUND:                -1.930
REMARK SMILES CC[C@@H](C=C[C@@H](C)[C@@H]1CC[C@H]2C3=CC[C@@H]4C[C@@H](O)CC[C@]4(C)[C@H]3CC[C@]21C)C(C)C
REMARK SMILES IDX 6 1 7 2 5 3 4 4 3 5 2 6 1 7 28 8 29 9 30 10 8 11 9 12 26 13
REMARK SMILES IDX 10 14 11 15 25 16 27 17 12 18 24 19 23 20 13 21 21 22 14 23
REMARK SMILES IDX 15 24 20 25 22 26 16 27 19 28 17 29 18 30
REMARK H PARENT 18 31
REMARK Flexibility Score: inf
ROOT
ATOM      1  C   UNL     1     112.136 116.651 125.171  1.00  0.00     0.012 C 
ATOM      2  C   UNL     1     112.436 115.366 125.971  1.00  0.00     0.012 C 
ENDROOT
BRANCH   1   3
ATOM      3  C   UNL     1     112.540 116.410 123.725  1.00  0.00    -0.028 C 
ATOM      4  C   UNL     1     113.744 115.966 123.298  1.00  0.00    -0.027 C 
BRANCH   4   5
ATOM      5  C   UNL     1     114.967 115.680 124.166  1.00  0.00     0.014 C 
BRANCH   5   6
ATOM      6  C   UNL     1     116.044 116.771 123.929  1.00  0.00     0.004 C 
ATOM      7  C   UNL     1     116.391 117.554 125.189  1.00  0.00     0.004 C 
ENDBRANCH   5   6
BRANCH   5   8
ATOM      8  C   UNL     1     115.569 114.262 123.904  1.00  0.00    -0.011 C 
ATOM      9  C   UNL     1     116.655 113.892 124.918  1.00  0.00     0.008 C 
ATOM     10  C   UNL     1     114.517 113.140 123.829  1.00  0.00     0.008 C 
ENDBRANCH   5   8
ENDBRANCH   4   5
ENDBRANCH   1   3
BRANCH   1  11
ATOM     11  C   UNL     1     112.908 117.868 125.808  1.00  0.00     0.002 C 
ATOM     12  C   UNL     1     112.787 117.872 127.350  1.00  0.00     0.005 C 
ATOM     13  C   UNL     1     112.555 119.328 125.323  1.00  0.00    -0.023 C 
ATOM     14  C   UNL     1     112.413 119.270 127.805  1.00  0.00     0.009 C 
ATOM     15  C   UNL     1     112.616 120.199 126.615  1.00  0.00     0.021 C 
ATOM     16  C   UNL     1     113.591 119.824 124.241  1.00  0.00     0.008 C 
ATOM     17  C   UNL     1     111.129 119.444 124.731  1.00  0.00     0.012 C 
ATOM     18  C   UNL     1     113.874 121.052 126.625  1.00  0.00    -0.067 C 
ATOM     19  C   UNL     1     113.740 121.363 124.146  1.00  0.00     0.009 C 
ATOM     20  C   UNL     1     113.863 122.094 125.528  1.00  0.00     0.021 C 
ATOM     21  C   UNL     1     115.033 120.640 127.184  1.00  0.00    -0.027 C 
ATOM     22  C   UNL     1     115.026 123.140 125.662  1.00  0.00    -0.023 C 
ATOM     23  C   UNL     1     116.344 121.358 127.005  1.00  0.00     0.031 C 
ATOM     24  C   UNL     1     116.372 122.380 125.840  1.00  0.00     0.002 C 
ATOM     25  C   UNL     1     114.750 124.071 126.894  1.00  0.00     0.010 C 
ATOM     26  C   UNL     1     115.062 124.032 124.383  1.00  0.00     0.012 C 
ATOM     27  C   UNL     1     117.571 123.349 125.990  1.00  0.00     0.036 C 
ATOM     28  C   UNL     1     115.996 124.553 127.670  1.00  0.00     0.032 C 
ATOM     29  C   UNL     1     117.301 124.610 126.858  1.00  0.00     0.114 C 
BRANCH  29  30
ATOM     30  O   UNL     1     117.304 125.770 126.062  1.00  0.00    -0.393 OA
ATOM     31  H   UNL     1     116.402 125.842 125.650  1.00  0.00     0.210 HD
ENDBRANCH  29  30
ENDBRANCH   1  11
TORSDOF 6
ENDMDL
MODEL 8
REMARK VINA RESULT:    -6.500      2.155      3.905
REMARK INTER + INTRA:         -10.520
REMARK INTER:                  -8.360
REMARK INTRA:                  -2.160
REMARK UNBOUND:                -1.930
REMARK SMILES CC[C@@H](C=C[C@@H](C)[C@@H]1CC[C@H]2C3=CC[C@@H]4C[C@@H](O)CC[C@]4(C)[C@H]3CC[C@]21C)C(C)C
REMARK SMILES IDX 6 1 7 2 5 3 4 4 3 5 2 6 1 7 28 8 29 9 30 10 8 11 9 12 26 13
REMARK SMILES IDX 10 14 11 15 25 16 27 17 12 18 24 19 23 20 13 21 21 22 14 23
REMARK SMILES IDX 15 24 20 25 22 26 16 27 19 28 17 29 18 30
REMARK H PARENT 18 31
REMARK Flexibility Score: inf
ROOT
ATOM      1  C   UNL     1     111.984 119.210 126.059  1.00  0.00     0.012 C 
ATOM      2  C   UNL     1     110.927 119.341 127.176  1.00  0.00     0.012 C 
ENDROOT
BRANCH   1   3
ATOM      3  C   UNL     1     111.979 117.769 125.576  1.00  0.00    -0.028 C 
ATOM      4  C   UNL     1     112.717 116.755 126.083  1.00  0.00    -0.027 C 
BRANCH   4   5
ATOM      5  C   UNL     1     113.756 116.858 127.197  1.00  0.00     0.014 C 
BRANCH   5   6
ATOM      6  C   UNL     1     115.044 116.099 126.784  1.00  0.00     0.004 C 
ATOM      7  C   UNL     1     116.318 116.757 127.297  1.00  0.00     0.004 C 
ENDBRANCH   5   6
BRANCH   5   8
ATOM      8  C   UNL     1     113.225 116.315 128.562  1.00  0.00    -0.011 C 
ATOM      9  C   UNL     1     113.487 117.284 129.718  1.00  0.00     0.008 C 
ATOM     10  C   UNL     1     111.738 115.915 128.541  1.00  0.00     0.008 C 
ENDBRANCH   5   8
ENDBRANCH   4   5
ENDBRANCH   1   3
BRANCH   1  11
ATOM     11  C   UNL     1     113.394 119.648 126.606  1.00  0.00     0.002 C 
ATOM     12  C   UNL     1     113.265 120.502 127.889  1.00  0.00     0.005 C 
ATOM     13  C   UNL     1     114.373 120.427 125.642  1.00  0.00    -0.023 C 
ATOM     14  C   UNL     1     114.145 121.730 127.748  1.00  0.00     0.009 C 
ATOM     15  C   UNL     1     115.057 121.493 126.551  1.00  0.00     0.021 C 
ATOM     16  C   UNL     1     115.431 119.443 125.006  1.00  0.00     0.008 C 
ATOM     17  C   UNL     1     113.638 121.168 124.499  1.00  0.00     0.012 C 
ATOM     18  C   UNL     1     116.491 121.093 126.858  1.00  0.00    -0.067 C 
ATOM     19  C   UNL     1     116.758 120.114 124.571  1.00  0.00     0.009 C 
ATOM     20  C   UNL     1     117.363 121.109 125.621  1.00  0.00     0.021 C 
ATOM     21  C   UNL     1     116.831 120.360 127.941  1.00  0.00    -0.027 C 
ATOM     22  C   UNL     1     118.890 120.938 125.943  1.00  0.00    -0.023 C 
ATOM     23  C   UNL     1     118.196 119.757 128.142  1.00  0.00     0.031 C 
ATOM     24  C   UNL     1     119.077 119.702 126.868  1.00  0.00     0.002 C 
ATOM     25  C   UNL     1     119.423 122.238 126.642  1.00  0.00     0.010 C 
ATOM     26  C   UNL     1     119.676 120.751 124.609  1.00  0.00     0.012 C 
ATOM     27  C   UNL     1     120.563 119.473 127.240  1.00  0.00     0.036 C 
ATOM     28  C   UNL     1     120.523 122.030 127.707  1.00  0.00     0.032 C 
ATOM     29  C   UNL     1     121.379 120.763 127.537  1.00  0.00     0.114 C 
BRANCH  29  30
ATOM     30  O   UNL     1     122.341 120.983 126.535  1.00  0.00    -0.393 OA
ATOM     31  H   UNL     1     121.847 121.196 125.699  1.00  0.00     0.210 HD
ENDBRANCH  29  30
ENDBRANCH   1  11
TORSDOF 6
ENDMDL
MODEL 9
REMARK VINA RESULT:    -6.434      1.455      2.486
REMARK INTER + INTRA:         -10.433
REMARK INTER:                  -8.368
REMARK INTRA:                  -2.065
REMARK UNBOUND:                -1.930
REMARK SMILES CC[C@@H](C=C[C@@H](C)[C@@H]1CC[C@H]2C3=CC[C@@H]4C[C@@H](O)CC[C@]4(C)[C@H]3CC[C@]21C)C(C)C
REMARK SMILES IDX 6 1 7 2 5 3 4 4 3 5 2 6 1 7 28 8 29 9 30 10 8 11 9 12 26 13
REMARK SMILES IDX 10 14 11 15 25 16 27 17 12 18 24 19 23 20 13 21 21 22 14 23
REMARK SMILES IDX 15 24 20 25 22 26 16 27 19 28 17 29 18 30
REMARK H PARENT 18 31
REMARK Flexibility Score: inf
ROOT
ATOM      1  C   UNL     1     112.748 116.695 126.173  1.00  0.00     0.012 C 
ATOM      2  C   UNL     1     112.192 115.994 127.430  1.00  0.00     0.012 C 
ENDROOT
BRANCH   1   3
ATOM      3  C   UNL     1     113.773 115.772 125.535  1.00  0.00    -0.028 C 
ATOM      4  C   UNL     1     115.093 115.725 125.826  1.00  0.00    -0.027 C 
BRANCH   4   5
ATOM      5  C   UNL     1     115.841 116.630 126.801  1.00  0.00     0.014 C 
BRANCH   5   6
ATOM      6  C   UNL     1     117.249 116.956 126.239  1.00  0.00     0.004 C 
ATOM      7  C   UNL     1     117.624 118.427 126.378  1.00  0.00     0.004 C 
ENDBRANCH   5   6
BRANCH   5   8
ATOM      8  C   UNL     1     115.962 116.002 128.227  1.00  0.00    -0.011 C 
ATOM      9  C   UNL     1     117.261 115.211 128.409  1.00  0.00     0.008 C 
ATOM     10  C   UNL     1     115.804 117.018 129.374  1.00  0.00     0.008 C 
ENDBRANCH   5   8
ENDBRANCH   4   5
ENDBRANCH   1   3
BRANCH   1  11
ATOM     11  C   UNL     1     113.368 118.087 126.571  1.00  0.00     0.002 C 
ATOM     12  C   UNL     1     112.807 118.594 127.921  1.00  0.00     0.005 C 
ATOM     13  C   UNL     1     113.250 119.289 125.553  1.00  0.00    -0.023 C 
ATOM     14  C   UNL     1     112.395 120.045 127.763  1.00  0.00     0.009 C 
ATOM     15  C   UNL     1     112.983 120.539 126.447  1.00  0.00     0.021 C 
ATOM     16  C   UNL     1     114.580 119.448 124.719  1.00  0.00     0.008 C 
ATOM     17  C   UNL     1     112.064 119.138 124.569  1.00  0.00     0.012 C 
ATOM     18  C   UNL     1     114.229 121.404 126.542  1.00  0.00    -0.067 C 
ATOM     19  C   UNL     1     114.834 120.875 124.172  1.00  0.00     0.009 C 
ATOM     20  C   UNL     1     114.592 122.025 125.210  1.00  0.00     0.021 C 
ATOM     21  C   UNL     1     115.154 121.253 127.516  1.00  0.00    -0.027 C 
ATOM     22  C   UNL     1     115.723 123.109 125.326  1.00  0.00    -0.023 C 
ATOM     23  C   UNL     1     116.498 121.931 127.500  1.00  0.00     0.031 C 
ATOM     24  C   UNL     1     116.916 122.512 126.125  1.00  0.00     0.002 C 
ATOM     25  C   UNL     1     115.153 124.379 126.048  1.00  0.00     0.010 C 
ATOM     26  C   UNL     1     116.175 123.530 123.893  1.00  0.00     0.012 C 
ATOM     27  C   UNL     1     118.072 123.530 126.290  1.00  0.00     0.036 C 
ATOM     28  C   UNL     1     116.147 125.147 126.948  1.00  0.00     0.032 C 
ATOM     29  C   UNL     1     117.632 124.993 126.579  1.00  0.00     0.114 C 
BRANCH  29  30
ATOM     30  O   UNL     1     117.928 125.825 125.483  1.00  0.00    -0.393 OA
ATOM     31  H   UNL     1     118.654 126.439 125.773  1.00  0.00     0.210 HD
ENDBRANCH  29  30
ENDBRANCH   1  11
TORSDOF 6
ENDMDL
