MODEL 1
REMARK VINA RESULT:    -3.942      0.000      0.000
REMARK INTER + INTRA:          -4.672
REMARK INTER:                  -4.634
REMARK INTRA:                  -0.038
REMARK UNBOUND:                -0.038
REMARK SMILES O=C([O-])CCC(=O)[O-]
REMARK SMILES IDX 4 1 2 2 1 3 3 4 5 5 6 6 7 7 8 8
REMARK H PARENT
REMARK Flexibility Score: inf
ROOT
ATOM      1  C   UNL     1      35.008   0.664  34.119  1.00  0.00     0.059 C 
ENDROOT
BRANCH   1   2
ATOM      2  C   UNL     1      33.942   1.531  34.717  1.00  0.00     0.042 C 
ATOM      3  O   UNL     1      34.237   2.652  35.207  1.00  0.00    -0.550 OA
ATOM      4  O   UNL     1      32.628   1.081  34.769  1.00  0.00    -0.550 OA
ENDBRANCH   1   2
BRANCH   1   5
ATOM      5  C   UNL     1      35.492   1.212  32.774  1.00  0.00     0.059 C 
BRANCH   5   6
ATOM      6  C   UNL     1      35.326   0.207  31.676  1.00  0.00     0.042 C 
ATOM      7  O   UNL     1      35.992  -0.861  31.687  1.00  0.00    -0.550 OA
ATOM      8  O   UNL     1      34.463   0.469  30.618  1.00  0.00    -0.550 OA
ENDBRANCH   5   6
ENDBRANCH   1   5
TORSDOF 3
ENDMDL
MODEL 2
REMARK VINA RESULT:    -3.774      0.167      4.024
REMARK INTER + INTRA:          -4.474
REMARK INTER:                  -4.432
REMARK INTRA:                  -0.043
REMARK UNBOUND:                -0.038
REMARK SMILES O=C([O-])CCC(=O)[O-]
REMARK SMILES IDX 4 1 2 2 1 3 3 4 5 5 6 6 7 7 8 8
REMARK H PARENT
REMARK Flexibility Score: inf
ROOT
ATOM      1  C   UNL     1      35.499   1.226  32.897  1.00  0.00     0.059 C 
ENDROOT
BRANCH   1   2
ATOM      2  C   UNL     1      35.350   0.249  31.771  1.00  0.00     0.042 C 
ATOM      3  O   UNL     1      34.624   0.528  30.781  1.00  0.00    -0.550 OA
ATOM      4  O   UNL     1      35.982  -0.986  31.834  1.00  0.00    -0.550 OA
ENDBRANCH   1   2
BRANCH   1   5
ATOM      5  C   UNL     1      34.933   0.667  34.206  1.00  0.00     0.059 C 
BRANCH   5   6
ATOM      6  C   UNL     1      33.835   1.530  34.746  1.00  0.00     0.042 C 
ATOM      7  O   UNL     1      32.665   1.077  34.850  1.00  0.00    -0.550 OA
ATOM      8  O   UNL     1      34.096   2.849  35.098  1.00  0.00    -0.550 OA
ENDBRANCH   5   6
ENDBRANCH   1   5
TORSDOF 3
ENDMDL
MODEL 3
REMARK VINA RESULT:    -3.760     13.835     14.486
REMARK INTER + INTRA:          -4.457
REMARK INTER:                  -4.413
REMARK INTRA:                  -0.044
REMARK UNBOUND:                -0.038
REMARK SMILES O=C([O-])CCC(=O)[O-]
REMARK SMILES IDX 4 1 2 2 1 3 3 4 5 5 6 6 7 7 8 8
REMARK H PARENT
REMARK Flexibility Score: inf
ROOT
ATOM      1  C   UNL     1      20.717   0.059  27.926  1.00  0.00     0.059 C 
ENDROOT
BRANCH   1   2
ATOM      2  C   UNL     1      21.065  -0.900  29.023  1.00  0.00     0.042 C 
ATOM      3  O   UNL     1      21.803  -0.534  29.975  1.00  0.00    -0.550 OA
ATOM      4  O   UNL     1      20.607  -2.210  28.971  1.00  0.00    -0.550 OA
ENDBRANCH   1   2
BRANCH   1   5
ATOM      5  C   UNL     1      21.212  -0.437  26.564  1.00  0.00     0.059 C 
BRANCH   5   6
ATOM      6  C   UNL     1      22.096   0.572  25.897  1.00  0.00     0.042 C 
ATOM      7  O   UNL     1      21.596   1.467  25.165  1.00  0.00    -0.550 OA
ATOM      8  O   UNL     1      23.475   0.500  26.053  1.00  0.00    -0.550 OA
ENDBRANCH   5   6
ENDBRANCH   1   5
TORSDOF 3
ENDMDL
MODEL 4
REMARK VINA RESULT:    -3.407      6.860      7.618
REMARK INTER + INTRA:          -4.043
REMARK INTER:                  -3.870
REMARK INTRA:                  -0.172
REMARK UNBOUND:                -0.038
REMARK SMILES O=C([O-])CCC(=O)[O-]
REMARK SMILES IDX 4 1 2 2 1 3 3 4 5 5 6 6 7 7 8 8
REMARK H PARENT
REMARK Flexibility Score: inf
ROOT
ATOM      1  C   UNL     1      28.803   1.187  29.200  1.00  0.00     0.059 C 
ENDROOT
BRANCH   1   2
ATOM      2  C   UNL     1      29.681   0.948  30.391  1.00  0.00     0.042 C 
ATOM      3  O   UNL     1      30.666   0.169  30.306  1.00  0.00    -0.550 OA
ATOM      4  O   UNL     1      29.385   1.555  31.605  1.00  0.00    -0.550 OA
ENDBRANCH   1   2
BRANCH   1   5
ATOM      5  C   UNL     1      28.017  -0.070  28.818  1.00  0.00     0.059 C 
BRANCH   5   6
ATOM      6  C   UNL     1      26.999  -0.422  29.859  1.00  0.00     0.042 C 
ATOM      7  O   UNL     1      27.072  -1.520  30.471  1.00  0.00    -0.550 OA
ATOM      8  O   UNL     1      25.947   0.447  30.125  1.00  0.00    -0.550 OA
ENDBRANCH   5   6
ENDBRANCH   1   5
TORSDOF 3
ENDMDL
MODEL 5
REMARK VINA RESULT:    -3.387      6.918      7.495
REMARK INTER + INTRA:          -4.020
REMARK INTER:                  -3.905
REMARK INTRA:                  -0.115
REMARK UNBOUND:                -0.038
REMARK SMILES O=C([O-])CCC(=O)[O-]
REMARK SMILES IDX 4 1 2 2 1 3 3 4 5 5 6 6 7 7 8 8
REMARK H PARENT
REMARK Flexibility Score: inf
ROOT
ATOM      1  C   UNL     1      29.022   1.123  29.231  1.00  0.00     0.059 C 
ENDROOT
BRANCH   1   2
ATOM      2  C   UNL     1      28.009   2.035  29.854  1.00  0.00     0.042 C 
ATOM      3  O   UNL     1      27.496   2.967  29.181  1.00  0.00    -0.550 OA
ATOM      4  O   UNL     1      27.664   1.880  31.191  1.00  0.00    -0.550 OA
ENDBRANCH   1   2
BRANCH   1   5
ATOM      5  C   UNL     1      28.411  -0.235  28.871  1.00  0.00     0.059 C 
BRANCH   5   6
ATOM      6  C   UNL     1      28.654  -1.251  29.945  1.00  0.00     0.042 C 
ATOM      7  O   UNL     1      29.782  -1.799  30.056  1.00  0.00    -0.550 OA
ATOM      8  O   UNL     1      27.621  -1.621  30.798  1.00  0.00    -0.550 OA
ENDBRANCH   5   6
ENDBRANCH   1   5
TORSDOF 3
ENDMDL
MODEL 6
REMARK VINA RESULT:    -3.386      6.785      7.511
REMARK INTER + INTRA:          -4.018
REMARK INTER:                  -3.839
REMARK INTRA:                  -0.179
REMARK UNBOUND:                -0.038
REMARK SMILES O=C([O-])CCC(=O)[O-]
REMARK SMILES IDX 4 1 2 2 1 3 3 4 5 5 6 6 7 7 8 8
REMARK H PARENT
REMARK Flexibility Score: inf
ROOT
ATOM      1  C   UNL     1      28.038  -0.121  28.891  1.00  0.00     0.059 C 
ENDROOT
BRANCH   1   2
ATOM      2  C   UNL     1      27.073  -0.495  29.974  1.00  0.00     0.042 C 
ATOM      3  O   UNL     1      26.059   0.218  30.194  1.00  0.00    -0.550 OA
ATOM      4  O   UNL     1      27.317  -1.609  30.768  1.00  0.00    -0.550 OA
ENDBRANCH   1   2
BRANCH   1   5
ATOM      5  C   UNL     1      28.769   1.185  29.213  1.00  0.00     0.059 C 
BRANCH   5   6
ATOM      6  C   UNL     1      29.677   1.032  30.395  1.00  0.00     0.042 C 
ATOM      7  O   UNL     1      30.703   0.306  30.317  1.00  0.00    -0.550 OA
ATOM      8  O   UNL     1      29.368   1.661  31.595  1.00  0.00    -0.550 OA
ENDBRANCH   5   6
ENDBRANCH   1   5
TORSDOF 3
ENDMDL
MODEL 7
REMARK VINA RESULT:    -3.383      7.080      7.954
REMARK INTER + INTRA:          -4.015
REMARK INTER:                  -3.834
REMARK INTRA:                  -0.181
REMARK UNBOUND:                -0.038
REMARK SMILES O=C([O-])CCC(=O)[O-]
REMARK SMILES IDX 4 1 2 2 1 3 3 4 5 5 6 6 7 7 8 8
REMARK H PARENT
REMARK Flexibility Score: inf
ROOT
ATOM      1  C   UNL     1      28.261  -0.146  31.823  1.00  0.00     0.059 C 
ENDROOT
BRANCH   1   2
ATOM      2  C   UNL     1      29.249  -0.360  30.716  1.00  0.00     0.042 C 
ATOM      3  O   UNL     1      30.086   0.536  30.432  1.00  0.00    -0.550 OA
ATOM      4  O   UNL     1      29.216  -1.533  29.973  1.00  0.00    -0.550 OA
ENDBRANCH   1   2
BRANCH   1   5
ATOM      5  C   UNL     1      27.274   0.976  31.489  1.00  0.00     0.059 C 
BRANCH   5   6
ATOM      6  C   UNL     1      26.404   0.617  30.323  1.00  0.00     0.042 C 
ATOM      7  O   UNL     1      25.545  -0.298  30.431  1.00  0.00    -0.550 OA
ATOM      8  O   UNL     1      26.570   1.266  29.105  1.00  0.00    -0.550 OA
ENDBRANCH   5   6
ENDBRANCH   1   5
TORSDOF 3
ENDMDL
MODEL 8
REMARK VINA RESULT:    -3.380      7.053      7.748
REMARK INTER + INTRA:          -4.011
REMARK INTER:                  -3.832
REMARK INTRA:                  -0.179
REMARK UNBOUND:                -0.038
REMARK SMILES O=C([O-])CCC(=O)[O-]
REMARK SMILES IDX 4 1 2 2 1 3 3 4 5 5 6 6 7 7 8 8
REMARK H PARENT
REMARK Flexibility Score: inf
ROOT
ATOM      1  C   UNL     1      27.294   0.985  31.474  1.00  0.00     0.059 C 
ENDROOT
BRANCH   1   2
ATOM      2  C   UNL     1      26.428   0.632  30.304  1.00  0.00     0.042 C 
ATOM      3  O   UNL     1      25.571  -0.285  30.403  1.00  0.00    -0.550 OA
ATOM      4  O   UNL     1      26.597   1.289  29.091  1.00  0.00    -0.550 OA
ENDBRANCH   1   2
BRANCH   1   5
ATOM      5  C   UNL     1      28.300  -0.127  31.787  1.00  0.00     0.059 C 
BRANCH   5   6
ATOM      6  C   UNL     1      29.296  -0.296  30.681  1.00  0.00     0.042 C 
ATOM      7  O   UNL     1      30.101   0.632  30.404  1.00  0.00    -0.550 OA
ATOM      8  O   UNL     1      29.309  -1.466  29.930  1.00  0.00    -0.550 OA
ENDBRANCH   5   6
ENDBRANCH   1   5
TORSDOF 3
ENDMDL
MODEL 9
REMARK VINA RESULT:    -3.371      7.658      8.393
REMARK INTER + INTRA:          -4.000
REMARK INTER:                  -3.858
REMARK INTRA:                  -0.142
REMARK UNBOUND:                -0.038
REMARK SMILES O=C([O-])CCC(=O)[O-]
REMARK SMILES IDX 4 1 2 2 1 3 3 4 5 5 6 6 7 7 8 8
REMARK H PARENT
REMARK Flexibility Score: inf
ROOT
ATOM      1  C   UNL     1      26.494   0.596  30.750  1.00  0.00     0.059 C 
ENDROOT
BRANCH   1   2
ATOM      2  C   UNL     1      26.876   1.156  29.414  1.00  0.00     0.042 C 
ATOM      3  O   UNL     1      26.477   0.603  28.356  1.00  0.00    -0.550 OA
ATOM      4  O   UNL     1      27.708   2.266  29.338  1.00  0.00    -0.550 OA
ENDBRANCH   1   2
BRANCH   1   5
ATOM      5  C   UNL     1      27.666  -0.137  31.410  1.00  0.00     0.059 C 
BRANCH   5   6
ATOM      6  C   UNL     1      27.992  -1.412  30.695  1.00  0.00     0.042 C 
ATOM      7  O   UNL     1      27.202  -2.391  30.751  1.00  0.00    -0.550 OA
ATOM      8  O   UNL     1      29.189  -1.533  29.998  1.00  0.00    -0.550 OA
ENDBRANCH   5   6
ENDBRANCH   1   5
TORSDOF 3
ENDMDL
