MODEL 1
REMARK VINA RESULT:    -6.305      0.000      0.000
REMARK INTER + INTRA:          -6.305
REMARK INTER:                  -6.305
REMARK INTRA:                   0.000
REMARK UNBOUND:                 0.000
REMARK SMILES CC1=CC(=O)[C@@H]2C[C@H]1C2(C)C
REMARK SMILES IDX 1 1 2 2 3 3 4 4 5 5 6 6 7 7 8 8 9 9 10 10 11 11
REMARK H PARENT
REMARK Flexibility Score: inf
ROOT
ATOM      1  C   UNL     1     -11.849  73.468  32.854  1.00  0.00     0.040 C 
ATOM      2  C   UNL     1     -11.058  73.261  31.601  1.00  0.00    -0.066 C 
ATOM      3  C   UNL     1     -10.070  72.327  31.511  1.00  0.00     0.047 C 
ATOM      4  C   UNL     1      -9.367  72.233  30.190  1.00  0.00     0.159 C 
ATOM      5  O   UNL     1      -8.465  71.382  29.968  1.00  0.00    -0.295 OA
ATOM      6  C   UNL     1      -9.818  73.243  29.134  1.00  0.00     0.067 C 
ATOM      7  C   UNL     1      -9.887  74.582  29.899  1.00  0.00     0.021 C 
ATOM      8  C   UNL     1     -11.296  74.147  30.361  1.00  0.00     0.022 C 
ATOM      9  C   UNL     1     -11.373  73.250  29.092  1.00  0.00    -0.019 C 
ATOM     10  C   UNL     1     -12.122  71.892  29.195  1.00  0.00     0.012 C 
ATOM     11  C   UNL     1     -11.925  74.017  27.862  1.00  0.00     0.012 C 
ENDROOT
TORSDOF 0
ENDMDL
MODEL 2
REMARK VINA RESULT:    -6.132      1.107      3.225
REMARK INTER + INTRA:          -6.132
REMARK INTER:                  -6.132
REMARK INTRA:                   0.000
REMARK UNBOUND:                 0.000
REMARK SMILES CC1=CC(=O)[C@@H]2C[C@H]1C2(C)C
REMARK SMILES IDX 1 1 2 2 3 3 4 4 5 5 6 6 7 7 8 8 9 9 10 10 11 11
REMARK H PARENT
REMARK Flexibility Score: inf
ROOT
ATOM      1  C   UNL     1     -10.433  74.909  27.149  1.00  0.00     0.040 C 
ATOM      2  C   UNL     1     -10.317  74.055  28.372  1.00  0.00    -0.066 C 
ATOM      3  C   UNL     1      -9.382  73.069  28.483  1.00  0.00     0.047 C 
ATOM      4  C   UNL     1      -9.385  72.298  29.769  1.00  0.00     0.159 C 
ATOM      5  O   UNL     1      -8.546  71.391  30.010  1.00  0.00    -0.295 OA
ATOM      6  C   UNL     1     -10.478  72.688  30.764  1.00  0.00     0.067 C 
ATOM      7  C   UNL     1     -11.755  72.789  29.902  1.00  0.00     0.021 C 
ATOM      8  C   UNL     1     -11.298  74.223  29.549  1.00  0.00     0.022 C 
ATOM      9  C   UNL     1     -10.504  74.238  30.887  1.00  0.00    -0.019 C 
ATOM     10  C   UNL     1      -9.148  74.999  30.928  1.00  0.00     0.012 C 
ATOM     11  C   UNL     1     -11.368  74.721  32.079  1.00  0.00     0.012 C 
ENDROOT
TORSDOF 0
ENDMDL
MODEL 3
REMARK VINA RESULT:    -5.482      1.794      3.201
REMARK INTER + INTRA:          -5.482
REMARK INTER:                  -5.482
REMARK INTRA:                   0.000
REMARK UNBOUND:                 0.000
REMARK SMILES CC1=CC(=O)[C@@H]2C[C@H]1C2(C)C
REMARK SMILES IDX 1 1 2 2 3 3 4 4 5 5 6 6 7 7 8 8 9 9 10 10 11 11
REMARK H PARENT
REMARK Flexibility Score: inf
ROOT
ATOM      1  C   UNL     1      -8.527  71.422  30.060  1.00  0.00     0.040 C 
ATOM      2  C   UNL     1      -9.623  72.432  29.927  1.00  0.00    -0.066 C 
ATOM      3  C   UNL     1     -10.649  72.278  29.042  1.00  0.00     0.047 C 
ATOM      4  C   UNL     1     -11.675  73.371  29.023  1.00  0.00     0.159 C 
ATOM      5  O   UNL     1     -12.691  73.326  28.282  1.00  0.00    -0.295 OA
ATOM      6  C   UNL     1     -11.399  74.545  29.965  1.00  0.00     0.067 C 
ATOM      7  C   UNL     1      -9.904  74.861  29.745  1.00  0.00     0.021 C 
ATOM      8  C   UNL     1      -9.606  73.731  30.756  1.00  0.00     0.022 C 
ATOM      9  C   UNL     1     -11.018  73.978  31.361  1.00  0.00    -0.019 C 
ATOM     10  C   UNL     1     -11.809  72.754  31.904  1.00  0.00     0.012 C 
ATOM     11  C   UNL     1     -11.006  75.073  32.459  1.00  0.00     0.012 C 
ENDROOT
TORSDOF 0
ENDMDL
MODEL 4
REMARK VINA RESULT:    -5.296      1.962      2.939
REMARK INTER + INTRA:          -5.296
REMARK INTER:                  -5.296
REMARK INTRA:                   0.000
REMARK UNBOUND:                 0.000
REMARK SMILES CC1=CC(=O)[C@@H]2C[C@H]1C2(C)C
REMARK SMILES IDX 1 1 2 2 3 3 4 4 5 5 6 6 7 7 8 8 9 9 10 10 11 11
REMARK H PARENT
REMARK Flexibility Score: inf
ROOT
ATOM      1  C   UNL     1      -8.467  71.434  29.964  1.00  0.00     0.040 C 
ATOM      2  C   UNL     1      -9.500  72.510  30.087  1.00  0.00    -0.066 C 
ATOM      3  C   UNL     1      -9.347  73.570  30.931  1.00  0.00     0.047 C 
ATOM      4  C   UNL     1     -10.464  74.570  30.945  1.00  0.00     0.159 C 
ATOM      5  O   UNL     1     -10.423  75.613  31.649  1.00  0.00    -0.295 OA
ATOM      6  C   UNL     1     -11.655  74.234  30.047  1.00  0.00     0.067 C 
ATOM      7  C   UNL     1     -11.929  72.741  30.327  1.00  0.00     0.021 C 
ATOM      8  C   UNL     1     -10.820  72.433  29.295  1.00  0.00     0.022 C 
ATOM      9  C   UNL     1     -11.117  73.817  28.649  1.00  0.00    -0.019 C 
ATOM     10  C   UNL     1      -9.928  74.616  28.045  1.00  0.00     0.012 C 
ATOM     11  C   UNL     1     -12.241  73.740  27.584  1.00  0.00     0.012 C 
ENDROOT
TORSDOF 0
ENDMDL
MODEL 5
REMARK VINA RESULT:    -5.100      1.960      3.242
REMARK INTER + INTRA:          -5.100
REMARK INTER:                  -5.100
REMARK INTRA:                   0.000
REMARK UNBOUND:                 0.000
REMARK SMILES CC1=CC(=O)[C@@H]2C[C@H]1C2(C)C
REMARK SMILES IDX 1 1 2 2 3 3 4 4 5 5 6 6 7 7 8 8 9 9 10 10 11 11
REMARK H PARENT
REMARK Flexibility Score: inf
ROOT
ATOM      1  C   UNL     1     -12.850  73.532  28.088  1.00  0.00     0.040 C 
ATOM      2  C   UNL     1     -11.695  73.792  29.002  1.00  0.00    -0.066 C 
ATOM      3  C   UNL     1     -11.758  74.708  30.011  1.00  0.00     0.047 C 
ATOM      4  C   UNL     1     -10.523  74.857  30.846  1.00  0.00     0.159 C 
ATOM      5  O   UNL     1     -10.469  75.639  31.832  1.00  0.00    -0.295 OA
ATOM      6  C   UNL     1      -9.333  73.998  30.416  1.00  0.00     0.067 C 
ATOM      7  C   UNL     1      -9.275  74.174  28.884  1.00  0.00     0.021 C 
ATOM      8  C   UNL     1     -10.350  73.065  28.804  1.00  0.00     0.022 C 
ATOM      9  C   UNL     1      -9.834  72.546  30.177  1.00  0.00    -0.019 C 
ATOM     10  C   UNL     1     -10.869  71.946  31.171  1.00  0.00     0.012 C 
ATOM     11  C   UNL     1      -8.667  71.537  30.024  1.00  0.00     0.012 C 
ENDROOT
TORSDOF 0
ENDMDL
MODEL 6
REMARK VINA RESULT:    -5.092      1.725      2.594
REMARK INTER + INTRA:          -5.092
REMARK INTER:                  -5.092
REMARK INTRA:                   0.000
REMARK UNBOUND:                 0.000
REMARK SMILES CC1=CC(=O)[C@@H]2C[C@H]1C2(C)C
REMARK SMILES IDX 1 1 2 2 3 3 4 4 5 5 6 6 7 7 8 8 9 9 10 10 11 11
REMARK H PARENT
REMARK Flexibility Score: inf
ROOT
ATOM      1  C   UNL     1     -10.470  75.499  31.825  1.00  0.00     0.040 C 
ATOM      2  C   UNL     1     -10.496  74.773  30.517  1.00  0.00    -0.066 C 
ATOM      3  C   UNL     1      -9.599  75.034  29.523  1.00  0.00     0.047 C 
ATOM      4  C   UNL     1      -9.749  74.225  28.270  1.00  0.00     0.159 C 
ATOM      5  O   UNL     1      -8.958  74.341  27.297  1.00  0.00    -0.295 OA
ATOM      6  C   UNL     1     -10.928  73.252  28.255  1.00  0.00     0.067 C 
ATOM      7  C   UNL     1     -12.109  74.081  28.804  1.00  0.00     0.021 C 
ATOM      8  C   UNL     1     -11.588  73.727  30.215  1.00  0.00     0.022 C 
ATOM      9  C   UNL     1     -10.933  72.461  29.593  1.00  0.00    -0.019 C 
ATOM     10  C   UNL     1      -9.573  71.977  30.172  1.00  0.00     0.012 C 
ATOM     11  C   UNL     1     -11.903  71.252  29.560  1.00  0.00     0.012 C 
ENDROOT
TORSDOF 0
ENDMDL
MODEL 7
REMARK VINA RESULT:    -4.990      1.588      2.249
REMARK INTER + INTRA:          -4.990
REMARK INTER:                  -4.990
REMARK INTRA:                   0.000
REMARK UNBOUND:                 0.000
REMARK SMILES CC1=CC(=O)[C@@H]2C[C@H]1C2(C)C
REMARK SMILES IDX 1 1 2 2 3 3 4 4 5 5 6 6 7 7 8 8 9 9 10 10 11 11
REMARK H PARENT
REMARK Flexibility Score: inf
ROOT
ATOM      1  C   UNL     1     -10.851  75.467  31.824  1.00  0.00     0.040 C 
ATOM      2  C   UNL     1     -10.735  74.336  30.851  1.00  0.00    -0.066 C 
ATOM      3  C   UNL     1     -11.591  73.275  30.865  1.00  0.00     0.047 C 
ATOM      4  C   UNL     1     -11.353  72.220  29.827  1.00  0.00     0.159 C 
ATOM      5  O   UNL     1     -12.099  71.212  29.710  1.00  0.00    -0.295 OA
ATOM      6  C   UNL     1     -10.140  72.451  28.924  1.00  0.00     0.067 C 
ATOM      7  C   UNL     1      -9.018  72.866  29.899  1.00  0.00     0.021 C 
ATOM      8  C   UNL     1      -9.594  74.298  29.815  1.00  0.00     0.022 C 
ATOM      9  C   UNL     1     -10.173  73.921  28.421  1.00  0.00    -0.019 C 
ATOM     10  C   UNL     1     -11.542  74.531  28.004  1.00  0.00     0.012 C 
ATOM     11  C   UNL     1      -9.160  74.175  27.275  1.00  0.00     0.012 C 
ENDROOT
TORSDOF 0
ENDMDL
MODEL 8
REMARK VINA RESULT:    -4.961      5.578      6.965
REMARK INTER + INTRA:          -4.961
REMARK INTER:                  -4.961
REMARK INTRA:                   0.000
REMARK UNBOUND:                 0.000
REMARK SMILES CC1=CC(=O)[C@@H]2C[C@H]1C2(C)C
REMARK SMILES IDX 1 1 2 2 3 3 4 4 5 5 6 6 7 7 8 8 9 9 10 10 11 11
REMARK H PARENT
REMARK Flexibility Score: inf
ROOT
ATOM      1  C   UNL     1      -9.699  74.325  26.212  1.00  0.00     0.040 C 
ATOM      2  C   UNL     1      -9.364  73.876  24.825  1.00  0.00    -0.066 C 
ATOM      3  C   UNL     1      -8.767  72.676  24.574  1.00  0.00     0.047 C 
ATOM      4  C   UNL     1      -8.494  72.362  23.134  1.00  0.00     0.159 C 
ATOM      5  O   UNL     1      -7.985  71.269  22.770  1.00  0.00    -0.295 OA
ATOM      6  C   UNL     1      -8.874  73.460  22.140  1.00  0.00     0.067 C 
ATOM      7  C   UNL     1      -8.330  74.754  22.782  1.00  0.00     0.021 C 
ATOM      8  C   UNL     1      -9.634  74.788  23.611  1.00  0.00     0.022 C 
ATOM      9  C   UNL     1     -10.307  73.959  22.480  1.00  0.00    -0.019 C 
ATOM     10  C   UNL     1     -11.381  72.908  22.879  1.00  0.00     0.012 C 
ATOM     11  C   UNL     1     -10.899  74.857  21.364  1.00  0.00     0.012 C 
ENDROOT
TORSDOF 0
ENDMDL
MODEL 9
REMARK VINA RESULT:    -4.936      1.332      3.328
REMARK INTER + INTRA:          -4.936
REMARK INTER:                  -4.936
REMARK INTRA:                   0.000
REMARK UNBOUND:                 0.000
REMARK SMILES CC1=CC(=O)[C@@H]2C[C@H]1C2(C)C
REMARK SMILES IDX 1 1 2 2 3 3 4 4 5 5 6 6 7 7 8 8 9 9 10 10 11 11
REMARK H PARENT
REMARK Flexibility Score: inf
ROOT
ATOM      1  C   UNL     1     -13.572  73.868  27.782  1.00  0.00     0.040 C 
ATOM      2  C   UNL     1     -12.234  73.491  28.337  1.00  0.00    -0.066 C 
ATOM      3  C   UNL     1     -11.069  73.811  27.705  1.00  0.00     0.047 C 
ATOM      4  C   UNL     1      -9.807  73.367  28.382  1.00  0.00     0.159 C 
ATOM      5  O   UNL     1      -8.667  73.639  27.921  1.00  0.00    -0.295 OA
ATOM      6  C   UNL     1     -10.001  72.563  29.667  1.00  0.00     0.067 C 
ATOM      7  C   UNL     1     -11.105  71.544  29.312  1.00  0.00     0.021 C 
ATOM      8  C   UNL     1     -12.120  72.664  29.633  1.00  0.00     0.022 C 
ATOM      9  C   UNL     1     -11.042  73.298  30.558  1.00  0.00    -0.019 C 
ATOM     10  C   UNL     1     -10.972  74.849  30.650  1.00  0.00     0.012 C 
ATOM     11  C   UNL     1     -11.092  72.728  31.999  1.00  0.00     0.012 C 
ENDROOT
TORSDOF 0
ENDMDL
