MODEL 1
REMARK VINA RESULT:    -3.911      0.000      0.000
REMARK INTER + INTRA:          -8.115
REMARK INTER:                  -6.655
REMARK INTRA:                  -1.459
REMARK UNBOUND:                -1.459
REMARK SMILES CCCCCCCCCCCCCC(=O)[O-]
REMARK SMILES IDX 8 1 9 2 10 3 11 4 12 5 13 6 14 7 15 8 16 9 7 10 6 11 5 12
REMARK SMILES IDX 4 13 3 14 2 15 1 16
REMARK H PARENT
REMARK Flexibility Score: inf
ROOT
ATOM      1  C   UNL     1       4.472   0.065  -5.345  1.00  0.00     0.000 C 
ENDROOT
BRANCH   1   2
ATOM      2  C   UNL     1       6.001   0.241  -5.281  1.00  0.00     0.000 C 
BRANCH   2   3
ATOM      3  C   UNL     1       6.735  -0.466  -6.430  1.00  0.00     0.000 C 
BRANCH   3   4
ATOM      4  C   UNL     1       7.135  -1.891  -6.032  1.00  0.00     0.000 C 
BRANCH   4   5
ATOM      5  C   UNL     1       6.133  -2.918  -6.578  1.00  0.00     0.006 C 
BRANCH   5   6
ATOM      6  C   UNL     1       5.704  -3.935  -5.512  1.00  0.00     0.053 C 
BRANCH   6   7
ATOM      7  C   UNL     1       6.769  -4.957  -5.258  1.00  0.00     0.041 C 
ATOM      8  O   UNL     1       7.215  -5.657  -6.204  1.00  0.00    -0.550 OA
ATOM      9  O   UNL     1       7.247  -5.158  -3.968  1.00  0.00    -0.550 OA
ENDBRANCH   6   7
ENDBRANCH   5   6
ENDBRANCH   4   5
ENDBRANCH   3   4
ENDBRANCH   2   3
ENDBRANCH   1   2
BRANCH   1  10
ATOM     10  C   UNL     1       3.747   0.994  -6.335  1.00  0.00     0.000 C 
BRANCH  10  11
ATOM     11  C   UNL     1       4.506   2.308  -6.585  1.00  0.00    -0.000 C 
BRANCH  11  12
ATOM     12  C   UNL     1       4.458   2.754  -8.057  1.00  0.00    -0.000 C 
BRANCH  12  13
ATOM     13  C   UNL     1       4.826   1.664  -9.083  1.00  0.00    -0.000 C 
BRANCH  13  14
ATOM     14  C   UNL     1       3.664   1.271 -10.019  1.00  0.00    -0.000 C 
BRANCH  14  15
ATOM     15  C   UNL     1       3.373  -0.237  -9.984  1.00  0.00    -0.003 C 
ATOM     16  C   UNL     1       4.521  -1.005  -9.336  1.00  0.00     0.004 C 
ENDBRANCH  14  15
ENDBRANCH  13  14
ENDBRANCH  12  13
ENDBRANCH  11  12
ENDBRANCH  10  11
ENDBRANCH   1  10
TORSDOF 12
ENDMDL
MODEL 2
REMARK VINA RESULT:    -3.860      1.354      2.848
REMARK INTER + INTRA:          -8.028
REMARK INTER:                  -6.114
REMARK INTRA:                  -1.914
REMARK UNBOUND:                -1.459
REMARK SMILES CCCCCCCCCCCCCC(=O)[O-]
REMARK SMILES IDX 8 1 9 2 10 3 11 4 12 5 13 6 14 7 15 8 16 9 7 10 6 11 5 12
REMARK SMILES IDX 4 13 3 14 2 15 1 16
REMARK H PARENT
REMARK Flexibility Score: inf
ROOT
ATOM      1  C   UNL     1       8.016   0.698  -6.939  1.00  0.00     0.000 C 
ENDROOT
BRANCH   1   2
ATOM      2  C   UNL     1       8.935  -0.371  -7.558  1.00  0.00     0.000 C 
BRANCH   2   3
ATOM      3  C   UNL     1       8.352  -1.789  -7.469  1.00  0.00     0.000 C 
BRANCH   3   4
ATOM      4  C   UNL     1       7.374  -1.908  -6.294  1.00  0.00     0.000 C 
BRANCH   4   5
ATOM      5  C   UNL     1       6.159  -2.769  -6.673  1.00  0.00     0.006 C 
BRANCH   5   6
ATOM      6  C   UNL     1       5.689  -3.653  -5.510  1.00  0.00     0.053 C 
BRANCH   6   7
ATOM      7  C   UNL     1       6.649  -4.770  -5.237  1.00  0.00     0.041 C 
ATOM      8  O   UNL     1       7.021  -5.528  -6.171  1.00  0.00    -0.550 OA
ATOM      9  O   UNL     1       7.107  -4.994  -3.945  1.00  0.00    -0.550 OA
ENDBRANCH   6   7
ENDBRANCH   5   6
ENDBRANCH   4   5
ENDBRANCH   3   4
ENDBRANCH   2   3
ENDBRANCH   1   2
BRANCH   1  10
ATOM     10  C   UNL     1       7.354   1.654  -7.947  1.00  0.00     0.000 C 
BRANCH  10  11
ATOM     11  C   UNL     1       6.484   0.921  -8.982  1.00  0.00    -0.000 C 
BRANCH  11  12
ATOM     12  C   UNL     1       5.154   0.417  -8.394  1.00  0.00    -0.000 C 
BRANCH  12  13
ATOM     13  C   UNL     1       4.162   1.522  -7.981  1.00  0.00    -0.000 C 
BRANCH  13  14
ATOM     14  C   UNL     1       3.941   1.625  -6.457  1.00  0.00    -0.000 C 
BRANCH  14  15
ATOM     15  C   UNL     1       4.422   0.369  -5.715  1.00  0.00    -0.003 C 
ATOM     16  C   UNL     1       5.382   0.730  -4.585  1.00  0.00     0.004 C 
ENDBRANCH  14  15
ENDBRANCH  13  14
ENDBRANCH  12  13
ENDBRANCH  11  12
ENDBRANCH  10  11
ENDBRANCH   1  10
TORSDOF 12
ENDMDL
MODEL 3
REMARK VINA RESULT:    -3.792      1.408      2.389
REMARK INTER + INTRA:          -7.912
REMARK INTER:                  -6.354
REMARK INTRA:                  -1.558
REMARK UNBOUND:                -1.459
REMARK SMILES CCCCCCCCCCCCCC(=O)[O-]
REMARK SMILES IDX 8 1 9 2 10 3 11 4 12 5 13 6 14 7 15 8 16 9 7 10 6 11 5 12
REMARK SMILES IDX 4 13 3 14 2 15 1 16
REMARK H PARENT
REMARK Flexibility Score: inf
ROOT
ATOM      1  C   UNL     1       5.224   1.078  -5.183  1.00  0.00     0.000 C 
ENDROOT
BRANCH   1   2
ATOM      2  C   UNL     1       4.993  -0.437  -5.332  1.00  0.00     0.000 C 
BRANCH   2   3
ATOM      3  C   UNL     1       6.288  -1.219  -5.594  1.00  0.00     0.000 C 
BRANCH   3   4
ATOM      4  C   UNL     1       6.020  -2.446  -6.473  1.00  0.00     0.000 C 
BRANCH   4   5
ATOM      5  C   UNL     1       5.615  -3.658  -5.621  1.00  0.00     0.006 C 
BRANCH   5   6
ATOM      6  C   UNL     1       6.812  -4.282  -4.891  1.00  0.00     0.053 C 
BRANCH   6   7
ATOM      7  C   UNL     1       7.352  -5.471  -5.624  1.00  0.00     0.041 C 
ATOM      8  O   UNL     1       7.097  -5.631  -6.846  1.00  0.00    -0.550 OA
ATOM      9  O   UNL     1       8.109  -6.420  -4.949  1.00  0.00    -0.550 OA
ENDBRANCH   6   7
ENDBRANCH   5   6
ENDBRANCH   4   5
ENDBRANCH   3   4
ENDBRANCH   2   3
ENDBRANCH   1   2
BRANCH   1  10
ATOM     10  C   UNL     1       4.713   1.936  -6.355  1.00  0.00     0.000 C 
BRANCH  10  11
ATOM     11  C   UNL     1       4.042   1.100  -7.458  1.00  0.00    -0.000 C 
BRANCH  11  12
ATOM     12  C   UNL     1       4.894   1.003  -8.735  1.00  0.00    -0.000 C 
BRANCH  12  13
ATOM     13  C   UNL     1       5.959   2.105  -8.896  1.00  0.00    -0.000 C 
BRANCH  13  14
ATOM     14  C   UNL     1       7.359   1.571  -9.262  1.00  0.00    -0.000 C 
BRANCH  14  15
ATOM     15  C   UNL     1       7.979   0.740  -8.128  1.00  0.00    -0.003 C 
ATOM     16  C   UNL     1       8.402   1.627  -6.961  1.00  0.00     0.004 C 
ENDBRANCH  14  15
ENDBRANCH  13  14
ENDBRANCH  12  13
ENDBRANCH  11  12
ENDBRANCH  10  11
ENDBRANCH   1  10
TORSDOF 12
ENDMDL
MODEL 4
REMARK VINA RESULT:    -3.780      1.332      3.346
REMARK INTER + INTRA:          -7.891
REMARK INTER:                  -6.044
REMARK INTRA:                  -1.846
REMARK UNBOUND:                -1.459
REMARK SMILES CCCCCCCCCCCCCC(=O)[O-]
REMARK SMILES IDX 8 1 9 2 10 3 11 4 12 5 13 6 14 7 15 8 16 9 7 10 6 11 5 12
REMARK SMILES IDX 4 13 3 14 2 15 1 16
REMARK H PARENT
REMARK Flexibility Score: inf
ROOT
ATOM      1  C   UNL     1       3.962   0.374  -8.995  1.00  0.00     0.000 C 
ENDROOT
BRANCH   1   2
ATOM      2  C   UNL     1       5.084  -0.586  -9.432  1.00  0.00     0.000 C 
BRANCH   2   3
ATOM      3  C   UNL     1       4.884  -2.018  -8.915  1.00  0.00     0.000 C 
BRANCH   3   4
ATOM      4  C   UNL     1       6.231  -2.707  -8.671  1.00  0.00     0.000 C 
BRANCH   4   5
ATOM      5  C   UNL     1       6.060  -3.959  -7.797  1.00  0.00     0.006 C 
BRANCH   5   6
ATOM      6  C   UNL     1       7.122  -4.047  -6.694  1.00  0.00     0.053 C 
BRANCH   6   7
ATOM      7  C   UNL     1       6.508  -4.283  -5.348  1.00  0.00     0.041 C 
ATOM      8  O   UNL     1       5.306  -3.976  -5.138  1.00  0.00    -0.550 OA
ATOM      9  O   UNL     1       7.274  -4.813  -4.317  1.00  0.00    -0.550 OA
ENDBRANCH   6   7
ENDBRANCH   5   6
ENDBRANCH   4   5
ENDBRANCH   3   4
ENDBRANCH   2   3
ENDBRANCH   1   2
BRANCH   1  10
ATOM     10  C   UNL     1       4.439   1.678  -8.329  1.00  0.00     0.000 C 
BRANCH  10  11
ATOM     11  C   UNL     1       3.878   1.862  -6.909  1.00  0.00    -0.000 C 
BRANCH  11  12
ATOM     12  C   UNL     1       4.109   0.633  -6.012  1.00  0.00    -0.000 C 
BRANCH  12  13
ATOM     13  C   UNL     1       5.434   0.639  -5.224  1.00  0.00    -0.000 C 
BRANCH  13  14
ATOM     14  C   UNL     1       6.393  -0.506  -5.608  1.00  0.00    -0.000 C 
BRANCH  14  15
ATOM     15  C   UNL     1       7.445  -0.064  -6.636  1.00  0.00    -0.003 C 
ATOM     16  C   UNL     1       7.641   1.449  -6.608  1.00  0.00     0.004 C 
ENDBRANCH  14  15
ENDBRANCH  13  14
ENDBRANCH  12  13
ENDBRANCH  11  12
ENDBRANCH  10  11
ENDBRANCH   1  10
TORSDOF 12
ENDMDL
MODEL 5
REMARK VINA RESULT:    -3.741      1.524      3.024
REMARK INTER + INTRA:          -7.825
REMARK INTER:                  -6.012
REMARK INTRA:                  -1.813
REMARK UNBOUND:                -1.459
REMARK SMILES CCCCCCCCCCCCCC(=O)[O-]
REMARK SMILES IDX 8 1 9 2 10 3 11 4 12 5 13 6 14 7 15 8 16 9 7 10 6 11 5 12
REMARK SMILES IDX 4 13 3 14 2 15 1 16
REMARK H PARENT
REMARK Flexibility Score: inf
ROOT
ATOM      1  C   UNL     1       7.372  -0.178  -6.660  1.00  0.00     0.000 C 
ENDROOT
BRANCH   1   2
ATOM      2  C   UNL     1       7.343  -1.065  -7.919  1.00  0.00     0.000 C 
BRANCH   2   3
ATOM      3  C   UNL     1       5.935  -1.220  -8.511  1.00  0.00     0.000 C 
BRANCH   3   4
ATOM      4  C   UNL     1       5.489  -2.687  -8.492  1.00  0.00     0.000 C 
BRANCH   4   5
ATOM      5  C   UNL     1       6.560  -3.580  -7.847  1.00  0.00     0.006 C 
BRANCH   5   6
ATOM      6  C   UNL     1       6.025  -4.337  -6.624  1.00  0.00     0.053 C 
BRANCH   6   7
ATOM      7  C   UNL     1       7.104  -4.602  -5.619  1.00  0.00     0.041 C 
ATOM      8  O   UNL     1       7.035  -4.097  -4.468  1.00  0.00    -0.550 OA
ATOM      9  O   UNL     1       8.202  -5.380  -5.965  1.00  0.00    -0.550 OA
ENDBRANCH   6   7
ENDBRANCH   5   6
ENDBRANCH   4   5
ENDBRANCH   3   4
ENDBRANCH   2   3
ENDBRANCH   1   2
BRANCH   1  10
ATOM     10  C   UNL     1       6.476  -0.655  -5.503  1.00  0.00     0.000 C 
BRANCH  10  11
ATOM     11  C   UNL     1       5.473   0.417  -5.044  1.00  0.00    -0.000 C 
BRANCH  11  12
ATOM     12  C   UNL     1       4.114   0.307  -5.757  1.00  0.00    -0.000 C 
BRANCH  12  13
ATOM     13  C   UNL     1       3.778   1.474  -6.706  1.00  0.00    -0.000 C 
BRANCH  13  14
ATOM     14  C   UNL     1       4.801   2.628  -6.663  1.00  0.00    -0.000 C 
BRANCH  14  15
ATOM     15  C   UNL     1       5.567   2.776  -7.986  1.00  0.00    -0.003 C 
ATOM     16  C   UNL     1       6.926   3.434  -7.765  1.00  0.00     0.004 C 
ENDBRANCH  14  15
ENDBRANCH  13  14
ENDBRANCH  12  13
ENDBRANCH  11  12
ENDBRANCH  10  11
ENDBRANCH   1  10
TORSDOF 12
ENDMDL
MODEL 6
REMARK VINA RESULT:    -3.716      1.375      2.327
REMARK INTER + INTRA:          -7.782
REMARK INTER:                  -6.321
REMARK INTRA:                  -1.461
REMARK UNBOUND:                -1.459
REMARK SMILES CCCCCCCCCCCCCC(=O)[O-]
REMARK SMILES IDX 8 1 9 2 10 3 11 4 12 5 13 6 14 7 15 8 16 9 7 10 6 11 5 12
REMARK SMILES IDX 4 13 3 14 2 15 1 16
REMARK H PARENT
REMARK Flexibility Score: inf
ROOT
ATOM      1  C   UNL     1       5.356  -0.743  -5.644  1.00  0.00     0.000 C 
ENDROOT
BRANCH   1   2
ATOM      2  C   UNL     1       6.836  -0.856  -6.052  1.00  0.00     0.000 C 
BRANCH   2   3
ATOM      3  C   UNL     1       7.050  -1.723  -7.302  1.00  0.00     0.000 C 
BRANCH   3   4
ATOM      4  C   UNL     1       5.788  -2.527  -7.635  1.00  0.00     0.000 C 
BRANCH   4   5
ATOM      5  C   UNL     1       5.992  -4.020  -7.338  1.00  0.00     0.006 C 
BRANCH   5   6
ATOM      6  C   UNL     1       5.813  -4.348  -5.850  1.00  0.00     0.053 C 
BRANCH   6   7
ATOM      7  C   UNL     1       7.084  -4.843  -5.233  1.00  0.00     0.041 C 
ATOM      8  O   UNL     1       8.108  -5.017  -5.945  1.00  0.00    -0.550 OA
ATOM      9  O   UNL     1       7.129  -5.144  -3.877  1.00  0.00    -0.550 OA
ENDBRANCH   6   7
ENDBRANCH   5   6
ENDBRANCH   4   5
ENDBRANCH   3   4
ENDBRANCH   2   3
ENDBRANCH   1   2
BRANCH   1  10
ATOM     10  C   UNL     1       4.872   0.684  -5.325  1.00  0.00     0.000 C 
BRANCH  10  11
ATOM     11  C   UNL     1       3.871   1.219  -6.363  1.00  0.00    -0.000 C 
BRANCH  11  12
ATOM     12  C   UNL     1       4.404   1.138  -7.804  1.00  0.00    -0.000 C 
BRANCH  12  13
ATOM     13  C   UNL     1       4.815   2.487  -8.426  1.00  0.00    -0.000 C 
BRANCH  13  14
ATOM     14  C   UNL     1       5.828   3.283  -7.576  1.00  0.00    -0.000 C 
BRANCH  14  15
ATOM     15  C   UNL     1       7.187   2.575  -7.477  1.00  0.00    -0.003 C 
ATOM     16  C   UNL     1       7.709   2.189  -8.858  1.00  0.00     0.004 C 
ENDBRANCH  14  15
ENDBRANCH  13  14
ENDBRANCH  12  13
ENDBRANCH  11  12
ENDBRANCH  10  11
ENDBRANCH   1  10
TORSDOF 12
ENDMDL
MODEL 7
REMARK VINA RESULT:    -3.663      1.782      3.058
REMARK INTER + INTRA:          -7.692
REMARK INTER:                  -5.946
REMARK INTRA:                  -1.746
REMARK UNBOUND:                -1.459
REMARK SMILES CCCCCCCCCCCCCC(=O)[O-]
REMARK SMILES IDX 8 1 9 2 10 3 11 4 12 5 13 6 14 7 15 8 16 9 7 10 6 11 5 12
REMARK SMILES IDX 4 13 3 14 2 15 1 16
REMARK H PARENT
REMARK Flexibility Score: inf
ROOT
ATOM      1  C   UNL     1       4.015   1.118  -7.401  1.00  0.00     0.000 C 
ENDROOT
BRANCH   1   2
ATOM      2  C   UNL     1       4.502   1.890  -6.161  1.00  0.00     0.000 C 
BRANCH   2   3
ATOM      3  C   UNL     1       5.283   1.011  -5.175  1.00  0.00     0.000 C 
BRANCH   3   4
ATOM      4  C   UNL     1       4.947  -0.471  -5.374  1.00  0.00     0.000 C 
BRANCH   4   5
ATOM      5  C   UNL     1       6.221  -1.299  -5.605  1.00  0.00     0.006 C 
BRANCH   5   6
ATOM      6  C   UNL     1       5.971  -2.505  -6.520  1.00  0.00     0.053 C 
BRANCH   6   7
ATOM      7  C   UNL     1       6.432  -3.784  -5.891  1.00  0.00     0.041 C 
ATOM      8  O   UNL     1       6.178  -4.888  -6.440  1.00  0.00    -0.550 OA
ATOM      9  O   UNL     1       7.114  -3.758  -4.681  1.00  0.00    -0.550 OA
ENDBRANCH   6   7
ENDBRANCH   5   6
ENDBRANCH   4   5
ENDBRANCH   3   4
ENDBRANCH   2   3
ENDBRANCH   1   2
BRANCH   1  10
ATOM     10  C   UNL     1       4.623   1.578  -8.739  1.00  0.00     0.000 C 
BRANCH  10  11
ATOM     11  C   UNL     1       4.422   3.080  -8.999  1.00  0.00    -0.000 C 
BRANCH  11  12
ATOM     12  C   UNL     1       5.743   3.819  -9.280  1.00  0.00    -0.000 C 
BRANCH  12  13
ATOM     13  C   UNL     1       6.588   4.144  -8.033  1.00  0.00    -0.000 C 
BRANCH  13  14
ATOM     14  C   UNL     1       7.995   3.510  -8.050  1.00  0.00    -0.000 C 
BRANCH  14  15
ATOM     15  C   UNL     1       8.111   2.326  -7.078  1.00  0.00    -0.003 C 
ATOM     16  C   UNL     1       8.135   0.998  -7.828  1.00  0.00     0.004 C 
ENDBRANCH  14  15
ENDBRANCH  13  14
ENDBRANCH  12  13
ENDBRANCH  11  12
ENDBRANCH  10  11
ENDBRANCH   1  10
TORSDOF 12
ENDMDL
MODEL 8
REMARK VINA RESULT:    -3.614      1.504      3.588
REMARK INTER + INTRA:          -7.609
REMARK INTER:                  -6.082
REMARK INTRA:                  -1.527
REMARK UNBOUND:                -1.459
REMARK SMILES CCCCCCCCCCCCCC(=O)[O-]
REMARK SMILES IDX 8 1 9 2 10 3 11 4 12 5 13 6 14 7 15 8 16 9 7 10 6 11 5 12
REMARK SMILES IDX 4 13 3 14 2 15 1 16
REMARK H PARENT
REMARK Flexibility Score: inf
ROOT
ATOM      1  C   UNL     1       5.277  -1.404  -8.670  1.00  0.00     0.000 C 
ENDROOT
BRANCH   1   2
ATOM      2  C   UNL     1       5.362  -2.694  -9.506  1.00  0.00     0.000 C 
BRANCH   2   3
ATOM      3  C   UNL     1       5.239  -3.968  -8.657  1.00  0.00     0.000 C 
BRANCH   3   4
ATOM      4  C   UNL     1       6.595  -4.670  -8.522  1.00  0.00     0.000 C 
BRANCH   4   5
ATOM      5  C   UNL     1       7.373  -4.139  -7.309  1.00  0.00     0.006 C 
BRANCH   5   6
ATOM      6  C   UNL     1       7.723  -5.251  -6.311  1.00  0.00     0.053 C 
BRANCH   6   7
ATOM      7  C   UNL     1       6.995  -5.082  -5.013  1.00  0.00     0.041 C 
ATOM      8  O   UNL     1       7.365  -5.718  -3.991  1.00  0.00    -0.550 OA
ATOM      9  O   UNL     1       5.887  -4.246  -4.940  1.00  0.00    -0.550 OA
ENDBRANCH   6   7
ENDBRANCH   5   6
ENDBRANCH   4   5
ENDBRANCH   3   4
ENDBRANCH   2   3
ENDBRANCH   1   2
BRANCH   1  10
ATOM     10  C   UNL     1       6.632  -0.775  -8.298  1.00  0.00     0.000 C 
BRANCH  10  11
ATOM     11  C   UNL     1       6.732  -0.412  -6.807  1.00  0.00    -0.000 C 
BRANCH  11  12
ATOM     12  C   UNL     1       5.615  -1.048  -5.961  1.00  0.00    -0.000 C 
BRANCH  12  13
ATOM     13  C   UNL     1       4.625  -0.049  -5.329  1.00  0.00    -0.000 C 
BRANCH  13  14
ATOM     14  C   UNL     1       4.886   1.420  -5.721  1.00  0.00    -0.000 C 
BRANCH  14  15
ATOM     15  C   UNL     1       3.769   1.994  -6.605  1.00  0.00    -0.003 C 
ATOM     16  C   UNL     1       4.219   2.108  -8.058  1.00  0.00     0.004 C 
ENDBRANCH  14  15
ENDBRANCH  13  14
ENDBRANCH  12  13
ENDBRANCH  11  12
ENDBRANCH  10  11
ENDBRANCH   1  10
TORSDOF 12
ENDMDL
MODEL 9
REMARK VINA RESULT:    -3.562      1.197      2.994
REMARK INTER + INTRA:          -7.520
REMARK INTER:                  -5.991
REMARK INTRA:                  -1.529
REMARK UNBOUND:                -1.459
REMARK SMILES CCCCCCCCCCCCCC(=O)[O-]
REMARK SMILES IDX 8 1 9 2 10 3 11 4 12 5 13 6 14 7 15 8 16 9 7 10 6 11 5 12
REMARK SMILES IDX 4 13 3 14 2 15 1 16
REMARK H PARENT
REMARK Flexibility Score: inf
ROOT
ATOM      1  C   UNL     1       4.857  -0.954  -8.853  1.00  0.00     0.000 C 
ENDROOT
BRANCH   1   2
ATOM      2  C   UNL     1       6.356  -1.110  -8.538  1.00  0.00     0.000 C 
BRANCH   2   3
ATOM      3  C   UNL     1       6.782  -2.574  -8.359  1.00  0.00     0.000 C 
BRANCH   3   4
ATOM      4  C   UNL     1       5.568  -3.509  -8.402  1.00  0.00     0.000 C 
BRANCH   4   5
ATOM      5  C   UNL     1       5.573  -4.474  -7.206  1.00  0.00     0.006 C 
BRANCH   5   6
ATOM      6  C   UNL     1       6.089  -3.808  -5.924  1.00  0.00     0.053 C 
BRANCH   6   7
ATOM      7  C   UNL     1       7.111  -4.656  -5.231  1.00  0.00     0.041 C 
ATOM      8  O   UNL     1       7.020  -4.874  -3.994  1.00  0.00    -0.550 OA
ATOM      9  O   UNL     1       8.182  -5.179  -5.945  1.00  0.00    -0.550 OA
ENDBRANCH   6   7
ENDBRANCH   5   6
ENDBRANCH   4   5
ENDBRANCH   3   4
ENDBRANCH   2   3
ENDBRANCH   1   2
BRANCH   1  10
ATOM     10  C   UNL     1       4.510   0.174  -9.842  1.00  0.00     0.000 C 
BRANCH  10  11
ATOM     11  C   UNL     1       4.068   1.469  -9.139  1.00  0.00    -0.000 C 
BRANCH  11  12
ATOM     12  C   UNL     1       5.254   2.347  -8.705  1.00  0.00    -0.000 C 
BRANCH  12  13
ATOM     13  C   UNL     1       5.209   2.831  -7.242  1.00  0.00    -0.000 C 
BRANCH  13  14
ATOM     14  C   UNL     1       4.343   1.947  -6.320  1.00  0.00    -0.000 C 
BRANCH  14  15
ATOM     15  C   UNL     1       5.193   1.046  -5.412  1.00  0.00    -0.003 C 
ATOM     16  C   UNL     1       4.572  -0.342  -5.275  1.00  0.00     0.004 C 
ENDBRANCH  14  15
ENDBRANCH  13  14
ENDBRANCH  12  13
ENDBRANCH  11  12
ENDBRANCH  10  11
ENDBRANCH   1  10
TORSDOF 12
ENDMDL
