MODEL 1
REMARK VINA RESULT:    -4.840      0.000      0.000
REMARK INTER + INTRA:          -4.840
REMARK INTER:                  -4.840
REMARK INTRA:                   0.000
REMARK UNBOUND:                 0.000
REMARK SMILES CC(C)=C1CC[C@@H](C)CC1=O
REMARK SMILES IDX 8 1 7 2 6 3 5 4 4 5 2 6 1 7 3 8 10 9 11 10 9 11
REMARK H PARENT
REMARK Flexibility Score: inf
ROOT
ATOM      1  C   UNL     1     -12.066 -21.823  24.920  1.00  0.00     0.008 C 
ATOM      2  C   UNL     1     -13.187 -22.873  24.966  1.00  0.00    -0.006 C 
ATOM      3  C   UNL     1     -13.573 -23.376  23.564  1.00  0.00     0.008 C 
ATOM      4  C   UNL     1     -14.234 -22.292  22.697  1.00  0.00     0.039 C 
ATOM      5  C   UNL     1     -15.361 -21.562  23.416  1.00  0.00    -0.006 C 
ATOM      6  C   UNL     1     -16.420 -21.045  22.725  1.00  0.00    -0.070 C 
ATOM      7  C   UNL     1     -17.573 -20.367  23.428  1.00  0.00     0.039 C 
ATOM      8  C   UNL     1     -16.507 -21.161  21.220  1.00  0.00     0.039 C 
ATOM      9  C   UNL     1     -15.180 -21.343  24.881  1.00  0.00     0.159 C 
ATOM     10  O   UNL     1     -15.637 -20.318  25.451  1.00  0.00    -0.295 OA
ATOM     11  C   UNL     1     -14.429 -22.350  25.704  1.00  0.00     0.084 C 
ENDROOT
TORSDOF 0
ENDMDL
MODEL 2
REMARK VINA RESULT:    -4.691      9.054     10.181
REMARK INTER + INTRA:          -4.691
REMARK INTER:                  -4.691
REMARK INTRA:                   0.000
REMARK UNBOUND:                 0.000
REMARK SMILES CC(C)=C1CC[C@@H](C)CC1=O
REMARK SMILES IDX 8 1 7 2 6 3 5 4 4 5 2 6 1 7 3 8 10 9 11 10 9 11
REMARK H PARENT
REMARK Flexibility Score: inf
ROOT
ATOM      1  C   UNL     1     -20.111 -27.604  25.696  1.00  0.00     0.008 C 
ATOM      2  C   UNL     1     -19.990 -28.712  26.753  1.00  0.00    -0.006 C 
ATOM      3  C   UNL     1     -18.568 -28.814  27.333  1.00  0.00     0.008 C 
ATOM      4  C   UNL     1     -17.531 -29.290  26.303  1.00  0.00     0.039 C 
ATOM      5  C   UNL     1     -17.973 -30.537  25.547  1.00  0.00    -0.006 C 
ATOM      6  C   UNL     1     -17.061 -31.438  25.079  1.00  0.00    -0.070 C 
ATOM      7  C   UNL     1     -17.485 -32.707  24.376  1.00  0.00     0.039 C 
ATOM      8  C   UNL     1     -15.576 -31.225  25.274  1.00  0.00     0.039 C 
ATOM      9  C   UNL     1     -19.432 -30.649  25.251  1.00  0.00     0.159 C 
ATOM     10  O   UNL     1     -19.845 -31.209  24.202  1.00  0.00    -0.295 OA
ATOM     11  C   UNL     1     -20.440 -30.075  26.205  1.00  0.00     0.084 C 
ENDROOT
TORSDOF 0
ENDMDL
MODEL 3
REMARK VINA RESULT:    -4.589      2.799      4.009
REMARK INTER + INTRA:          -4.589
REMARK INTER:                  -4.589
REMARK INTRA:                   0.000
REMARK UNBOUND:                 0.000
REMARK SMILES CC(C)=C1CC[C@@H](C)CC1=O
REMARK SMILES IDX 8 1 7 2 6 3 5 4 4 5 2 6 1 7 3 8 10 9 11 10 9 11
REMARK H PARENT
REMARK Flexibility Score: inf
ROOT
ATOM      1  C   UNL     1     -14.494 -22.540  24.713  1.00  0.00     0.008 C 
ATOM      2  C   UNL     1     -14.365 -21.209  23.957  1.00  0.00    -0.006 C 
ATOM      3  C   UNL     1     -15.260 -21.159  22.707  1.00  0.00     0.008 C 
ATOM      4  C   UNL     1     -14.825 -22.149  21.615  1.00  0.00     0.039 C 
ATOM      5  C   UNL     1     -13.336 -22.073  21.303  1.00  0.00    -0.006 C 
ATOM      6  C   UNL     1     -12.860 -22.366  20.057  1.00  0.00    -0.070 C 
ATOM      7  C   UNL     1     -11.393 -22.242  19.716  1.00  0.00     0.039 C 
ATOM      8  C   UNL     1     -13.789 -22.796  18.943  1.00  0.00     0.039 C 
ATOM      9  C   UNL     1     -12.432 -21.781  22.455  1.00  0.00     0.159 C 
ATOM     10  O   UNL     1     -11.271 -22.264  22.514  1.00  0.00    -0.295 OA
ATOM     11  C   UNL     1     -12.907 -20.906  23.580  1.00  0.00     0.084 C 
ENDROOT
TORSDOF 0
ENDMDL
MODEL 4
REMARK VINA RESULT:    -4.577      2.266      3.337
REMARK INTER + INTRA:          -4.577
REMARK INTER:                  -4.577
REMARK INTRA:                   0.000
REMARK UNBOUND:                 0.000
REMARK SMILES CC(C)=C1CC[C@@H](C)CC1=O
REMARK SMILES IDX 8 1 7 2 6 3 5 4 4 5 2 6 1 7 3 8 10 9 11 10 9 11
REMARK H PARENT
REMARK Flexibility Score: inf
ROOT
ATOM      1  C   UNL     1     -11.448 -22.966  21.877  1.00  0.00     0.008 C 
ATOM      2  C   UNL     1     -11.764 -21.482  21.633  1.00  0.00    -0.006 C 
ATOM      3  C   UNL     1     -11.839 -20.679  22.944  1.00  0.00     0.008 C 
ATOM      4  C   UNL     1     -13.029 -21.082  23.830  1.00  0.00     0.039 C 
ATOM      5  C   UNL     1     -14.347 -21.131  23.068  1.00  0.00    -0.006 C 
ATOM      6  C   UNL     1     -15.532 -20.869  23.692  1.00  0.00    -0.070 C 
ATOM      7  C   UNL     1     -16.843 -20.859  22.939  1.00  0.00     0.039 C 
ATOM      8  C   UNL     1     -15.586 -20.538  25.167  1.00  0.00     0.039 C 
ATOM      9  C   UNL     1     -14.275 -21.595  21.650  1.00  0.00     0.159 C 
ATOM     10  O   UNL     1     -15.218 -22.245  21.127  1.00  0.00    -0.295 OA
ATOM     11  C   UNL     1     -13.057 -21.300  20.824  1.00  0.00     0.084 C 
ENDROOT
TORSDOF 0
ENDMDL
MODEL 5
REMARK VINA RESULT:    -4.574      2.831      3.778
REMARK INTER + INTRA:          -4.574
REMARK INTER:                  -4.574
REMARK INTRA:                   0.000
REMARK UNBOUND:                 0.000
REMARK SMILES CC(C)=C1CC[C@@H](C)CC1=O
REMARK SMILES IDX 8 1 7 2 6 3 5 4 4 5 2 6 1 7 3 8 10 9 11 10 9 11
REMARK H PARENT
REMARK Flexibility Score: inf
ROOT
ATOM      1  C   UNL     1     -10.813 -21.089  19.913  1.00  0.00     0.008 C 
ATOM      2  C   UNL     1     -11.341 -22.512  20.154  1.00  0.00    -0.006 C 
ATOM      3  C   UNL     1     -12.763 -22.708  19.598  1.00  0.00     0.008 C 
ATOM      4  C   UNL     1     -13.821 -21.880  20.345  1.00  0.00     0.039 C 
ATOM      5  C   UNL     1     -13.732 -22.029  21.858  1.00  0.00    -0.006 C 
ATOM      6  C   UNL     1     -14.842 -21.914  22.644  1.00  0.00    -0.070 C 
ATOM      7  C   UNL     1     -14.781 -22.113  24.141  1.00  0.00     0.039 C 
ATOM      8  C   UNL     1     -16.199 -21.615  22.047  1.00  0.00     0.039 C 
ATOM      9  C   UNL     1     -12.361 -22.186  22.428  1.00  0.00     0.159 C 
ATOM     10  O   UNL     1     -12.069 -21.724  23.562  1.00  0.00    -0.295 OA
ATOM     11  C   UNL     1     -11.296 -22.893  21.641  1.00  0.00     0.084 C 
ENDROOT
TORSDOF 0
ENDMDL
MODEL 6
REMARK VINA RESULT:    -4.520      2.960      4.248
REMARK INTER + INTRA:          -4.520
REMARK INTER:                  -4.520
REMARK INTRA:                   0.000
REMARK UNBOUND:                 0.000
REMARK SMILES CC(C)=C1CC[C@@H](C)CC1=O
REMARK SMILES IDX 8 1 7 2 6 3 5 4 4 5 2 6 1 7 3 8 10 9 11 10 9 11
REMARK H PARENT
REMARK Flexibility Score: inf
ROOT
ATOM      1  C   UNL     1     -11.058 -22.858  19.394  1.00  0.00     0.008 C 
ATOM      2  C   UNL     1     -10.760 -21.942  20.591  1.00  0.00    -0.006 C 
ATOM      3  C   UNL     1     -10.540 -22.735  21.891  1.00  0.00     0.008 C 
ATOM      4  C   UNL     1     -11.811 -23.445  22.385  1.00  0.00     0.039 C 
ATOM      5  C   UNL     1     -13.026 -22.527  22.428  1.00  0.00    -0.006 C 
ATOM      6  C   UNL     1     -14.025 -22.722  23.337  1.00  0.00    -0.070 C 
ATOM      7  C   UNL     1     -15.210 -21.787  23.430  1.00  0.00     0.039 C 
ATOM      8  C   UNL     1     -13.976 -23.866  24.325  1.00  0.00     0.039 C 
ATOM      9  C   UNL     1     -13.112 -21.493  21.354  1.00  0.00     0.159 C 
ATOM     10  O   UNL     1     -14.223 -21.119  20.895  1.00  0.00    -0.295 OA
ATOM     11  C   UNL     1     -11.859 -20.888  20.790  1.00  0.00     0.084 C 
ENDROOT
TORSDOF 0
ENDMDL
MODEL 7
REMARK VINA RESULT:    -4.468      7.888     10.176
REMARK INTER + INTRA:          -4.468
REMARK INTER:                  -4.468
REMARK INTRA:                   0.000
REMARK UNBOUND:                 0.000
REMARK SMILES CC(C)=C1CC[C@@H](C)CC1=O
REMARK SMILES IDX 8 1 7 2 6 3 5 4 4 5 2 6 1 7 3 8 10 9 11 10 9 11
REMARK H PARENT
REMARK Flexibility Score: inf
ROOT
ATOM      1  C   UNL     1      -8.508 -17.617  22.030  1.00  0.00     0.008 C 
ATOM      2  C   UNL     1      -9.003 -16.570  23.040  1.00  0.00    -0.006 C 
ATOM      3  C   UNL     1      -8.196 -15.262  22.966  1.00  0.00     0.008 C 
ATOM      4  C   UNL     1      -6.737 -15.428  23.420  1.00  0.00     0.039 C 
ATOM      5  C   UNL     1      -6.609 -16.150  24.756  1.00  0.00    -0.006 C 
ATOM      6  C   UNL     1      -5.569 -15.889  25.601  1.00  0.00    -0.070 C 
ATOM      7  C   UNL     1      -5.457 -16.556  26.953  1.00  0.00     0.039 C 
ATOM      8  C   UNL     1      -4.494 -14.889  25.239  1.00  0.00     0.039 C 
ATOM      9  C   UNL     1      -7.606 -17.228  25.023  1.00  0.00     0.159 C 
ATOM     10  O   UNL     1      -7.301 -18.248  25.696  1.00  0.00    -0.295 OA
ATOM     11  C   UNL     1      -8.999 -17.117  24.475  1.00  0.00     0.084 C 
ENDROOT
TORSDOF 0
ENDMDL
MODEL 8
REMARK VINA RESULT:    -4.383      2.693      4.342
REMARK INTER + INTRA:          -4.383
REMARK INTER:                  -4.383
REMARK INTRA:                   0.000
REMARK UNBOUND:                 0.000
REMARK SMILES CC(C)=C1CC[C@@H](C)CC1=O
REMARK SMILES IDX 8 1 7 2 6 3 5 4 4 5 2 6 1 7 3 8 10 9 11 10 9 11
REMARK H PARENT
REMARK Flexibility Score: inf
ROOT
ATOM      1  C   UNL     1     -14.872 -20.628  24.196  1.00  0.00     0.008 C 
ATOM      2  C   UNL     1     -14.840 -22.140  23.922  1.00  0.00    -0.006 C 
ATOM      3  C   UNL     1     -13.505 -22.781  24.343  1.00  0.00     0.008 C 
ATOM      4  C   UNL     1     -12.317 -22.312  23.489  1.00  0.00     0.039 C 
ATOM      5  C   UNL     1     -12.590 -22.397  21.993  1.00  0.00    -0.006 C 
ATOM      6  C   UNL     1     -11.579 -22.619  21.103  1.00  0.00    -0.070 C 
ATOM      7  C   UNL     1     -11.840 -22.762  19.621  1.00  0.00     0.039 C 
ATOM      8  C   UNL     1     -10.146 -22.772  21.564  1.00  0.00     0.039 C 
ATOM      9  C   UNL     1     -13.988 -22.106  21.558  1.00  0.00     0.159 C 
ATOM     10  O   UNL     1     -14.227 -21.555  20.451  1.00  0.00    -0.295 OA
ATOM     11  C   UNL     1     -15.142 -22.459  22.451  1.00  0.00     0.084 C 
ENDROOT
TORSDOF 0
ENDMDL
MODEL 9
REMARK VINA RESULT:    -4.282      9.178     10.064
REMARK INTER + INTRA:          -4.282
REMARK INTER:                  -4.282
REMARK INTRA:                   0.000
REMARK UNBOUND:                 0.000
REMARK SMILES CC(C)=C1CC[C@@H](C)CC1=O
REMARK SMILES IDX 8 1 7 2 6 3 5 4 4 5 2 6 1 7 3 8 10 9 11 10 9 11
REMARK H PARENT
REMARK Flexibility Score: inf
ROOT
ATOM      1  C   UNL     1     -16.791 -33.462  25.666  1.00  0.00     0.008 C 
ATOM      2  C   UNL     1     -16.313 -32.157  25.011  1.00  0.00    -0.006 C 
ATOM      3  C   UNL     1     -15.854 -31.118  26.050  1.00  0.00     0.008 C 
ATOM      4  C   UNL     1     -17.004 -30.593  26.924  1.00  0.00     0.039 C 
ATOM      5  C   UNL     1     -18.215 -30.151  26.112  1.00  0.00    -0.006 C 
ATOM      6  C   UNL     1     -19.038 -29.157  26.557  1.00  0.00    -0.070 C 
ATOM      7  C   UNL     1     -20.211 -28.669  25.738  1.00  0.00     0.039 C 
ATOM      8  C   UNL     1     -18.793 -28.469  27.881  1.00  0.00     0.039 C 
ATOM      9  C   UNL     1     -18.509 -30.941  24.880  1.00  0.00     0.159 C 
ATOM     10  O   UNL     1     -19.691 -31.119  24.484  1.00  0.00    -0.295 OA
ATOM     11  C   UNL     1     -17.386 -31.553  24.093  1.00  0.00     0.084 C 
ENDROOT
TORSDOF 0
ENDMDL
