MODEL 1
REMARK VINA RESULT:    -4.211      0.000      0.000
REMARK INTER + INTRA:          -4.985
REMARK INTER:                  -4.950
REMARK INTRA:                  -0.035
REMARK UNBOUND:                -0.035
REMARK SMILES O=C([O-])CCC(=O)[O-]
REMARK SMILES IDX 4 1 2 2 1 3 3 4 5 5 6 6 7 7 8 8
REMARK H PARENT
REMARK Flexibility Score: inf
ROOT
ATOM      1  C   UNL     1      11.801  -3.153  10.774  1.00  0.00     0.059 C 
ENDROOT
BRANCH   1   2
ATOM      2  C   UNL     1      10.491  -3.130  10.047  1.00  0.00     0.042 C 
ATOM      3  O   UNL     1       9.633  -2.249  10.316  1.00  0.00    -0.550 OA
ATOM      4  O   UNL     1      10.201  -4.108   9.104  1.00  0.00    -0.550 OA
ENDBRANCH   1   2
BRANCH   1   5
ATOM      5  C   UNL     1      12.228  -1.749  11.216  1.00  0.00     0.059 C 
BRANCH   5   6
ATOM      6  C   UNL     1      13.581  -1.760  11.861  1.00  0.00     0.042 C 
ATOM      7  O   UNL     1      14.195  -0.679  12.059  1.00  0.00    -0.550 OA
ATOM      8  O   UNL     1      14.179  -2.966  12.204  1.00  0.00    -0.550 OA
ENDBRANCH   5   6
ENDBRANCH   1   5
TORSDOF 3
ENDMDL
MODEL 2
REMARK VINA RESULT:    -4.022      1.224      1.398
REMARK INTER + INTRA:          -4.762
REMARK INTER:                  -4.729
REMARK INTRA:                  -0.034
REMARK UNBOUND:                -0.035
REMARK SMILES O=C([O-])CCC(=O)[O-]
REMARK SMILES IDX 4 1 2 2 1 3 3 4 5 5 6 6 7 7 8 8
REMARK H PARENT
REMARK Flexibility Score: inf
ROOT
ATOM      1  C   UNL     1      12.825  -2.800  11.507  1.00  0.00     0.059 C 
ENDROOT
BRANCH   1   2
ATOM      2  C   UNL     1      11.506  -2.609  10.823  1.00  0.00     0.042 C 
ATOM      3  O   UNL     1      10.791  -1.609  11.097  1.00  0.00    -0.550 OA
ATOM      4  O   UNL     1      11.049  -3.555   9.916  1.00  0.00    -0.550 OA
ENDBRANCH   1   2
BRANCH   1   5
ATOM      5  C   UNL     1      13.488  -1.461  11.846  1.00  0.00     0.059 C 
BRANCH   5   6
ATOM      6  C   UNL     1      14.917  -1.641  12.261  1.00  0.00     0.042 C 
ATOM      7  O   UNL     1      15.704  -0.659  12.258  1.00  0.00    -0.550 OA
ATOM      8  O   UNL     1      15.388  -2.900  12.611  1.00  0.00    -0.550 OA
ENDBRANCH   5   6
ENDBRANCH   1   5
TORSDOF 3
ENDMDL
MODEL 3
REMARK VINA RESULT:    -4.012      1.229      4.383
REMARK INTER + INTRA:          -4.750
REMARK INTER:                  -4.716
REMARK INTRA:                  -0.034
REMARK UNBOUND:                -0.035
REMARK SMILES O=C([O-])CCC(=O)[O-]
REMARK SMILES IDX 4 1 2 2 1 3 3 4 5 5 6 6 7 7 8 8
REMARK H PARENT
REMARK Flexibility Score: inf
ROOT
ATOM      1  C   UNL     1      13.492  -1.492  11.868  1.00  0.00     0.059 C 
ENDROOT
BRANCH   1   2
ATOM      2  C   UNL     1      14.926  -1.670  12.266  1.00  0.00     0.042 C 
ATOM      3  O   UNL     1      15.709  -0.685  12.266  1.00  0.00    -0.550 OA
ATOM      4  O   UNL     1      15.405  -2.932  12.595  1.00  0.00    -0.550 OA
ENDBRANCH   1   2
BRANCH   1   5
ATOM      5  C   UNL     1      12.833  -2.828  11.513  1.00  0.00     0.059 C 
BRANCH   5   6
ATOM      6  C   UNL     1      11.518  -2.629  10.821  1.00  0.00     0.042 C 
ATOM      7  O   UNL     1      10.819  -1.612  11.071  1.00  0.00    -0.550 OA
ATOM      8  O   UNL     1      11.046  -3.587   9.933  1.00  0.00    -0.550 OA
ENDBRANCH   5   6
ENDBRANCH   1   5
TORSDOF 3
ENDMDL
MODEL 4
REMARK VINA RESULT:    -3.954      1.256      1.831
REMARK INTER + INTRA:          -4.682
REMARK INTER:                  -4.650
REMARK INTRA:                  -0.032
REMARK UNBOUND:                -0.035
REMARK SMILES O=C([O-])CCC(=O)[O-]
REMARK SMILES IDX 4 1 2 2 1 3 3 4 5 5 6 6 7 7 8 8
REMARK H PARENT
REMARK Flexibility Score: inf
ROOT
ATOM      1  C   UNL     1      12.857  -2.862  11.547  1.00  0.00     0.059 C 
ENDROOT
BRANCH   1   2
ATOM      2  C   UNL     1      11.548  -2.690  10.838  1.00  0.00     0.042 C 
ATOM      3  O   UNL     1      11.177  -3.535   9.982  1.00  0.00    -0.550 OA
ATOM      4  O   UNL     1      10.759  -1.576  11.093  1.00  0.00    -0.550 OA
ENDBRANCH   1   2
BRANCH   1   5
ATOM      5  C   UNL     1      13.517  -1.513  11.852  1.00  0.00     0.059 C 
BRANCH   5   6
ATOM      6  C   UNL     1      14.943  -1.681  12.283  1.00  0.00     0.042 C 
ATOM      7  O   UNL     1      15.721  -0.691  12.291  1.00  0.00    -0.550 OA
ATOM      8  O   UNL     1      15.422  -2.936  12.633  1.00  0.00    -0.550 OA
ENDBRANCH   5   6
ENDBRANCH   1   5
TORSDOF 3
ENDMDL
MODEL 5
REMARK VINA RESULT:    -3.948     12.664     14.852
REMARK INTER + INTRA:          -4.675
REMARK INTER:                  -4.555
REMARK INTRA:                  -0.120
REMARK UNBOUND:                -0.035
REMARK SMILES O=C([O-])CCC(=O)[O-]
REMARK SMILES IDX 4 1 2 2 1 3 3 4 5 5 6 6 7 7 8 8
REMARK H PARENT
REMARK Flexibility Score: inf
ROOT
ATOM      1  C   UNL     1       2.171  -1.203   1.962  1.00  0.00     0.059 C 
ENDROOT
BRANCH   1   2
ATOM      2  C   UNL     1       3.440  -0.772   1.292  1.00  0.00     0.042 C 
ATOM      3  O   UNL     1       3.401   0.009   0.306  1.00  0.00    -0.550 OA
ATOM      4  O   UNL     1       4.662  -1.265   1.731  1.00  0.00    -0.550 OA
ENDBRANCH   1   2
BRANCH   1   5
ATOM      5  C   UNL     1       0.943  -0.895   1.100  1.00  0.00     0.059 C 
BRANCH   5   6
ATOM      6  C   UNL     1       0.498  -2.097   0.323  1.00  0.00     0.042 C 
ATOM      7  O   UNL     1       0.890  -2.265  -0.862  1.00  0.00    -0.550 OA
ATOM      8  O   UNL     1      -0.383  -3.008   0.892  1.00  0.00    -0.550 OA
ENDBRANCH   5   6
ENDBRANCH   1   5
TORSDOF 3
ENDMDL
MODEL 6
REMARK VINA RESULT:    -3.939     12.658     14.398
REMARK INTER + INTRA:          -4.665
REMARK INTER:                  -4.547
REMARK INTRA:                  -0.118
REMARK UNBOUND:                -0.035
REMARK SMILES O=C([O-])CCC(=O)[O-]
REMARK SMILES IDX 4 1 2 2 1 3 3 4 5 5 6 6 7 7 8 8
REMARK H PARENT
REMARK Flexibility Score: inf
ROOT
ATOM      1  C   UNL     1       0.933  -0.894   1.085  1.00  0.00     0.059 C 
ENDROOT
BRANCH   1   2
ATOM      2  C   UNL     1       0.465  -2.091   0.315  1.00  0.00     0.042 C 
ATOM      3  O   UNL     1       0.867  -2.282  -0.862  1.00  0.00    -0.550 OA
ATOM      4  O   UNL     1      -0.446  -2.972   0.883  1.00  0.00    -0.550 OA
ENDBRANCH   1   2
BRANCH   1   5
ATOM      5  C   UNL     1       2.153  -1.219   1.953  1.00  0.00     0.059 C 
BRANCH   5   6
ATOM      6  C   UNL     1       3.428  -0.772   1.304  1.00  0.00     0.042 C 
ATOM      7  O   UNL     1       3.395   0.013   0.320  1.00  0.00    -0.550 OA
ATOM      8  O   UNL     1       4.648  -1.254   1.760  1.00  0.00    -0.550 OA
ENDBRANCH   5   6
ENDBRANCH   1   5
TORSDOF 3
ENDMDL
MODEL 7
REMARK VINA RESULT:    -3.800     13.412     15.323
REMARK INTER + INTRA:          -4.501
REMARK INTER:                  -4.457
REMARK INTRA:                  -0.044
REMARK UNBOUND:                -0.035
REMARK SMILES O=C([O-])CCC(=O)[O-]
REMARK SMILES IDX 4 1 2 2 1 3 3 4 5 5 6 6 7 7 8 8
REMARK H PARENT
REMARK Flexibility Score: inf
ROOT
ATOM      1  C   UNL     1       1.348  -1.121   0.498  1.00  0.00     0.059 C 
ENDROOT
BRANCH   1   2
ATOM      2  C   UNL     1       2.613  -0.740   1.205  1.00  0.00     0.042 C 
ATOM      3  O   UNL     1       2.657  -0.736   2.463  1.00  0.00    -0.550 OA
ATOM      4  O   UNL     1       3.728  -0.349   0.476  1.00  0.00    -0.550 OA
ENDBRANCH   1   2
BRANCH   1   5
ATOM      5  C   UNL     1       0.273  -1.601   1.477  1.00  0.00     0.059 C 
BRANCH   5   6
ATOM      6  C   UNL     1      -0.412  -2.839   0.984  1.00  0.00     0.042 C 
ATOM      7  O   UNL     1      -0.472  -3.862   1.716  1.00  0.00    -0.550 OA
ATOM      8  O   UNL     1      -0.945  -2.877  -0.298  1.00  0.00    -0.550 OA
ENDBRANCH   5   6
ENDBRANCH   1   5
TORSDOF 3
ENDMDL
MODEL 8
REMARK VINA RESULT:    -3.199     15.110     16.791
REMARK INTER + INTRA:          -3.795
REMARK INTER:                  -3.754
REMARK INTRA:                  -0.040
REMARK UNBOUND:                -0.035
REMARK SMILES O=C([O-])CCC(=O)[O-]
REMARK SMILES IDX 4 1 2 2 1 3 3 4 5 5 6 6 7 7 8 8
REMARK H PARENT
REMARK Flexibility Score: inf
ROOT
ATOM      1  C   UNL     1      -0.372  -3.773  -0.501  1.00  0.00     0.059 C 
ENDROOT
BRANCH   1   2
ATOM      2  C   UNL     1      -0.654  -3.355  -1.912  1.00  0.00     0.042 C 
ATOM      3  O   UNL     1      -0.375  -4.125  -2.868  1.00  0.00    -0.550 OA
ATOM      4  O   UNL     1      -1.186  -2.099  -2.172  1.00  0.00    -0.550 OA
ENDBRANCH   1   2
BRANCH   1   5
ATOM      5  C   UNL     1      -0.720  -2.665   0.498  1.00  0.00     0.059 C 
BRANCH   5   6
ATOM      6  C   UNL     1       0.490  -1.868   0.884  1.00  0.00     0.042 C 
ATOM      7  O   UNL     1       0.587  -1.386   2.043  1.00  0.00    -0.550 OA
ATOM      8  O   UNL     1       1.489  -1.623  -0.050  1.00  0.00    -0.550 OA
ENDBRANCH   5   6
ENDBRANCH   1   5
TORSDOF 3
ENDMDL
