MODEL 1
REMARK VINA RESULT:    -4.255      0.000      0.000
REMARK INTER + INTRA:          -5.509
REMARK INTER:                  -5.250
REMARK INTRA:                  -0.258
REMARK UNBOUND:                -0.258
REMARK SMILES CCCCC=CC(C)=O
REMARK SMILES IDX 4 1 3 2 2 3 1 4 5 5 6 6 7 7 9 8 8 9
REMARK H PARENT
REMARK Flexibility Score: inf
ROOT
ATOM      1  C   UNL     1       0.003 -22.081  -6.654  1.00  0.00     0.027 C 
ENDROOT
BRANCH   1   2
ATOM      2  C   UNL     1       1.152 -22.198  -7.670  1.00  0.00     0.004 C 
BRANCH   2   3
ATOM      3  C   UNL     1       1.608 -20.852  -8.260  1.00  0.00    -0.003 C 
ATOM      4  C   UNL     1       3.034 -20.478  -7.855  1.00  0.00     0.004 C 
ENDBRANCH   2   3
ENDBRANCH   1   2
BRANCH   1   5
ATOM      5  C   UNL     1       0.490 -21.773  -5.266  1.00  0.00    -0.023 C 
ATOM      6  C   UNL     1       0.416 -20.537  -4.757  1.00  0.00     0.042 C 
BRANCH   6   7
ATOM      7  C   UNL     1       0.881 -20.190  -3.399  1.00  0.00     0.152 C 
ATOM      8  O   UNL     1       1.617 -19.177  -3.254  1.00  0.00    -0.295 OA
ATOM      9  C   UNL     1       0.511 -20.998  -2.191  1.00  0.00     0.093 C 
ENDBRANCH   6   7
ENDBRANCH   1   5
TORSDOF 4
ENDMDL
MODEL 2
REMARK VINA RESULT:    -4.224      2.261      4.732
REMARK INTER + INTRA:          -5.471
REMARK INTER:                  -5.256
REMARK INTRA:                  -0.215
REMARK UNBOUND:                -0.258
REMARK SMILES CCCCC=CC(C)=O
REMARK SMILES IDX 4 1 3 2 2 3 1 4 5 5 6 6 7 7 9 8 8 9
REMARK H PARENT
REMARK Flexibility Score: inf
ROOT
ATOM      1  C   UNL     1       0.291 -19.888  -3.758  1.00  0.00     0.027 C 
ENDROOT
BRANCH   1   2
ATOM      2  C   UNL     1       0.777 -20.558  -2.462  1.00  0.00     0.004 C 
BRANCH   2   3
ATOM      3  C   UNL     1       2.256 -20.291  -2.132  1.00  0.00    -0.003 C 
ATOM      4  C   UNL     1       2.624 -18.810  -2.209  1.00  0.00     0.004 C 
ENDBRANCH   2   3
ENDBRANCH   1   2
BRANCH   1   5
ATOM      5  C   UNL     1       0.703 -20.646  -4.989  1.00  0.00    -0.023 C 
ATOM      6  C   UNL     1       0.111 -21.796  -5.333  1.00  0.00     0.042 C 
BRANCH   6   7
ATOM      7  C   UNL     1       0.484 -22.572  -6.533  1.00  0.00     0.152 C 
ATOM      8  O   UNL     1       0.195 -23.798  -6.572  1.00  0.00    -0.295 OA
ATOM      9  C   UNL     1       1.193 -21.956  -7.701  1.00  0.00     0.093 C 
ENDBRANCH   6   7
ENDBRANCH   1   5
TORSDOF 4
ENDMDL
MODEL 3
REMARK VINA RESULT:    -4.098      2.170      4.294
REMARK INTER + INTRA:          -5.314
REMARK INTER:                  -5.060
REMARK INTRA:                  -0.254
REMARK UNBOUND:                -0.258
REMARK SMILES CCCCC=CC(C)=O
REMARK SMILES IDX 4 1 3 2 2 3 1 4 5 5 6 6 7 7 9 8 8 9
REMARK H PARENT
REMARK Flexibility Score: inf
ROOT
ATOM      1  C   UNL     1       1.309 -21.009  -8.249  1.00  0.00     0.027 C 
ENDROOT
BRANCH   1   2
ATOM      2  C   UNL     1       0.981 -22.314  -7.504  1.00  0.00     0.004 C 
BRANCH   2   3
ATOM      3  C   UNL     1      -0.072 -22.157  -6.393  1.00  0.00    -0.003 C 
ATOM      4  C   UNL     1       0.423 -21.314  -5.220  1.00  0.00     0.004 C 
ENDBRANCH   2   3
ENDBRANCH   1   2
BRANCH   1   5
ATOM      5  C   UNL     1       2.712 -20.535  -7.992  1.00  0.00    -0.023 C 
ATOM      6  C   UNL     1       3.549 -21.222  -7.205  1.00  0.00     0.042 C 
BRANCH   6   7
ATOM      7  C   UNL     1       4.935 -20.794  -6.926  1.00  0.00     0.152 C 
ATOM      8  O   UNL     1       5.148 -19.583  -6.652  1.00  0.00    -0.295 OA
ATOM      9  C   UNL     1       6.092 -21.746  -6.957  1.00  0.00     0.093 C 
ENDBRANCH   6   7
ENDBRANCH   1   5
TORSDOF 4
ENDMDL
MODEL 4
REMARK VINA RESULT:    -3.905      9.795     10.604
REMARK INTER + INTRA:          -5.077
REMARK INTER:                  -4.881
REMARK INTRA:                  -0.197
REMARK UNBOUND:                -0.258
REMARK SMILES CCCCC=CC(C)=O
REMARK SMILES IDX 4 1 3 2 2 3 1 4 5 5 6 6 7 7 9 8 8 9
REMARK H PARENT
REMARK Flexibility Score: inf
ROOT
ATOM      1  C   UNL     1      -5.513 -27.574  -2.205  1.00  0.00     0.027 C 
ENDROOT
BRANCH   1   2
ATOM      2  C   UNL     1      -5.123 -28.502  -3.368  1.00  0.00     0.004 C 
BRANCH   2   3
ATOM      3  C   UNL     1      -6.313 -29.230  -4.017  1.00  0.00    -0.003 C 
ATOM      4  C   UNL     1      -6.816 -30.408  -3.184  1.00  0.00     0.004 C 
ENDBRANCH   2   3
ENDBRANCH   1   2
BRANCH   1   5
ATOM      5  C   UNL     1      -6.136 -26.289  -2.676  1.00  0.00    -0.023 C 
ATOM      6  C   UNL     1      -7.217 -25.776  -2.077  1.00  0.00     0.042 C 
BRANCH   6   7
ATOM      7  C   UNL     1      -7.861 -24.518  -2.506  1.00  0.00     0.152 C 
ATOM      8  O   UNL     1      -8.824 -24.578  -3.316  1.00  0.00    -0.295 OA
ATOM      9  C   UNL     1      -7.410 -23.175  -2.014  1.00  0.00     0.093 C 
ENDBRANCH   6   7
ENDBRANCH   1   5
TORSDOF 4
ENDMDL
MODEL 5
REMARK VINA RESULT:    -3.843      1.191      2.156
REMARK INTER + INTRA:          -5.000
REMARK INTER:                  -4.714
REMARK INTRA:                  -0.287
REMARK UNBOUND:                -0.258
REMARK SMILES CCCCC=CC(C)=O
REMARK SMILES IDX 4 1 3 2 2 3 1 4 5 5 6 6 7 7 9 8 8 9
REMARK H PARENT
REMARK Flexibility Score: inf
ROOT
ATOM      1  C   UNL     1       2.230 -20.147  -6.913  1.00  0.00     0.027 C 
ENDROOT
BRANCH   1   2
ATOM      2  C   UNL     1       1.592 -21.302  -7.702  1.00  0.00     0.004 C 
BRANCH   2   3
ATOM      3  C   UNL     1       0.283 -21.833  -7.092  1.00  0.00    -0.003 C 
ATOM      4  C   UNL     1       0.388 -23.288  -6.637  1.00  0.00     0.004 C 
ENDBRANCH   2   3
ENDBRANCH   1   2
BRANCH   1   5
ATOM      5  C   UNL     1       1.634 -19.986  -5.542  1.00  0.00    -0.023 C 
ATOM      6  C   UNL     1       2.364 -20.175  -4.436  1.00  0.00     0.042 C 
BRANCH   6   7
ATOM      7  C   UNL     1       1.820 -20.029  -3.071  1.00  0.00     0.152 C 
ATOM      8  O   UNL     1       2.441 -19.303  -2.249  1.00  0.00    -0.295 OA
ATOM      9  C   UNL     1       0.560 -20.711  -2.629  1.00  0.00     0.093 C 
ENDBRANCH   6   7
ENDBRANCH   1   5
TORSDOF 4
ENDMDL
MODEL 6
REMARK VINA RESULT:    -3.760      3.705      5.734
REMARK INTER + INTRA:          -4.897
REMARK INTER:                  -4.748
REMARK INTRA:                  -0.149
REMARK UNBOUND:                -0.258
REMARK SMILES CCCCC=CC(C)=O
REMARK SMILES IDX 4 1 3 2 2 3 1 4 5 5 6 6 7 7 9 8 8 9
REMARK H PARENT
REMARK Flexibility Score: inf
ROOT
ATOM      1  C   UNL     1       3.488 -21.213  -6.774  1.00  0.00     0.027 C 
ENDROOT
BRANCH   1   2
ATOM      2  C   UNL     1       2.536 -20.367  -7.637  1.00  0.00     0.004 C 
BRANCH   2   3
ATOM      3  C   UNL     1       1.469 -21.187  -8.383  1.00  0.00    -0.003 C 
ATOM      4  C   UNL     1       0.910 -22.337  -7.547  1.00  0.00     0.004 C 
ENDBRANCH   2   3
ENDBRANCH   1   2
BRANCH   1   5
ATOM      5  C   UNL     1       4.931 -21.024  -7.151  1.00  0.00    -0.023 C 
ATOM      6  C   UNL     1       5.841 -21.981  -6.933  1.00  0.00     0.042 C 
BRANCH   6   7
ATOM      7  C   UNL     1       7.268 -21.839  -7.287  1.00  0.00     0.152 C 
ATOM      8  O   UNL     1       7.963 -20.993  -6.664  1.00  0.00    -0.295 OA
ATOM      9  C   UNL     1       7.916 -22.663  -8.359  1.00  0.00     0.093 C 
ENDBRANCH   6   7
ENDBRANCH   1   5
TORSDOF 4
ENDMDL
MODEL 7
REMARK VINA RESULT:    -3.694      2.077      4.823
REMARK INTER + INTRA:          -4.817
REMARK INTER:                  -4.600
REMARK INTRA:                  -0.217
REMARK UNBOUND:                -0.258
REMARK SMILES CCCCC=CC(C)=O
REMARK SMILES IDX 4 1 3 2 2 3 1 4 5 5 6 6 7 7 9 8 8 9
REMARK H PARENT
REMARK Flexibility Score: inf
ROOT
ATOM      1  C   UNL     1       1.595 -19.151  -3.857  1.00  0.00     0.027 C 
ENDROOT
BRANCH   1   2
ATOM      2  C   UNL     1       0.277 -19.873  -3.529  1.00  0.00     0.004 C 
BRANCH   2   3
ATOM      3  C   UNL     1       0.408 -20.958  -2.445  1.00  0.00    -0.003 C 
ATOM      4  C   UNL     1       1.725 -20.872  -1.674  1.00  0.00     0.004 C 
ENDBRANCH   2   3
ENDBRANCH   1   2
BRANCH   1   5
ATOM      5  C   UNL     1       2.273 -19.714  -5.075  1.00  0.00    -0.023 C 
ATOM      6  C   UNL     1       1.581 -20.341  -6.034  1.00  0.00     0.042 C 
BRANCH   6   7
ATOM      7  C   UNL     1       2.205 -20.909  -7.246  1.00  0.00     0.152 C 
ATOM      8  O   UNL     1       3.416 -21.252  -7.197  1.00  0.00    -0.295 OA
ATOM      9  C   UNL     1       1.452 -21.089  -8.530  1.00  0.00     0.093 C 
ENDBRANCH   6   7
ENDBRANCH   1   5
TORSDOF 4
ENDMDL
MODEL 8
REMARK VINA RESULT:    -3.551      9.795     10.746
REMARK INTER + INTRA:          -4.640
REMARK INTER:                  -4.482
REMARK INTRA:                  -0.158
REMARK UNBOUND:                -0.258
REMARK SMILES CCCCC=CC(C)=O
REMARK SMILES IDX 4 1 3 2 2 3 1 4 5 5 6 6 7 7 9 8 8 9
REMARK H PARENT
REMARK Flexibility Score: inf
ROOT
ATOM      1  C   UNL     1      -8.063 -24.450  -2.293  1.00  0.00     0.027 C 
ENDROOT
BRANCH   1   2
ATOM      2  C   UNL     1      -7.329 -23.128  -2.014  1.00  0.00     0.004 C 
BRANCH   2   3
ATOM      3  C   UNL     1      -8.116 -22.147  -1.126  1.00  0.00    -0.003 C 
ATOM      4  C   UNL     1      -9.397 -22.757  -0.558  1.00  0.00     0.004 C 
ENDBRANCH   2   3
ENDBRANCH   1   2
BRANCH   1   5
ATOM      5  C   UNL     1      -7.266 -25.653  -1.870  1.00  0.00    -0.023 C 
ATOM      6  C   UNL     1      -6.477 -26.306  -2.732  1.00  0.00     0.042 C 
BRANCH   6   7
ATOM      7  C   UNL     1      -5.677 -27.491  -2.361  1.00  0.00     0.152 C 
ATOM      8  O   UNL     1      -5.430 -27.695  -1.142  1.00  0.00    -0.295 OA
ATOM      9  C   UNL     1      -5.148 -28.455  -3.379  1.00  0.00     0.093 C 
ENDBRANCH   6   7
ENDBRANCH   1   5
TORSDOF 4
ENDMDL
