MODEL 1
REMARK VINA RESULT:    -3.340      0.000      0.000
REMARK INTER + INTRA:          -4.345
REMARK INTER:                  -4.707
REMARK INTRA:                   0.362
REMARK UNBOUND:                 0.362
REMARK SMILES CC1=CCC(=C(C)C)C(=O)CC(C)=CCC1
REMARK SMILES IDX 12 1 14 2 13 3 15 4 16 5 2 6 1 7 3 8 11 10 9 11 10 12 5 13
REMARK SMILES IDX 6 14 7 15 8 16 4 17
REMARK H PARENT
REMARK Flexibility Score: 60.00
ROOT
ATOM      1  C   UNL     1      -8.331  29.204  44.143  1.00  0.00    -0.070 C 
ATOM      2  C   UNL     1      -8.744  30.052  45.120  1.00  0.00    -0.027 C 
ATOM      3  C   UNL     1      -9.233  28.038  43.814  1.00  0.00     0.039 C 
ENDROOT
BRANCH   2   4
ATOM      4  C   UNL     1      -8.058  31.329  45.541  1.00  0.00     0.032 C 
BRANCH   4   5
ATOM      5  C   UNL     1      -7.522  31.286  46.978  1.00  0.00     0.034 C 
BRANCH   5   6
ATOM      6  C   UNL     1      -6.012  31.147  46.971  1.00  0.00    -0.077 C 
ATOM      7  C   UNL     1      -5.178  32.401  47.007  1.00  0.00     0.039 C 
ATOM      8  C   UNL     1      -5.373  29.958  46.856  1.00  0.00    -0.023 CG0
ATOM      9  G   UNL     1      -6.036  28.601  46.821  1.00  0.00     0.000 G0
ENDBRANCH   5   6
ENDBRANCH   4   5
ENDBRANCH   2   4
BRANCH   1  10
ATOM     10  C   UNL     1      -6.992  29.308  43.419  1.00  0.00     0.111 C 
BRANCH  10  11
ATOM     11  C   UNL     1      -5.820  28.816  44.229  1.00  0.00     0.163 C 
ATOM     12  O   UNL     1      -4.662  29.114  43.823  1.00  0.00    -0.294 OA
BRANCH  11  13
ATOM     13  C   UNL     1      -5.979  27.949  45.444  1.00  0.00    -0.002 C 
ATOM     14  C   UNL     1      -6.015  26.584  45.330  1.00  0.00    -0.069 C 
ATOM     15  C   UNL     1      -6.044  25.897  43.982  1.00  0.00     0.039 C 
ATOM     16  C   UNL     1      -6.077  25.686  46.546  1.00  0.00     0.039 C 
BRANCH  13  17
ATOM     17  C   UNL     1      -6.045  28.615  46.817  1.00  0.00     0.066 CG0
ATOM     18  G   UNL     1      -5.356  29.959  46.833  1.00  0.00     0.000 G0
ENDBRANCH  13  17
ENDBRANCH  11  13
ENDBRANCH  10  11
ENDBRANCH   1  10
TORSDOF 0
ENDMDL
MODEL 2
REMARK VINA RESULT:    -3.318      2.026      4.620
REMARK INTER + INTRA:          -4.314
REMARK INTER:                  -5.230
REMARK INTRA:                   0.916
REMARK UNBOUND:                 0.362
REMARK SMILES CC1=CCC(=C(C)C)C(=O)CC(C)=CCC1
REMARK SMILES IDX 12 1 14 2 13 3 15 4 16 5 2 6 1 7 3 8 11 10 9 11 10 12 5 13
REMARK SMILES IDX 6 14 7 15 8 16 4 17
REMARK H PARENT
REMARK Flexibility Score: 60.00
ROOT
ATOM      1  C   UNL     1      -7.855  29.270  45.685  1.00  0.00    -0.070 C 
ATOM      2  C   UNL     1      -6.810  28.418  45.520  1.00  0.00    -0.027 C 
ATOM      3  C   UNL     1      -8.917  29.275  44.612  1.00  0.00     0.039 C 
ENDROOT
BRANCH   2   4
ATOM      4  C   UNL     1      -5.695  28.174  46.509  1.00  0.00     0.032 C 
BRANCH   4   5
ATOM      5  C   UNL     1      -4.297  28.380  45.910  1.00  0.00     0.034 C 
BRANCH   5   6
ATOM      6  C   UNL     1      -4.270  29.636  45.060  1.00  0.00    -0.077 C 
ATOM      7  C   UNL     1      -3.887  29.509  43.609  1.00  0.00     0.039 C 
ATOM      8  C   UNL     1      -4.497  30.876  45.556  1.00  0.00    -0.023 CG0
ATOM      9  G   UNL     1      -4.906  31.198  46.974  1.00  0.00     0.000 G0
ENDBRANCH   5   6
ENDBRANCH   4   5
ENDBRANCH   2   4
BRANCH   1  10
ATOM     10  C   UNL     1      -7.982  30.268  46.832  1.00  0.00     0.111 C 
BRANCH  10  11
ATOM     11  C   UNL     1      -7.428  31.635  46.517  1.00  0.00     0.163 C 
ATOM     12  O   UNL     1      -8.091  32.368  45.732  1.00  0.00    -0.294 OA
BRANCH  11  13
ATOM     13  C   UNL     1      -6.111  32.119  47.049  1.00  0.00    -0.002 C 
ATOM     14  C   UNL     1      -6.004  33.352  47.637  1.00  0.00    -0.069 C 
ATOM     15  C   UNL     1      -7.156  34.332  47.647  1.00  0.00     0.039 C 
ATOM     16  C   UNL     1      -4.712  33.824  48.267  1.00  0.00     0.039 C 
BRANCH  13  17
ATOM     17  C   UNL     1      -4.902  31.188  46.974  1.00  0.00     0.066 CG0
ATOM     18  G   UNL     1      -4.507  30.881  45.549  1.00  0.00     0.000 G0
ENDBRANCH  13  17
ENDBRANCH  11  13
ENDBRANCH  10  11
ENDBRANCH   1  10
TORSDOF 0
ENDMDL
MODEL 3
REMARK VINA RESULT:    -3.204      1.776      2.589
REMARK INTER + INTRA:          -4.153
REMARK INTER:                  -4.432
REMARK INTRA:                   0.279
REMARK UNBOUND:                 0.362
REMARK SMILES CC1=CCC(=C(C)C)C(=O)CC(C)=CCC1
REMARK SMILES IDX 12 1 14 2 13 3 15 4 16 5 2 6 1 7 3 8 11 10 9 11 10 12 5 13
REMARK SMILES IDX 6 14 7 15 8 16 4 17
REMARK H PARENT
REMARK Flexibility Score: 60.00
ROOT
ATOM      1  C   UNL     1      -7.959  29.036  45.409  1.00  0.00    -0.070 C 
ATOM      2  C   UNL     1      -8.329  30.216  45.971  1.00  0.00    -0.027 C 
ATOM      3  C   UNL     1      -8.808  28.518  44.273  1.00  0.00     0.039 C 
ENDROOT
BRANCH   2   4
ATOM      4  C   UNL     1      -7.577  30.966  47.044  1.00  0.00     0.032 C 
BRANCH   4   5
ATOM      5  C   UNL     1      -6.964  32.282  46.548  1.00  0.00     0.034 C 
BRANCH   5   6
ATOM      6  C   UNL     1      -5.450  32.192  46.557  1.00  0.00    -0.077 C 
ATOM      7  C   UNL     1      -4.704  32.798  47.717  1.00  0.00     0.039 C 
ATOM      8  C   UNL     1      -4.728  31.664  45.539  1.00  0.00    -0.023 CG0
ATOM      9  G   UNL     1      -5.297  31.001  44.307  1.00  0.00     0.000 G0
ENDBRANCH   5   6
ENDBRANCH   4   5
ENDBRANCH   2   4
BRANCH   1  10
ATOM     10  C   UNL     1      -6.802  28.172  45.899  1.00  0.00     0.111 C 
BRANCH  10  11
ATOM     11  C   UNL     1      -5.440  28.742  45.595  1.00  0.00     0.163 C 
ATOM     12  O   UNL     1      -4.548  28.632  46.481  1.00  0.00    -0.294 OA
BRANCH  11  13
ATOM     13  C   UNL     1      -5.134  29.475  44.321  1.00  0.00    -0.002 C 
ATOM     14  C   UNL     1      -4.783  28.790  43.186  1.00  0.00    -0.069 C 
ATOM     15  C   UNL     1      -4.547  27.296  43.199  1.00  0.00     0.039 C 
ATOM     16  C   UNL     1      -4.564  29.496  41.867  1.00  0.00     0.039 C 
BRANCH  13  17
ATOM     17  C   UNL     1      -5.274  30.995  44.296  1.00  0.00     0.066 CG0
ATOM     18  G   UNL     1      -4.724  31.639  45.547  1.00  0.00     0.000 G0
ENDBRANCH  13  17
ENDBRANCH  11  13
ENDBRANCH  10  11
ENDBRANCH   1  10
TORSDOF 0
ENDMDL
MODEL 4
REMARK VINA RESULT:    -3.098      1.926      2.942
REMARK INTER + INTRA:          -4.004
REMARK INTER:                  -4.233
REMARK INTRA:                   0.229
REMARK UNBOUND:                 0.362
REMARK SMILES CC1=CCC(=C(C)C)C(=O)CC(C)=CCC1
REMARK SMILES IDX 12 1 14 2 13 3 15 4 16 5 2 6 1 7 3 8 11 10 9 11 10 12 5 13
REMARK SMILES IDX 6 14 7 15 8 16 4 17
REMARK H PARENT
REMARK Flexibility Score: 60.00
ROOT
ATOM      1  C   UNL     1      -5.413  31.030  43.617  1.00  0.00    -0.070 C 
ATOM      2  C   UNL     1      -4.296  31.621  44.113  1.00  0.00    -0.027 C 
ATOM      3  C   UNL     1      -5.217  29.864  42.678  1.00  0.00     0.039 C 
ENDROOT
BRANCH   2   4
ATOM      4  C   UNL     1      -4.255  32.729  45.138  1.00  0.00     0.032 C 
BRANCH   4   5
ATOM      5  C   UNL     1      -4.020  32.225  46.569  1.00  0.00     0.034 C 
BRANCH   5   6
ATOM      6  C   UNL     1      -5.307  32.293  47.367  1.00  0.00    -0.077 C 
ATOM      7  C   UNL     1      -5.645  33.583  48.069  1.00  0.00     0.039 C 
ATOM      8  C   UNL     1      -6.130  31.233  47.547  1.00  0.00    -0.023 CG0
ATOM      9  G   UNL     1      -5.965  29.871  46.915  1.00  0.00     0.000 G0
ENDBRANCH   5   6
ENDBRANCH   4   5
ENDBRANCH   2   4
BRANCH   1  10
ATOM     10  C   UNL     1      -6.836  31.514  43.880  1.00  0.00     0.111 C 
BRANCH  10  11
ATOM     11  C   UNL     1      -7.510  30.830  45.042  1.00  0.00     0.163 C 
ATOM     12  O   UNL     1      -8.593  31.322  45.462  1.00  0.00    -0.294 OA
BRANCH  11  13
ATOM     13  C   UNL     1      -6.915  29.642  45.740  1.00  0.00    -0.002 C 
ATOM     14  C   UNL     1      -7.184  28.369  45.307  1.00  0.00    -0.069 C 
ATOM     15  C   UNL     1      -8.194  28.096  44.215  1.00  0.00     0.039 C 
ATOM     16  C   UNL     1      -6.522  27.161  45.932  1.00  0.00     0.039 C 
BRANCH  13  17
ATOM     17  C   UNL     1      -5.959  29.878  46.907  1.00  0.00     0.066 CG0
ATOM     18  G   UNL     1      -6.144  31.242  47.529  1.00  0.00     0.000 G0
ENDBRANCH  13  17
ENDBRANCH  11  13
ENDBRANCH  10  11
ENDBRANCH   1  10
TORSDOF 0
ENDMDL
MODEL 5
REMARK VINA RESULT:    -3.080      1.598      4.107
REMARK INTER + INTRA:          -3.978
REMARK INTER:                  -4.192
REMARK INTRA:                   0.214
REMARK UNBOUND:                 0.362
REMARK SMILES CC1=CCC(=C(C)C)C(=O)CC(C)=CCC1
REMARK SMILES IDX 12 1 14 2 13 3 15 4 16 5 2 6 1 7 3 8 11 10 9 11 10 12 5 13
REMARK SMILES IDX 6 14 7 15 8 16 4 17
REMARK H PARENT
REMARK Flexibility Score: 60.00
ROOT
ATOM      1  C   UNL     1      -7.509  29.896  45.316  1.00  0.00    -0.070 C 
ATOM      2  C   UNL     1      -7.713  28.641  45.794  1.00  0.00    -0.027 C 
ATOM      3  C   UNL     1      -8.079  31.041  46.119  1.00  0.00     0.039 C 
ENDROOT
BRANCH   2   4
ATOM      4  C   UNL     1      -7.151  27.365  45.214  1.00  0.00     0.032 C 
BRANCH   4   5
ATOM      5  C   UNL     1      -5.903  26.861  45.950  1.00  0.00     0.034 C 
BRANCH   5   6
ATOM      6  C   UNL     1      -4.662  27.123  45.118  1.00  0.00    -0.077 C 
ATOM      7  C   UNL     1      -4.231  26.073  44.127  1.00  0.00     0.039 C 
ATOM      8  C   UNL     1      -3.876  28.216  45.274  1.00  0.00    -0.023 CG0
ATOM      9  G   UNL     1      -4.153  29.375  46.201  1.00  0.00     0.000 G0
ENDBRANCH   5   6
ENDBRANCH   4   5
ENDBRANCH   2   4
BRANCH   1  10
ATOM     10  C   UNL     1      -6.818  30.215  43.994  1.00  0.00     0.111 C 
BRANCH  10  11
ATOM     11  C   UNL     1      -5.331  30.428  44.117  1.00  0.00     0.163 C 
ATOM     12  O   UNL     1      -4.645  30.395  43.057  1.00  0.00    -0.294 OA
BRANCH  11  13
ATOM     13  C   UNL     1      -4.644  30.616  45.439  1.00  0.00    -0.002 C 
ATOM     14  C   UNL     1      -4.505  31.865  45.984  1.00  0.00    -0.069 C 
ATOM     15  C   UNL     1      -4.897  33.113  45.226  1.00  0.00     0.039 C 
ATOM     16  C   UNL     1      -3.904  32.070  47.357  1.00  0.00     0.039 C 
BRANCH  13  17
ATOM     17  C   UNL     1      -4.152  29.381  46.192  1.00  0.00     0.066 CG0
ATOM     18  G   UNL     1      -3.882  28.218  45.266  1.00  0.00     0.000 G0
ENDBRANCH  13  17
ENDBRANCH  11  13
ENDBRANCH  10  11
ENDBRANCH   1  10
TORSDOF 0
ENDMDL
MODEL 6
REMARK VINA RESULT:    -3.062      2.228      4.819
REMARK INTER + INTRA:          -3.953
REMARK INTER:                  -4.174
REMARK INTRA:                   0.221
REMARK UNBOUND:                 0.362
REMARK SMILES CC1=CCC(=C(C)C)C(=O)CC(C)=CCC1
REMARK SMILES IDX 12 1 14 2 13 3 15 4 16 5 2 6 1 7 3 8 11 10 9 11 10 12 5 13
REMARK SMILES IDX 6 14 7 15 8 16 4 17
REMARK H PARENT
REMARK Flexibility Score: 60.00
ROOT
ATOM      1  C   UNL     1      -7.182  28.637  45.770  1.00  0.00    -0.070 C 
ATOM      2  C   UNL     1      -7.980  28.523  44.677  1.00  0.00    -0.027 C 
ATOM      3  C   UNL     1      -6.350  27.434  46.145  1.00  0.00     0.039 C 
ENDROOT
BRANCH   2   4
ATOM      4  C   UNL     1      -8.814  29.622  44.065  1.00  0.00     0.032 C 
BRANCH   4   5
ATOM      5  C   UNL     1      -8.026  30.520  43.103  1.00  0.00     0.034 C 
BRANCH   5   6
ATOM      6  C   UNL     1      -8.273  31.981  43.425  1.00  0.00    -0.077 C 
ATOM      7  C   UNL     1      -9.585  32.592  43.007  1.00  0.00     0.039 C 
ATOM      8  C   UNL     1      -7.347  32.785  44.000  1.00  0.00    -0.023 CG0
ATOM      9  G   UNL     1      -5.989  32.350  44.497  1.00  0.00     0.000 G0
ENDBRANCH   5   6
ENDBRANCH   4   5
ENDBRANCH   2   4
BRANCH   1  10
ATOM     10  C   UNL     1      -7.134  29.860  46.681  1.00  0.00     0.111 C 
BRANCH  10  11
ATOM     11  C   UNL     1      -5.892  30.698  46.513  1.00  0.00     0.163 C 
ATOM     12  O   UNL     1      -4.793  30.194  46.874  1.00  0.00    -0.294 OA
BRANCH  11  13
ATOM     13  C   UNL     1      -5.928  32.108  45.997  1.00  0.00    -0.002 C 
ATOM     14  C   UNL     1      -5.875  33.171  46.860  1.00  0.00    -0.069 C 
ATOM     15  C   UNL     1      -5.927  32.982  48.360  1.00  0.00     0.039 C 
ATOM     16  C   UNL     1      -5.813  34.598  46.362  1.00  0.00     0.039 C 
BRANCH  13  17
ATOM     17  C   UNL     1      -5.968  32.336  44.487  1.00  0.00     0.066 CG0
ATOM     18  G   UNL     1      -7.331  32.783  44.014  1.00  0.00     0.000 G0
ENDBRANCH  13  17
ENDBRANCH  11  13
ENDBRANCH  10  11
ENDBRANCH   1  10
TORSDOF 0
ENDMDL
MODEL 7
REMARK VINA RESULT:    -3.013      2.048      4.489
REMARK INTER + INTRA:          -3.883
REMARK INTER:                  -4.225
REMARK INTRA:                   0.341
REMARK UNBOUND:                 0.362
REMARK SMILES CC1=CCC(=C(C)C)C(=O)CC(C)=CCC1
REMARK SMILES IDX 12 1 14 2 13 3 15 4 16 5 2 6 1 7 3 8 11 10 9 11 10 12 5 13
REMARK SMILES IDX 6 14 7 15 8 16 4 17
REMARK H PARENT
REMARK Flexibility Score: 60.00
ROOT
ATOM      1  C   UNL     1      -7.555  29.946  46.168  1.00  0.00    -0.070 C 
ATOM      2  C   UNL     1      -8.161  29.032  45.366  1.00  0.00    -0.027 C 
ATOM      3  C   UNL     1      -8.154  31.332  46.209  1.00  0.00     0.039 C 
ENDROOT
BRANCH   2   4
ATOM      4  C   UNL     1      -7.798  27.572  45.248  1.00  0.00     0.032 C 
BRANCH   4   5
ATOM      5  C   UNL     1      -7.029  27.239  43.962  1.00  0.00     0.034 C 
BRANCH   5   6
ATOM      6  C   UNL     1      -5.548  27.105  44.256  1.00  0.00    -0.077 C 
ATOM      7  C   UNL     1      -5.035  25.781  44.759  1.00  0.00     0.039 C 
ATOM      8  C   UNL     1      -4.673  28.136  44.164  1.00  0.00    -0.023 CG0
ATOM      9  G   UNL     1      -4.998  29.525  43.667  1.00  0.00     0.000 G0
ENDBRANCH   5   6
ENDBRANCH   4   5
ENDBRANCH   2   4
BRANCH   1  10
ATOM     10  C   UNL     1      -6.276  29.689  46.958  1.00  0.00     0.111 C 
BRANCH  10  11
ATOM     11  C   UNL     1      -5.016  30.074  46.226  1.00  0.00     0.163 C 
ATOM     12  O   UNL     1      -3.930  30.025  46.865  1.00  0.00    -0.294 OA
BRANCH  11  13
ATOM     13  C   UNL     1      -5.020  30.560  44.806  1.00  0.00    -0.002 C 
ATOM     14  C   UNL     1      -4.978  31.901  44.525  1.00  0.00    -0.069 C 
ATOM     15  C   UNL     1      -5.075  32.946  45.615  1.00  0.00     0.039 C 
ATOM     16  C   UNL     1      -4.883  32.414  43.105  1.00  0.00     0.039 C 
BRANCH  13  17
ATOM     17  C   UNL     1      -5.014  29.532  43.677  1.00  0.00     0.066 CG0
ATOM     18  G   UNL     1      -4.679  28.144  44.171  1.00  0.00     0.000 G0
ENDBRANCH  13  17
ENDBRANCH  11  13
ENDBRANCH  10  11
ENDBRANCH   1  10
TORSDOF 0
ENDMDL
MODEL 8
REMARK VINA RESULT:    -3.002      2.078      3.501
REMARK INTER + INTRA:          -3.869
REMARK INTER:                  -4.331
REMARK INTRA:                   0.462
REMARK UNBOUND:                 0.362
REMARK SMILES CC1=CCC(=C(C)C)C(=O)CC(C)=CCC1
REMARK SMILES IDX 12 1 14 2 13 3 15 4 16 5 2 6 1 7 3 8 11 10 9 11 10 12 5 13
REMARK SMILES IDX 6 14 7 15 8 16 4 17
REMARK H PARENT
REMARK Flexibility Score: 60.00
ROOT
ATOM      1  C   UNL     1      -6.885  32.141  47.281  1.00  0.00    -0.070 C 
ATOM      2  C   UNL     1      -7.415  32.935  46.316  1.00  0.00    -0.027 C 
ATOM      3  C   UNL     1      -6.062  32.814  48.354  1.00  0.00     0.039 C 
ENDROOT
BRANCH   2   4
ATOM      4  C   UNL     1      -8.346  32.495  45.212  1.00  0.00     0.032 C 
BRANCH   4   5
ATOM      5  C   UNL     1      -7.813  32.807  43.807  1.00  0.00     0.034 C 
BRANCH   5   6
ATOM      6  C   UNL     1      -6.342  32.449  43.712  1.00  0.00    -0.077 C 
ATOM      7  C   UNL     1      -5.349  33.560  43.490  1.00  0.00     0.039 C 
ATOM      8  C   UNL     1      -5.881  31.175  43.739  1.00  0.00    -0.023 CG0
ATOM      9  G   UNL     1      -6.720  29.940  43.967  1.00  0.00     0.000 G0
ENDBRANCH   5   6
ENDBRANCH   4   5
ENDBRANCH   2   4
BRANCH   1  10
ATOM     10  C   UNL     1      -6.999  30.620  47.307  1.00  0.00     0.111 C 
BRANCH  10  11
ATOM     11  C   UNL     1      -5.970  29.915  46.461  1.00  0.00     0.163 C 
ATOM     12  O   UNL     1      -4.759  30.026  46.798  1.00  0.00    -0.294 OA
BRANCH  11  13
ATOM     13  C   UNL     1      -6.327  29.148  45.220  1.00  0.00    -0.002 C 
ATOM     14  C   UNL     1      -6.340  27.778  45.223  1.00  0.00    -0.069 C 
ATOM     15  C   UNL     1      -5.861  26.980  46.415  1.00  0.00     0.039 C 
ATOM     16  C   UNL     1      -6.789  26.985  44.016  1.00  0.00     0.039 C 
BRANCH  13  17
ATOM     17  C   UNL     1      -6.728  29.925  43.968  1.00  0.00     0.066 CG0
ATOM     18  G   UNL     1      -5.880  31.158  43.765  1.00  0.00     0.000 G0
ENDBRANCH  13  17
ENDBRANCH  11  13
ENDBRANCH  10  11
ENDBRANCH   1  10
TORSDOF 0
ENDMDL
MODEL 9
REMARK VINA RESULT:    -2.999      1.918      3.811
REMARK INTER + INTRA:          -3.865
REMARK INTER:                  -4.088
REMARK INTRA:                   0.223
REMARK UNBOUND:                 0.362
REMARK SMILES CC1=CCC(=C(C)C)C(=O)CC(C)=CCC1
REMARK SMILES IDX 12 1 14 2 13 3 15 4 16 5 2 6 1 7 3 8 11 10 9 11 10 12 5 13
REMARK SMILES IDX 6 14 7 15 8 16 4 17
REMARK H PARENT
REMARK Flexibility Score: 60.00
ROOT
ATOM      1  C   UNL     1      -5.826  27.756  45.711  1.00  0.00    -0.070 C 
ATOM      2  C   UNL     1      -5.562  28.404  46.874  1.00  0.00    -0.027 C 
ATOM      3  C   UNL     1      -5.884  26.248  45.759  1.00  0.00     0.039 C 
ENDROOT
BRANCH   2   4
ATOM      4  C   UNL     1      -5.556  29.900  47.079  1.00  0.00     0.032 C 
BRANCH   4   5
ATOM      5  C   UNL     1      -6.935  30.470  47.440  1.00  0.00     0.034 C 
BRANCH   5   6
ATOM      6  C   UNL     1      -7.237  31.690  46.592  1.00  0.00    -0.077 C 
ATOM      7  C   UNL     1      -6.615  33.005  46.984  1.00  0.00     0.039 C 
ATOM      8  C   UNL     1      -8.100  31.677  45.547  1.00  0.00    -0.023 CG0
ATOM      9  G   UNL     1      -8.804  30.457  45.001  1.00  0.00     0.000 G0
ENDBRANCH   5   6
ENDBRANCH   4   5
ENDBRANCH   2   4
BRANCH   1  10
ATOM     10  C   UNL     1      -5.985  28.441  44.357  1.00  0.00     0.111 C 
BRANCH  10  11
ATOM     11  C   UNL     1      -7.415  28.553  43.892  1.00  0.00     0.163 C 
ATOM     12  O   UNL     1      -8.005  27.490  43.555  1.00  0.00    -0.294 OA
BRANCH  11  13
ATOM     13  C   UNL     1      -8.125  29.869  43.764  1.00  0.00    -0.002 C 
ATOM     14  C   UNL     1      -8.194  30.512  42.555  1.00  0.00    -0.069 C 
ATOM     15  C   UNL     1      -7.444  30.009  41.342  1.00  0.00     0.039 C 
ATOM     16  C   UNL     1      -8.986  31.789  42.378  1.00  0.00     0.039 C 
BRANCH  13  17
ATOM     17  C   UNL     1      -8.819  30.453  44.993  1.00  0.00     0.066 CG0
ATOM     18  G   UNL     1      -8.095  31.662  45.536  1.00  0.00     0.000 G0
ENDBRANCH  13  17
ENDBRANCH  11  13
ENDBRANCH  10  11
ENDBRANCH   1  10
TORSDOF 0
ENDMDL
