MODEL 1
REMARK VINA RESULT:    -4.063      0.000      0.000
REMARK INTER + INTRA:          -4.596
REMARK INTER:                  -4.538
REMARK INTRA:                  -0.058
REMARK UNBOUND:                -0.058
REMARK SMILES CCCC(=O)[O-]
REMARK SMILES IDX 3 1 4 2 5 3 6 4 2 5 1 6
REMARK H PARENT
REMARK Flexibility Score: inf
ROOT
ATOM      1  C   UNL     1      -0.781   4.968  -2.139  1.00  0.00     0.052 C 
ENDROOT
BRANCH   1   2
ATOM      2  C   UNL     1      -1.064   6.133  -1.243  1.00  0.00     0.041 C 
ATOM      3  O   UNL     1      -0.952   6.013   0.005  1.00  0.00    -0.550 OA
ATOM      4  O   UNL     1      -1.403   7.365  -1.789  1.00  0.00    -0.550 OA
ENDBRANCH   1   2
BRANCH   1   5
ATOM      5  C   UNL     1      -2.008   4.641  -2.994  1.00  0.00     0.003 C 
ATOM      6  C   UNL     1      -3.235   4.386  -2.123  1.00  0.00     0.004 C 
ENDBRANCH   1   5
TORSDOF 2
ENDMDL
MODEL 2
REMARK VINA RESULT:    -3.825      2.394      3.304
REMARK INTER + INTRA:          -4.330
REMARK INTER:                  -4.285
REMARK INTRA:                  -0.045
REMARK UNBOUND:                -0.058
REMARK SMILES CCCC(=O)[O-]
REMARK SMILES IDX 3 1 4 2 5 3 6 4 2 5 1 6
REMARK H PARENT
REMARK Flexibility Score: inf
ROOT
ATOM      1  C   UNL     1      -2.224   5.895  -2.374  1.00  0.00     0.052 C 
ENDROOT
BRANCH   1   2
ATOM      2  C   UNL     1      -2.426   4.484  -2.830  1.00  0.00     0.041 C 
ATOM      3  O   UNL     1      -1.876   4.076  -3.887  1.00  0.00    -0.550 OA
ATOM      4  O   UNL     1      -3.180   3.606  -2.063  1.00  0.00    -0.550 OA
ENDBRANCH   1   2
BRANCH   1   5
ATOM      5  C   UNL     1      -1.358   5.931  -1.112  1.00  0.00     0.003 C 
ATOM      6  C   UNL     1       0.072   5.493  -1.414  1.00  0.00     0.004 C 
ENDBRANCH   1   5
TORSDOF 2
ENDMDL
MODEL 3
REMARK VINA RESULT:    -3.767      6.860      7.696
REMARK INTER + INTRA:          -4.266
REMARK INTER:                  -4.235
REMARK INTRA:                  -0.031
REMARK UNBOUND:                -0.058
REMARK SMILES CCCC(=O)[O-]
REMARK SMILES IDX 3 1 4 2 5 3 6 4 2 5 1 6
REMARK H PARENT
REMARK Flexibility Score: inf
ROOT
ATOM      1  C   UNL     1      -3.896   5.904   5.564  1.00  0.00     0.052 C 
ENDROOT
BRANCH   1   2
ATOM      2  C   UNL     1      -2.786   4.901   5.515  1.00  0.00     0.041 C 
ATOM      3  O   UNL     1      -1.780   5.106   4.786  1.00  0.00    -0.550 OA
ATOM      4  O   UNL     1      -2.839   3.766   6.312  1.00  0.00    -0.550 OA
ENDBRANCH   1   2
BRANCH   1   5
ATOM      5  C   UNL     1      -3.734   6.936   4.444  1.00  0.00     0.003 C 
ATOM      6  C   UNL     1      -3.822   8.358   4.989  1.00  0.00     0.004 C 
ENDBRANCH   1   5
TORSDOF 2
ENDMDL
MODEL 4
REMARK VINA RESULT:    -3.763      6.795      7.491
REMARK INTER + INTRA:          -4.261
REMARK INTER:                  -4.244
REMARK INTRA:                  -0.017
REMARK UNBOUND:                -0.058
REMARK SMILES CCCC(=O)[O-]
REMARK SMILES IDX 3 1 4 2 5 3 6 4 2 5 1 6
REMARK H PARENT
REMARK Flexibility Score: inf
ROOT
ATOM      1  C   UNL     1      -3.193   6.727   4.395  1.00  0.00     0.052 C 
ENDROOT
BRANCH   1   2
ATOM      2  C   UNL     1      -3.872   7.960   4.902  1.00  0.00     0.041 C 
ATOM      3  O   UNL     1      -4.207   8.872   4.102  1.00  0.00    -0.550 OA
ATOM      4  O   UNL     1      -4.179   8.081   6.251  1.00  0.00    -0.550 OA
ENDBRANCH   1   2
BRANCH   1   5
ATOM      5  C   UNL     1      -3.543   5.523   5.274  1.00  0.00     0.003 C 
ATOM      6  C   UNL     1      -2.392   4.523   5.322  1.00  0.00     0.004 C 
ENDBRANCH   1   5
TORSDOF 2
ENDMDL
MODEL 5
REMARK VINA RESULT:    -3.674      7.424      8.108
REMARK INTER + INTRA:          -4.162
REMARK INTER:                  -4.151
REMARK INTRA:                  -0.011
REMARK UNBOUND:                -0.058
REMARK SMILES CCCC(=O)[O-]
REMARK SMILES IDX 3 1 4 2 5 3 6 4 2 5 1 6
REMARK H PARENT
REMARK Flexibility Score: inf
ROOT
ATOM      1  C   UNL     1      -4.170   6.387   5.662  1.00  0.00     0.052 C 
ENDROOT
BRANCH   1   2
ATOM      2  C   UNL     1      -3.523   7.213   4.596  1.00  0.00     0.041 C 
ATOM      3  O   UNL     1      -2.604   6.725   3.888  1.00  0.00    -0.550 OA
ATOM      4  O   UNL     1      -3.969   8.505   4.350  1.00  0.00    -0.550 OA
ENDBRANCH   1   2
BRANCH   1   5
ATOM      5  C   UNL     1      -4.812   7.287   6.721  1.00  0.00     0.003 C 
ATOM      6  C   UNL     1      -5.766   6.496   7.612  1.00  0.00     0.004 C 
ENDBRANCH   1   5
TORSDOF 2
ENDMDL
MODEL 6
REMARK VINA RESULT:    -3.319     12.583     13.025
REMARK INTER + INTRA:          -3.765
REMARK INTER:                  -3.703
REMARK INTRA:                  -0.062
REMARK UNBOUND:                -0.058
REMARK SMILES CCCC(=O)[O-]
REMARK SMILES IDX 3 1 4 2 5 3 6 4 2 5 1 6
REMARK H PARENT
REMARK Flexibility Score: inf
ROOT
ATOM      1  C   UNL     1       2.094  -5.077  -6.721  1.00  0.00     0.052 C 
ENDROOT
BRANCH   1   2
ATOM      2  C   UNL     1       2.231  -5.019  -8.210  1.00  0.00     0.041 C 
ATOM      3  O   UNL     1       1.859  -3.994  -8.839  1.00  0.00    -0.550 OA
ATOM      4  O   UNL     1       2.814  -6.075  -8.897  1.00  0.00    -0.550 OA
ENDBRANCH   1   2
BRANCH   1   5
ATOM      5  C   UNL     1       0.624  -5.235  -6.324  1.00  0.00     0.003 C 
ATOM      6  C   UNL     1       0.101  -6.622  -6.691  1.00  0.00     0.004 C 
ENDBRANCH   1   5
TORSDOF 2
ENDMDL
MODEL 7
REMARK VINA RESULT:    -3.113     11.426     11.986
REMARK INTER + INTRA:          -3.536
REMARK INTER:                  -3.530
REMARK INTRA:                  -0.005
REMARK UNBOUND:                -0.058
REMARK SMILES CCCC(=O)[O-]
REMARK SMILES IDX 3 1 4 2 5 3 6 4 2 5 1 6
REMARK H PARENT
REMARK Flexibility Score: inf
ROOT
ATOM      1  C   UNL     1       0.173  -4.356  -6.334  1.00  0.00     0.052 C 
ENDROOT
BRANCH   1   2
ATOM      2  C   UNL     1       1.115  -5.516  -6.406  1.00  0.00     0.041 C 
ATOM      3  O   UNL     1       2.357  -5.320  -6.464  1.00  0.00    -0.550 OA
ATOM      4  O   UNL     1       0.625  -6.815  -6.359  1.00  0.00    -0.550 OA
ENDBRANCH   1   2
BRANCH   1   5
ATOM      5  C   UNL     1      -0.092  -3.794  -7.734  1.00  0.00     0.003 C 
ATOM      6  C   UNL     1      -1.085  -2.637  -7.683  1.00  0.00     0.004 C 
ENDBRANCH   1   5
TORSDOF 2
ENDMDL
MODEL 8
REMARK VINA RESULT:    -3.103     11.454     11.973
REMARK INTER + INTRA:          -3.523
REMARK INTER:                  -3.487
REMARK INTRA:                  -0.037
REMARK UNBOUND:                -0.058
REMARK SMILES CCCC(=O)[O-]
REMARK SMILES IDX 3 1 4 2 5 3 6 4 2 5 1 6
REMARK H PARENT
REMARK Flexibility Score: inf
ROOT
ATOM      1  C   UNL     1       0.473  -4.843  -6.162  1.00  0.00     0.052 C 
ENDROOT
BRANCH   1   2
ATOM      2  C   UNL     1       1.699  -4.977  -7.009  1.00  0.00     0.041 C 
ATOM      3  O   UNL     1       1.642  -4.743  -8.245  1.00  0.00    -0.550 OA
ATOM      4  O   UNL     1       2.914  -5.311  -6.427  1.00  0.00    -0.550 OA
ENDBRANCH   1   2
BRANCH   1   5
ATOM      5  C   UNL     1      -0.771  -4.687  -7.041  1.00  0.00     0.003 C 
ATOM      6  C   UNL     1      -1.332  -3.270  -6.955  1.00  0.00     0.004 C 
ENDBRANCH   1   5
TORSDOF 2
ENDMDL
MODEL 9
REMARK VINA RESULT:    -3.085      8.742      9.520
REMARK INTER + INTRA:          -3.504
REMARK INTER:                  -3.495
REMARK INTRA:                  -0.009
REMARK UNBOUND:                -0.058
REMARK SMILES CCCC(=O)[O-]
REMARK SMILES IDX 3 1 4 2 5 3 6 4 2 5 1 6
REMARK H PARENT
REMARK Flexibility Score: inf
ROOT
ATOM      1  C   UNL     1       7.782   5.617  -2.265  1.00  0.00     0.052 C 
ENDROOT
BRANCH   1   2
ATOM      2  C   UNL     1       7.817   4.486  -1.286  1.00  0.00     0.041 C 
ATOM      3  O   UNL     1       8.917   3.984  -0.938  1.00  0.00    -0.550 OA
ATOM      4  O   UNL     1       6.637   4.019  -0.721  1.00  0.00    -0.550 OA
ENDBRANCH   1   2
BRANCH   1   5
ATOM      5  C   UNL     1       6.957   5.234  -3.497  1.00  0.00     0.003 C 
ATOM      6  C   UNL     1       7.698   5.581  -4.785  1.00  0.00     0.004 C 
ENDBRANCH   1   5
TORSDOF 2
ENDMDL
