MODEL 1
REMARK VINA RESULT:    -6.926      0.000      0.000
REMARK INTER + INTRA:          -8.929
REMARK INTER:                  -8.546
REMARK INTRA:                  -0.384
REMARK UNBOUND:                -0.384
REMARK SMILES Oc1cc(O)c2cc(O)c(-c3cc(O)c(O)c(O)c3)[o+]c2c1
REMARK SMILES IDX 10 1 20 2 21 3 22 4 2 5 3 6 4 7 6 8 7 9 8 10 11 11 12 12
REMARK SMILES IDX 13 13 19 14 15 15 17 16 14 17 16 19 18 21 9 23 1 25 5 27
REMARK H PARENT 14 18 16 20 18 22 9 24 1 26 5 28
REMARK Flexibility Score: inf
ROOT
ATOM      1  C   UNL     1     -14.281 -30.471 -11.902  1.00  0.00     0.402 A 
ATOM      2  O   UNL     1     -13.110 -31.081 -12.069  1.00  0.00    -0.202 OA
ATOM      3  C   UNL     1     -12.958 -32.182 -12.798  1.00  0.00     0.368 A 
ATOM      4  C   UNL     1     -11.686 -32.748 -12.916  1.00  0.00     0.162 A 
ATOM      5  C   UNL     1     -11.496 -33.901 -13.677  1.00  0.00     0.128 A 
ATOM      6  C   UNL     1     -12.584 -34.495 -14.327  1.00  0.00     0.093 A 
ATOM      7  C   UNL     1     -13.869 -33.948 -14.224  1.00  0.00     0.136 A 
ATOM      8  C   UNL     1     -14.067 -32.775 -13.449  1.00  0.00     0.125 A 
ATOM      9  C   UNL     1     -15.320 -32.164 -13.277  1.00  0.00     0.078 A 
ATOM     10  C   UNL     1     -15.437 -31.012 -12.494  1.00  0.00     0.223 A 
ENDROOT
BRANCH   1  11
ATOM     11  C   UNL     1     -14.320 -29.245 -11.074  1.00  0.00     0.091 A 
ATOM     12  C   UNL     1     -14.196 -27.969 -11.650  1.00  0.00     0.068 A 
ATOM     13  C   UNL     1     -14.214 -26.820 -10.846  1.00  0.00     0.162 A 
ATOM     14  C   UNL     1     -14.426 -29.356  -9.679  1.00  0.00     0.068 A 
ATOM     15  C   UNL     1     -14.343 -26.941  -9.452  1.00  0.00     0.200 A 
ATOM     16  C   UNL     1     -14.446 -28.216  -8.870  1.00  0.00     0.162 A 
BRANCH  13  17
ATOM     17  O   UNL     1     -14.096 -25.559 -11.429  1.00  0.00    -0.504 OA
ATOM     18  H   UNL     1     -13.406 -25.366 -12.146  1.00  0.00     0.293 HD
ENDBRANCH  13  17
BRANCH  15  19
ATOM     19  O   UNL     1     -14.366 -25.807  -8.638  1.00  0.00    -0.502 OA
ATOM     20  H   UNL     1     -15.129 -25.142  -8.661  1.00  0.00     0.293 HD
ENDBRANCH  15  19
BRANCH  16  21
ATOM     21  O   UNL     1     -14.567 -28.370  -7.489  1.00  0.00    -0.504 OA
ATOM     22  H   UNL     1     -14.757 -29.269  -7.062  1.00  0.00     0.293 HD
ENDBRANCH  16  21
ENDBRANCH   1  11
BRANCH  10  23
ATOM     23  O   UNL     1     -16.689 -30.434 -12.284  1.00  0.00    -0.500 OA
ATOM     24  H   UNL     1     -17.431 -30.505 -12.971  1.00  0.00     0.294 HD
ENDBRANCH  10  23
BRANCH   5  25
ATOM     25  O   UNL     1     -10.221 -34.451 -13.784  1.00  0.00    -0.507 OA
ATOM     26  H   UNL     1     -10.017 -35.197 -14.440  1.00  0.00     0.293 HD
ENDBRANCH   5  25
BRANCH   7  27
ATOM     27  O   UNL     1     -14.902 -34.597 -14.904  1.00  0.00    -0.507 OA
ATOM     28  H   UNL     1     -15.089 -35.588 -14.847  1.00  0.00     0.293 HD
ENDBRANCH   7  27
TORSDOF 7
ENDMDL
MODEL 2
REMARK VINA RESULT:    -6.714      1.137      7.126
REMARK INTER + INTRA:          -8.668
REMARK INTER:                  -8.284
REMARK INTRA:                  -0.384
REMARK UNBOUND:                -0.384
REMARK SMILES Oc1cc(O)c2cc(O)c(-c3cc(O)c(O)c(O)c3)[o+]c2c1
REMARK SMILES IDX 10 1 20 2 21 3 22 4 2 5 3 6 4 7 6 8 7 9 8 10 11 11 12 12
REMARK SMILES IDX 13 13 19 14 15 15 17 16 14 17 16 19 18 21 9 23 1 25 5 27
REMARK H PARENT 14 18 16 20 18 22 9 24 1 26 5 28
REMARK Flexibility Score: inf
ROOT
ATOM      1  C   UNL     1     -13.696 -30.690 -12.342  1.00  0.00     0.402 A 
ATOM      2  O   UNL     1     -13.817 -30.729 -11.018  1.00  0.00    -0.202 OA
ATOM      3  C   UNL     1     -14.001 -29.647 -10.268  1.00  0.00     0.368 A 
ATOM      4  C   UNL     1     -14.120 -29.791  -8.883  1.00  0.00     0.162 A 
ATOM      5  C   UNL     1     -14.317 -28.673  -8.073  1.00  0.00     0.128 A 
ATOM      6  C   UNL     1     -14.398 -27.400  -8.649  1.00  0.00     0.093 A 
ATOM      7  C   UNL     1     -14.283 -27.229 -10.034  1.00  0.00     0.136 A 
ATOM      8  C   UNL     1     -14.079 -28.364 -10.861  1.00  0.00     0.125 A 
ATOM      9  C   UNL     1     -13.938 -28.287 -12.257  1.00  0.00     0.078 A 
ATOM     10  C   UNL     1     -13.736 -29.450 -13.006  1.00  0.00     0.223 A 
ENDROOT
BRANCH   1  11
ATOM     11  C   UNL     1     -13.503 -31.966 -13.066  1.00  0.00     0.091 A 
ATOM     12  C   UNL     1     -14.594 -32.680 -13.592  1.00  0.00     0.068 A 
ATOM     13  C   UNL     1     -14.392 -33.899 -14.256  1.00  0.00     0.162 A 
ATOM     14  C   UNL     1     -12.213 -32.506 -13.183  1.00  0.00     0.068 A 
ATOM     15  C   UNL     1     -13.094 -34.420 -14.388  1.00  0.00     0.200 A 
ATOM     16  C   UNL     1     -12.004 -33.720 -13.845  1.00  0.00     0.162 A 
BRANCH  13  17
ATOM     17  O   UNL     1     -15.481 -34.596 -14.779  1.00  0.00    -0.504 OA
ATOM     18  H   UNL     1     -16.396 -34.558 -14.345  1.00  0.00     0.293 HD
ENDBRANCH  13  17
BRANCH  15  19
ATOM     19  O   UNL     1     -12.876 -35.630 -15.049  1.00  0.00    -0.502 OA
ATOM     20  H   UNL     1     -12.955 -36.524 -14.579  1.00  0.00     0.293 HD
ENDBRANCH  15  19
BRANCH  16  21
ATOM     21  O   UNL     1     -10.704 -34.214 -13.951  1.00  0.00    -0.504 OA
ATOM     22  H   UNL     1     -10.169 -34.143 -14.808  1.00  0.00     0.293 HD
ENDBRANCH  16  21
ENDBRANCH   1  11
BRANCH  10  23
ATOM     23  O   UNL     1     -13.547 -29.369 -14.386  1.00  0.00    -0.500 OA
ATOM     24  H   UNL     1     -12.712 -28.956 -14.787  1.00  0.00     0.294 HD
ENDBRANCH  10  23
BRANCH   5  25
ATOM     25  O   UNL     1     -14.434 -28.836  -6.694  1.00  0.00    -0.507 OA
ATOM     26  H   UNL     1     -14.709 -29.722  -6.287  1.00  0.00     0.293 HD
ENDBRANCH   5  25
BRANCH   7  27
ATOM     27  O   UNL     1     -14.377 -25.926 -10.532  1.00  0.00    -0.507 OA
ATOM     28  H   UNL     1     -13.847 -25.575 -11.316  1.00  0.00     0.293 HD
ENDBRANCH   7  27
TORSDOF 7
ENDMDL
MODEL 3
REMARK VINA RESULT:    -6.696      0.318      1.822
REMARK INTER + INTRA:          -8.645
REMARK INTER:                  -8.267
REMARK INTRA:                  -0.378
REMARK UNBOUND:                -0.384
REMARK SMILES Oc1cc(O)c2cc(O)c(-c3cc(O)c(O)c(O)c3)[o+]c2c1
REMARK SMILES IDX 10 1 20 2 21 3 22 4 2 5 3 6 4 7 6 8 7 9 8 10 11 11 12 12
REMARK SMILES IDX 13 13 19 14 15 15 17 16 14 17 16 19 18 21 9 23 1 25 5 27
REMARK H PARENT 14 18 16 20 18 22 9 24 1 26 5 28
REMARK Flexibility Score: inf
ROOT
ATOM      1  C   UNL     1     -14.034 -30.388 -11.715  1.00  0.00     0.402 A 
ATOM      2  O   UNL     1     -12.850 -30.974 -11.873  1.00  0.00    -0.202 OA
ATOM      3  C   UNL     1     -12.668 -32.067 -12.608  1.00  0.00     0.368 A 
ATOM      4  C   UNL     1     -11.384 -32.607 -12.716  1.00  0.00     0.162 A 
ATOM      5  C   UNL     1     -11.163 -33.751 -13.483  1.00  0.00     0.128 A 
ATOM      6  C   UNL     1     -12.232 -34.361 -14.149  1.00  0.00     0.093 A 
ATOM      7  C   UNL     1     -13.528 -33.839 -14.057  1.00  0.00     0.136 A 
ATOM      8  C   UNL     1     -13.757 -32.677 -13.276  1.00  0.00     0.125 A 
ATOM      9  C   UNL     1     -15.024 -32.091 -13.114  1.00  0.00     0.078 A 
ATOM     10  C   UNL     1     -15.172 -30.948 -12.324  1.00  0.00     0.223 A 
ENDROOT
BRANCH   1  11
ATOM     11  C   UNL     1     -14.107 -29.169 -10.879  1.00  0.00     0.091 A 
ATOM     12  C   UNL     1     -14.300 -29.246  -9.489  1.00  0.00     0.068 A 
ATOM     13  C   UNL     1     -14.388 -28.078  -8.717  1.00  0.00     0.162 A 
ATOM     14  C   UNL     1     -14.038 -27.908 -11.490  1.00  0.00     0.068 A 
ATOM     15  C   UNL     1     -14.295 -26.819  -9.336  1.00  0.00     0.200 A 
ATOM     16  C   UNL     1     -14.123 -26.739 -10.727  1.00  0.00     0.162 A 
BRANCH  13  17
ATOM     17  O   UNL     1     -14.574 -28.166  -7.338  1.00  0.00    -0.504 OA
ATOM     18  H   UNL     1     -13.989 -28.757  -6.759  1.00  0.00     0.293 HD
ENDBRANCH  13  17
BRANCH  15  19
ATOM     19  O   UNL     1     -14.377 -25.648  -8.581  1.00  0.00    -0.502 OA
ATOM     20  H   UNL     1     -13.997 -24.768  -8.909  1.00  0.00     0.293 HD
ENDBRANCH  15  19
BRANCH  16  21
ATOM     21  O   UNL     1     -14.036 -25.505 -11.373  1.00  0.00    -0.504 OA
ATOM     22  H   UNL     1     -14.820 -25.101 -11.870  1.00  0.00     0.293 HD
ENDBRANCH  16  21
ENDBRANCH   1  11
BRANCH  10  23
ATOM     23  O   UNL     1     -16.438 -30.395 -12.125  1.00  0.00    -0.500 OA
ATOM     24  H   UNL     1     -16.625 -29.414 -12.299  1.00  0.00     0.294 HD
ENDBRANCH  10  23
BRANCH   5  25
ATOM     25  O   UNL     1      -9.875 -34.274 -13.579  1.00  0.00    -0.507 OA
ATOM     26  H   UNL     1      -9.274 -34.063 -14.367  1.00  0.00     0.293 HD
ENDBRANCH   5  25
BRANCH   7  27
ATOM     27  O   UNL     1     -14.540 -34.504 -14.754  1.00  0.00    -0.507 OA
ATOM     28  H   UNL     1     -15.449 -34.110 -14.953  1.00  0.00     0.293 HD
ENDBRANCH   7  27
TORSDOF 7
ENDMDL
MODEL 4
REMARK VINA RESULT:    -6.580      1.291      7.200
REMARK INTER + INTRA:          -8.502
REMARK INTER:                  -8.129
REMARK INTRA:                  -0.374
REMARK UNBOUND:                -0.384
REMARK SMILES Oc1cc(O)c2cc(O)c(-c3cc(O)c(O)c(O)c3)[o+]c2c1
REMARK SMILES IDX 10 1 20 2 21 3 22 4 2 5 3 6 4 7 6 8 7 9 8 10 11 11 12 12
REMARK SMILES IDX 13 13 19 14 15 15 17 16 14 17 16 19 18 21 9 23 1 25 5 27
REMARK H PARENT 14 18 16 20 18 22 9 24 1 26 5 28
REMARK Flexibility Score: inf
ROOT
ATOM      1  C   UNL     1     -13.809 -30.818 -12.321  1.00  0.00     0.402 A 
ATOM      2  O   UNL     1     -13.895 -29.676 -12.998  1.00  0.00    -0.202 OA
ATOM      3  C   UNL     1     -14.094 -28.497 -12.418  1.00  0.00     0.368 A 
ATOM      4  C   UNL     1     -14.168 -27.351 -13.215  1.00  0.00     0.162 A 
ATOM      5  C   UNL     1     -14.373 -26.100 -12.633  1.00  0.00     0.128 A 
ATOM      6  C   UNL     1     -14.505 -25.990 -11.244  1.00  0.00     0.093 A 
ATOM      7  C   UNL     1     -14.435 -27.122 -10.424  1.00  0.00     0.136 A 
ATOM      8  C   UNL     1     -14.229 -28.397 -11.012  1.00  0.00     0.125 A 
ATOM      9  C   UNL     1     -14.160 -29.589 -10.271  1.00  0.00     0.078 A 
ATOM     10  C   UNL     1     -13.959 -30.809 -10.922  1.00  0.00     0.223 A 
ENDROOT
BRANCH   1  11
ATOM     11  C   UNL     1     -13.575 -32.067 -13.081  1.00  0.00     0.091 A 
ATOM     12  C   UNL     1     -14.641 -32.793 -13.641  1.00  0.00     0.068 A 
ATOM     13  C   UNL     1     -14.400 -33.985 -14.338  1.00  0.00     0.162 A 
ATOM     14  C   UNL     1     -12.271 -32.569 -13.199  1.00  0.00     0.068 A 
ATOM     15  C   UNL     1     -13.087 -34.469 -14.471  1.00  0.00     0.200 A 
ATOM     16  C   UNL     1     -12.022 -33.757 -13.894  1.00  0.00     0.162 A 
BRANCH  13  17
ATOM     17  O   UNL     1     -15.464 -34.694 -14.895  1.00  0.00    -0.504 OA
ATOM     18  H   UNL     1     -15.313 -35.503 -15.487  1.00  0.00     0.293 HD
ENDBRANCH  13  17
BRANCH  15  19
ATOM     19  O   UNL     1     -12.831 -35.652 -15.165  1.00  0.00    -0.502 OA
ATOM     20  H   UNL     1     -11.975 -36.178 -15.036  1.00  0.00     0.293 HD
ENDBRANCH  15  19
BRANCH  16  21
ATOM     21  O   UNL     1     -10.708 -34.214 -14.000  1.00  0.00    -0.504 OA
ATOM     22  H   UNL     1     -10.423 -35.119 -13.645  1.00  0.00     0.293 HD
ENDBRANCH  16  21
ENDBRANCH   1  11
BRANCH  10  23
ATOM     23  O   UNL     1     -13.939 -31.997 -10.191  1.00  0.00    -0.500 OA
ATOM     24  H   UNL     1     -13.198 -32.204  -9.529  1.00  0.00     0.294 HD
ENDBRANCH  10  23
BRANCH   5  25
ATOM     25  O   UNL     1     -14.442 -24.969 -13.444  1.00  0.00    -0.507 OA
ATOM     26  H   UNL     1     -13.858 -24.869 -14.266  1.00  0.00     0.293 HD
ENDBRANCH   5  25
BRANCH   7  27
ATOM     27  O   UNL     1     -14.574 -26.929  -9.047  1.00  0.00    -0.507 OA
ATOM     28  H   UNL     1     -13.832 -27.063  -8.374  1.00  0.00     0.293 HD
ENDBRANCH   7  27
TORSDOF 7
ENDMDL
MODEL 5
REMARK VINA RESULT:    -6.567      1.311      7.195
REMARK INTER + INTRA:          -8.487
REMARK INTER:                  -8.101
REMARK INTRA:                  -0.385
REMARK UNBOUND:                -0.384
REMARK SMILES Oc1cc(O)c2cc(O)c(-c3cc(O)c(O)c(O)c3)[o+]c2c1
REMARK SMILES IDX 10 1 20 2 21 3 22 4 2 5 3 6 4 7 6 8 7 9 8 10 11 11 12 12
REMARK SMILES IDX 13 13 19 14 15 15 17 16 14 17 16 19 18 21 9 23 1 25 5 27
REMARK H PARENT 14 18 16 20 18 22 9 24 1 26 5 28
REMARK Flexibility Score: inf
ROOT
ATOM      1  C   UNL     1     -13.724 -30.827 -12.292  1.00  0.00     0.402 A 
ATOM      2  O   UNL     1     -13.815 -29.704 -13.000  1.00  0.00    -0.202 OA
ATOM      3  C   UNL     1     -14.031 -28.512 -12.454  1.00  0.00     0.368 A 
ATOM      4  C   UNL     1     -14.108 -27.389 -13.282  1.00  0.00     0.162 A 
ATOM      5  C   UNL     1     -14.329 -26.125 -12.736  1.00  0.00     0.128 A 
ATOM      6  C   UNL     1     -14.475 -25.979 -11.352  1.00  0.00     0.093 A 
ATOM      7  C   UNL     1     -14.401 -27.088 -10.500  1.00  0.00     0.136 A 
ATOM      8  C   UNL     1     -14.178 -28.376 -11.053  1.00  0.00     0.125 A 
ATOM      9  C   UNL     1     -14.104 -29.546 -10.279  1.00  0.00     0.078 A 
ATOM     10  C   UNL     1     -13.886 -30.782 -10.895  1.00  0.00     0.223 A 
ENDROOT
BRANCH   1  11
ATOM     11  C   UNL     1     -13.473 -32.093 -13.016  1.00  0.00     0.091 A 
ATOM     12  C   UNL     1     -12.171 -32.599 -13.175  1.00  0.00     0.068 A 
ATOM     13  C   UNL     1     -11.951 -33.789 -13.883  1.00  0.00     0.162 A 
ATOM     14  C   UNL     1     -14.547 -32.777 -13.605  1.00  0.00     0.068 A 
ATOM     15  C   UNL     1     -13.036 -34.479 -14.451  1.00  0.00     0.200 A 
ATOM     16  C   UNL     1     -14.336 -33.965 -14.312  1.00  0.00     0.162 A 
BRANCH  13  17
ATOM     17  O   UNL     1     -10.656 -34.284 -14.030  1.00  0.00    -0.504 OA
ATOM     18  H   UNL     1      -9.875 -33.676 -14.250  1.00  0.00     0.293 HD
ENDBRANCH  13  17
BRANCH  15  19
ATOM     19  O   UNL     1     -12.835 -35.666 -15.155  1.00  0.00    -0.502 OA
ATOM     20  H   UNL     1     -12.063 -36.290 -14.952  1.00  0.00     0.293 HD
ENDBRANCH  15  19
BRANCH  16  21
ATOM     21  O   UNL     1     -15.434 -34.621 -14.870  1.00  0.00    -0.504 OA
ATOM     22  H   UNL     1     -16.086 -34.151 -15.486  1.00  0.00     0.293 HD
ENDBRANCH  16  21
ENDBRANCH   1  11
BRANCH  10  23
ATOM     23  O   UNL     1     -13.861 -31.950 -10.132  1.00  0.00    -0.500 OA
ATOM     24  H   UNL     1     -13.213 -32.703 -10.331  1.00  0.00     0.294 HD
ENDBRANCH  10  23
BRANCH   5  25
ATOM     25  O   UNL     1     -14.402 -25.017 -13.578  1.00  0.00    -0.507 OA
ATOM     26  H   UNL     1     -13.770 -24.231 -13.477  1.00  0.00     0.293 HD
ENDBRANCH   5  25
BRANCH   7  27
ATOM     27  O   UNL     1     -14.553 -26.859  -9.130  1.00  0.00    -0.507 OA
ATOM     28  H   UNL     1     -15.399 -26.512  -8.700  1.00  0.00     0.293 HD
ENDBRANCH   7  27
TORSDOF 7
ENDMDL
MODEL 6
REMARK VINA RESULT:    -6.370      2.142      3.684
REMARK INTER + INTRA:          -8.243
REMARK INTER:                  -8.477
REMARK INTRA:                   0.234
REMARK UNBOUND:                -0.384
REMARK SMILES Oc1cc(O)c2cc(O)c(-c3cc(O)c(O)c(O)c3)[o+]c2c1
REMARK SMILES IDX 10 1 20 2 21 3 22 4 2 5 3 6 4 7 6 8 7 9 8 10 11 11 12 12
REMARK SMILES IDX 13 13 19 14 15 15 17 16 14 17 16 19 18 21 9 23 1 25 5 27
REMARK H PARENT 14 18 16 20 18 22 9 24 1 26 5 28
REMARK Flexibility Score: inf
ROOT
ATOM      1  C   UNL     1     -12.590 -30.263 -11.800  1.00  0.00     0.402 A 
ATOM      2  O   UNL     1     -12.671 -31.209 -12.732  1.00  0.00    -0.202 OA
ATOM      3  C   UNL     1     -12.263 -32.460 -12.541  1.00  0.00     0.368 A 
ATOM      4  C   UNL     1     -12.393 -33.383 -13.582  1.00  0.00     0.162 A 
ATOM      5  C   UNL     1     -11.976 -34.703 -13.408  1.00  0.00     0.128 A 
ATOM      6  C   UNL     1     -11.426 -35.106 -12.187  1.00  0.00     0.093 A 
ATOM      7  C   UNL     1     -11.286 -34.200 -11.128  1.00  0.00     0.136 A 
ATOM      8  C   UNL     1     -11.706 -32.856 -11.301  1.00  0.00     0.125 A 
ATOM      9  C   UNL     1     -11.591 -31.875 -10.302  1.00  0.00     0.078 A 
ATOM     10  C   UNL     1     -12.023 -30.569 -10.548  1.00  0.00     0.223 A 
ENDROOT
BRANCH   1  11
ATOM     11  C   UNL     1     -13.087 -28.909 -12.130  1.00  0.00     0.091 A 
ATOM     12  C   UNL     1     -13.497 -28.015 -11.126  1.00  0.00     0.068 A 
ATOM     13  C   UNL     1     -13.986 -26.744 -11.461  1.00  0.00     0.162 A 
ATOM     14  C   UNL     1     -13.207 -28.527 -13.475  1.00  0.00     0.068 A 
ATOM     15  C   UNL     1     -14.081 -26.362 -12.811  1.00  0.00     0.200 A 
ATOM     16  C   UNL     1     -13.693 -27.261 -13.818  1.00  0.00     0.162 A 
BRANCH  13  17
ATOM     17  O   UNL     1     -14.383 -25.862 -10.457  1.00  0.00    -0.504 OA
ATOM     18  H   UNL     1     -14.172 -26.037  -9.481  1.00  0.00     0.293 HD
ENDBRANCH  13  17
BRANCH  15  19
ATOM     19  O   UNL     1     -14.562 -25.100 -13.161  1.00  0.00    -0.502 OA
ATOM     20  H   UNL     1     -15.514 -24.953 -13.475  1.00  0.00     0.293 HD
ENDBRANCH  15  19
BRANCH  16  21
ATOM     21  O   UNL     1     -13.784 -26.916 -15.166  1.00  0.00    -0.504 OA
ATOM     22  H   UNL     1     -14.146 -27.555 -15.863  1.00  0.00     0.293 HD
ENDBRANCH  16  21
ENDBRANCH   1  11
BRANCH  10  23
ATOM     23  O   UNL     1     -11.865 -29.584  -9.573  1.00  0.00    -0.500 OA
ATOM     24  H   UNL     1     -12.607 -28.932  -9.347  1.00  0.00     0.294 HD
ENDBRANCH  10  23
BRANCH   5  25
ATOM     25  O   UNL     1     -12.114 -35.610 -14.457  1.00  0.00    -0.507 OA
ATOM     26  H   UNL     1     -12.603 -36.489 -14.337  1.00  0.00     0.293 HD
ENDBRANCH   5  25
BRANCH   7  27
ATOM     27  O   UNL     1     -10.730 -34.680  -9.939  1.00  0.00    -0.507 OA
ATOM     28  H   UNL     1      -9.754 -34.599  -9.692  1.00  0.00     0.293 HD
ENDBRANCH   7  27
TORSDOF 7
ENDMDL
MODEL 7
REMARK VINA RESULT:    -6.347      1.649      7.056
REMARK INTER + INTRA:          -8.216
REMARK INTER:                  -8.061
REMARK INTRA:                  -0.155
REMARK UNBOUND:                -0.384
REMARK SMILES Oc1cc(O)c2cc(O)c(-c3cc(O)c(O)c(O)c3)[o+]c2c1
REMARK SMILES IDX 10 1 20 2 21 3 22 4 2 5 3 6 4 7 6 8 7 9 8 10 11 11 12 12
REMARK SMILES IDX 13 13 19 14 15 15 17 16 14 17 16 19 18 21 9 23 1 25 5 27
REMARK H PARENT 14 18 16 20 18 22 9 24 1 26 5 28
REMARK Flexibility Score: inf
ROOT
ATOM      1  C   UNL     1     -13.895 -29.589 -11.268  1.00  0.00     0.402 A 
ATOM      2  O   UNL     1     -13.185 -29.581 -10.142  1.00  0.00    -0.202 OA
ATOM      3  C   UNL     1     -13.177 -28.560  -9.291  1.00  0.00     0.368 A 
ATOM      4  C   UNL     1     -12.401 -28.647  -8.132  1.00  0.00     0.162 A 
ATOM      5  C   UNL     1     -12.376 -27.592  -7.220  1.00  0.00     0.128 A 
ATOM      6  C   UNL     1     -13.131 -26.440  -7.466  1.00  0.00     0.093 A 
ATOM      7  C   UNL     1     -13.917 -26.328  -8.619  1.00  0.00     0.136 A 
ATOM      8  C   UNL     1     -13.944 -27.398  -9.551  1.00  0.00     0.125 A 
ATOM      9  C   UNL     1     -14.691 -27.369 -10.740  1.00  0.00     0.078 A 
ATOM     10  C   UNL     1     -14.663 -28.461 -11.612  1.00  0.00     0.223 A 
ENDROOT
BRANCH   1  11
ATOM     11  C   UNL     1     -13.829 -30.791 -12.129  1.00  0.00     0.091 A 
ATOM     12  C   UNL     1     -14.992 -31.474 -12.522  1.00  0.00     0.068 A 
ATOM     13  C   UNL     1     -14.907 -32.623 -13.320  1.00  0.00     0.162 A 
ATOM     14  C   UNL     1     -12.578 -31.295 -12.516  1.00  0.00     0.068 A 
ATOM     15  C   UNL     1     -13.651 -33.108 -13.722  1.00  0.00     0.200 A 
ATOM     16  C   UNL     1     -12.484 -32.440 -13.313  1.00  0.00     0.162 A 
BRANCH  13  17
ATOM     17  O   UNL     1     -16.069 -33.289 -13.710  1.00  0.00    -0.504 OA
ATOM     18  H   UNL     1     -16.953 -33.138 -13.238  1.00  0.00     0.293 HD
ENDBRANCH  13  17
BRANCH  15  19
ATOM     19  O   UNL     1     -13.549 -34.248 -14.520  1.00  0.00    -0.502 OA
ATOM     20  H   UNL     1     -13.465 -35.177 -14.125  1.00  0.00     0.293 HD
ENDBRANCH  15  19
BRANCH  16  21
ATOM     21  O   UNL     1     -11.222 -32.900 -13.688  1.00  0.00    -0.504 OA
ATOM     22  H   UNL     1     -10.644 -33.453 -13.067  1.00  0.00     0.293 HD
ENDBRANCH  16  21
ENDBRANCH   1  11
BRANCH  10  23
ATOM     23  O   UNL     1     -15.366 -28.413 -12.816  1.00  0.00    -0.500 OA
ATOM     24  H   UNL     1     -15.611 -29.254 -13.326  1.00  0.00     0.294 HD
ENDBRANCH  10  23
BRANCH   5  25
ATOM     25  O   UNL     1     -11.596 -27.698  -6.070  1.00  0.00    -0.507 OA
ATOM     26  H   UNL     1     -10.604 -27.488  -6.081  1.00  0.00     0.293 HD
ENDBRANCH   5  25
BRANCH   7  27
ATOM     27  O   UNL     1     -14.645 -25.147  -8.790  1.00  0.00    -0.507 OA
ATOM     28  H   UNL     1     -15.288 -24.770  -8.109  1.00  0.00     0.293 HD
ENDBRANCH   7  27
TORSDOF 7
ENDMDL
MODEL 8
REMARK VINA RESULT:    -6.339      0.988      2.571
REMARK INTER + INTRA:          -8.206
REMARK INTER:                  -7.826
REMARK INTRA:                  -0.380
REMARK UNBOUND:                -0.384
REMARK SMILES Oc1cc(O)c2cc(O)c(-c3cc(O)c(O)c(O)c3)[o+]c2c1
REMARK SMILES IDX 10 1 20 2 21 3 22 4 2 5 3 6 4 7 6 8 7 9 8 10 11 11 12 12
REMARK SMILES IDX 13 13 19 14 15 15 17 16 14 17 16 19 18 21 9 23 1 25 5 27
REMARK H PARENT 14 18 16 20 18 22 9 24 1 26 5 28
REMARK Flexibility Score: inf
ROOT
ATOM      1  C   UNL     1     -13.078 -30.491 -11.641  1.00  0.00     0.402 A 
ATOM      2  O   UNL     1     -13.987 -31.195 -12.310  1.00  0.00    -0.202 OA
ATOM      3  C   UNL     1     -13.696 -32.291 -13.003  1.00  0.00     0.368 A 
ATOM      4  C   UNL     1     -14.721 -32.964 -13.672  1.00  0.00     0.162 A 
ATOM      5  C   UNL     1     -14.446 -34.120 -14.404  1.00  0.00     0.128 A 
ATOM      6  C   UNL     1     -13.136 -34.608 -14.468  1.00  0.00     0.093 A 
ATOM      7  C   UNL     1     -12.091 -33.952 -13.807  1.00  0.00     0.136 A 
ATOM      8  C   UNL     1     -12.367 -32.775 -13.063  1.00  0.00     0.125 A 
ATOM      9  C   UNL     1     -11.381 -32.044 -12.380  1.00  0.00     0.078 A 
ATOM     10  C   UNL     1     -11.729 -30.890 -11.671  1.00  0.00     0.223 A 
ENDROOT
BRANCH   1  11
ATOM     11  C   UNL     1     -13.528 -29.292 -10.898  1.00  0.00     0.091 A 
ATOM     12  C   UNL     1     -13.576 -28.027 -11.510  1.00  0.00     0.068 A 
ATOM     13  C   UNL     1     -13.985 -26.900 -10.784  1.00  0.00     0.162 A 
ATOM     14  C   UNL     1     -13.861 -29.406  -9.540  1.00  0.00     0.068 A 
ATOM     15  C   UNL     1     -14.338 -27.028  -9.429  1.00  0.00     0.200 A 
ATOM     16  C   UNL     1     -14.271 -28.286  -8.808  1.00  0.00     0.162 A 
BRANCH  13  17
ATOM     17  O   UNL     1     -14.035 -25.651 -11.403  1.00  0.00    -0.504 OA
ATOM     18  H   UNL     1     -13.197 -25.106 -11.569  1.00  0.00     0.293 HD
ENDBRANCH  13  17
BRANCH  15  19
ATOM     19  O   UNL     1     -14.750 -25.917  -8.693  1.00  0.00    -0.502 OA
ATOM     20  H   UNL     1     -14.375 -24.990  -8.858  1.00  0.00     0.293 HD
ENDBRANCH  15  19
BRANCH  16  21
ATOM     21  O   UNL     1     -14.606 -28.446  -7.464  1.00  0.00    -0.504 OA
ATOM     22  H   UNL     1     -15.559 -28.610  -7.162  1.00  0.00     0.293 HD
ENDBRANCH  16  21
ENDBRANCH   1  11
BRANCH  10  23
ATOM     23  O   UNL     1     -10.743 -30.137 -11.033  1.00  0.00    -0.500 OA
ATOM     24  H   UNL     1     -10.669 -29.134 -11.164  1.00  0.00     0.294 HD
ENDBRANCH  10  23
BRANCH   5  25
ATOM     25  O   UNL     1     -15.481 -34.777 -15.064  1.00  0.00    -0.507 OA
ATOM     26  H   UNL     1     -15.389 -35.739 -15.370  1.00  0.00     0.293 HD
ENDBRANCH   5  25
BRANCH   7  27
ATOM     27  O   UNL     1     -10.812 -34.504 -13.917  1.00  0.00    -0.507 OA
ATOM     28  H   UNL     1     -10.179 -34.329 -14.684  1.00  0.00     0.293 HD
ENDBRANCH   7  27
TORSDOF 7
ENDMDL
MODEL 9
REMARK VINA RESULT:    -6.227      2.963      4.367
REMARK INTER + INTRA:          -8.067
REMARK INTER:                  -8.368
REMARK INTRA:                   0.300
REMARK UNBOUND:                -0.384
REMARK SMILES Oc1cc(O)c2cc(O)c(-c3cc(O)c(O)c(O)c3)[o+]c2c1
REMARK SMILES IDX 10 1 20 2 21 3 22 4 2 5 3 6 4 7 6 8 7 9 8 10 11 11 12 12
REMARK SMILES IDX 13 13 19 14 15 15 17 16 14 17 16 19 18 21 9 23 1 25 5 27
REMARK H PARENT 14 18 16 20 18 22 9 24 1 26 5 28
REMARK Flexibility Score: inf
ROOT
ATOM      1  C   UNL     1     -12.561 -30.118 -11.517  1.00  0.00     0.402 A 
ATOM      2  O   UNL     1     -12.010 -30.200 -10.309  1.00  0.00    -0.202 OA
ATOM      3  C   UNL     1     -11.528 -31.330  -9.801  1.00  0.00     0.368 A 
ATOM      4  C   UNL     1     -10.965 -31.315  -8.522  1.00  0.00     0.162 A 
ATOM      5  C   UNL     1     -10.448 -32.485  -7.966  1.00  0.00     0.128 A 
ATOM      6  C   UNL     1     -10.493 -33.681  -8.691  1.00  0.00     0.093 A 
ATOM      7  C   UNL     1     -11.051 -33.722  -9.974  1.00  0.00     0.136 A 
ATOM      8  C   UNL     1     -11.580 -32.534 -10.543  1.00  0.00     0.125 A 
ATOM      9  C   UNL     1     -12.171 -32.484 -11.816  1.00  0.00     0.078 A 
ATOM     10  C   UNL     1     -12.675 -31.276 -12.308  1.00  0.00     0.223 A 
ENDROOT
BRANCH   1  11
ATOM     11  C   UNL     1     -13.053 -28.799 -11.974  1.00  0.00     0.091 A 
ATOM     12  C   UNL     1     -13.459 -27.812 -11.060  1.00  0.00     0.068 A 
ATOM     13  C   UNL     1     -13.943 -26.577 -11.514  1.00  0.00     0.162 A 
ATOM     14  C   UNL     1     -13.171 -28.546 -13.349  1.00  0.00     0.068 A 
ATOM     15  C   UNL     1     -14.036 -26.324 -12.893  1.00  0.00     0.200 A 
ATOM     16  C   UNL     1     -13.651 -27.316 -13.810  1.00  0.00     0.162 A 
BRANCH  13  17
ATOM     17  O   UNL     1     -14.337 -25.603 -10.597  1.00  0.00    -0.504 OA
ATOM     18  H   UNL     1     -15.315 -25.382 -10.443  1.00  0.00     0.293 HD
ENDBRANCH  13  17
BRANCH  15  19
ATOM     19  O   UNL     1     -14.512 -25.098 -13.362  1.00  0.00    -0.502 OA
ATOM     20  H   UNL     1     -14.210 -24.704 -14.245  1.00  0.00     0.293 HD
ENDBRANCH  15  19
BRANCH  16  21
ATOM     21  O   UNL     1     -13.739 -27.099 -15.186  1.00  0.00    -0.504 OA
ATOM     22  H   UNL     1     -14.240 -26.310 -15.575  1.00  0.00     0.293 HD
ENDBRANCH  16  21
ENDBRANCH   1  11
BRANCH  10  23
ATOM     23  O   UNL     1     -13.306 -31.236 -13.552  1.00  0.00    -0.500 OA
ATOM     24  H   UNL     1     -14.014 -31.913 -13.813  1.00  0.00     0.294 HD
ENDBRANCH  10  23
BRANCH   5  25
ATOM     25  O   UNL     1      -9.891 -32.450  -6.689  1.00  0.00    -0.507 OA
ATOM     26  H   UNL     1     -10.464 -32.532  -5.857  1.00  0.00     0.293 HD
ENDBRANCH   5  25
BRANCH   7  27
ATOM     27  O   UNL     1     -11.055 -34.954 -10.635  1.00  0.00    -0.507 OA
ATOM     28  H   UNL     1     -11.794 -35.271 -11.247  1.00  0.00     0.293 HD
ENDBRANCH   7  27
TORSDOF 7
ENDMDL
