MODEL 1
REMARK VINA RESULT:     1.915      0.000      0.000
REMARK INTER + INTRA:           3.473
REMARK INTER:                   2.699
REMARK INTRA:                   0.774
REMARK UNBOUND:                 0.774
REMARK SMILES CC1=CCC(=C(C)C)CCC(C)=CCC1
REMARK SMILES IDX 5 1 6 2 7 3 8 4 9 5 10 6 11 7 12 8 13 9 4 11 3 12 2 13 1 14
REMARK SMILES IDX 15 15 14 16
REMARK H PARENT
REMARK Flexibility Score: 60.00
ROOT
ATOM      1  C   UNL     1     -14.205  -2.368  19.431  1.00  0.00    -0.067 C 
ATOM      2  C   UNL     1     -14.083  -2.375  20.798  1.00  0.00    -0.077 C 
ATOM      3  C   UNL     1     -15.303  -2.261  21.692  1.00  0.00     0.039 C 
ATOM      4  C   UNL     1     -12.741  -2.505  21.486  1.00  0.00     0.039 C 
ENDROOT
BRANCH   1   5
ATOM      5  C   UNL     1     -12.968  -2.373  18.518  1.00  0.00     0.035 C 
BRANCH   5   6
ATOM      6  C   UNL     1     -13.026  -3.393  17.357  1.00  0.00     0.035 C 
BRANCH   6   7
ATOM      7  C   UNL     1     -13.213  -2.750  15.992  1.00  0.00    -0.077 C 
ATOM      8  C   UNL     1     -11.987  -2.445  15.170  1.00  0.00     0.039 C 
ATOM      9  C   UNL     1     -14.424  -2.456  15.461  1.00  0.00    -0.028 CG0
ATOM     10  G   UNL     1     -15.767  -2.818  16.053  1.00  0.00     0.000 G0
ENDBRANCH   6   7
ENDBRANCH   5   6
ENDBRANCH   1   5
BRANCH   1  11
ATOM     11  C   UNL     1     -15.597  -2.303  18.803  1.00  0.00     0.058 C 
BRANCH  11  12
ATOM     12  C   UNL     1     -15.983  -0.924  18.319  1.00  0.00    -0.024 C 
ATOM     13  C   UNL     1     -16.504  -0.625  17.106  1.00  0.00    -0.077 C 
ATOM     14  C   UNL     1     -16.873   0.813  16.836  1.00  0.00     0.039 C 
BRANCH  13  15
ATOM     15  C   UNL     1     -16.774  -1.652  16.021  1.00  0.00     0.034 C 
BRANCH  15  16
ATOM     16  C   UNL     1     -15.767  -2.815  16.043  1.00  0.00     0.032 CG0
ATOM     17  G   UNL     1     -14.425  -2.457  15.447  1.00  0.00     0.000 G0
ENDBRANCH  15  16
ENDBRANCH  13  15
ENDBRANCH  11  12
ENDBRANCH   1  11
TORSDOF 0
ENDMDL
MODEL 2
REMARK VINA RESULT:     2.266      1.115      3.446
REMARK INTER + INTRA:           3.968
REMARK INTER:                   3.137
REMARK INTRA:                   0.831
REMARK UNBOUND:                 0.774
REMARK SMILES CC1=CCC(=C(C)C)CCC(C)=CCC1
REMARK SMILES IDX 5 1 6 2 7 3 8 4 9 5 10 6 11 7 12 8 13 9 4 11 3 12 2 13 1 14
REMARK SMILES IDX 15 15 14 16
REMARK H PARENT
REMARK Flexibility Score: 60.00
ROOT
ATOM      1  C   UNL     1     -14.289  -2.102  19.481  1.00  0.00    -0.067 C 
ATOM      2  C   UNL     1     -14.028  -2.371  20.802  1.00  0.00    -0.077 C 
ATOM      3  C   UNL     1     -12.741  -3.054  21.222  1.00  0.00     0.039 C 
ATOM      4  C   UNL     1     -14.995  -1.996  21.905  1.00  0.00     0.039 C 
ENDROOT
BRANCH   1   5
ATOM      5  C   UNL     1     -15.636  -1.509  19.037  1.00  0.00     0.035 C 
BRANCH   5   6
ATOM      6  C   UNL     1     -15.534  -0.429  17.934  1.00  0.00     0.035 C 
BRANCH   6   7
ATOM      7  C   UNL     1     -16.821  -0.240  17.148  1.00  0.00    -0.077 C 
ATOM      8  C   UNL     1     -17.707   0.929  17.494  1.00  0.00     0.039 C 
ATOM      9  C   UNL     1     -17.207  -1.051  16.134  1.00  0.00    -0.028 CG0
ATOM     10  G   UNL     1     -16.395  -2.178  15.537  1.00  0.00     0.000 G0
ENDBRANCH   6   7
ENDBRANCH   5   6
ENDBRANCH   1   5
BRANCH   1  11
ATOM     11  C   UNL     1     -13.238  -2.445  18.425  1.00  0.00     0.058 C 
BRANCH  11  12
ATOM     12  C   UNL     1     -13.646  -3.571  17.503  1.00  0.00    -0.024 C 
ATOM     13  C   UNL     1     -14.372  -3.445  16.368  1.00  0.00    -0.077 C 
ATOM     14  C   UNL     1     -14.628  -4.691  15.557  1.00  0.00     0.039 C 
BRANCH  13  15
ATOM     15  C   UNL     1     -14.906  -2.124  15.844  1.00  0.00     0.034 C 
BRANCH  15  16
ATOM     16  C   UNL     1     -16.409  -2.177  15.525  1.00  0.00     0.032 CG0
ATOM     17  G   UNL     1     -17.194  -1.040  16.139  1.00  0.00     0.000 G0
ENDBRANCH  15  16
ENDBRANCH  13  15
ENDBRANCH  11  12
ENDBRANCH   1  11
TORSDOF 0
ENDMDL
