MODEL 1
REMARK VINA RESULT:    -3.811      0.000      0.000
REMARK INTER + INTRA:          -4.415
REMARK INTER:                  -4.368
REMARK INTRA:                  -0.048
REMARK UNBOUND:                -0.048
REMARK SMILES CC(C)[C@H]([NH3+])C(=O)[O-]
REMARK SMILES IDX 4 1 5 2 6 6 7 7 8 8 2 9 1 10 3 11
REMARK H PARENT 5 3 5 4 5 5
REMARK Flexibility Score: inf
ROOT
ATOM      1  C   UNL     1      23.423   6.642  14.717  1.00  0.00     0.230 C 
ENDROOT
BRANCH   1   2
ATOM      2  N   UNL     1      23.955   7.503  13.648  1.00  0.00    -0.350 N 
ATOM      3  H   UNL     1      23.284   7.542  12.848  1.00  0.00     0.345 HD
ATOM      4  H   UNL     1      24.072   8.482  13.999  1.00  0.00     0.345 HD
ATOM      5  H   UNL     1      24.881   7.149  13.314  1.00  0.00     0.345 HD
ENDBRANCH   1   2
BRANCH   1   6
ATOM      6  C   UNL     1      22.225   7.311  15.343  1.00  0.00     0.099 C 
ATOM      7  O   UNL     1      21.258   6.620  15.757  1.00  0.00    -0.544 OA
ATOM      8  O   UNL     1      22.182   8.695  15.472  1.00  0.00    -0.544 OA
ENDBRANCH   1   6
BRANCH   1   9
ATOM      9  C   UNL     1      24.503   6.323  15.795  1.00  0.00     0.047 C 
ATOM     10  C   UNL     1      25.925   6.625  15.289  1.00  0.00     0.014 C 
ATOM     11  C   UNL     1      24.429   4.852  16.239  1.00  0.00     0.014 C 
ENDBRANCH   1   9
TORSDOF 3
ENDMDL
MODEL 2
REMARK VINA RESULT:    -3.804      3.169      3.893
REMARK INTER + INTRA:          -4.408
REMARK INTER:                  -4.430
REMARK INTRA:                   0.022
REMARK UNBOUND:                -0.048
REMARK SMILES CC(C)[C@H]([NH3+])C(=O)[O-]
REMARK SMILES IDX 4 1 5 2 6 6 7 7 8 8 2 9 1 10 3 11
REMARK H PARENT 5 3 5 4 5 5
REMARK Flexibility Score: inf
ROOT
ATOM      1  C   UNL     1      24.582   5.349  15.856  1.00  0.00     0.230 C 
ENDROOT
BRANCH   1   2
ATOM      2  N   UNL     1      23.881   4.625  16.928  1.00  0.00    -0.350 N 
ATOM      3  H   UNL     1      24.359   4.784  17.843  1.00  0.00     0.345 HD
ATOM      4  H   UNL     1      22.903   4.984  17.026  1.00  0.00     0.345 HD
ATOM      5  H   UNL     1      23.848   3.600  16.722  1.00  0.00     0.345 HD
ENDBRANCH   1   2
BRANCH   1   6
ATOM      6  C   UNL     1      25.951   5.755  16.343  1.00  0.00     0.099 C 
ATOM      7  O   UNL     1      26.317   5.471  17.514  1.00  0.00    -0.544 OA
ATOM      8  O   UNL     1      26.820   6.441  15.501  1.00  0.00    -0.544 OA
ENDBRANCH   1   6
BRANCH   1   9
ATOM      9  C   UNL     1      23.777   6.595  15.375  1.00  0.00     0.047 C 
ATOM     10  C   UNL     1      22.280   6.473  15.707  1.00  0.00     0.014 C 
ATOM     11  C   UNL     1      23.940   6.812  13.860  1.00  0.00     0.014 C 
ENDBRANCH   1   9
TORSDOF 3
ENDMDL
MODEL 3
REMARK VINA RESULT:    -3.553      2.311      3.551
REMARK INTER + INTRA:          -4.120
REMARK INTER:                  -4.114
REMARK INTRA:                  -0.007
REMARK UNBOUND:                -0.048
REMARK SMILES CC(C)[C@H]([NH3+])C(=O)[O-]
REMARK SMILES IDX 4 1 5 2 6 6 7 7 8 8 2 9 1 10 3 11
REMARK H PARENT 5 3 5 4 5 5
REMARK Flexibility Score: inf
ROOT
ATOM      1  C   UNL     1      24.239   7.389  14.620  1.00  0.00     0.230 C 
ENDROOT
BRANCH   1   2
ATOM      2  N   UNL     1      23.755   6.730  13.396  1.00  0.00    -0.350 N 
ATOM      3  H   UNL     1      23.024   7.317  12.935  1.00  0.00     0.345 HD
ATOM      4  H   UNL     1      24.539   6.621  12.712  1.00  0.00     0.345 HD
ATOM      5  H   UNL     1      23.361   5.786  13.615  1.00  0.00     0.345 HD
ENDBRANCH   1   2
BRANCH   1   6
ATOM      6  C   UNL     1      25.118   6.430  15.385  1.00  0.00     0.099 C 
ATOM      7  O   UNL     1      26.348   6.665  15.514  1.00  0.00    -0.544 OA
ATOM      8  O   UNL     1      24.575   5.284  15.955  1.00  0.00    -0.544 OA
ENDBRANCH   1   6
BRANCH   1   9
ATOM      9  C   UNL     1      23.063   7.890  15.512  1.00  0.00     0.047 C 
ATOM     10  C   UNL     1      21.774   7.089  15.265  1.00  0.00     0.014 C 
ATOM     11  C   UNL     1      22.781   9.384  15.273  1.00  0.00     0.014 C 
ENDBRANCH   1   9
TORSDOF 3
ENDMDL
MODEL 4
REMARK VINA RESULT:    -3.166      1.986      2.599
REMARK INTER + INTRA:          -3.677
REMARK INTER:                  -3.630
REMARK INTRA:                  -0.047
REMARK UNBOUND:                -0.048
REMARK SMILES CC(C)[C@H]([NH3+])C(=O)[O-]
REMARK SMILES IDX 4 1 5 2 6 6 7 7 8 8 2 9 1 10 3 11
REMARK H PARENT 5 3 5 4 5 5
REMARK Flexibility Score: inf
ROOT
ATOM      1  C   UNL     1      23.181   7.838  14.551  1.00  0.00     0.230 C 
ENDROOT
BRANCH   1   2
ATOM      2  N   UNL     1      23.906   7.240  13.419  1.00  0.00    -0.350 N 
ATOM      3  H   UNL     1      23.301   6.540  12.932  1.00  0.00     0.345 HD
ATOM      4  H   UNL     1      24.150   7.977  12.717  1.00  0.00     0.345 HD
ATOM      5  H   UNL     1      24.785   6.777  13.745  1.00  0.00     0.345 HD
ENDBRANCH   1   2
BRANCH   1   6
ATOM      6  C   UNL     1      23.950   9.035  15.055  1.00  0.00     0.099 C 
ATOM      7  O   UNL     1      25.207   9.054  14.990  1.00  0.00    -0.544 OA
ATOM      8  O   UNL     1      23.275  10.126  15.592  1.00  0.00    -0.544 OA
ENDBRANCH   1   6
BRANCH   1   9
ATOM      9  C   UNL     1      22.948   6.809  15.699  1.00  0.00     0.047 C 
ATOM     10  C   UNL     1      23.660   5.474  15.425  1.00  0.00     0.014 C 
ATOM     11  C   UNL     1      21.447   6.544  15.912  1.00  0.00     0.014 C 
ENDBRANCH   1   9
TORSDOF 3
ENDMDL
MODEL 5
REMARK VINA RESULT:    -3.162      3.132      3.728
REMARK INTER + INTRA:          -3.672
REMARK INTER:                  -4.595
REMARK INTRA:                   0.922
REMARK UNBOUND:                -0.048
REMARK SMILES CC(C)[C@H]([NH3+])C(=O)[O-]
REMARK SMILES IDX 4 1 5 2 6 6 7 7 8 8 2 9 1 10 3 11
REMARK H PARENT 5 3 5 4 5 5
REMARK Flexibility Score: inf
ROOT
ATOM      1  C   UNL     1      24.487   5.208  15.835  1.00  0.00     0.230 C 
ENDROOT
BRANCH   1   2
ATOM      2  N   UNL     1      23.760   4.806  17.050  1.00  0.00    -0.350 N 
ATOM      3  H   UNL     1      24.292   5.096  17.901  1.00  0.00     0.345 HD
ATOM      4  H   UNL     1      22.831   5.286  17.089  1.00  0.00     0.345 HD
ATOM      5  H   UNL     1      23.610   3.771  17.065  1.00  0.00     0.345 HD
ENDBRANCH   1   2
BRANCH   1   6
ATOM      6  C   UNL     1      25.845   5.739  16.221  1.00  0.00     0.099 C 
ATOM      7  O   UNL     1      26.566   6.317  15.365  1.00  0.00    -0.544 OA
ATOM      8  O   UNL     1      26.309   5.596  17.524  1.00  0.00    -0.544 OA
ENDBRANCH   1   6
BRANCH   1   9
ATOM      9  C   UNL     1      23.694   6.268  15.010  1.00  0.00     0.047 C 
ATOM     10  C   UNL     1      24.435   7.615  14.946  1.00  0.00     0.014 C 
ATOM     11  C   UNL     1      22.290   6.494  15.597  1.00  0.00     0.014 C 
ENDBRANCH   1   9
TORSDOF 3
ENDMDL
MODEL 6
REMARK VINA RESULT:    -3.118      2.323      3.395
REMARK INTER + INTRA:          -3.622
REMARK INTER:                  -3.549
REMARK INTRA:                  -0.073
REMARK UNBOUND:                -0.048
REMARK SMILES CC(C)[C@H]([NH3+])C(=O)[O-]
REMARK SMILES IDX 4 1 5 2 6 6 7 7 8 8 2 9 1 10 3 11
REMARK H PARENT 5 3 5 4 5 5
REMARK Flexibility Score: inf
ROOT
ATOM      1  C   UNL     1      24.092   8.233  15.264  1.00  0.00     0.230 C 
ENDROOT
BRANCH   1   2
ATOM      2  N   UNL     1      25.192   9.022  14.686  1.00  0.00    -0.350 N 
ATOM      3  H   UNL     1      25.453   9.803  15.329  1.00  0.00     0.345 HD
ATOM      4  H   UNL     1      26.042   8.422  14.569  1.00  0.00     0.345 HD
ATOM      5  H   UNL     1      24.919   9.410  13.754  1.00  0.00     0.345 HD
ENDBRANCH   1   2
BRANCH   1   6
ATOM      6  C   UNL     1      24.092   6.856  14.647  1.00  0.00     0.099 C 
ATOM      7  O   UNL     1      23.983   6.720  13.401  1.00  0.00    -0.544 OA
ATOM      8  O   UNL     1      24.216   5.728  15.452  1.00  0.00    -0.544 OA
ENDBRANCH   1   6
BRANCH   1   9
ATOM      9  C   UNL     1      22.711   8.928  15.060  1.00  0.00     0.047 C 
ATOM     10  C   UNL     1      22.669  10.321  15.711  1.00  0.00     0.014 C 
ATOM     11  C   UNL     1      21.567   8.071  15.631  1.00  0.00     0.014 C 
ENDBRANCH   1   9
TORSDOF 3
ENDMDL
MODEL 7
REMARK VINA RESULT:    -2.957      1.660      2.346
REMARK INTER + INTRA:          -3.437
REMARK INTER:                  -3.390
REMARK INTRA:                  -0.047
REMARK UNBOUND:                -0.048
REMARK SMILES CC(C)[C@H]([NH3+])C(=O)[O-]
REMARK SMILES IDX 4 1 5 2 6 6 7 7 8 8 2 9 1 10 3 11
REMARK H PARENT 5 3 5 4 5 5
REMARK Flexibility Score: inf
ROOT
ATOM      1  C   UNL     1      24.600   6.617  14.638  1.00  0.00     0.230 C 
ENDROOT
BRANCH   1   2
ATOM      2  N   UNL     1      23.873   7.527  13.739  1.00  0.00    -0.350 N 
ATOM      3  H   UNL     1      22.985   7.844  14.187  1.00  0.00     0.345 HD
ATOM      4  H   UNL     1      24.446   8.382  13.552  1.00  0.00     0.345 HD
ATOM      5  H   UNL     1      23.660   7.056  12.829  1.00  0.00     0.345 HD
ENDBRANCH   1   2
BRANCH   1   6
ATOM      6  C   UNL     1      23.610   5.891  15.516  1.00  0.00     0.099 C 
ATOM      7  O   UNL     1      22.392   6.207  15.492  1.00  0.00    -0.544 OA
ATOM      8  O   UNL     1      24.036   4.866  16.354  1.00  0.00    -0.544 OA
ENDBRANCH   1   6
BRANCH   1   9
ATOM      9  C   UNL     1      25.652   7.375  15.503  1.00  0.00     0.047 C 
ATOM     10  C   UNL     1      25.800   8.843  15.070  1.00  0.00     0.014 C 
ATOM     11  C   UNL     1      27.028   6.689  15.435  1.00  0.00     0.014 C 
ENDBRANCH   1   9
TORSDOF 3
ENDMDL
MODEL 8
REMARK VINA RESULT:    -2.955      2.455      3.219
REMARK INTER + INTRA:          -3.434
REMARK INTER:                  -3.594
REMARK INTRA:                   0.160
REMARK UNBOUND:                -0.048
REMARK SMILES CC(C)[C@H]([NH3+])C(=O)[O-]
REMARK SMILES IDX 4 1 5 2 6 6 7 7 8 8 2 9 1 10 3 11
REMARK H PARENT 5 3 5 4 5 5
REMARK Flexibility Score: inf
ROOT
ATOM      1  C   UNL     1      23.080   5.895  15.285  1.00  0.00     0.230 C 
ENDROOT
BRANCH   1   2
ATOM      2  N   UNL     1      23.637   5.390  16.551  1.00  0.00    -0.350 N 
ATOM      3  H   UNL     1      23.062   5.723  17.357  1.00  0.00     0.345 HD
ATOM      4  H   UNL     1      23.608   4.344  16.564  1.00  0.00     0.345 HD
ATOM      5  H   UNL     1      24.627   5.704  16.671  1.00  0.00     0.345 HD
ENDBRANCH   1   2
BRANCH   1   6
ATOM      6  C   UNL     1      24.157   6.635  14.531  1.00  0.00     0.099 C 
ATOM      7  O   UNL     1      24.008   6.897  13.308  1.00  0.00    -0.544 OA
ATOM      8  O   UNL     1      25.319   7.037  15.181  1.00  0.00    -0.544 OA
ENDBRANCH   1   6
BRANCH   1   9
ATOM      9  C   UNL     1      21.842   6.812  15.522  1.00  0.00     0.047 C 
ATOM     10  C   UNL     1      22.221   8.303  15.503  1.00  0.00     0.014 C 
ATOM     11  C   UNL     1      21.154   6.484  16.859  1.00  0.00     0.014 C 
ENDBRANCH   1   9
TORSDOF 3
ENDMDL
MODEL 9
REMARK VINA RESULT:    -2.866      1.989      2.549
REMARK INTER + INTRA:          -3.333
REMARK INTER:                  -3.428
REMARK INTRA:                   0.095
REMARK UNBOUND:                -0.048
REMARK SMILES CC(C)[C@H]([NH3+])C(=O)[O-]
REMARK SMILES IDX 4 1 5 2 6 6 7 7 8 8 2 9 1 10 3 11
REMARK H PARENT 5 3 5 4 5 5
REMARK Flexibility Score: inf
ROOT
ATOM      1  C   UNL     1      24.519   5.956  15.795  1.00  0.00     0.230 C 
ENDROOT
BRANCH   1   2
ATOM      2  N   UNL     1      24.326   4.497  15.778  1.00  0.00    -0.350 N 
ATOM      3  H   UNL     1      24.593   4.087  16.701  1.00  0.00     0.345 HD
ATOM      4  H   UNL     1      23.317   4.269  15.620  1.00  0.00     0.345 HD
ATOM      5  H   UNL     1      24.897   4.058  15.019  1.00  0.00     0.345 HD
ENDBRANCH   1   2
BRANCH   1   6
ATOM      6  C   UNL     1      23.585   6.592  14.795  1.00  0.00     0.099 C 
ATOM      7  O   UNL     1      23.894   6.629  13.575  1.00  0.00    -0.544 OA
ATOM      8  O   UNL     1      22.376   7.138  15.212  1.00  0.00    -0.544 OA
ENDBRANCH   1   6
BRANCH   1   9
ATOM      9  C   UNL     1      25.997   6.349  15.497  1.00  0.00     0.047 C 
ATOM     10  C   UNL     1      26.964   5.792  16.556  1.00  0.00     0.014 C 
ATOM     11  C   UNL     1      26.163   7.877  15.420  1.00  0.00     0.014 C 
ENDBRANCH   1   9
TORSDOF 3
ENDMDL
