MODEL 1
REMARK VINA RESULT:    -4.998      0.000      0.000
REMARK INTER + INTRA:          -6.544
REMARK INTER:                  -6.166
REMARK INTRA:                  -0.377
REMARK UNBOUND:                -0.377
REMARK SMILES Oc1cc(O)c2cc(O)c(-c3cc(O)c(O)c(O)c3)[o+]c2c1
REMARK SMILES IDX 10 1 20 2 21 3 22 4 2 5 3 6 4 7 6 8 7 9 8 10 11 11 12 12
REMARK SMILES IDX 13 13 19 14 15 15 17 16 14 17 16 19 18 21 9 23 1 25 5 27
REMARK H PARENT 14 18 16 20 18 22 9 24 1 26 5 28
REMARK Flexibility Score: inf
ROOT
ATOM      1  C   UNL     1       5.610  16.552  -2.418  1.00  0.00     0.402 A 
ATOM      2  O   UNL     1       5.902  17.071  -3.607  1.00  0.00    -0.202 OA
ATOM      3  C   UNL     1       5.137  17.970  -4.218  1.00  0.00     0.368 A 
ATOM      4  C   UNL     1       5.526  18.456  -5.470  1.00  0.00     0.162 A 
ATOM      5  C   UNL     1       4.741  19.398  -6.136  1.00  0.00     0.128 A 
ATOM      6  C   UNL     1       3.557  19.858  -5.550  1.00  0.00     0.093 A 
ATOM      7  C   UNL     1       3.145  19.386  -4.297  1.00  0.00     0.136 A 
ATOM      8  C   UNL     1       3.943  18.431  -3.614  1.00  0.00     0.125 A 
ATOM      9  C   UNL     1       3.615  17.913  -2.351  1.00  0.00     0.078 A 
ATOM     10  C   UNL     1       4.453  16.977  -1.739  1.00  0.00     0.223 A 
ENDROOT
BRANCH   1  11
ATOM     11  C   UNL     1       6.538  15.550  -1.844  1.00  0.00     0.091 A 
ATOM     12  C   UNL     1       7.579  15.928  -0.980  1.00  0.00     0.068 A 
ATOM     13  C   UNL     1       8.432  14.962  -0.429  1.00  0.00     0.162 A 
ATOM     14  C   UNL     1       6.340  14.189  -2.121  1.00  0.00     0.068 A 
ATOM     15  C   UNL     1       8.242  13.604  -0.730  1.00  0.00     0.200 A 
ATOM     16  C   UNL     1       7.188  13.219  -1.577  1.00  0.00     0.162 A 
BRANCH  13  17
ATOM     17  O   UNL     1       9.467  15.350   0.423  1.00  0.00    -0.504 OA
ATOM     18  H   UNL     1       9.312  15.993   1.190  1.00  0.00     0.293 HD
ENDBRANCH  13  17
BRANCH  15  19
ATOM     19  O   UNL     1       9.085  12.629  -0.193  1.00  0.00    -0.502 OA
ATOM     20  H   UNL     1       9.039  12.353   0.780  1.00  0.00     0.293 HD
ENDBRANCH  15  19
BRANCH  16  21
ATOM     21  O   UNL     1       6.967  11.878  -1.889  1.00  0.00    -0.504 OA
ATOM     22  H   UNL     1       6.037  11.510  -2.058  1.00  0.00     0.293 HD
ENDBRANCH  16  21
ENDBRANCH   1  11
BRANCH  10  23
ATOM     23  O   UNL     1       4.154  16.499  -0.463  1.00  0.00    -0.500 OA
ATOM     24  H   UNL     1       4.034  15.510  -0.279  1.00  0.00     0.294 HD
ENDBRANCH  10  23
BRANCH   5  25
ATOM     25  O   UNL     1       5.146  19.870  -7.383  1.00  0.00    -0.507 OA
ATOM     26  H   UNL     1       5.157  20.861  -7.596  1.00  0.00     0.293 HD
ENDBRANCH   5  25
BRANCH   7  27
ATOM     27  O   UNL     1       1.949  19.893  -3.780  1.00  0.00    -0.507 OA
ATOM     28  H   UNL     1       1.634  20.845  -3.899  1.00  0.00     0.293 HD
ENDBRANCH   7  27
TORSDOF 7
ENDMDL
MODEL 2
REMARK VINA RESULT:    -4.957      1.299      7.272
REMARK INTER + INTRA:          -6.494
REMARK INTER:                  -6.335
REMARK INTRA:                  -0.159
REMARK UNBOUND:                -0.377
REMARK SMILES Oc1cc(O)c2cc(O)c(-c3cc(O)c(O)c(O)c3)[o+]c2c1
REMARK SMILES IDX 10 1 20 2 21 3 22 4 2 5 3 6 4 7 6 8 7 9 8 10 11 11 12 12
REMARK SMILES IDX 13 13 19 14 15 15 17 16 14 17 16 19 18 21 9 23 1 25 5 27
REMARK H PARENT 14 18 16 20 18 22 9 24 1 26 5 28
REMARK Flexibility Score: inf
ROOT
ATOM      1  C   UNL     1       5.295  17.039  -2.914  1.00  0.00     0.402 A 
ATOM      2  O   UNL     1       4.951  15.789  -2.616  1.00  0.00    -0.202 OA
ATOM      3  C   UNL     1       5.769  14.929  -2.019  1.00  0.00     0.368 A 
ATOM      4  C   UNL     1       5.315  13.634  -1.749  1.00  0.00     0.162 A 
ATOM      5  C   UNL     1       6.154  12.709  -1.126  1.00  0.00     0.128 A 
ATOM      6  C   UNL     1       7.456  13.078  -0.770  1.00  0.00     0.093 A 
ATOM      7  C   UNL     1       7.934  14.369  -1.030  1.00  0.00     0.136 A 
ATOM      8  C   UNL     1       7.083  15.313  -1.660  1.00  0.00     0.125 A 
ATOM      9  C   UNL     1       7.472  16.632  -1.947  1.00  0.00     0.078 A 
ATOM     10  C   UNL     1       6.577  17.508  -2.567  1.00  0.00     0.223 A 
ENDROOT
BRANCH   1  11
ATOM     11  C   UNL     1       4.297  17.899  -3.589  1.00  0.00     0.091 A 
ATOM     12  C   UNL     1       4.586  18.539  -4.807  1.00  0.00     0.068 A 
ATOM     13  C   UNL     1       3.620  19.330  -5.441  1.00  0.00     0.162 A 
ATOM     14  C   UNL     1       3.016  18.035  -3.033  1.00  0.00     0.068 A 
ATOM     15  C   UNL     1       2.347  19.481  -4.866  1.00  0.00     0.200 A 
ATOM     16  C   UNL     1       2.046  18.826  -3.659  1.00  0.00     0.162 A 
BRANCH  13  17
ATOM     17  O   UNL     1       3.920  19.966  -6.646  1.00  0.00    -0.504 OA
ATOM     18  H   UNL     1       3.204  20.166  -7.334  1.00  0.00     0.293 HD
ENDBRANCH  13  17
BRANCH  15  19
ATOM     19  O   UNL     1       1.374  20.269  -5.483  1.00  0.00    -0.502 OA
ATOM     20  H   UNL     1       0.514  20.528  -5.015  1.00  0.00     0.293 HD
ENDBRANCH  15  19
BRANCH  16  21
ATOM     21  O   UNL     1       0.790  18.947  -3.067  1.00  0.00    -0.504 OA
ATOM     22  H   UNL     1      -0.065  18.735  -3.568  1.00  0.00     0.293 HD
ENDBRANCH  16  21
ENDBRANCH   1  11
BRANCH  10  23
ATOM     23  O   UNL     1       6.945  18.831  -2.808  1.00  0.00    -0.500 OA
ATOM     24  H   UNL     1       7.191  19.156  -3.736  1.00  0.00     0.294 HD
ENDBRANCH  10  23
BRANCH   5  25
ATOM     25  O   UNL     1       5.684  11.424  -0.866  1.00  0.00    -0.507 OA
ATOM     26  H   UNL     1       4.787  11.268  -0.420  1.00  0.00     0.293 HD
ENDBRANCH   5  25
BRANCH   7  27
ATOM     27  O   UNL     1       9.247  14.657  -0.646  1.00  0.00    -0.507 OA
ATOM     28  H   UNL     1      10.063  14.179  -1.000  1.00  0.00     0.293 HD
ENDBRANCH   7  27
TORSDOF 7
ENDMDL
MODEL 3
REMARK VINA RESULT:    -4.906      0.422      1.838
REMARK INTER + INTRA:          -6.431
REMARK INTER:                  -6.053
REMARK INTRA:                  -0.378
REMARK UNBOUND:                -0.377
REMARK SMILES Oc1cc(O)c2cc(O)c(-c3cc(O)c(O)c(O)c3)[o+]c2c1
REMARK SMILES IDX 10 1 20 2 21 3 22 4 2 5 3 6 4 7 6 8 7 9 8 10 11 11 12 12
REMARK SMILES IDX 13 13 19 14 15 15 17 16 14 17 16 19 18 21 9 23 1 25 5 27
REMARK H PARENT 14 18 16 20 18 22 9 24 1 26 5 28
REMARK Flexibility Score: inf
ROOT
ATOM      1  C   UNL     1       5.362  16.605  -2.646  1.00  0.00     0.402 A 
ATOM      2  O   UNL     1       5.654  17.001  -3.882  1.00  0.00    -0.202 OA
ATOM      3  C   UNL     1       4.968  17.937  -4.529  1.00  0.00     0.368 A 
ATOM      4  C   UNL     1       5.350  18.283  -5.828  1.00  0.00     0.162 A 
ATOM      5  C   UNL     1       4.645  19.260  -6.533  1.00  0.00     0.128 A 
ATOM      6  C   UNL     1       3.550  19.896  -5.938  1.00  0.00     0.093 A 
ATOM      7  C   UNL     1       3.147  19.566  -4.638  1.00  0.00     0.136 A 
ATOM      8  C   UNL     1       3.863  18.575  -3.916  1.00  0.00     0.125 A 
ATOM      9  C   UNL     1       3.540  18.190  -2.605  1.00  0.00     0.078 A 
ATOM     10  C   UNL     1       4.294  17.209  -1.956  1.00  0.00     0.223 A 
ENDROOT
BRANCH   1  11
ATOM     11  C   UNL     1       6.197  15.545  -2.034  1.00  0.00     0.091 A 
ATOM     12  C   UNL     1       5.914  14.183  -2.234  1.00  0.00     0.068 A 
ATOM     13  C   UNL     1       6.729  13.196  -1.665  1.00  0.00     0.162 A 
ATOM     14  C   UNL     1       7.328  15.905  -1.285  1.00  0.00     0.068 A 
ATOM     15  C   UNL     1       7.846  13.565  -0.897  1.00  0.00     0.200 A 
ATOM     16  C   UNL     1       8.146  14.926  -0.712  1.00  0.00     0.162 A 
BRANCH  13  17
ATOM     17  O   UNL     1       6.434  11.847  -1.864  1.00  0.00    -0.504 OA
ATOM     18  H   UNL     1       5.600  11.553  -2.359  1.00  0.00     0.293 HD
ENDBRANCH  13  17
BRANCH  15  19
ATOM     19  O   UNL     1       8.666  12.594  -0.320  1.00  0.00    -0.502 OA
ATOM     20  H   UNL     1       9.657  12.536  -0.521  1.00  0.00     0.293 HD
ENDBRANCH  15  19
BRANCH  16  21
ATOM     21  O   UNL     1       9.252  15.325   0.037  1.00  0.00    -0.504 OA
ATOM     22  H   UNL     1      10.193  15.304  -0.339  1.00  0.00     0.293 HD
ENDBRANCH  16  21
ENDBRANCH   1  11
BRANCH  10  23
ATOM     23  O   UNL     1       4.004  16.862  -0.637  1.00  0.00    -0.500 OA
ATOM     24  H   UNL     1       3.130  17.123  -0.197  1.00  0.00     0.294 HD
ENDBRANCH  10  23
BRANCH   5  25
ATOM     25  O   UNL     1       5.042  19.592  -7.827  1.00  0.00    -0.507 OA
ATOM     26  H   UNL     1       5.895  20.110  -8.004  1.00  0.00     0.293 HD
ENDBRANCH   5  25
BRANCH   7  27
ATOM     27  O   UNL     1       2.042  20.244  -4.115  1.00  0.00    -0.507 OA
ATOM     28  H   UNL     1       1.109  20.195  -4.499  1.00  0.00     0.293 HD
ENDBRANCH   7  27
TORSDOF 7
ENDMDL
MODEL 4
REMARK VINA RESULT:    -4.737      3.442      7.617
REMARK INTER + INTRA:          -6.221
REMARK INTER:                  -5.875
REMARK INTRA:                  -0.347
REMARK UNBOUND:                -0.377
REMARK SMILES Oc1cc(O)c2cc(O)c(-c3cc(O)c(O)c(O)c3)[o+]c2c1
REMARK SMILES IDX 10 1 20 2 21 3 22 4 2 5 3 6 4 7 6 8 7 9 8 10 11 11 12 12
REMARK SMILES IDX 13 13 19 14 15 15 17 16 14 17 16 19 18 21 9 23 1 25 5 27
REMARK H PARENT 14 18 16 20 18 22 9 24 1 26 5 28
REMARK Flexibility Score: inf
ROOT
ATOM      1  C   UNL     1       3.559  17.596  -5.735  1.00  0.00     0.402 A 
ATOM      2  O   UNL     1       3.880  16.730  -4.778  1.00  0.00    -0.202 OA
ATOM      3  C   UNL     1       4.857  16.939  -3.902  1.00  0.00     0.368 A 
ATOM      4  C   UNL     1       5.123  15.967  -2.934  1.00  0.00     0.162 A 
ATOM      5  C   UNL     1       6.145  16.159  -2.004  1.00  0.00     0.128 A 
ATOM      6  C   UNL     1       6.911  17.329  -2.041  1.00  0.00     0.093 A 
ATOM      7  C   UNL     1       6.666  18.318  -3.002  1.00  0.00     0.136 A 
ATOM      8  C   UNL     1       5.624  18.128  -3.947  1.00  0.00     0.125 A 
ATOM      9  C   UNL     1       5.299  19.070  -4.937  1.00  0.00     0.078 A 
ATOM     10  C   UNL     1       4.256  18.815  -5.832  1.00  0.00     0.223 A 
ENDROOT
BRANCH   1  11
ATOM     11  C   UNL     1       2.455  17.244  -6.657  1.00  0.00     0.091 A 
ATOM     12  C   UNL     1       2.707  16.814  -7.971  1.00  0.00     0.068 A 
ATOM     13  C   UNL     1       1.650  16.464  -8.821  1.00  0.00     0.162 A 
ATOM     14  C   UNL     1       1.131  17.285  -6.194  1.00  0.00     0.068 A 
ATOM     15  C   UNL     1       0.325  16.530  -8.357  1.00  0.00     0.200 A 
ATOM     16  C   UNL     1       0.069  16.940  -7.037  1.00  0.00     0.162 A 
BRANCH  13  17
ATOM     17  O   UNL     1       1.912  16.045 -10.125  1.00  0.00    -0.504 OA
ATOM     18  H   UNL     1       2.814  15.670 -10.392  1.00  0.00     0.293 HD
ENDBRANCH  13  17
BRANCH  15  19
ATOM     19  O   UNL     1      -0.740  16.189  -9.192  1.00  0.00    -0.502 OA
ATOM     20  H   UNL     1      -1.138  15.258  -9.205  1.00  0.00     0.293 HD
ENDBRANCH  15  19
BRANCH  16  21
ATOM     21  O   UNL     1      -1.233  17.008  -6.543  1.00  0.00    -0.504 OA
ATOM     22  H   UNL     1      -1.572  16.375  -5.827  1.00  0.00     0.293 HD
ENDBRANCH  16  21
ENDBRANCH   1  11
BRANCH  10  23
ATOM     23  O   UNL     1       3.900  19.772  -6.782  1.00  0.00    -0.500 OA
ATOM     24  H   UNL     1       4.314  20.696  -6.789  1.00  0.00     0.294 HD
ENDBRANCH  10  23
BRANCH   5  25
ATOM     25  O   UNL     1       6.394  15.178  -1.046  1.00  0.00    -0.507 OA
ATOM     26  H   UNL     1       6.060  15.270  -0.093  1.00  0.00     0.293 HD
ENDBRANCH   5  25
BRANCH   7  27
ATOM     27  O   UNL     1       7.476  19.457  -2.974  1.00  0.00    -0.507 OA
ATOM     28  H   UNL     1       8.468  19.446  -2.789  1.00  0.00     0.293 HD
ENDBRANCH   7  27
TORSDOF 7
ENDMDL
MODEL 5
REMARK VINA RESULT:    -4.718      1.584      6.933
REMARK INTER + INTRA:          -6.198
REMARK INTER:                  -6.190
REMARK INTRA:                  -0.008
REMARK UNBOUND:                -0.377
REMARK SMILES Oc1cc(O)c2cc(O)c(-c3cc(O)c(O)c(O)c3)[o+]c2c1
REMARK SMILES IDX 10 1 20 2 21 3 22 4 2 5 3 6 4 7 6 8 7 9 8 10 11 11 12 12
REMARK SMILES IDX 13 13 19 14 15 15 17 16 14 17 16 19 18 21 9 23 1 25 5 27
REMARK H PARENT 14 18 16 20 18 22 9 24 1 26 5 28
REMARK Flexibility Score: inf
ROOT
ATOM      1  C   UNL     1       5.243  16.833  -2.828  1.00  0.00     0.402 A 
ATOM      2  O   UNL     1       5.954  16.045  -3.630  1.00  0.00    -0.202 OA
ATOM      3  C   UNL     1       6.911  15.233  -3.195  1.00  0.00     0.368 A 
ATOM      4  C   UNL     1       7.606  14.445  -4.117  1.00  0.00     0.162 A 
ATOM      5  C   UNL     1       8.618  13.586  -3.689  1.00  0.00     0.128 A 
ATOM      6  C   UNL     1       8.941  13.512  -2.329  1.00  0.00     0.093 A 
ATOM      7  C   UNL     1       8.260  14.292  -1.386  1.00  0.00     0.136 A 
ATOM      8  C   UNL     1       7.228  15.165  -1.817  1.00  0.00     0.125 A 
ATOM      9  C   UNL     1       6.484  15.973  -0.942  1.00  0.00     0.078 A 
ATOM     10  C   UNL     1       5.478  16.805  -1.440  1.00  0.00     0.223 A 
ENDROOT
BRANCH   1  11
ATOM     11  C   UNL     1       4.208  17.702  -3.435  1.00  0.00     0.091 A 
ATOM     12  C   UNL     1       2.912  17.779  -2.899  1.00  0.00     0.068 A 
ATOM     13  C   UNL     1       1.953  18.624  -3.474  1.00  0.00     0.162 A 
ATOM     14  C   UNL     1       4.543  18.509  -4.533  1.00  0.00     0.068 A 
ATOM     15  C   UNL     1       2.290  19.412  -4.588  1.00  0.00     0.200 A 
ATOM     16  C   UNL     1       3.592  19.354  -5.114  1.00  0.00     0.162 A 
BRANCH  13  17
ATOM     17  O   UNL     1       0.667  18.688  -2.938  1.00  0.00    -0.504 OA
ATOM     18  H   UNL     1      -0.156  18.579  -3.518  1.00  0.00     0.293 HD
ENDBRANCH  13  17
BRANCH  15  19
ATOM     19  O   UNL     1       1.346  20.256  -5.175  1.00  0.00    -0.502 OA
ATOM     20  H   UNL     1       1.083  20.175  -6.150  1.00  0.00     0.293 HD
ENDBRANCH  15  19
BRANCH  16  21
ATOM     21  O   UNL     1       3.961  20.129  -6.212  1.00  0.00    -0.504 OA
ATOM     22  H   UNL     1       4.907  20.468  -6.340  1.00  0.00     0.293 HD
ENDBRANCH  16  21
ENDBRANCH   1  11
BRANCH  10  23
ATOM     23  O   UNL     1       4.706  17.570  -0.567  1.00  0.00    -0.500 OA
ATOM     24  H   UNL     1       4.902  17.606   0.427  1.00  0.00     0.294 HD
ENDBRANCH  10  23
BRANCH   5  25
ATOM     25  O   UNL     1       9.299  12.808  -4.623  1.00  0.00    -0.507 OA
ATOM     26  H   UNL     1       9.478  13.144  -5.562  1.00  0.00     0.293 HD
ENDBRANCH   5  25
BRANCH   7  27
ATOM     27  O   UNL     1       8.644  14.163  -0.048  1.00  0.00    -0.507 OA
ATOM     28  H   UNL     1       8.002  14.150   0.731  1.00  0.00     0.293 HD
ENDBRANCH   7  27
TORSDOF 7
ENDMDL
MODEL 6
REMARK VINA RESULT:    -4.620      3.337      4.498
REMARK INTER + INTRA:          -6.078
REMARK INTER:                  -5.721
REMARK INTRA:                  -0.356
REMARK UNBOUND:                -0.377
REMARK SMILES Oc1cc(O)c2cc(O)c(-c3cc(O)c(O)c(O)c3)[o+]c2c1
REMARK SMILES IDX 10 1 20 2 21 3 22 4 2 5 3 6 4 7 6 8 7 9 8 10 11 11 12 12
REMARK SMILES IDX 13 13 19 14 15 15 17 16 14 17 16 19 18 21 9 23 1 25 5 27
REMARK H PARENT 14 18 16 20 18 22 9 24 1 26 5 28
REMARK Flexibility Score: inf
ROOT
ATOM      1  C   UNL     1       3.504  17.363  -4.721  1.00  0.00     0.402 A 
ATOM      2  O   UNL     1       3.747  16.587  -5.774  1.00  0.00    -0.202 OA
ATOM      3  C   UNL     1       2.908  16.461  -6.796  1.00  0.00     0.368 A 
ATOM      4  C   UNL     1       3.250  15.617  -7.857  1.00  0.00     0.162 A 
ATOM      5  C   UNL     1       2.387  15.463  -8.942  1.00  0.00     0.128 A 
ATOM      6  C   UNL     1       1.171  16.155  -8.970  1.00  0.00     0.093 A 
ATOM      7  C   UNL     1       0.804  17.006  -7.919  1.00  0.00     0.136 A 
ATOM      8  C   UNL     1       1.682  17.168  -6.815  1.00  0.00     0.125 A 
ATOM      9  C   UNL     1       1.403  18.008  -5.725  1.00  0.00     0.078 A 
ATOM     10  C   UNL     1       2.318  18.120  -4.674  1.00  0.00     0.223 A 
ENDROOT
BRANCH   1  11
ATOM     11  C   UNL     1       4.514  17.413  -3.639  1.00  0.00     0.091 A 
ATOM     12  C   UNL     1       5.650  18.234  -3.735  1.00  0.00     0.068 A 
ATOM     13  C   UNL     1       6.583  18.285  -2.691  1.00  0.00     0.162 A 
ATOM     14  C   UNL     1       4.306  16.670  -2.467  1.00  0.00     0.068 A 
ATOM     15  C   UNL     1       6.379  17.520  -1.531  1.00  0.00     0.200 A 
ATOM     16  C   UNL     1       5.233  16.713  -1.420  1.00  0.00     0.162 A 
BRANCH  13  17
ATOM     17  O   UNL     1       7.710  19.098  -2.801  1.00  0.00    -0.504 OA
ATOM     18  H   UNL     1       8.284  19.102  -3.636  1.00  0.00     0.293 HD
ENDBRANCH  13  17
BRANCH  15  19
ATOM     19  O   UNL     1       7.300  17.555  -0.482  1.00  0.00    -0.502 OA
ATOM     20  H   UNL     1       8.257  17.245  -0.595  1.00  0.00     0.293 HD
ENDBRANCH  15  19
BRANCH  16  21
ATOM     21  O   UNL     1       4.996  15.949  -0.279  1.00  0.00    -0.504 OA
ATOM     22  H   UNL     1       4.089  15.919   0.172  1.00  0.00     0.293 HD
ENDBRANCH  16  21
ENDBRANCH   1  11
BRANCH  10  23
ATOM     23  O   UNL     1       2.066  18.993  -3.616  1.00  0.00    -0.500 OA
ATOM     24  H   UNL     1       1.214  19.540  -3.568  1.00  0.00     0.294 HD
ENDBRANCH  10  23
BRANCH   5  25
ATOM     25  O   UNL     1       2.746  14.618  -9.990  1.00  0.00    -0.507 OA
ATOM     26  H   UNL     1       2.836  13.617  -9.856  1.00  0.00     0.293 HD
ENDBRANCH   5  25
BRANCH   7  27
ATOM     27  O   UNL     1      -0.428  17.659  -8.020  1.00  0.00    -0.507 OA
ATOM     28  H   UNL     1      -1.208  17.504  -7.398  1.00  0.00     0.293 HD
ENDBRANCH   7  27
TORSDOF 7
ENDMDL
MODEL 7
REMARK VINA RESULT:    -4.545      8.043      9.545
REMARK INTER + INTRA:          -5.985
REMARK INTER:                  -5.822
REMARK INTRA:                  -0.163
REMARK UNBOUND:                -0.377
REMARK SMILES Oc1cc(O)c2cc(O)c(-c3cc(O)c(O)c(O)c3)[o+]c2c1
REMARK SMILES IDX 10 1 20 2 21 3 22 4 2 5 3 6 4 7 6 8 7 9 8 10 11 11 12 12
REMARK SMILES IDX 13 13 19 14 15 15 17 16 14 17 16 19 18 21 9 23 1 25 5 27
REMARK H PARENT 14 18 16 20 18 22 9 24 1 26 5 28
REMARK Flexibility Score: inf
ROOT
ATOM      1  C   UNL     1       1.416  15.304   5.336  1.00  0.00     0.402 A 
ATOM      2  O   UNL     1       1.722  14.600   4.250  1.00  0.00    -0.202 OA
ATOM      3  C   UNL     1       0.998  14.625   3.136  1.00  0.00     0.368 A 
ATOM      4  C   UNL     1       1.400  13.846   2.046  1.00  0.00     0.162 A 
ATOM      5  C   UNL     1       0.656  13.851   0.865  1.00  0.00     0.128 A 
ATOM      6  C   UNL     1      -0.497  14.637   0.770  1.00  0.00     0.093 A 
ATOM      7  C   UNL     1      -0.921  15.425   1.848  1.00  0.00     0.136 A 
ATOM      8  C   UNL     1      -0.166  15.426   3.050  1.00  0.00     0.125 A 
ATOM      9  C   UNL     1      -0.507  16.193   4.175  1.00  0.00     0.078 A 
ATOM     10  C   UNL     1       0.288  16.146   5.323  1.00  0.00     0.223 A 
ENDROOT
BRANCH   1  11
ATOM     11  C   UNL     1       2.298  15.184   6.520  1.00  0.00     0.091 A 
ATOM     12  C   UNL     1       1.789  14.813   7.777  1.00  0.00     0.068 A 
ATOM     13  C   UNL     1       2.643  14.684   8.880  1.00  0.00     0.162 A 
ATOM     14  C   UNL     1       3.678  15.389   6.375  1.00  0.00     0.068 A 
ATOM     15  C   UNL     1       4.021  14.914   8.732  1.00  0.00     0.200 A 
ATOM     16  C   UNL     1       4.537  15.264   7.472  1.00  0.00     0.162 A 
BRANCH  13  17
ATOM     17  O   UNL     1       2.126  14.321  10.124  1.00  0.00    -0.504 OA
ATOM     18  H   UNL     1       2.730  14.124  10.913  1.00  0.00     0.293 HD
ENDBRANCH  13  17
BRANCH  15  19
ATOM     19  O   UNL     1       4.885  14.793   9.821  1.00  0.00    -0.502 OA
ATOM     20  H   UNL     1       5.035  13.911  10.295  1.00  0.00     0.293 HD
ENDBRANCH  15  19
BRANCH  16  21
ATOM     21  O   UNL     1       5.901  15.490   7.290  1.00  0.00    -0.504 OA
ATOM     22  H   UNL     1       6.500  15.810   8.043  1.00  0.00     0.293 HD
ENDBRANCH  16  21
ENDBRANCH   1  11
BRANCH  10  23
ATOM     23  O   UNL     1      -0.022  16.946   6.423  1.00  0.00    -0.500 OA
ATOM     24  H   UNL     1       0.478  16.861   7.301  1.00  0.00     0.294 HD
ENDBRANCH  10  23
BRANCH   5  25
ATOM     25  O   UNL     1       1.073  13.068  -0.210  1.00  0.00    -0.507 OA
ATOM     26  H   UNL     1       0.421  12.750  -0.918  1.00  0.00     0.293 HD
ENDBRANCH   5  25
BRANCH   7  27
ATOM     27  O   UNL     1      -2.085  16.179   1.675  1.00  0.00    -0.507 OA
ATOM     28  H   UNL     1      -2.493  16.400   0.778  1.00  0.00     0.293 HD
ENDBRANCH   7  27
TORSDOF 7
ENDMDL
MODEL 8
REMARK VINA RESULT:    -4.498      3.874      7.593
REMARK INTER + INTRA:          -5.927
REMARK INTER:                  -5.585
REMARK INTRA:                  -0.342
REMARK UNBOUND:                -0.377
REMARK SMILES Oc1cc(O)c2cc(O)c(-c3cc(O)c(O)c(O)c3)[o+]c2c1
REMARK SMILES IDX 10 1 20 2 21 3 22 4 2 5 3 6 4 7 6 8 7 9 8 10 11 11 12 12
REMARK SMILES IDX 13 13 19 14 15 15 17 16 14 17 16 19 18 21 9 23 1 25 5 27
REMARK H PARENT 14 18 16 20 18 22 9 24 1 26 5 28
REMARK Flexibility Score: inf
ROOT
ATOM      1  C   UNL     1       1.429  17.702  -2.932  1.00  0.00     0.402 A 
ATOM      2  O   UNL     1       2.276  16.872  -2.330  1.00  0.00    -0.202 OA
ATOM      3  C   UNL     1       3.591  17.061  -2.308  1.00  0.00     0.368 A 
ATOM      4  C   UNL     1       4.402  16.130  -1.652  1.00  0.00     0.162 A 
ATOM      5  C   UNL     1       5.786  16.302  -1.616  1.00  0.00     0.128 A 
ATOM      6  C   UNL     1       6.368  17.410  -2.241  1.00  0.00     0.093 A 
ATOM      7  C   UNL     1       5.578  18.357  -2.906  1.00  0.00     0.136 A 
ATOM      8  C   UNL     1       4.169  18.188  -2.942  1.00  0.00     0.125 A 
ATOM      9  C   UNL     1       3.299  19.091  -3.573  1.00  0.00     0.078 A 
ATOM     10  C   UNL     1       1.921  18.860  -3.563  1.00  0.00     0.223 A 
ENDROOT
BRANCH   1  11
ATOM     11  C   UNL     1      -0.016  17.378  -2.895  1.00  0.00     0.091 A 
ATOM     12  C   UNL     1      -0.890  18.028  -2.008  1.00  0.00     0.068 A 
ATOM     13  C   UNL     1      -2.257  17.724  -2.004  1.00  0.00     0.162 A 
ATOM     14  C   UNL     1      -0.536  16.443  -3.804  1.00  0.00     0.068 A 
ATOM     15  C   UNL     1      -2.766  16.769  -2.901  1.00  0.00     0.200 A 
ATOM     16  C   UNL     1      -1.899  16.131  -3.805  1.00  0.00     0.162 A 
BRANCH  13  17
ATOM     17  O   UNL     1      -3.114  18.371  -1.114  1.00  0.00    -0.504 OA
ATOM     18  H   UNL     1      -4.103  18.473  -1.307  1.00  0.00     0.293 HD
ENDBRANCH  13  17
BRANCH  15  19
ATOM     19  O   UNL     1      -4.125  16.451  -2.907  1.00  0.00    -0.502 OA
ATOM     20  H   UNL     1      -4.584  16.028  -2.110  1.00  0.00     0.293 HD
ENDBRANCH  15  19
BRANCH  16  21
ATOM     21  O   UNL     1      -2.374  15.186  -4.713  1.00  0.00    -0.504 OA
ATOM     22  H   UNL     1      -3.169  14.592  -4.507  1.00  0.00     0.293 HD
ENDBRANCH  16  21
ENDBRANCH   1  11
BRANCH  10  23
ATOM     23  O   UNL     1       1.052  19.783  -4.146  1.00  0.00    -0.500 OA
ATOM     24  H   UNL     1       1.392  20.625  -4.596  1.00  0.00     0.294 HD
ENDBRANCH  10  23
BRANCH   5  25
ATOM     25  O   UNL     1       6.577  15.363  -0.956  1.00  0.00    -0.507 OA
ATOM     26  H   UNL     1       6.226  14.438  -0.733  1.00  0.00     0.293 HD
ENDBRANCH   5  25
BRANCH   7  27
ATOM     27  O   UNL     1       6.235  19.434  -3.508  1.00  0.00    -0.507 OA
ATOM     28  H   UNL     1       6.323  19.563  -4.505  1.00  0.00     0.293 HD
ENDBRANCH   7  27
TORSDOF 7
ENDMDL
MODEL 9
REMARK VINA RESULT:    -4.495      1.386      7.210
REMARK INTER + INTRA:          -5.923
REMARK INTER:                  -5.543
REMARK INTRA:                  -0.379
REMARK UNBOUND:                -0.377
REMARK SMILES Oc1cc(O)c2cc(O)c(-c3cc(O)c(O)c(O)c3)[o+]c2c1
REMARK SMILES IDX 10 1 20 2 21 3 22 4 2 5 3 6 4 7 6 8 7 9 8 10 11 11 12 12
REMARK SMILES IDX 13 13 19 14 15 15 17 16 14 17 16 19 18 21 9 23 1 25 5 27
REMARK H PARENT 14 18 16 20 18 22 9 24 1 26 5 28
REMARK Flexibility Score: inf
ROOT
ATOM      1  C   UNL     1       4.872  16.124  -3.391  1.00  0.00     0.402 A 
ATOM      2  O   UNL     1       5.812  16.392  -2.488  1.00  0.00    -0.202 OA
ATOM      3  C   UNL     1       6.642  15.474  -2.005  1.00  0.00     0.368 A 
ATOM      4  C   UNL     1       7.596  15.852  -1.056  1.00  0.00     0.162 A 
ATOM      5  C   UNL     1       8.478  14.908  -0.528  1.00  0.00     0.128 A 
ATOM      6  C   UNL     1       8.409  13.576  -0.950  1.00  0.00     0.093 A 
ATOM      7  C   UNL     1       7.461  13.172  -1.900  1.00  0.00     0.136 A 
ATOM      8  C   UNL     1       6.564  14.129  -2.441  1.00  0.00     0.125 A 
ATOM      9  C   UNL     1       5.592  13.818  -3.406  1.00  0.00     0.078 A 
ATOM     10  C   UNL     1       4.746  14.816  -3.896  1.00  0.00     0.223 A 
ENDROOT
BRANCH   1  11
ATOM     11  C   UNL     1       4.001  17.232  -3.846  1.00  0.00     0.091 A 
ATOM     12  C   UNL     1       4.359  18.045  -4.935  1.00  0.00     0.068 A 
ATOM     13  C   UNL     1       3.510  19.073  -5.365  1.00  0.00     0.162 A 
ATOM     14  C   UNL     1       2.765  17.440  -3.215  1.00  0.00     0.068 A 
ATOM     15  C   UNL     1       2.285  19.291  -4.713  1.00  0.00     0.200 A 
ATOM     16  C   UNL     1       1.913  18.467  -3.637  1.00  0.00     0.162 A 
BRANCH  13  17
ATOM     17  O   UNL     1       3.879  19.878  -6.443  1.00  0.00    -0.504 OA
ATOM     18  H   UNL     1       3.261  20.025  -7.232  1.00  0.00     0.293 HD
ENDBRANCH  13  17
BRANCH  15  19
ATOM     19  O   UNL     1       1.430  20.314  -5.125  1.00  0.00    -0.502 OA
ATOM     20  H   UNL     1       1.030  20.340  -6.056  1.00  0.00     0.293 HD
ENDBRANCH  15  19
BRANCH  16  21
ATOM     21  O   UNL     1       0.700  18.650  -2.974  1.00  0.00    -0.504 OA
ATOM     22  H   UNL     1       0.653  18.978  -2.016  1.00  0.00     0.293 HD
ENDBRANCH  16  21
ENDBRANCH   1  11
BRANCH  10  23
ATOM     23  O   UNL     1       3.814  14.518  -4.890  1.00  0.00    -0.500 OA
ATOM     24  H   UNL     1       3.763  13.599  -5.315  1.00  0.00     0.294 HD
ENDBRANCH  10  23
BRANCH   5  25
ATOM     25  O   UNL     1       9.422  15.305   0.417  1.00  0.00    -0.507 OA
ATOM     26  H   UNL     1       9.622  16.284   0.587  1.00  0.00     0.293 HD
ENDBRANCH   5  25
BRANCH   7  27
ATOM     27  O   UNL     1       7.454  11.823  -2.267  1.00  0.00    -0.507 OA
ATOM     28  H   UNL     1       8.213  11.357  -2.743  1.00  0.00     0.293 HD
ENDBRANCH   7  27
TORSDOF 7
ENDMDL
