MODEL 1
REMARK VINA RESULT:    -3.641      0.000      0.000
REMARK INTER + INTRA:          -5.342
REMARK INTER:                  -4.812
REMARK INTRA:                  -0.530
REMARK UNBOUND:                -0.530
REMARK SMILES C=CCC[C@H](O)CCC
REMARK SMILES IDX 4 1 5 2 7 3 8 4 9 5 6 6 3 8 2 9 1 10
REMARK H PARENT 6 7
REMARK Flexibility Score: inf
ROOT
ATOM      1  C   UNL     1     181.443 190.689 201.237  1.00  0.00     0.036 C 
ENDROOT
BRANCH   1   2
ATOM      2  C   UNL     1     180.832 189.491 200.491  1.00  0.00     0.114 C 
BRANCH   2   3
ATOM      3  C   UNL     1     180.633 189.834 199.004  1.00  0.00     0.031 C 
BRANCH   3   4
ATOM      4  C   UNL     1     179.295 190.544 198.754  1.00  0.00    -0.001 C 
ATOM      5  C   UNL     1     178.197 189.982 199.653  1.00  0.00     0.004 C 
ENDBRANCH   3   4
ENDBRANCH   2   3
BRANCH   2   6
ATOM      6  O   UNL     1     181.690 188.385 200.613  1.00  0.00    -0.393 OA
ATOM      7  H   UNL     1     182.408 188.495 199.936  1.00  0.00     0.210 HD
ENDBRANCH   2   6
ENDBRANCH   1   2
BRANCH   1   8
ATOM      8  C   UNL     1     180.672 191.007 202.526  1.00  0.00     0.029 C 
BRANCH   8   9
ATOM      9  C   UNL     1     180.381 192.479 202.638  1.00  0.00    -0.035 C 
ATOM     10  C   UNL     1     180.103 193.225 201.565  1.00  0.00     0.004 C 
ENDBRANCH   8   9
ENDBRANCH   1   8
TORSDOF 6
ENDMDL
MODEL 2
REMARK VINA RESULT:    -3.565     12.074     13.876
REMARK INTER + INTRA:          -5.241
REMARK INTER:                  -4.794
REMARK INTRA:                  -0.447
REMARK UNBOUND:                -0.530
REMARK SMILES C=CCC[C@H](O)CCC
REMARK SMILES IDX 4 1 5 2 7 3 8 4 9 5 6 6 3 8 2 9 1 10
REMARK H PARENT 6 7
REMARK Flexibility Score: inf
ROOT
ATOM      1  C   UNL     1     184.247 191.204 187.825  1.00  0.00     0.036 C 
ENDROOT
BRANCH   1   2
ATOM      2  C   UNL     1     184.555 190.870 189.294  1.00  0.00     0.114 C 
BRANCH   2   3
ATOM      3  C   UNL     1     185.381 192.001 189.936  1.00  0.00     0.031 C 
BRANCH   3   4
ATOM      4  C   UNL     1     185.784 193.069 188.909  1.00  0.00    -0.001 C 
ATOM      5  C   UNL     1     186.109 194.394 189.594  1.00  0.00     0.004 C 
ENDBRANCH   3   4
ENDBRANCH   2   3
BRANCH   2   6
ATOM      6  O   UNL     1     183.346 190.709 189.994  1.00  0.00    -0.393 OA
ATOM      7  H   UNL     1     183.455 191.156 190.873  1.00  0.00     0.210 HD
ENDBRANCH   2   6
ENDBRANCH   1   2
BRANCH   1   8
ATOM      8  C   UNL     1     184.549 190.018 186.899  1.00  0.00     0.029 C 
BRANCH   8   9
ATOM      9  C   UNL     1     186.024 189.903 186.624  1.00  0.00    -0.035 C 
ATOM     10  C   UNL     1     186.715 190.898 186.061  1.00  0.00     0.004 C 
ENDBRANCH   8   9
ENDBRANCH   1   8
TORSDOF 6
ENDMDL
MODEL 3
REMARK VINA RESULT:    -3.434     11.252     12.767
REMARK INTER + INTRA:          -5.067
REMARK INTER:                  -4.636
REMARK INTRA:                  -0.431
REMARK UNBOUND:                -0.530
REMARK SMILES C=CCC[C@H](O)CCC
REMARK SMILES IDX 4 1 5 2 7 3 8 4 9 5 6 6 3 8 2 9 1 10
REMARK H PARENT 6 7
REMARK Flexibility Score: inf
ROOT
ATOM      1  C   UNL     1     184.783 188.738 189.600  1.00  0.00     0.036 C 
ENDROOT
BRANCH   1   2
ATOM      2  C   UNL     1     184.288 190.008 190.312  1.00  0.00     0.114 C 
BRANCH   2   3
ATOM      3  C   UNL     1     183.940 191.096 189.279  1.00  0.00     0.031 C 
BRANCH   3   4
ATOM      4  C   UNL     1     185.058 192.139 189.145  1.00  0.00    -0.001 C 
ATOM      5  C   UNL     1     185.524 192.262 187.697  1.00  0.00     0.004 C 
ENDBRANCH   3   4
ENDBRANCH   2   3
BRANCH   2   6
ATOM      6  O   UNL     1     183.150 189.696 191.076  1.00  0.00    -0.393 OA
ATOM      7  H   UNL     1     183.461 189.186 191.869  1.00  0.00     0.210 HD
ENDBRANCH   2   6
ENDBRANCH   1   2
BRANCH   1   8
ATOM      8  C   UNL     1     184.145 188.582 188.212  1.00  0.00     0.029 C 
BRANCH   8   9
ATOM      9  C   UNL     1     183.166 187.440 188.187  1.00  0.00    -0.035 C 
ATOM     10  C   UNL     1     183.013 186.621 189.232  1.00  0.00     0.004 C 
ENDBRANCH   8   9
ENDBRANCH   1   8
TORSDOF 6
ENDMDL
MODEL 4
REMARK VINA RESULT:    -3.427     13.146     14.593
REMARK INTER + INTRA:          -5.059
REMARK INTER:                  -4.757
REMARK INTRA:                  -0.301
REMARK UNBOUND:                -0.530
REMARK SMILES C=CCC[C@H](O)CCC
REMARK SMILES IDX 4 1 5 2 7 3 8 4 9 5 6 6 3 8 2 9 1 10
REMARK H PARENT 6 7
REMARK Flexibility Score: inf
ROOT
ATOM      1  C   UNL     1     184.224 191.431 187.723  1.00  0.00     0.036 C 
ENDROOT
BRANCH   1   2
ATOM      2  C   UNL     1     184.437 190.137 186.919  1.00  0.00     0.114 C 
BRANCH   2   3
ATOM      3  C   UNL     1     185.942 189.860 186.744  1.00  0.00     0.031 C 
BRANCH   3   4
ATOM      4  C   UNL     1     186.331 189.726 185.265  1.00  0.00    -0.001 C 
ATOM      5  C   UNL     1     187.318 190.815 184.855  1.00  0.00     0.004 C 
ENDBRANCH   3   4
ENDBRANCH   2   3
BRANCH   2   6
ATOM      6  O   UNL     1     183.833 189.066 187.601  1.00  0.00    -0.393 OA
ATOM      7  H   UNL     1     184.244 189.024 188.504  1.00  0.00     0.210 HD
ENDBRANCH   2   6
ENDBRANCH   1   2
BRANCH   1   8
ATOM      8  C   UNL     1     185.508 192.271 187.795  1.00  0.00     0.029 C 
BRANCH   8   9
ATOM      9  C   UNL     1     185.661 192.918 189.144  1.00  0.00    -0.035 C 
ATOM     10  C   UNL     1     186.124 194.164 189.279  1.00  0.00     0.004 C 
ENDBRANCH   8   9
ENDBRANCH   1   8
TORSDOF 6
ENDMDL
MODEL 5
REMARK VINA RESULT:    -3.417     13.637     15.392
REMARK INTER + INTRA:          -5.045
REMARK INTER:                  -4.816
REMARK INTRA:                  -0.228
REMARK UNBOUND:                -0.530
REMARK SMILES C=CCC[C@H](O)CCC
REMARK SMILES IDX 4 1 5 2 7 3 8 4 9 5 6 6 3 8 2 9 1 10
REMARK H PARENT 6 7
REMARK Flexibility Score: inf
ROOT
ATOM      1  C   UNL     1     185.650 190.022 186.578  1.00  0.00     0.036 C 
ENDROOT
BRANCH   1   2
ATOM      2  C   UNL     1     184.783 190.772 187.603  1.00  0.00     0.114 C 
BRANCH   2   3
ATOM      3  C   UNL     1     185.260 192.229 187.740  1.00  0.00     0.031 C 
BRANCH   3   4
ATOM      4  C   UNL     1     185.294 192.686 189.205  1.00  0.00    -0.001 C 
ATOM      5  C   UNL     1     186.044 194.007 189.352  1.00  0.00     0.004 C 
ENDBRANCH   3   4
ENDBRANCH   2   3
BRANCH   2   6
ATOM      6  O   UNL     1     183.443 190.748 187.179  1.00  0.00    -0.393 OA
ATOM      7  H   UNL     1     183.229 191.654 186.834  1.00  0.00     0.210 HD
ENDBRANCH   2   6
ENDBRANCH   1   2
BRANCH   1   8
ATOM      8  C   UNL     1     186.832 190.879 186.101  1.00  0.00     0.029 C 
BRANCH   8   9
ATOM      9  C   UNL     1     187.349 190.402 184.771  1.00  0.00    -0.035 C 
ATOM     10  C   UNL     1     187.987 191.220 183.930  1.00  0.00     0.004 C 
ENDBRANCH   8   9
ENDBRANCH   1   8
TORSDOF 6
ENDMDL
MODEL 6
REMARK VINA RESULT:    -3.410     11.295     12.614
REMARK INTER + INTRA:          -5.036
REMARK INTER:                  -4.488
REMARK INTRA:                  -0.548
REMARK UNBOUND:                -0.530
REMARK SMILES C=CCC[C@H](O)CCC
REMARK SMILES IDX 4 1 5 2 7 3 8 4 9 5 6 6 3 8 2 9 1 10
REMARK H PARENT 6 7
REMARK Flexibility Score: inf
ROOT
ATOM      1  C   UNL     1     185.615 191.093 190.435  1.00  0.00     0.036 C 
ENDROOT
BRANCH   1   2
ATOM      2  C   UNL     1     184.283 191.222 189.679  1.00  0.00     0.114 C 
BRANCH   2   3
ATOM      3  C   UNL     1     184.460 190.798 188.209  1.00  0.00     0.031 C 
BRANCH   3   4
ATOM      4  C   UNL     1     185.113 191.905 187.369  1.00  0.00    -0.001 C 
ATOM      5  C   UNL     1     186.496 191.482 186.883  1.00  0.00     0.004 C 
ENDBRANCH   3   4
ENDBRANCH   2   3
BRANCH   2   6
ATOM      6  O   UNL     1     183.320 190.404 190.296  1.00  0.00    -0.393 OA
ATOM      7  H   UNL     1     183.474 189.477 189.976  1.00  0.00     0.210 HD
ENDBRANCH   2   6
ENDBRANCH   1   2
BRANCH   1   8
ATOM      8  C   UNL     1     185.930 192.357 191.248  1.00  0.00     0.029 C 
BRANCH   8   9
ATOM      9  C   UNL     1     186.713 193.349 190.431  1.00  0.00    -0.035 C 
ATOM     10  C   UNL     1     186.131 194.409 189.865  1.00  0.00     0.004 C 
ENDBRANCH   8   9
ENDBRANCH   1   8
TORSDOF 6
ENDMDL
MODEL 7
REMARK VINA RESULT:    -3.345     10.901     12.685
REMARK INTER + INTRA:          -4.951
REMARK INTER:                  -4.290
REMARK INTRA:                  -0.661
REMARK UNBOUND:                -0.530
REMARK SMILES C=CCC[C@H](O)CCC
REMARK SMILES IDX 4 1 5 2 7 3 8 4 9 5 6 6 3 8 2 9 1 10
REMARK H PARENT 6 7
REMARK Flexibility Score: inf
ROOT
ATOM      1  C   UNL     1     184.591 189.972 188.369  1.00  0.00     0.036 C 
ENDROOT
BRANCH   1   2
ATOM      2  C   UNL     1     184.326 189.565 189.828  1.00  0.00     0.114 C 
BRANCH   2   3
ATOM      3  C   UNL     1     185.580 189.811 190.687  1.00  0.00     0.031 C 
BRANCH   3   4
ATOM      4  C   UNL     1     185.358 190.927 191.717  1.00  0.00    -0.001 C 
ATOM      5  C   UNL     1     186.120 192.192 191.329  1.00  0.00     0.004 C 
ENDBRANCH   3   4
ENDBRANCH   2   3
BRANCH   2   6
ATOM      6  O   UNL     1     183.251 190.320 190.329  1.00  0.00    -0.393 OA
ATOM      7  H   UNL     1     182.994 189.921 191.201  1.00  0.00     0.210 HD
ENDBRANCH   2   6
ENDBRANCH   1   2
BRANCH   1   8
ATOM      8  C   UNL     1     184.246 191.447 188.121  1.00  0.00     0.029 C 
BRANCH   8   9
ATOM      9  C   UNL     1     185.438 192.207 187.606  1.00  0.00    -0.035 C 
ATOM     10  C   UNL     1     186.621 191.617 187.418  1.00  0.00     0.004 C 
ENDBRANCH   8   9
ENDBRANCH   1   8
TORSDOF 6
ENDMDL
MODEL 8
REMARK VINA RESULT:    -3.295     11.469     13.042
REMARK INTER + INTRA:          -4.884
REMARK INTER:                  -4.284
REMARK INTRA:                  -0.600
REMARK UNBOUND:                -0.530
REMARK SMILES C=CCC[C@H](O)CCC
REMARK SMILES IDX 4 1 5 2 7 3 8 4 9 5 6 6 3 8 2 9 1 10
REMARK H PARENT 6 7
REMARK Flexibility Score: inf
ROOT
ATOM      1  C   UNL     1     184.316 191.098 187.783  1.00  0.00     0.036 C 
ENDROOT
BRANCH   1   2
ATOM      2  C   UNL     1     184.962 189.732 188.067  1.00  0.00     0.114 C 
BRANCH   2   3
ATOM      3  C   UNL     1     184.283 189.063 189.276  1.00  0.00     0.031 C 
BRANCH   3   4
ATOM      4  C   UNL     1     183.908 190.083 190.360  1.00  0.00    -0.001 C 
ATOM      5  C   UNL     1     185.011 190.203 191.408  1.00  0.00     0.004 C 
ENDBRANCH   3   4
ENDBRANCH   2   3
BRANCH   2   6
ATOM      6  O   UNL     1     184.828 188.913 186.933  1.00  0.00    -0.393 OA
ATOM      7  H   UNL     1     183.868 188.669 186.860  1.00  0.00     0.210 HD
ENDBRANCH   2   6
ENDBRANCH   1   2
BRANCH   1   8
ATOM      8  C   UNL     1     185.366 192.156 187.415  1.00  0.00     0.029 C 
BRANCH   8   9
ATOM      9  C   UNL     1     186.170 192.567 188.618  1.00  0.00    -0.035 C 
ATOM     10  C   UNL     1     185.687 193.412 189.533  1.00  0.00     0.004 C 
ENDBRANCH   8   9
ENDBRANCH   1   8
TORSDOF 6
ENDMDL
MODEL 9
REMARK VINA RESULT:    -3.281      1.775      2.155
REMARK INTER + INTRA:          -4.866
REMARK INTER:                  -4.305
REMARK INTRA:                  -0.561
REMARK UNBOUND:                -0.530
REMARK SMILES C=CCC[C@H](O)CCC
REMARK SMILES IDX 4 1 5 2 7 3 8 4 9 5 6 6 3 8 2 9 1 10
REMARK H PARENT 6 7
REMARK Flexibility Score: inf
ROOT
ATOM      1  C   UNL     1     180.848 189.971 200.317  1.00  0.00     0.036 C 
ENDROOT
BRANCH   1   2
ATOM      2  C   UNL     1     179.678 189.887 199.324  1.00  0.00     0.114 C 
BRANCH   2   3
ATOM      3  C   UNL     1     178.455 190.644 199.876  1.00  0.00     0.031 C 
BRANCH   3   4
ATOM      4  C   UNL     1     178.078 191.842 198.994  1.00  0.00    -0.001 C 
ATOM      5  C   UNL     1     178.218 193.155 199.760  1.00  0.00     0.004 C 
ENDBRANCH   3   4
ENDBRANCH   2   3
BRANCH   2   6
ATOM      6  O   UNL     1     180.072 190.451 198.098  1.00  0.00    -0.393 OA
ATOM      7  H   UNL     1     179.496 190.054 197.394  1.00  0.00     0.210 HD
ENDBRANCH   2   6
ENDBRANCH   1   2
BRANCH   1   8
ATOM      8  C   UNL     1     180.453 190.722 201.597  1.00  0.00     0.029 C 
BRANCH   8   9
ATOM      9  C   UNL     1     181.412 191.843 201.890  1.00  0.00    -0.035 C 
ATOM     10  C   UNL     1     180.998 193.011 202.390  1.00  0.00     0.004 C 
ENDBRANCH   8   9
ENDBRANCH   1   8
TORSDOF 6
ENDMDL
