MODEL 1
REMARK VINA RESULT:    -3.348      0.000      0.000
REMARK INTER + INTRA:          -3.446
REMARK INTER:                  -3.446
REMARK INTRA:                   0.000
REMARK UNBOUND:                 0.000
REMARK SMILES Nc1ncnc2nc[nH]c12
REMARK SMILES IDX 8 1 7 2 6 3 5 4 4 5 3 6 2 7 10 8 9 9 1 11
REMARK H PARENT 9 10 1 12 1 13
REMARK Flexibility Score: inf
ROOT
ATOM      1  C   UNL     1      16.713  12.308  31.223  1.00  0.00     0.199 A 
ATOM      2  N   UNL     1      17.098  11.801  30.021  1.00  0.00    -0.217 NA
ATOM      3  C   UNL     1      16.896  12.840  29.194  1.00  0.00     0.182 A 
ATOM      4  N   UNL     1      17.125  12.867  27.860  1.00  0.00    -0.215 NA
ATOM      5  C   UNL     1      16.856  14.024  27.183  1.00  0.00     0.226 A 
ATOM      6  N   UNL     1      16.368  15.122  27.846  1.00  0.00    -0.217 NA
ATOM      7  C   UNL     1      16.135  15.096  29.192  1.00  0.00     0.152 A 
ATOM      8  C   UNL     1      16.415  13.910  29.867  1.00  0.00     0.127 A 
ATOM      9  N   UNL     1      16.289  13.597  31.162  1.00  0.00    -0.340 N 
ATOM     10  H   UNL     1      15.948  14.192  31.948  1.00  0.00     0.168 HD
ENDROOT
BRANCH   7  11
ATOM     11  N   UNL     1      15.626  16.251  29.860  1.00  0.00    -0.382 N 
ATOM     12  H   UNL     1      16.278  16.902  30.350  1.00  0.00     0.158 HD
ATOM     13  H   UNL     1      14.604  16.464  29.873  1.00  0.00     0.158 HD
ENDBRANCH   7  11
TORSDOF 1
ENDMDL
MODEL 2
REMARK VINA RESULT:    -3.340     10.205     11.734
REMARK INTER + INTRA:          -3.438
REMARK INTER:                  -3.438
REMARK INTRA:                   0.000
REMARK UNBOUND:                 0.000
REMARK SMILES Nc1ncnc2nc[nH]c12
REMARK SMILES IDX 8 1 7 2 6 3 5 4 4 5 3 6 2 7 10 8 9 9 1 11
REMARK H PARENT 9 10 1 12 1 13
REMARK Flexibility Score: inf
ROOT
ATOM      1  C   UNL     1      12.605   6.501  19.948  1.00  0.00     0.199 A 
ATOM      2  N   UNL     1      13.364   6.146  18.875  1.00  0.00    -0.217 NA
ATOM      3  C   UNL     1      14.544   6.721  19.158  1.00  0.00     0.182 A 
ATOM      4  N   UNL     1      15.666   6.677  18.402  1.00  0.00    -0.215 NA
ATOM      5  C   UNL     1      16.778   7.329  18.859  1.00  0.00     0.226 A 
ATOM      6  N   UNL     1      16.748   8.007  20.052  1.00  0.00    -0.217 NA
ATOM      7  C   UNL     1      15.615   8.053  20.815  1.00  0.00     0.152 A 
ATOM      8  C   UNL     1      14.492   7.384  20.336  1.00  0.00     0.127 A 
ATOM      9  N   UNL     1      13.266   7.258  20.859  1.00  0.00    -0.340 N 
ATOM     10  H   UNL     1      12.895   7.645  21.754  1.00  0.00     0.168 HD
ENDROOT
BRANCH   7  11
ATOM     11  N   UNL     1      15.608   8.766  22.052  1.00  0.00    -0.382 N 
ATOM     12  H   UNL     1      14.721   8.866  22.593  1.00  0.00     0.158 HD
ATOM     13  H   UNL     1      16.477   9.197  22.436  1.00  0.00     0.158 HD
ENDBRANCH   7  11
TORSDOF 1
ENDMDL
MODEL 3
REMARK VINA RESULT:    -3.339     20.848     21.620
REMARK INTER + INTRA:          -3.437
REMARK INTER:                  -3.437
REMARK INTRA:                   0.000
REMARK UNBOUND:                 0.000
REMARK SMILES Nc1ncnc2nc[nH]c12
REMARK SMILES IDX 8 1 7 2 6 3 5 4 4 5 3 6 2 7 10 8 9 9 1 11
REMARK H PARENT 9 10 1 12 1 13
REMARK Flexibility Score: inf
ROOT
ATOM      1  C   UNL     1      -3.060   7.603  33.883  1.00  0.00     0.199 A 
ATOM      2  N   UNL     1      -2.911   8.940  34.091  1.00  0.00    -0.217 NA
ATOM      3  C   UNL     1      -2.876   9.018  35.431  1.00  0.00     0.182 A 
ATOM      4  N   UNL     1      -2.740  10.144  36.171  1.00  0.00    -0.215 NA
ATOM      5  C   UNL     1      -2.728  10.023  37.533  1.00  0.00     0.226 A 
ATOM      6  N   UNL     1      -2.850   8.791  38.125  1.00  0.00    -0.217 NA
ATOM      7  C   UNL     1      -2.988   7.654  37.379  1.00  0.00     0.152 A 
ATOM      8  C   UNL     1      -2.999   7.794  35.994  1.00  0.00     0.127 A 
ATOM      9  N   UNL     1      -3.117   6.875  35.028  1.00  0.00    -0.340 N 
ATOM     10  H   UNL     1      -3.227   5.842  35.119  1.00  0.00     0.168 HD
ENDROOT
BRANCH   7  11
ATOM     11  N   UNL     1      -3.114   6.383  38.017  1.00  0.00    -0.382 N 
ATOM     12  H   UNL     1      -3.994   5.831  37.914  1.00  0.00     0.158 HD
ATOM     13  H   UNL     1      -2.340   5.985  38.593  1.00  0.00     0.158 HD
ENDBRANCH   7  11
TORSDOF 1
ENDMDL
MODEL 4
REMARK VINA RESULT:    -3.289      1.103      3.210
REMARK INTER + INTRA:          -3.385
REMARK INTER:                  -3.385
REMARK INTRA:                   0.000
REMARK UNBOUND:                 0.000
REMARK SMILES Nc1ncnc2nc[nH]c12
REMARK SMILES IDX 8 1 7 2 6 3 5 4 4 5 3 6 2 7 10 8 9 9 1 11
REMARK H PARENT 9 10 1 12 1 13
REMARK Flexibility Score: inf
ROOT
ATOM      1  C   UNL     1      16.750  15.114  25.795  1.00  0.00     0.199 A 
ATOM      2  N   UNL     1      17.121  13.816  25.971  1.00  0.00    -0.217 NA
ATOM      3  C   UNL     1      16.910  13.635  27.284  1.00  0.00     0.182 A 
ATOM      4  N   UNL     1      17.124  12.497  27.987  1.00  0.00    -0.215 NA
ATOM      5  C   UNL     1      16.850  12.505  29.327  1.00  0.00     0.226 A 
ATOM      6  N   UNL     1      16.371  13.639  29.934  1.00  0.00    -0.217 NA
ATOM      7  C   UNL     1      16.156  14.788  29.226  1.00  0.00     0.152 A 
ATOM      8  C   UNL     1      16.440  14.764  27.863  1.00  0.00     0.127 A 
ATOM      9  N   UNL     1      16.329  15.721  26.934  1.00  0.00    -0.340 N 
ATOM     10  H   UNL     1      15.999  16.704  27.045  1.00  0.00     0.168 HD
ENDROOT
BRANCH   7  11
ATOM     11  N   UNL     1      15.658  15.956  29.879  1.00  0.00    -0.382 N 
ATOM     12  H   UNL     1      15.225  15.882  30.825  1.00  0.00     0.158 HD
ATOM     13  H   UNL     1      15.716  16.897  29.429  1.00  0.00     0.158 HD
ENDBRANCH   7  11
TORSDOF 1
ENDMDL
MODEL 5
REMARK VINA RESULT:    -3.037     14.935     16.417
REMARK INTER + INTRA:          -3.126
REMARK INTER:                  -3.126
REMARK INTRA:                   0.000
REMARK UNBOUND:                 0.000
REMARK SMILES Nc1ncnc2nc[nH]c12
REMARK SMILES IDX 8 1 7 2 6 3 5 4 4 5 3 6 2 7 10 8 9 9 1 11
REMARK H PARENT 9 10 1 12 1 13
REMARK Flexibility Score: inf
ROOT
ATOM      1  C   UNL     1      12.457   5.597  18.035  1.00  0.00     0.199 A 
ATOM      2  N   UNL     1      11.156   5.969  17.887  1.00  0.00    -0.217 NA
ATOM      3  C   UNL     1      10.513   4.793  17.964  1.00  0.00     0.182 A 
ATOM      4  N   UNL     1       9.176   4.596  17.875  1.00  0.00    -0.215 NA
ATOM      5  C   UNL     1       8.704   3.316  17.977  1.00  0.00     0.226 A 
ATOM      6  N   UNL     1       9.569   2.267  18.163  1.00  0.00    -0.217 NA
ATOM      7  C   UNL     1      10.918   2.464  18.252  1.00  0.00     0.152 A 
ATOM      8  C   UNL     1      11.383   3.773  18.147  1.00  0.00     0.127 A 
ATOM      9  N   UNL     1      12.628   4.260  18.196  1.00  0.00    -0.340 N 
ATOM     10  H   UNL     1      13.526   3.745  18.326  1.00  0.00     0.168 HD
ENDROOT
BRANCH   7  11
ATOM     11  N   UNL     1      11.799   1.357  18.445  1.00  0.00    -0.382 N 
ATOM     12  H   UNL     1      11.618   0.673  19.212  1.00  0.00     0.158 HD
ATOM     13  H   UNL     1      12.631   1.211  17.832  1.00  0.00     0.158 HD
ENDBRANCH   7  11
TORSDOF 1
ENDMDL
MODEL 6
REMARK VINA RESULT:    -2.959     20.786     21.400
REMARK INTER + INTRA:          -3.045
REMARK INTER:                  -3.045
REMARK INTRA:                   0.000
REMARK UNBOUND:                 0.000
REMARK SMILES Nc1ncnc2nc[nH]c12
REMARK SMILES IDX 8 1 7 2 6 3 5 4 4 5 3 6 2 7 10 8 9 9 1 11
REMARK H PARENT 9 10 1 12 1 13
REMARK Flexibility Score: inf
ROOT
ATOM      1  C   UNL     1      -3.051   8.039  33.778  1.00  0.00     0.199 A 
ATOM      2  N   UNL     1      -3.119   6.883  34.493  1.00  0.00    -0.217 NA
ATOM      3  C   UNL     1      -2.918   7.312  35.749  1.00  0.00     0.182 A 
ATOM      4  N   UNL     1      -2.887   6.550  36.868  1.00  0.00    -0.215 NA
ATOM      5  C   UNL     1      -2.667   7.172  38.066  1.00  0.00     0.226 A 
ATOM      6  N   UNL     1      -2.483   8.530  38.123  1.00  0.00    -0.217 NA
ATOM      7  C   UNL     1      -2.512   9.300  36.994  1.00  0.00     0.152 A 
ATOM      8  C   UNL     1      -2.738   8.653  35.783  1.00  0.00     0.127 A 
ATOM      9  N   UNL     1      -2.819   9.139  34.538  1.00  0.00    -0.340 N 
ATOM     10  H   UNL     1      -2.727  10.127  34.216  1.00  0.00     0.168 HD
ENDROOT
BRANCH   7  11
ATOM     11  N   UNL     1      -2.318  10.712  37.079  1.00  0.00    -0.382 N 
ATOM     12  H   UNL     1      -3.136  11.347  37.203  1.00  0.00     0.158 HD
ATOM     13  H   UNL     1      -1.364  11.134  37.017  1.00  0.00     0.158 HD
ENDBRANCH   7  11
TORSDOF 1
ENDMDL
