MODEL 1
REMARK VINA RESULT:    -3.883      0.000      0.000
REMARK INTER + INTRA:          -4.680
REMARK INTER:                  -4.678
REMARK INTRA:                  -0.002
REMARK UNBOUND:                -0.002
REMARK SMILES OCC(O)CO
REMARK SMILES IDX 3 1 5 2 6 3 2 5 1 6 4 8
REMARK H PARENT 6 4 1 7 4 9
REMARK Flexibility Score: inf
ROOT
ATOM      1  C   UNL     1     -18.190  12.776 -13.305  1.00  0.00     0.165 C 
ENDROOT
BRANCH   1   2
ATOM      2  C   UNL     1     -16.714  12.939 -13.709  1.00  0.00     0.190 C 
BRANCH   2   3
ATOM      3  O   UNL     1     -16.591  13.053 -15.101  1.00  0.00    -0.394 OA
ATOM      4  H   UNL     1     -16.036  12.283 -15.391  1.00  0.00     0.210 HD
ENDBRANCH   2   3
ENDBRANCH   1   2
BRANCH   1   5
ATOM      5  C   UNL     1     -18.626  13.795 -12.240  1.00  0.00     0.190 C 
BRANCH   5   6
ATOM      6  O   UNL     1     -18.204  13.377 -10.971  1.00  0.00    -0.394 OA
ATOM      7  H   UNL     1     -17.327  13.814 -10.815  1.00  0.00     0.210 HD
ENDBRANCH   5   6
ENDBRANCH   1   5
BRANCH   1   8
ATOM      8  O   UNL     1     -18.442  11.463 -12.871  1.00  0.00    -0.388 OA
ATOM      9  H   UNL     1     -19.394  11.414 -12.589  1.00  0.00     0.211 HD
ENDBRANCH   1   8
TORSDOF 5
ENDMDL
MODEL 2
REMARK VINA RESULT:    -3.804     19.447     20.388
REMARK INTER + INTRA:          -4.584
REMARK INTER:                  -4.417
REMARK INTRA:                  -0.168
REMARK UNBOUND:                -0.002
REMARK SMILES OCC(O)CO
REMARK SMILES IDX 3 1 5 2 6 3 2 5 1 6 4 8
REMARK H PARENT 6 4 1 7 4 9
REMARK Flexibility Score: inf
ROOT
ATOM      1  C   UNL     1     -13.826  -3.547 -23.334  1.00  0.00     0.165 C 
ENDROOT
BRANCH   1   2
ATOM      2  C   UNL     1     -14.544  -4.810 -22.827  1.00  0.00     0.190 C 
BRANCH   2   3
ATOM      3  O   UNL     1     -14.333  -4.982 -21.452  1.00  0.00    -0.394 OA
ATOM      4  H   UNL     1     -14.733  -5.861 -21.221  1.00  0.00     0.210 HD
ENDBRANCH   2   3
ENDBRANCH   1   2
BRANCH   1   5
ATOM      5  C   UNL     1     -12.527  -3.870 -24.091  1.00  0.00     0.190 C 
BRANCH   5   6
ATOM      6  O   UNL     1     -11.883  -4.964 -23.499  1.00  0.00    -0.394 OA
ATOM      7  H   UNL     1     -12.594  -5.493 -23.052  1.00  0.00     0.210 HD
ENDBRANCH   5   6
ENDBRANCH   1   5
BRANCH   1   8
ATOM      8  O   UNL     1     -13.577  -2.660 -22.272  1.00  0.00    -0.388 OA
ATOM      9  H   UNL     1     -12.969  -3.116 -21.632  1.00  0.00     0.211 HD
ENDBRANCH   1   8
TORSDOF 5
ENDMDL
MODEL 3
REMARK VINA RESULT:    -3.746      0.782      2.688
REMARK INTER + INTRA:          -4.515
REMARK INTER:                  -4.293
REMARK INTRA:                  -0.222
REMARK UNBOUND:                -0.002
REMARK SMILES OCC(O)CO
REMARK SMILES IDX 3 1 5 2 6 3 2 5 1 6 4 8
REMARK H PARENT 6 4 1 7 4 9
REMARK Flexibility Score: inf
ROOT
ATOM      1  C   UNL     1     -18.023  13.719 -12.544  1.00  0.00     0.165 C 
ENDROOT
BRANCH   1   2
ATOM      2  C   UNL     1     -18.947  12.704 -13.238  1.00  0.00     0.190 C 
BRANCH   2   3
ATOM      3  O   UNL     1     -18.404  11.413 -13.174  1.00  0.00    -0.394 OA
ATOM      4  H   UNL     1     -17.900  11.369 -12.320  1.00  0.00     0.210 HD
ENDBRANCH   2   3
ENDBRANCH   1   2
BRANCH   1   5
ATOM      5  C   UNL     1     -16.533  13.400 -12.751  1.00  0.00     0.190 C 
BRANCH   5   6
ATOM      6  O   UNL     1     -16.256  13.262 -14.117  1.00  0.00    -0.394 OA
ATOM      7  H   UNL     1     -15.279  13.104 -14.185  1.00  0.00     0.210 HD
ENDBRANCH   5   6
ENDBRANCH   1   5
BRANCH   1   8
ATOM      8  O   UNL     1     -18.327  13.808 -11.174  1.00  0.00    -0.388 OA
ATOM      9  H   UNL     1     -18.030  14.701 -10.855  1.00  0.00     0.211 HD
ENDBRANCH   1   8
TORSDOF 5
ENDMDL
MODEL 4
REMARK VINA RESULT:    -3.743      0.716      3.054
REMARK INTER + INTRA:          -4.511
REMARK INTER:                  -4.509
REMARK INTRA:                  -0.003
REMARK UNBOUND:                -0.002
REMARK SMILES OCC(O)CO
REMARK SMILES IDX 3 1 5 2 6 3 2 5 1 6 4 8
REMARK H PARENT 6 4 1 7 4 9
REMARK Flexibility Score: inf
ROOT
ATOM      1  C   UNL     1     -17.646  12.526 -12.974  1.00  0.00     0.165 C 
ENDROOT
BRANCH   1   2
ATOM      2  C   UNL     1     -18.362  13.744 -12.366  1.00  0.00     0.190 C 
BRANCH   2   3
ATOM      3  O   UNL     1     -18.431  13.634 -10.970  1.00  0.00    -0.394 OA
ATOM      4  H   UNL     1     -19.108  14.296 -10.675  1.00  0.00     0.210 HD
ENDBRANCH   2   3
ENDBRANCH   1   2
BRANCH   1   5
ATOM      5  C   UNL     1     -16.963  12.849 -14.313  1.00  0.00     0.190 C 
BRANCH   5   6
ATOM      6  O   UNL     1     -17.298  11.882 -15.270  1.00  0.00    -0.394 OA
ATOM      7  H   UNL     1     -18.286  11.797 -15.241  1.00  0.00     0.210 HD
ENDBRANCH   5   6
ENDBRANCH   1   5
BRANCH   1   8
ATOM      8  O   UNL     1     -18.537  11.448 -13.117  1.00  0.00    -0.388 OA
ATOM      9  H   UNL     1     -19.008  11.556 -13.985  1.00  0.00     0.211 HD
ENDBRANCH   1   8
TORSDOF 5
ENDMDL
MODEL 5
REMARK VINA RESULT:    -3.732      1.589      2.341
REMARK INTER + INTRA:          -4.499
REMARK INTER:                  -4.463
REMARK INTRA:                  -0.036
REMARK UNBOUND:                -0.002
REMARK SMILES OCC(O)CO
REMARK SMILES IDX 3 1 5 2 6 3 2 5 1 6 4 8
REMARK H PARENT 6 4 1 7 4 9
REMARK Flexibility Score: inf
ROOT
ATOM      1  C   UNL     1     -16.952  12.797 -14.566  1.00  0.00     0.165 C 
ENDROOT
BRANCH   1   2
ATOM      2  C   UNL     1     -15.786  12.644 -13.573  1.00  0.00     0.190 C 
BRANCH   2   3
ATOM      3  O   UNL     1     -15.034  11.498 -13.864  1.00  0.00    -0.394 OA
ATOM      4  H   UNL     1     -15.256  10.837 -13.158  1.00  0.00     0.210 HD
ENDBRANCH   2   3
ENDBRANCH   1   2
BRANCH   1   5
ATOM      5  C   UNL     1     -18.326  12.684 -13.885  1.00  0.00     0.190 C 
BRANCH   5   6
ATOM      6  O   UNL     1     -18.391  11.512 -13.122  1.00  0.00    -0.394 OA
ATOM      7  H   UNL     1     -18.525  10.770 -13.768  1.00  0.00     0.210 HD
ENDBRANCH   5   6
ENDBRANCH   1   5
BRANCH   1   8
ATOM      8  O   UNL     1     -16.837  11.865 -15.612  1.00  0.00    -0.388 OA
ATOM      9  H   UNL     1     -17.574  12.038 -16.255  1.00  0.00     0.211 HD
ENDBRANCH   1   8
TORSDOF 5
ENDMDL
MODEL 6
REMARK VINA RESULT:    -3.731     19.343     20.183
REMARK INTER + INTRA:          -4.497
REMARK INTER:                  -4.297
REMARK INTRA:                  -0.200
REMARK UNBOUND:                -0.002
REMARK SMILES OCC(O)CO
REMARK SMILES IDX 3 1 5 2 6 3 2 5 1 6 4 8
REMARK H PARENT 6 4 1 7 4 9
REMARK Flexibility Score: inf
ROOT
ATOM      1  C   UNL     1     -13.538  -4.025 -22.214  1.00  0.00     0.165 C 
ENDROOT
BRANCH   1   2
ATOM      2  C   UNL     1     -12.146  -4.536 -22.624  1.00  0.00     0.190 C 
BRANCH   2   3
ATOM      3  O   UNL     1     -12.027  -4.589 -24.019  1.00  0.00    -0.394 OA
ATOM      4  H   UNL     1     -12.852  -5.033 -24.348  1.00  0.00     0.210 HD
ENDBRANCH   2   3
ENDBRANCH   1   2
BRANCH   1   5
ATOM      5  C   UNL     1     -14.641  -4.472 -23.188  1.00  0.00     0.190 C 
BRANCH   5   6
ATOM      6  O   UNL     1     -14.914  -3.452 -24.107  1.00  0.00    -0.394 OA
ATOM      7  H   UNL     1     -14.740  -3.836 -25.006  1.00  0.00     0.210 HD
ENDBRANCH   5   6
ENDBRANCH   1   5
BRANCH   1   8
ATOM      8  O   UNL     1     -13.532  -2.626 -22.078  1.00  0.00    -0.388 OA
ATOM      9  H   UNL     1     -12.762  -2.381 -21.500  1.00  0.00     0.211 HD
ENDBRANCH   1   8
TORSDOF 5
ENDMDL
MODEL 7
REMARK VINA RESULT:    -3.727      1.636      2.757
REMARK INTER + INTRA:          -4.492
REMARK INTER:                  -4.312
REMARK INTRA:                  -0.180
REMARK UNBOUND:                -0.002
REMARK SMILES OCC(O)CO
REMARK SMILES IDX 3 1 5 2 6 3 2 5 1 6 4 8
REMARK H PARENT 6 4 1 7 4 9
REMARK Flexibility Score: inf
ROOT
ATOM      1  C   UNL     1     -18.979  12.757 -13.206  1.00  0.00     0.165 C 
ENDROOT
BRANCH   1   2
ATOM      2  C   UNL     1     -18.348  13.729 -12.194  1.00  0.00     0.190 C 
BRANCH   2   3
ATOM      3  O   UNL     1     -18.596  13.308 -10.880  1.00  0.00    -0.394 OA
ATOM      4  H   UNL     1     -18.572  12.317 -10.900  1.00  0.00     0.210 HD
ENDBRANCH   2   3
ENDBRANCH   1   2
BRANCH   1   5
ATOM      5  C   UNL     1     -20.507  12.665 -13.063  1.00  0.00     0.190 C 
BRANCH   5   6
ATOM      6  O   UNL     1     -20.851  11.569 -12.263  1.00  0.00    -0.394 OA
ATOM      7  H   UNL     1     -20.019  11.298 -11.794  1.00  0.00     0.210 HD
ENDBRANCH   5   6
ENDBRANCH   1   5
BRANCH   1   8
ATOM      8  O   UNL     1     -18.392  11.483 -13.100  1.00  0.00    -0.388 OA
ATOM      9  H   UNL     1     -17.659  11.431 -13.769  1.00  0.00     0.211 HD
ENDBRANCH   1   8
TORSDOF 5
ENDMDL
MODEL 8
REMARK VINA RESULT:    -3.707      1.465      2.203
REMARK INTER + INTRA:          -4.468
REMARK INTER:                  -4.246
REMARK INTRA:                  -0.222
REMARK UNBOUND:                -0.002
REMARK SMILES OCC(O)CO
REMARK SMILES IDX 3 1 5 2 6 3 2 5 1 6 4 8
REMARK H PARENT 6 4 1 7 4 9
REMARK Flexibility Score: inf
ROOT
ATOM      1  C   UNL     1     -18.368  13.120 -12.308  1.00  0.00     0.165 C 
ENDROOT
BRANCH   1   2
ATOM      2  C   UNL     1     -16.983  13.303 -12.952  1.00  0.00     0.190 C 
BRANCH   2   3
ATOM      3  O   UNL     1     -16.641  12.182 -13.720  1.00  0.00    -0.394 OA
ATOM      4  H   UNL     1     -17.015  11.397 -13.243  1.00  0.00     0.210 HD
ENDBRANCH   2   3
ENDBRANCH   1   2
BRANCH   1   5
ATOM      5  C   UNL     1     -19.515  13.517 -13.251  1.00  0.00     0.190 C 
BRANCH   5   6
ATOM      6  O   UNL     1     -19.110  13.383 -14.585  1.00  0.00    -0.394 OA
ATOM      7  H   UNL     1     -18.244  13.862 -14.659  1.00  0.00     0.210 HD
ENDBRANCH   5   6
ENDBRANCH   1   5
BRANCH   1   8
ATOM      8  O   UNL     1     -18.450  13.832 -11.098  1.00  0.00    -0.388 OA
ATOM      9  H   UNL     1     -17.684  13.553 -10.530  1.00  0.00     0.211 HD
ENDBRANCH   1   8
TORSDOF 5
ENDMDL
MODEL 9
REMARK VINA RESULT:    -3.697     18.697     19.693
REMARK INTER + INTRA:          -4.455
REMARK INTER:                  -4.453
REMARK INTRA:                  -0.003
REMARK UNBOUND:                -0.002
REMARK SMILES OCC(O)CO
REMARK SMILES IDX 3 1 5 2 6 3 2 5 1 6 4 8
REMARK H PARENT 6 4 1 7 4 9
REMARK Flexibility Score: inf
ROOT
ATOM      1  C   UNL     1     -13.151  -3.852 -21.969  1.00  0.00     0.165 C 
ENDROOT
BRANCH   1   2
ATOM      2  C   UNL     1     -12.926  -3.551 -20.478  1.00  0.00     0.190 C 
BRANCH   2   3
ATOM      3  O   UNL     1     -14.020  -2.859 -19.941  1.00  0.00    -0.394 OA
ATOM      4  H   UNL     1     -13.706  -1.933 -19.776  1.00  0.00     0.210 HD
ENDBRANCH   2   3
ENDBRANCH   1   2
BRANCH   1   5
ATOM      5  C   UNL     1     -11.968  -4.600 -22.606  1.00  0.00     0.190 C 
BRANCH   5   6
ATOM      6  O   UNL     1     -11.934  -4.362 -23.986  1.00  0.00    -0.394 OA
ATOM      7  H   UNL     1     -10.975  -4.267 -24.225  1.00  0.00     0.210 HD
ENDBRANCH   5   6
ENDBRANCH   1   5
BRANCH   1   8
ATOM      8  O   UNL     1     -13.431  -2.670 -22.677  1.00  0.00    -0.388 OA
ATOM      9  H   UNL     1     -12.879  -1.944 -22.284  1.00  0.00     0.211 HD
ENDBRANCH   1   8
TORSDOF 5
ENDMDL
