MODEL 1
REMARK VINA RESULT:    -2.861      0.000      0.000
REMARK INTER + INTRA:          -2.861
REMARK INTER:                  -2.861
REMARK INTRA:                   0.000
REMARK UNBOUND:                 0.000
REMARK SMILES c1cc[nH]c1
REMARK SMILES IDX 1 1 5 2 4 3 3 4 2 5
REMARK H PARENT 4 6
REMARK Flexibility Score: inf
ROOT
ATOM      1  C   UNL     1       3.875  26.377  15.709  1.00  0.00     0.019 A 
ATOM      2  C   UNL     1       3.875  27.482  14.881  1.00  0.00     0.082 A 
ATOM      3  N   UNL     1       5.003  27.509  14.150  1.00  0.00    -0.368 N 
ATOM      4  C   UNL     1       5.727  26.430  14.499  1.00  0.00     0.082 A 
ATOM      5  C   UNL     1       5.056  25.706  15.464  1.00  0.00     0.019 A 
ATOM      6  H   UNL     1       5.267  28.229  13.443  1.00  0.00     0.165 HD
ENDROOT
TORSDOF 0
ENDMDL
MODEL 2
REMARK VINA RESULT:    -2.772      0.853      1.638
REMARK INTER + INTRA:          -2.772
REMARK INTER:                  -2.772
REMARK INTRA:                   0.000
REMARK UNBOUND:                 0.000
REMARK SMILES c1cc[nH]c1
REMARK SMILES IDX 1 1 5 2 4 3 3 4 2 5
REMARK H PARENT 4 6
REMARK Flexibility Score: inf
ROOT
ATOM      1  C   UNL     1       5.743  26.355  14.515  1.00  0.00     0.019 A 
ATOM      2  C   UNL     1       5.009  27.489  14.230  1.00  0.00     0.082 A 
ATOM      3  N   UNL     1       3.875  27.497  14.953  1.00  0.00    -0.368 N 
ATOM      4  C   UNL     1       3.875  26.379  15.701  1.00  0.00     0.082 A 
ATOM      5  C   UNL     1       5.019  25.648  15.455  1.00  0.00     0.019 A 
ATOM      6  H   UNL     1       3.134  28.231  14.937  1.00  0.00     0.165 HD
ENDROOT
TORSDOF 0
ENDMDL
MODEL 3
REMARK VINA RESULT:    -2.448      1.991      2.873
REMARK INTER + INTRA:          -2.448
REMARK INTER:                  -2.448
REMARK INTRA:                   0.000
REMARK UNBOUND:                 0.000
REMARK SMILES c1cc[nH]c1
REMARK SMILES IDX 1 1 5 2 4 3 3 4 2 5
REMARK H PARENT 4 6
REMARK Flexibility Score: inf
ROOT
ATOM      1  C   UNL     1       4.001  27.589  13.666  1.00  0.00     0.019 A 
ATOM      2  C   UNL     1       4.697  28.092  14.747  1.00  0.00     0.082 A 
ATOM      3  N   UNL     1       4.999  29.385  14.538  1.00  0.00    -0.368 N 
ATOM      4  C   UNL     1       4.502  29.718  13.333  1.00  0.00     0.082 A 
ATOM      5  C   UNL     1       3.875  28.628  12.765  1.00  0.00     0.019 A 
ATOM      6  H   UNL     1       5.521  30.013  15.187  1.00  0.00     0.165 HD
ENDROOT
TORSDOF 0
ENDMDL
MODEL 4
REMARK VINA RESULT:    -2.332      1.879      2.473
REMARK INTER + INTRA:          -2.332
REMARK INTER:                  -2.332
REMARK INTRA:                   0.000
REMARK UNBOUND:                 0.000
REMARK SMILES c1cc[nH]c1
REMARK SMILES IDX 1 1 5 2 4 3 3 4 2 5
REMARK H PARENT 4 6
REMARK Flexibility Score: inf
ROOT
ATOM      1  C   UNL     1       3.875  28.119  12.999  1.00  0.00     0.019 A 
ATOM      2  C   UNL     1       4.276  29.424  13.200  1.00  0.00     0.082 A 
ATOM      3  N   UNL     1       4.974  29.520  14.345  1.00  0.00    -0.368 N 
ATOM      4  C   UNL     1       5.025  28.288  14.882  1.00  0.00     0.082 A 
ATOM      5  C   UNL     1       4.355  27.393  14.072  1.00  0.00     0.019 A 
ATOM      6  H   UNL     1       5.396  30.387  14.744  1.00  0.00     0.165 HD
ENDROOT
TORSDOF 0
ENDMDL
MODEL 5
REMARK VINA RESULT:    -2.045      2.486      3.156
REMARK INTER + INTRA:          -2.045
REMARK INTER:                  -2.045
REMARK INTRA:                   0.000
REMARK UNBOUND:                 0.000
REMARK SMILES c1cc[nH]c1
REMARK SMILES IDX 1 1 5 2 4 3 3 4 2 5
REMARK H PARENT 4 6
REMARK Flexibility Score: inf
ROOT
ATOM      1  C   UNL     1       3.875  30.062  14.084  1.00  0.00     0.019 A 
ATOM      2  C   UNL     1       4.059  30.095  12.716  1.00  0.00     0.082 A 
ATOM      3  N   UNL     1       4.564  28.923  12.292  1.00  0.00    -0.368 N 
ATOM      4  C   UNL     1       4.706  28.138  13.376  1.00  0.00     0.082 A 
ATOM      5  C   UNL     1       4.287  28.813  14.504  1.00  0.00     0.019 A 
ATOM      6  H   UNL     1       4.803  28.669  11.309  1.00  0.00     0.165 HD
ENDROOT
TORSDOF 0
ENDMDL
MODEL 6
REMARK VINA RESULT:    -1.905      2.413      3.458
REMARK INTER + INTRA:          -1.905
REMARK INTER:                  -1.905
REMARK INTRA:                   0.000
REMARK UNBOUND:                 0.000
REMARK SMILES c1cc[nH]c1
REMARK SMILES IDX 1 1 5 2 4 3 3 4 2 5
REMARK H PARENT 4 6
REMARK Flexibility Score: inf
ROOT
ATOM      1  C   UNL     1       3.875  30.181  12.969  1.00  0.00     0.019 A 
ATOM      2  C   UNL     1       4.326  29.009  12.397  1.00  0.00     0.082 A 
ATOM      3  N   UNL     1       4.607  28.108  13.355  1.00  0.00    -0.368 N 
ATOM      4  C   UNL     1       4.340  28.691  14.537  1.00  0.00     0.082 A 
ATOM      5  C   UNL     1       3.883  29.978  14.335  1.00  0.00     0.019 A 
ATOM      6  H   UNL     1       4.965  27.139  13.209  1.00  0.00     0.165 HD
ENDROOT
TORSDOF 0
ENDMDL
MODEL 7
REMARK VINA RESULT:    -1.058      0.006      1.624
REMARK INTER + INTRA:          -1.058
REMARK INTER:                  -1.058
REMARK INTRA:                   0.000
REMARK UNBOUND:                 0.000
REMARK SMILES c1cc[nH]c1
REMARK SMILES IDX 1 1 5 2 4 3 3 4 2 5
REMARK H PARENT 4 6
REMARK Flexibility Score: inf
ROOT
ATOM      1  C   UNL     1       5.058  25.706  15.469  1.00  0.00     0.019 A 
ATOM      2  C   UNL     1       5.729  26.427  14.502  1.00  0.00     0.082 A 
ATOM      3  N   UNL     1       5.005  27.503  14.145  1.00  0.00    -0.368 N 
ATOM      4  C   UNL     1       3.875  27.479  14.874  1.00  0.00     0.082 A 
ATOM      5  C   UNL     1       3.875  26.379  15.707  1.00  0.00     0.019 A 
ATOM      6  H   UNL     1       5.269  28.220  13.435  1.00  0.00     0.165 HD
ENDROOT
TORSDOF 0
ENDMDL
