MODEL 1
REMARK VINA RESULT:    -4.595      0.000      0.000
REMARK INTER + INTRA:         -16.849
REMARK INTER:                 -12.117
REMARK INTRA:                  -4.733
REMARK UNBOUND:                -4.733
REMARK SMILES CCCCCCCCCCCCCCCCCCCCCCCCCCCCCC(=O)[O-]
REMARK SMILES IDX 16 1 17 2 18 3 19 4 20 5 21 6 22 7 23 8 24 9 25 10 26 11
REMARK SMILES IDX 27 12 28 13 29 14 30 15 31 16 32 17 15 18 14 19 13 20 12 21
REMARK SMILES IDX 11 22 10 23 9 24 8 25 7 26 6 27 5 28 4 29 3 30 2 31 1 32
REMARK H PARENT
REMARK Flexibility Score: inf
ROOT
ATOM      1  C   UNL     1      21.226  20.256   6.524  1.00  0.00     0.000 C 
ENDROOT
BRANCH   1   2
ATOM      2  C   UNL     1      21.448  21.439   7.487  1.00  0.00     0.000 C 
BRANCH   2   3
ATOM      3  C   UNL     1      20.632  22.691   7.106  1.00  0.00     0.000 C 
BRANCH   3   4
ATOM      4  C   UNL     1      19.550  22.449   6.035  1.00  0.00     0.000 C 
BRANCH   4   5
ATOM      5  C   UNL     1      18.260  23.271   6.191  1.00  0.00     0.000 C 
BRANCH   5   6
ATOM      6  C   UNL     1      17.077  22.433   6.706  1.00  0.00     0.000 C 
BRANCH   6   7
ATOM      7  C   UNL     1      17.318  20.917   6.599  1.00  0.00     0.000 C 
BRANCH   7   8
ATOM      8  C   UNL     1      17.391  20.159   7.943  1.00  0.00     0.000 C 
BRANCH   8   9
ATOM      9  C   UNL     1      17.369  21.044   9.205  1.00  0.00     0.000 C 
BRANCH   9  10
ATOM     10  C   UNL     1      18.748  21.304   9.842  1.00  0.00     0.000 C 
BRANCH  10  11
ATOM     11  C   UNL     1      18.763  22.490  10.830  1.00  0.00     0.000 C 
BRANCH  11  12
ATOM     12  C   UNL     1      17.351  23.022  11.138  1.00  0.00     0.000 C 
BRANCH  12  13
ATOM     13  C   UNL     1      17.112  24.438  10.585  1.00  0.00     0.006 C 
BRANCH  13  14
ATOM     14  C   UNL     1      17.887  24.761   9.298  1.00  0.00     0.053 C 
BRANCH  14  15
ATOM     15  C   UNL     1      18.892  25.849   9.510  1.00  0.00     0.041 C 
ATOM     16  O   UNL     1      19.673  25.806  10.497  1.00  0.00    -0.550 OA
ATOM     17  O   UNL     1      18.984  26.900   8.602  1.00  0.00    -0.550 OA
ENDBRANCH  14  15
ENDBRANCH  13  14
ENDBRANCH  12  13
ENDBRANCH  11  12
ENDBRANCH  10  11
ENDBRANCH   9  10
ENDBRANCH   8   9
ENDBRANCH   7   8
ENDBRANCH   6   7
ENDBRANCH   5   6
ENDBRANCH   4   5
ENDBRANCH   3   4
ENDBRANCH   2   3
ENDBRANCH   1   2
BRANCH   1  18
ATOM     18  C   UNL     1      22.464  19.939   5.659  1.00  0.00     0.000 C 
BRANCH  18  19
ATOM     19  C   UNL     1      23.478  18.984   6.322  1.00  0.00     0.000 C 
BRANCH  19  20
ATOM     20  C   UNL     1      24.564  18.406   5.395  1.00  0.00     0.000 C 
BRANCH  20  21
ATOM     21  C   UNL     1      24.195  17.093   4.682  1.00  0.00     0.000 C 
BRANCH  21  22
ATOM     22  C   UNL     1      22.982  16.389   5.308  1.00  0.00     0.000 C 
BRANCH  22  23
ATOM     23  C   UNL     1      22.008  15.900   4.222  1.00  0.00     0.000 C 
BRANCH  23  24
ATOM     24  C   UNL     1      20.532  16.125   4.602  1.00  0.00    -0.000 C 
BRANCH  24  25
ATOM     25  C   UNL     1      19.983  17.520   4.250  1.00  0.00    -0.000 C 
BRANCH  25  26
ATOM     26  C   UNL     1      18.839  17.957   5.181  1.00  0.00    -0.000 C 
BRANCH  26  27
ATOM     27  C   UNL     1      17.502  17.268   4.853  1.00  0.00    -0.000 C 
BRANCH  27  28
ATOM     28  C   UNL     1      17.011  16.245   5.900  1.00  0.00    -0.000 C 
BRANCH  28  29
ATOM     29  C   UNL     1      17.386  16.569   7.358  1.00  0.00    -0.000 C 
BRANCH  29  30
ATOM     30  C   UNL     1      17.531  15.311   8.233  1.00  0.00    -0.000 C 
BRANCH  30  31
ATOM     31  C   UNL     1      18.578  14.330   7.685  1.00  0.00    -0.003 C 
ATOM     32  C   UNL     1      20.009  14.743   8.024  1.00  0.00     0.004 C 
ENDBRANCH  30  31
ENDBRANCH  29  30
ENDBRANCH  28  29
ENDBRANCH  27  28
ENDBRANCH  26  27
ENDBRANCH  25  26
ENDBRANCH  24  25
ENDBRANCH  23  24
ENDBRANCH  22  23
ENDBRANCH  21  22
ENDBRANCH  20  21
ENDBRANCH  19  20
ENDBRANCH  18  19
ENDBRANCH   1  18
TORSDOF 28
ENDMDL
MODEL 2
REMARK VINA RESULT:    -4.466      4.551      7.884
REMARK INTER + INTRA:         -16.509
REMARK INTER:                 -13.779
REMARK INTRA:                  -2.730
REMARK UNBOUND:                -4.733
REMARK SMILES CCCCCCCCCCCCCCCCCCCCCCCCCCCCCC(=O)[O-]
REMARK SMILES IDX 16 1 17 2 18 3 19 4 20 5 21 6 22 7 23 8 24 9 25 10 26 11
REMARK SMILES IDX 27 12 28 13 29 14 30 15 31 16 32 17 15 18 14 19 13 20 12 21
REMARK SMILES IDX 11 22 10 23 9 24 8 25 7 26 6 27 5 28 4 29 3 30 2 31 1 32
REMARK H PARENT
REMARK Flexibility Score: inf
ROOT
ATOM      1  C   UNL     1      22.087  22.635   9.476  1.00  0.00     0.000 C 
ENDROOT
BRANCH   1   2
ATOM      2  C   UNL     1      20.837  23.466   9.828  1.00  0.00     0.000 C 
BRANCH   2   3
ATOM      3  C   UNL     1      19.899  22.758  10.826  1.00  0.00     0.000 C 
BRANCH   3   4
ATOM      4  C   UNL     1      18.825  21.865  10.173  1.00  0.00     0.000 C 
BRANCH   4   5
ATOM      5  C   UNL     1      17.375  22.356  10.309  1.00  0.00     0.000 C 
BRANCH   5   6
ATOM      6  C   UNL     1      17.270  23.725  11.002  1.00  0.00     0.000 C 
BRANCH   6   7
ATOM      7  C   UNL     1      17.176  24.899  10.013  1.00  0.00     0.000 C 
BRANCH   7   8
ATOM      8  C   UNL     1      16.875  24.513   8.547  1.00  0.00     0.000 C 
BRANCH   8   9
ATOM      9  C   UNL     1      18.101  24.442   7.616  1.00  0.00     0.000 C 
BRANCH   9  10
ATOM     10  C   UNL     1      18.070  23.298   6.584  1.00  0.00     0.000 C 
BRANCH  10  11
ATOM     11  C   UNL     1      19.461  22.702   6.275  1.00  0.00     0.000 C 
BRANCH  11  12
ATOM     12  C   UNL     1      19.488  21.920   4.949  1.00  0.00     0.000 C 
BRANCH  12  13
ATOM     13  C   UNL     1      18.974  20.477   5.095  1.00  0.00     0.006 C 
BRANCH  13  14
ATOM     14  C   UNL     1      19.318  19.809   6.435  1.00  0.00     0.053 C 
BRANCH  14  15
ATOM     15  C   UNL     1      19.121  18.326   6.386  1.00  0.00     0.041 C 
ATOM     16  O   UNL     1      17.977  17.847   6.165  1.00  0.00    -0.550 OA
ATOM     17  O   UNL     1      20.205  17.472   6.561  1.00  0.00    -0.550 OA
ENDBRANCH  14  15
ENDBRANCH  13  14
ENDBRANCH  12  13
ENDBRANCH  11  12
ENDBRANCH  10  11
ENDBRANCH   9  10
ENDBRANCH   8   9
ENDBRANCH   7   8
ENDBRANCH   6   7
ENDBRANCH   5   6
ENDBRANCH   4   5
ENDBRANCH   3   4
ENDBRANCH   2   3
ENDBRANCH   1   2
BRANCH   1  18
ATOM     18  C   UNL     1      21.995  21.961   8.092  1.00  0.00     0.000 C 
BRANCH  18  19
ATOM     19  C   UNL     1      22.838  20.677   7.950  1.00  0.00     0.000 C 
BRANCH  19  20
ATOM     20  C   UNL     1      22.854  20.033   6.551  1.00  0.00     0.000 C 
BRANCH  20  21
ATOM     21  C   UNL     1      23.617  18.700   6.446  1.00  0.00     0.000 C 
BRANCH  21  22
ATOM     22  C   UNL     1      24.669  18.696   5.327  1.00  0.00     0.000 C 
BRANCH  22  23
ATOM     23  C   UNL     1      25.149  17.266   5.028  1.00  0.00     0.000 C 
BRANCH  23  24
ATOM     24  C   UNL     1      26.610  17.218   4.542  1.00  0.00    -0.000 C 
BRANCH  24  25
ATOM     25  C   UNL     1      27.512  16.234   5.311  1.00  0.00    -0.000 C 
BRANCH  25  26
ATOM     26  C   UNL     1      28.979  16.694   5.362  1.00  0.00    -0.000 C 
BRANCH  26  27
ATOM     27  C   UNL     1      29.946  15.687   4.712  1.00  0.00    -0.000 C 
BRANCH  27  28
ATOM     28  C   UNL     1      31.444  16.045   4.820  1.00  0.00    -0.000 C 
BRANCH  28  29
ATOM     29  C   UNL     1      32.387  14.852   5.058  1.00  0.00    -0.000 C 
BRANCH  29  30
ATOM     30  C   UNL     1      31.634  13.538   5.333  1.00  0.00    -0.000 C 
BRANCH  30  31
ATOM     31  C   UNL     1      31.858  13.019   6.761  1.00  0.00    -0.003 C 
ATOM     32  C   UNL     1      33.295  13.211   7.241  1.00  0.00     0.004 C 
ENDBRANCH  30  31
ENDBRANCH  29  30
ENDBRANCH  28  29
ENDBRANCH  27  28
ENDBRANCH  26  27
ENDBRANCH  25  26
ENDBRANCH  24  25
ENDBRANCH  23  24
ENDBRANCH  22  23
ENDBRANCH  21  22
ENDBRANCH  20  21
ENDBRANCH  19  20
ENDBRANCH  18  19
ENDBRANCH   1  18
TORSDOF 28
ENDMDL
MODEL 3
REMARK VINA RESULT:    -4.386      7.106     12.384
REMARK INTER + INTRA:         -16.299
REMARK INTER:                 -13.822
REMARK INTRA:                  -2.476
REMARK UNBOUND:                -4.733
REMARK SMILES CCCCCCCCCCCCCCCCCCCCCCCCCCCCCC(=O)[O-]
REMARK SMILES IDX 16 1 17 2 18 3 19 4 20 5 21 6 22 7 23 8 24 9 25 10 26 11
REMARK SMILES IDX 27 12 28 13 29 14 30 15 31 16 32 17 15 18 14 19 13 20 12 21
REMARK SMILES IDX 11 22 10 23 9 24 8 25 7 26 6 27 5 28 4 29 3 30 2 31 1 32
REMARK H PARENT
REMARK Flexibility Score: inf
ROOT
ATOM      1  C   UNL     1      23.595  18.792   5.284  1.00  0.00     0.000 C 
ENDROOT
BRANCH   1   2
ATOM      2  C   UNL     1      25.036  18.253   5.382  1.00  0.00     0.000 C 
BRANCH   2   3
ATOM      3  C   UNL     1      25.584  17.740   4.034  1.00  0.00     0.000 C 
BRANCH   3   4
ATOM      4  C   UNL     1      26.999  17.134   4.108  1.00  0.00     0.000 C 
BRANCH   4   5
ATOM      5  C   UNL     1      27.335  16.377   5.404  1.00  0.00     0.000 C 
BRANCH   5   6
ATOM      6  C   UNL     1      28.825  16.460   5.774  1.00  0.00     0.000 C 
BRANCH   6   7
ATOM      7  C   UNL     1      29.697  15.450   5.007  1.00  0.00     0.000 C 
BRANCH   7   8
ATOM      8  C   UNL     1      31.027  16.006   4.452  1.00  0.00     0.000 C 
BRANCH   8   9
ATOM      9  C   UNL     1      32.130  14.959   4.205  1.00  0.00     0.000 C 
BRANCH   9  10
ATOM     10  C   UNL     1      33.171  14.830   5.336  1.00  0.00     0.000 C 
BRANCH  10  11
ATOM     11  C   UNL     1      34.487  14.154   4.894  1.00  0.00     0.000 C 
BRANCH  11  12
ATOM     12  C   UNL     1      35.210  13.450   6.057  1.00  0.00     0.000 C 
BRANCH  12  13
ATOM     13  C   UNL     1      34.545  13.710   7.420  1.00  0.00     0.006 C 
BRANCH  13  14
ATOM     14  C   UNL     1      34.193  12.442   8.212  1.00  0.00     0.053 C 
BRANCH  14  15
ATOM     15  C   UNL     1      32.740  12.393   8.571  1.00  0.00     0.041 C 
ATOM     16  O   UNL     1      31.948  11.673   7.907  1.00  0.00    -0.550 OA
ATOM     17  O   UNL     1      32.264  13.124   9.654  1.00  0.00    -0.550 OA
ENDBRANCH  14  15
ENDBRANCH  13  14
ENDBRANCH  12  13
ENDBRANCH  11  12
ENDBRANCH  10  11
ENDBRANCH   9  10
ENDBRANCH   8   9
ENDBRANCH   7   8
ENDBRANCH   6   7
ENDBRANCH   5   6
ENDBRANCH   4   5
ENDBRANCH   3   4
ENDBRANCH   2   3
ENDBRANCH   1   2
BRANCH   1  18
ATOM     18  C   UNL     1      23.379  19.725   4.074  1.00  0.00     0.000 C 
BRANCH  18  19
ATOM     19  C   UNL     1      22.319  20.824   4.297  1.00  0.00     0.000 C 
BRANCH  19  20
ATOM     20  C   UNL     1      20.878  20.460   3.894  1.00  0.00     0.000 C 
BRANCH  20  21
ATOM     21  C   UNL     1      19.771  21.278   4.584  1.00  0.00     0.000 C 
BRANCH  21  22
ATOM     22  C   UNL     1      18.628  20.408   5.124  1.00  0.00     0.000 C 
BRANCH  22  23
ATOM     23  C   UNL     1      17.498  21.279   5.700  1.00  0.00     0.000 C 
BRANCH  23  24
ATOM     24  C   UNL     1      17.976  22.192   6.845  1.00  0.00    -0.000 C 
BRANCH  24  25
ATOM     25  C   UNL     1      17.839  23.700   6.564  1.00  0.00    -0.000 C 
BRANCH  25  26
ATOM     26  C   UNL     1      17.556  24.515   7.837  1.00  0.00    -0.000 C 
BRANCH  26  27
ATOM     27  C   UNL     1      18.820  25.167   8.427  1.00  0.00    -0.000 C 
BRANCH  27  28
ATOM     28  C   UNL     1      19.301  24.580   9.770  1.00  0.00    -0.000 C 
BRANCH  28  29
ATOM     29  C   UNL     1      20.181  23.321   9.658  1.00  0.00    -0.000 C 
BRANCH  29  30
ATOM     30  C   UNL     1      21.432  23.540   8.789  1.00  0.00    -0.000 C 
BRANCH  30  31
ATOM     31  C   UNL     1      21.460  22.624   7.556  1.00  0.00    -0.003 C 
ATOM     32  C   UNL     1      21.727  21.162   7.911  1.00  0.00     0.004 C 
ENDBRANCH  30  31
ENDBRANCH  29  30
ENDBRANCH  28  29
ENDBRANCH  27  28
ENDBRANCH  26  27
ENDBRANCH  25  26
ENDBRANCH  24  25
ENDBRANCH  23  24
ENDBRANCH  22  23
ENDBRANCH  21  22
ENDBRANCH  20  21
ENDBRANCH  19  20
ENDBRANCH  18  19
ENDBRANCH   1  18
TORSDOF 28
ENDMDL
MODEL 4
REMARK VINA RESULT:    -4.373      4.463      9.171
REMARK INTER + INTRA:         -16.263
REMARK INTER:                 -12.754
REMARK INTRA:                  -3.509
REMARK UNBOUND:                -4.733
REMARK SMILES CCCCCCCCCCCCCCCCCCCCCCCCCCCCCC(=O)[O-]
REMARK SMILES IDX 16 1 17 2 18 3 19 4 20 5 21 6 22 7 23 8 24 9 25 10 26 11
REMARK SMILES IDX 27 12 28 13 29 14 30 15 31 16 32 17 15 18 14 19 13 20 12 21
REMARK SMILES IDX 11 22 10 23 9 24 8 25 7 26 6 27 5 28 4 29 3 30 2 31 1 32
REMARK H PARENT
REMARK Flexibility Score: inf
ROOT
ATOM      1  C   UNL     1      19.778  22.075   9.879  1.00  0.00     0.000 C 
ENDROOT
BRANCH   1   2
ATOM      2  C   UNL     1      21.094  22.829   9.606  1.00  0.00     0.000 C 
BRANCH   2   3
ATOM      3  C   UNL     1      21.934  22.193   8.479  1.00  0.00     0.000 C 
BRANCH   3   4
ATOM      4  C   UNL     1      21.369  22.408   7.061  1.00  0.00     0.000 C 
BRANCH   4   5
ATOM      5  C   UNL     1      21.383  21.174   6.143  1.00  0.00     0.000 C 
BRANCH   5   6
ATOM      6  C   UNL     1      21.960  19.925   6.830  1.00  0.00     0.000 C 
BRANCH   6   7
ATOM      7  C   UNL     1      23.423  19.643   6.443  1.00  0.00     0.000 C 
BRANCH   7   8
ATOM      8  C   UNL     1      23.623  18.863   5.125  1.00  0.00     0.000 C 
BRANCH   8   9
ATOM      9  C   UNL     1      23.627  17.327   5.258  1.00  0.00     0.000 C 
BRANCH   9  10
ATOM     10  C   UNL     1      24.154  16.567   4.025  1.00  0.00     0.000 C 
BRANCH  10  11
ATOM     11  C   UNL     1      25.548  15.938   4.232  1.00  0.00     0.000 C 
BRANCH  11  12
ATOM     12  C   UNL     1      26.501  16.855   5.020  1.00  0.00     0.000 C 
BRANCH  12  13
ATOM     13  C   UNL     1      27.947  16.807   4.497  1.00  0.00     0.006 C 
BRANCH  13  14
ATOM     14  C   UNL     1      28.996  16.420   5.551  1.00  0.00     0.053 C 
BRANCH  14  15
ATOM     15  C   UNL     1      29.523  15.036   5.332  1.00  0.00     0.041 C 
ATOM     16  O   UNL     1      28.744  14.111   4.977  1.00  0.00    -0.550 OA
ATOM     17  O   UNL     1      30.878  14.771   5.498  1.00  0.00    -0.550 OA
ENDBRANCH  14  15
ENDBRANCH  13  14
ENDBRANCH  12  13
ENDBRANCH  11  12
ENDBRANCH  10  11
ENDBRANCH   9  10
ENDBRANCH   8   9
ENDBRANCH   7   8
ENDBRANCH   6   7
ENDBRANCH   5   6
ENDBRANCH   4   5
ENDBRANCH   3   4
ENDBRANCH   2   3
ENDBRANCH   1   2
BRANCH   1  18
ATOM     18  C   UNL     1      19.239  22.298  11.308  1.00  0.00     0.000 C 
BRANCH  18  19
ATOM     19  C   UNL     1      17.707  22.170  11.438  1.00  0.00     0.000 C 
BRANCH  19  20
ATOM     20  C   UNL     1      16.875  22.990  10.434  1.00  0.00     0.000 C 
BRANCH  20  21
ATOM     21  C   UNL     1      16.901  24.515  10.643  1.00  0.00     0.000 C 
BRANCH  21  22
ATOM     22  C   UNL     1      18.212  25.164  10.177  1.00  0.00     0.000 C 
BRANCH  22  23
ATOM     23  C   UNL     1      18.075  25.717   8.748  1.00  0.00     0.000 C 
BRANCH  23  24
ATOM     24  C   UNL     1      18.403  24.667   7.669  1.00  0.00    -0.000 C 
BRANCH  24  25
ATOM     25  C   UNL     1      17.177  23.940   7.087  1.00  0.00    -0.000 C 
BRANCH  25  26
ATOM     26  C   UNL     1      17.563  22.698   6.264  1.00  0.00    -0.000 C 
BRANCH  26  27
ATOM     27  C   UNL     1      17.869  21.469   7.139  1.00  0.00    -0.000 C 
BRANCH  27  28
ATOM     28  C   UNL     1      17.732  20.104   6.433  1.00  0.00    -0.000 C 
BRANCH  28  29
ATOM     29  C   UNL     1      18.361  18.914   7.181  1.00  0.00    -0.000 C 
BRANCH  29  30
ATOM     30  C   UNL     1      18.465  17.648   6.313  1.00  0.00    -0.000 C 
BRANCH  30  31
ATOM     31  C   UNL     1      19.848  16.984   6.403  1.00  0.00    -0.003 C 
ATOM     32  C   UNL     1      20.219  16.216   5.136  1.00  0.00     0.004 C 
ENDBRANCH  30  31
ENDBRANCH  29  30
ENDBRANCH  28  29
ENDBRANCH  27  28
ENDBRANCH  26  27
ENDBRANCH  25  26
ENDBRANCH  24  25
ENDBRANCH  23  24
ENDBRANCH  22  23
ENDBRANCH  21  22
ENDBRANCH  20  21
ENDBRANCH  19  20
ENDBRANCH  18  19
ENDBRANCH   1  18
TORSDOF 28
ENDMDL
MODEL 5
REMARK VINA RESULT:    -4.340      5.884      8.985
REMARK INTER + INTRA:         -16.176
REMARK INTER:                 -14.029
REMARK INTRA:                  -2.147
REMARK UNBOUND:                -4.733
REMARK SMILES CCCCCCCCCCCCCCCCCCCCCCCCCCCCCC(=O)[O-]
REMARK SMILES IDX 16 1 17 2 18 3 19 4 20 5 21 6 22 7 23 8 24 9 25 10 26 11
REMARK SMILES IDX 27 12 28 13 29 14 30 15 31 16 32 17 15 18 14 19 13 20 12 21
REMARK SMILES IDX 11 22 10 23 9 24 8 25 7 26 6 27 5 28 4 29 3 30 2 31 1 32
REMARK H PARENT
REMARK Flexibility Score: inf
ROOT
ATOM      1  C   UNL     1      23.480  19.002   6.325  1.00  0.00     0.000 C 
ENDROOT
BRANCH   1   2
ATOM      2  C   UNL     1      22.227  18.128   6.117  1.00  0.00     0.000 C 
BRANCH   2   3
ATOM      3  C   UNL     1      21.094  18.861   5.369  1.00  0.00     0.000 C 
BRANCH   3   4
ATOM      4  C   UNL     1      21.572  19.796   4.241  1.00  0.00     0.000 C 
BRANCH   4   5
ATOM      5  C   UNL     1      21.567  21.298   4.571  1.00  0.00     0.000 C 
BRANCH   5   6
ATOM      6  C   UNL     1      20.791  21.623   5.858  1.00  0.00     0.000 C 
BRANCH   6   7
ATOM      7  C   UNL     1      21.672  22.247   6.954  1.00  0.00     0.000 C 
BRANCH   7   8
ATOM      8  C   UNL     1      21.391  21.758   8.393  1.00  0.00     0.000 C 
BRANCH   8   9
ATOM      9  C   UNL     1      21.655  22.790   9.506  1.00  0.00     0.000 C 
BRANCH   9  10
ATOM     10  C   UNL     1      20.445  23.093  10.413  1.00  0.00     0.000 C 
BRANCH  10  11
ATOM     11  C   UNL     1      19.266  22.115  10.224  1.00  0.00     0.000 C 
BRANCH  11  12
ATOM     12  C   UNL     1      17.907  22.752  10.567  1.00  0.00     0.000 C 
BRANCH  12  13
ATOM     13  C   UNL     1      18.000  24.271  10.795  1.00  0.00     0.006 C 
BRANCH  13  14
ATOM     14  C   UNL     1      17.237  25.119   9.766  1.00  0.00     0.053 C 
BRANCH  14  15
ATOM     15  C   UNL     1      18.151  26.030   9.006  1.00  0.00     0.041 C 
ATOM     16  O   UNL     1      19.172  25.567   8.431  1.00  0.00    -0.550 OA
ATOM     17  O   UNL     1      17.862  27.388   8.912  1.00  0.00    -0.550 OA
ENDBRANCH  14  15
ENDBRANCH  13  14
ENDBRANCH  12  13
ENDBRANCH  11  12
ENDBRANCH  10  11
ENDBRANCH   9  10
ENDBRANCH   8   9
ENDBRANCH   7   8
ENDBRANCH   6   7
ENDBRANCH   5   6
ENDBRANCH   4   5
ENDBRANCH   3   4
ENDBRANCH   2   3
ENDBRANCH   1   2
BRANCH   1  18
ATOM     18  C   UNL     1      24.666  18.579   5.434  1.00  0.00     0.000 C 
BRANCH  18  19
ATOM     19  C   UNL     1      24.377  17.372   4.517  1.00  0.00     0.000 C 
BRANCH  19  20
ATOM     20  C   UNL     1      25.606  16.562   4.063  1.00  0.00     0.000 C 
BRANCH  20  21
ATOM     21  C   UNL     1      26.749  16.463   5.090  1.00  0.00     0.000 C 
BRANCH  21  22
ATOM     22  C   UNL     1      28.129  16.756   4.484  1.00  0.00     0.000 C 
BRANCH  22  23
ATOM     23  C   UNL     1      29.252  16.380   5.465  1.00  0.00     0.000 C 
BRANCH  23  24
ATOM     24  C   UNL     1      30.266  15.391   4.860  1.00  0.00    -0.000 C 
BRANCH  24  25
ATOM     25  C   UNL     1      31.592  16.026   4.403  1.00  0.00    -0.000 C 
BRANCH  25  26
ATOM     26  C   UNL     1      32.763  15.686   5.340  1.00  0.00    -0.000 C 
BRANCH  26  27
ATOM     27  C   UNL     1      33.037  14.174   5.435  1.00  0.00    -0.000 C 
BRANCH  27  28
ATOM     28  C   UNL     1      33.956  13.740   6.596  1.00  0.00    -0.000 C 
BRANCH  28  29
ATOM     29  C   UNL     1      35.428  13.502   6.212  1.00  0.00    -0.000 C 
BRANCH  29  30
ATOM     30  C   UNL     1      35.675  13.597   4.696  1.00  0.00    -0.000 C 
BRANCH  30  31
ATOM     31  C   UNL     1      36.921  12.816   4.252  1.00  0.00    -0.003 C 
ATOM     32  C   UNL     1      36.688  11.307   4.205  1.00  0.00     0.004 C 
ENDBRANCH  30  31
ENDBRANCH  29  30
ENDBRANCH  28  29
ENDBRANCH  27  28
ENDBRANCH  26  27
ENDBRANCH  25  26
ENDBRANCH  24  25
ENDBRANCH  23  24
ENDBRANCH  22  23
ENDBRANCH  21  22
ENDBRANCH  20  21
ENDBRANCH  19  20
ENDBRANCH  18  19
ENDBRANCH   1  18
TORSDOF 28
ENDMDL
MODEL 6
REMARK VINA RESULT:    -4.326      4.717      7.620
REMARK INTER + INTRA:         -16.141
REMARK INTER:                 -13.358
REMARK INTRA:                  -2.783
REMARK UNBOUND:                -4.733
REMARK SMILES CCCCCCCCCCCCCCCCCCCCCCCCCCCCCC(=O)[O-]
REMARK SMILES IDX 16 1 17 2 18 3 19 4 20 5 21 6 22 7 23 8 24 9 25 10 26 11
REMARK SMILES IDX 27 12 28 13 29 14 30 15 31 16 32 17 15 18 14 19 13 20 12 21
REMARK SMILES IDX 11 22 10 23 9 24 8 25 7 26 6 27 5 28 4 29 3 30 2 31 1 32
REMARK H PARENT
REMARK Flexibility Score: inf
ROOT
ATOM      1  C   UNL     1      20.851  19.877   6.565  1.00  0.00     0.000 C 
ENDROOT
BRANCH   1   2
ATOM      2  C   UNL     1      21.594  21.157   6.996  1.00  0.00     0.000 C 
BRANCH   2   3
ATOM      3  C   UNL     1      20.779  22.444   6.747  1.00  0.00     0.000 C 
BRANCH   3   4
ATOM      4  C   UNL     1      19.547  22.255   5.840  1.00  0.00     0.000 C 
BRANCH   4   5
ATOM      5  C   UNL     1      18.318  23.108   6.198  1.00  0.00     0.000 C 
BRANCH   5   6
ATOM      6  C   UNL     1      17.095  22.259   6.583  1.00  0.00     0.000 C 
BRANCH   6   7
ATOM      7  C   UNL     1      17.354  20.746   6.487  1.00  0.00     0.000 C 
BRANCH   7   8
ATOM      8  C   UNL     1      17.345  19.982   7.830  1.00  0.00     0.000 C 
BRANCH   8   9
ATOM      9  C   UNL     1      17.392  20.864   9.093  1.00  0.00     0.000 C 
BRANCH   9  10
ATOM     10  C   UNL     1      18.807  21.274   9.548  1.00  0.00     0.000 C 
BRANCH  10  11
ATOM     11  C   UNL     1      18.820  22.193  10.788  1.00  0.00     0.000 C 
BRANCH  11  12
ATOM     12  C   UNL     1      17.583  23.108  10.859  1.00  0.00     0.000 C 
BRANCH  12  13
ATOM     13  C   UNL     1      17.515  24.112   9.695  1.00  0.00     0.006 C 
BRANCH  13  14
ATOM     14  C   UNL     1      18.843  24.819   9.384  1.00  0.00     0.053 C 
BRANCH  14  15
ATOM     15  C   UNL     1      18.638  26.256   9.017  1.00  0.00     0.041 C 
ATOM     16  O   UNL     1      17.628  26.599   8.345  1.00  0.00    -0.550 OA
ATOM     17  O   UNL     1      19.548  27.220   9.437  1.00  0.00    -0.550 OA
ENDBRANCH  14  15
ENDBRANCH  13  14
ENDBRANCH  12  13
ENDBRANCH  11  12
ENDBRANCH  10  11
ENDBRANCH   9  10
ENDBRANCH   8   9
ENDBRANCH   7   8
ENDBRANCH   6   7
ENDBRANCH   5   6
ENDBRANCH   4   5
ENDBRANCH   3   4
ENDBRANCH   2   3
ENDBRANCH   1   2
BRANCH   1  18
ATOM     18  C   UNL     1      21.595  19.085   5.470  1.00  0.00     0.000 C 
BRANCH  18  19
ATOM     19  C   UNL     1      22.857  19.784   4.924  1.00  0.00     0.000 C 
BRANCH  19  20
ATOM     20  C   UNL     1      23.938  18.858   4.334  1.00  0.00     0.000 C 
BRANCH  20  21
ATOM     21  C   UNL     1      24.604  17.897   5.335  1.00  0.00     0.000 C 
BRANCH  21  22
ATOM     22  C   UNL     1      25.426  16.794   4.654  1.00  0.00     0.000 C 
BRANCH  22  23
ATOM     23  C   UNL     1      26.932  17.100   4.734  1.00  0.00     0.000 C 
BRANCH  23  24
ATOM     24  C   UNL     1      27.798  15.827   4.736  1.00  0.00    -0.000 C 
BRANCH  24  25
ATOM     25  C   UNL     1      29.088  15.929   5.571  1.00  0.00    -0.000 C 
BRANCH  25  26
ATOM     26  C   UNL     1      29.959  14.665   5.470  1.00  0.00    -0.000 C 
BRANCH  26  27
ATOM     27  C   UNL     1      31.061  14.778   4.401  1.00  0.00    -0.000 C 
BRANCH  27  28
ATOM     28  C   UNL     1      32.165  15.814   4.697  1.00  0.00    -0.000 C 
BRANCH  28  29
ATOM     29  C   UNL     1      33.335  15.298   5.555  1.00  0.00    -0.000 C 
BRANCH  29  30
ATOM     30  C   UNL     1      34.156  14.202   4.853  1.00  0.00    -0.000 C 
BRANCH  30  31
ATOM     31  C   UNL     1      35.126  13.490   5.808  1.00  0.00    -0.003 C 
ATOM     32  C   UNL     1      36.440  13.102   5.133  1.00  0.00     0.004 C 
ENDBRANCH  30  31
ENDBRANCH  29  30
ENDBRANCH  28  29
ENDBRANCH  27  28
ENDBRANCH  26  27
ENDBRANCH  25  26
ENDBRANCH  24  25
ENDBRANCH  23  24
ENDBRANCH  22  23
ENDBRANCH  21  22
ENDBRANCH  20  21
ENDBRANCH  19  20
ENDBRANCH  18  19
ENDBRANCH   1  18
TORSDOF 28
ENDMDL
MODEL 7
REMARK VINA RESULT:    -4.265      8.408     13.543
REMARK INTER + INTRA:         -15.980
REMARK INTER:                 -13.825
REMARK INTRA:                  -2.155
REMARK UNBOUND:                -4.733
REMARK SMILES CCCCCCCCCCCCCCCCCCCCCCCCCCCCCC(=O)[O-]
REMARK SMILES IDX 16 1 17 2 18 3 19 4 20 5 21 6 22 7 23 8 24 9 25 10 26 11
REMARK SMILES IDX 27 12 28 13 29 14 30 15 31 16 32 17 15 18 14 19 13 20 12 21
REMARK SMILES IDX 11 22 10 23 9 24 8 25 7 26 6 27 5 28 4 29 3 30 2 31 1 32
REMARK H PARENT
REMARK Flexibility Score: inf
ROOT
ATOM      1  C   UNL     1      25.345  17.093   4.463  1.00  0.00     0.000 C 
ENDROOT
BRANCH   1   2
ATOM      2  C   UNL     1      26.871  17.128   4.247  1.00  0.00     0.000 C 
BRANCH   2   3
ATOM      3  C   UNL     1      27.656  16.381   5.344  1.00  0.00     0.000 C 
BRANCH   3   4
ATOM      4  C   UNL     1      28.134  14.972   4.943  1.00  0.00     0.000 C 
BRANCH   4   5
ATOM      5  C   UNL     1      29.655  14.796   4.807  1.00  0.00     0.000 C 
BRANCH   5   6
ATOM      6  C   UNL     1      30.424  16.122   4.939  1.00  0.00     0.000 C 
BRANCH   6   7
ATOM      7  C   UNL     1      31.848  16.056   4.360  1.00  0.00     0.000 C 
BRANCH   7   8
ATOM      8  C   UNL     1      32.315  14.658   3.899  1.00  0.00     0.000 C 
BRANCH   8   9
ATOM      9  C   UNL     1      33.174  13.878   4.915  1.00  0.00     0.000 C 
BRANCH   9  10
ATOM     10  C   UNL     1      33.814  14.739   6.022  1.00  0.00     0.000 C 
BRANCH  10  11
ATOM     11  C   UNL     1      34.097  13.963   7.327  1.00  0.00     0.000 C 
BRANCH  11  12
ATOM     12  C   UNL     1      34.102  12.437   7.119  1.00  0.00     0.000 C 
BRANCH  12  13
ATOM     13  C   UNL     1      35.181  11.725   7.954  1.00  0.00     0.006 C 
BRANCH  13  14
ATOM     14  C   UNL     1      34.934  11.748   9.470  1.00  0.00     0.053 C 
BRANCH  14  15
ATOM     15  C   UNL     1      35.950  10.938  10.213  1.00  0.00     0.041 C 
ATOM     16  O   UNL     1      36.881  10.363   9.589  1.00  0.00    -0.550 OA
ATOM     17  O   UNL     1      35.884  10.839  11.599  1.00  0.00    -0.550 OA
ENDBRANCH  14  15
ENDBRANCH  13  14
ENDBRANCH  12  13
ENDBRANCH  11  12
ENDBRANCH  10  11
ENDBRANCH   9  10
ENDBRANCH   8   9
ENDBRANCH   7   8
ENDBRANCH   6   7
ENDBRANCH   5   6
ENDBRANCH   4   5
ENDBRANCH   3   4
ENDBRANCH   2   3
ENDBRANCH   1   2
BRANCH   1  18
ATOM     18  C   UNL     1      24.832  18.250   5.345  1.00  0.00     0.000 C 
BRANCH  18  19
ATOM     19  C   UNL     1      23.664  19.050   4.732  1.00  0.00     0.000 C 
BRANCH  19  20
ATOM     20  C   UNL     1      22.262  18.716   5.275  1.00  0.00     0.000 C 
BRANCH  20  21
ATOM     21  C   UNL     1      21.174  19.767   4.988  1.00  0.00     0.000 C 
BRANCH  21  22
ATOM     22  C   UNL     1      21.695  21.209   5.063  1.00  0.00     0.000 C 
BRANCH  22  23
ATOM     23  C   UNL     1      20.947  22.009   6.143  1.00  0.00     0.000 C 
BRANCH  23  24
ATOM     24  C   UNL     1      21.687  22.021   7.494  1.00  0.00    -0.000 C 
BRANCH  24  25
ATOM     25  C   UNL     1      21.319  23.196   8.419  1.00  0.00    -0.000 C 
BRANCH  25  26
ATOM     26  C   UNL     1      20.377  22.777   9.560  1.00  0.00    -0.000 C 
BRANCH  26  27
ATOM     27  C   UNL     1      19.249  23.794   9.812  1.00  0.00    -0.000 C 
BRANCH  27  28
ATOM     28  C   UNL     1      19.419  25.157   9.109  1.00  0.00    -0.000 C 
BRANCH  28  29
ATOM     29  C   UNL     1      18.209  25.621   8.278  1.00  0.00    -0.000 C 
BRANCH  29  30
ATOM     30  C   UNL     1      17.271  24.465   7.889  1.00  0.00    -0.000 C 
BRANCH  30  31
ATOM     31  C   UNL     1      17.687  23.785   6.576  1.00  0.00    -0.003 C 
ATOM     32  C   UNL     1      17.234  22.328   6.496  1.00  0.00     0.004 C 
ENDBRANCH  30  31
ENDBRANCH  29  30
ENDBRANCH  28  29
ENDBRANCH  27  28
ENDBRANCH  26  27
ENDBRANCH  25  26
ENDBRANCH  24  25
ENDBRANCH  23  24
ENDBRANCH  22  23
ENDBRANCH  21  22
ENDBRANCH  20  21
ENDBRANCH  19  20
ENDBRANCH  18  19
ENDBRANCH   1  18
TORSDOF 28
ENDMDL
MODEL 8
REMARK VINA RESULT:    -4.246      7.084     12.237
REMARK INTER + INTRA:         -15.930
REMARK INTER:                 -13.008
REMARK INTRA:                  -2.922
REMARK UNBOUND:                -4.733
REMARK SMILES CCCCCCCCCCCCCCCCCCCCCCCCCCCCCC(=O)[O-]
REMARK SMILES IDX 16 1 17 2 18 3 19 4 20 5 21 6 22 7 23 8 24 9 25 10 26 11
REMARK SMILES IDX 27 12 28 13 29 14 30 15 31 16 32 17 15 18 14 19 13 20 12 21
REMARK SMILES IDX 11 22 10 23 9 24 8 25 7 26 6 27 5 28 4 29 3 30 2 31 1 32
REMARK H PARENT
REMARK Flexibility Score: inf
ROOT
ATOM      1  C   UNL     1      22.996  19.734   5.656  1.00  0.00     0.000 C 
ENDROOT
BRANCH   1   2
ATOM      2  C   UNL     1      22.825  18.225   5.920  1.00  0.00     0.000 C 
BRANCH   2   3
ATOM      3  C   UNL     1      22.815  17.381   4.629  1.00  0.00     0.000 C 
BRANCH   3   4
ATOM      4  C   UNL     1      24.175  17.298   3.908  1.00  0.00     0.000 C 
BRANCH   4   5
ATOM      5  C   UNL     1      25.351  16.789   4.757  1.00  0.00     0.000 C 
BRANCH   5   6
ATOM      6  C   UNL     1      26.720  17.181   4.176  1.00  0.00     0.000 C 
BRANCH   6   7
ATOM      7  C   UNL     1      27.696  15.996   4.074  1.00  0.00     0.000 C 
BRANCH   7   8
ATOM      8  C   UNL     1      29.074  16.209   4.739  1.00  0.00     0.000 C 
BRANCH   8   9
ATOM      9  C   UNL     1      30.283  15.684   3.940  1.00  0.00     0.000 C 
BRANCH   9  10
ATOM     10  C   UNL     1      31.604  15.608   4.731  1.00  0.00     0.000 C 
BRANCH  10  11
ATOM     11  C   UNL     1      32.729  14.853   3.992  1.00  0.00     0.000 C 
BRANCH  11  12
ATOM     12  C   UNL     1      33.719  14.174   4.956  1.00  0.00     0.000 C 
BRANCH  12  13
ATOM     13  C   UNL     1      33.110  13.898   6.342  1.00  0.00     0.006 C 
BRANCH  13  14
ATOM     14  C   UNL     1      34.135  13.793   7.481  1.00  0.00     0.053 C 
BRANCH  14  15
ATOM     15  C   UNL     1      35.119  12.689   7.246  1.00  0.00     0.041 C 
ATOM     16  O   UNL     1      34.738  11.488   7.261  1.00  0.00    -0.550 OA
ATOM     17  O   UNL     1      36.453  12.987   6.986  1.00  0.00    -0.550 OA
ENDBRANCH  14  15
ENDBRANCH  13  14
ENDBRANCH  12  13
ENDBRANCH  11  12
ENDBRANCH  10  11
ENDBRANCH   9  10
ENDBRANCH   8   9
ENDBRANCH   7   8
ENDBRANCH   6   7
ENDBRANCH   5   6
ENDBRANCH   4   5
ENDBRANCH   3   4
ENDBRANCH   2   3
ENDBRANCH   1   2
BRANCH   1  18
ATOM     18  C   UNL     1      21.809  20.352   4.889  1.00  0.00     0.000 C 
BRANCH  18  19
ATOM     19  C   UNL     1      20.946  21.322   5.723  1.00  0.00     0.000 C 
BRANCH  19  20
ATOM     20  C   UNL     1      21.673  22.058   6.863  1.00  0.00     0.000 C 
BRANCH  20  21
ATOM     21  C   UNL     1      21.120  21.799   8.277  1.00  0.00     0.000 C 
BRANCH  21  22
ATOM     22  C   UNL     1      21.674  22.771   9.327  1.00  0.00     0.000 C 
BRANCH  22  23
ATOM     23  C   UNL     1      20.556  23.272  10.258  1.00  0.00     0.000 C 
BRANCH  23  24
ATOM     24  C   UNL     1      19.449  22.223  10.476  1.00  0.00    -0.000 C 
BRANCH  24  25
ATOM     25  C   UNL     1      18.150  22.777  11.090  1.00  0.00    -0.000 C 
BRANCH  25  26
ATOM     26  C   UNL     1      16.898  22.357  10.301  1.00  0.00    -0.000 C 
BRANCH  26  27
ATOM     27  C   UNL     1      17.192  21.289   9.232  1.00  0.00    -0.000 C 
BRANCH  27  28
ATOM     28  C   UNL     1      16.875  21.703   7.779  1.00  0.00    -0.000 C 
BRANCH  28  29
ATOM     29  C   UNL     1      17.830  22.748   7.174  1.00  0.00    -0.000 C 
BRANCH  29  30
ATOM     30  C   UNL     1      17.311  24.189   7.320  1.00  0.00    -0.000 C 
BRANCH  30  31
ATOM     31  C   UNL     1      18.296  25.097   8.072  1.00  0.00    -0.003 C 
ATOM     32  C   UNL     1      17.608  25.988   9.105  1.00  0.00     0.004 C 
ENDBRANCH  30  31
ENDBRANCH  29  30
ENDBRANCH  28  29
ENDBRANCH  27  28
ENDBRANCH  26  27
ENDBRANCH  25  26
ENDBRANCH  24  25
ENDBRANCH  23  24
ENDBRANCH  22  23
ENDBRANCH  21  22
ENDBRANCH  20  21
ENDBRANCH  19  20
ENDBRANCH  18  19
ENDBRANCH   1  18
TORSDOF 28
ENDMDL
MODEL 9
REMARK VINA RESULT:    -4.157      7.231     12.090
REMARK INTER + INTRA:         -15.694
REMARK INTER:                 -12.764
REMARK INTRA:                  -2.930
REMARK UNBOUND:                -4.733
REMARK SMILES CCCCCCCCCCCCCCCCCCCCCCCCCCCCCC(=O)[O-]
REMARK SMILES IDX 16 1 17 2 18 3 19 4 20 5 21 6 22 7 23 8 24 9 25 10 26 11
REMARK SMILES IDX 27 12 28 13 29 14 30 15 31 16 32 17 15 18 14 19 13 20 12 21
REMARK SMILES IDX 11 22 10 23 9 24 8 25 7 26 6 27 5 28 4 29 3 30 2 31 1 32
REMARK H PARENT
REMARK Flexibility Score: inf
ROOT
ATOM      1  C   UNL     1      22.791  19.406   4.300  1.00  0.00     0.000 C 
ENDROOT
BRANCH   1   2
ATOM      2  C   UNL     1      23.513  19.017   5.605  1.00  0.00     0.000 C 
BRANCH   2   3
ATOM      3  C   UNL     1      24.820  18.234   5.365  1.00  0.00     0.000 C 
BRANCH   3   4
ATOM      4  C   UNL     1      24.641  16.911   4.595  1.00  0.00     0.000 C 
BRANCH   4   5
ATOM      5  C   UNL     1      25.937  16.166   4.236  1.00  0.00     0.000 C 
BRANCH   5   6
ATOM      6  C   UNL     1      27.176  16.755   4.930  1.00  0.00     0.000 C 
BRANCH   6   7
ATOM      7  C   UNL     1      28.188  15.685   5.373  1.00  0.00     0.000 C 
BRANCH   7   8
ATOM      8  C   UNL     1      28.630  14.691   4.276  1.00  0.00     0.000 C 
BRANCH   8   9
ATOM      9  C   UNL     1      29.583  13.573   4.740  1.00  0.00     0.000 C 
BRANCH   9  10
ATOM     10  C   UNL     1      30.853  14.060   5.467  1.00  0.00     0.000 C 
BRANCH  10  11
ATOM     11  C   UNL     1      31.793  14.903   4.579  1.00  0.00     0.000 C 
BRANCH  11  12
ATOM     12  C   UNL     1      33.003  15.455   5.354  1.00  0.00     0.000 C 
BRANCH  12  13
ATOM     13  C   UNL     1      34.017  14.361   5.737  1.00  0.00     0.006 C 
BRANCH  13  14
ATOM     14  C   UNL     1      34.837  13.810   4.561  1.00  0.00     0.053 C 
BRANCH  14  15
ATOM     15  C   UNL     1      36.096  13.145   5.021  1.00  0.00     0.041 C 
ATOM     16  O   UNL     1      36.782  12.462   4.215  1.00  0.00    -0.550 OA
ATOM     17  O   UNL     1      36.525  13.298   6.336  1.00  0.00    -0.550 OA
ENDBRANCH  14  15
ENDBRANCH  13  14
ENDBRANCH  12  13
ENDBRANCH  11  12
ENDBRANCH  10  11
ENDBRANCH   9  10
ENDBRANCH   8   9
ENDBRANCH   7   8
ENDBRANCH   6   7
ENDBRANCH   5   6
ENDBRANCH   4   5
ENDBRANCH   3   4
ENDBRANCH   2   3
ENDBRANCH   1   2
BRANCH   1  18
ATOM     18  C   UNL     1      22.334  20.880   4.277  1.00  0.00     0.000 C 
BRANCH  18  19
ATOM     19  C   UNL     1      21.358  21.262   5.409  1.00  0.00     0.000 C 
BRANCH  19  20
ATOM     20  C   UNL     1      21.955  22.094   6.560  1.00  0.00     0.000 C 
BRANCH  20  21
ATOM     21  C   UNL     1      21.747  21.516   7.971  1.00  0.00     0.000 C 
BRANCH  21  22
ATOM     22  C   UNL     1      20.750  22.326   8.812  1.00  0.00     0.000 C 
BRANCH  22  23
ATOM     23  C   UNL     1      20.569  23.742   8.238  1.00  0.00     0.000 C 
BRANCH  23  24
ATOM     24  C   UNL     1      19.089  24.116   8.033  1.00  0.00    -0.000 C 
BRANCH  24  25
ATOM     25  C   UNL     1      18.444  23.518   6.770  1.00  0.00    -0.000 C 
BRANCH  25  26
ATOM     26  C   UNL     1      17.394  22.442   7.095  1.00  0.00    -0.000 C 
BRANCH  26  27
ATOM     27  C   UNL     1      17.941  21.009   6.962  1.00  0.00    -0.000 C 
BRANCH  27  28
ATOM     28  C   UNL     1      17.652  20.078   8.158  1.00  0.00    -0.000 C 
BRANCH  28  29
ATOM     29  C   UNL     1      16.912  20.737   9.338  1.00  0.00    -0.000 C 
BRANCH  29  30
ATOM     30  C   UNL     1      17.817  20.963  10.561  1.00  0.00    -0.000 C 
BRANCH  30  31
ATOM     31  C   UNL     1      17.942  22.448  10.935  1.00  0.00    -0.003 C 
ATOM     32  C   UNL     1      16.875  22.898  11.932  1.00  0.00     0.004 C 
ENDBRANCH  30  31
ENDBRANCH  29  30
ENDBRANCH  28  29
ENDBRANCH  27  28
ENDBRANCH  26  27
ENDBRANCH  25  26
ENDBRANCH  24  25
ENDBRANCH  23  24
ENDBRANCH  22  23
ENDBRANCH  21  22
ENDBRANCH  20  21
ENDBRANCH  19  20
ENDBRANCH  18  19
ENDBRANCH   1  18
TORSDOF 28
ENDMDL
