MODEL 1
REMARK VINA RESULT:    -5.552      0.000      0.000
REMARK INTER + INTRA:          -6.670
REMARK INTER:                  -6.364
REMARK INTRA:                  -0.306
REMARK UNBOUND:                -0.306
REMARK SMILES O=C1C[C@H](c2ccc(O)cc2)Oc2cc(O)cc(O)c21
REMARK SMILES IDX 3 1 4 2 12 3 13 4 14 5 15 6 17 7 18 8 20 9 2 10 1 11 5 12
REMARK SMILES IDX 6 13 11 14 7 15 10 16 8 17 9 18 19 20 16 22
REMARK H PARENT 9 19 19 21 16 23
REMARK Flexibility Score: inf
ROOT
ATOM      1  C   UNL     1      44.422  18.071   8.125  1.00  0.00     0.131 C 
ATOM      2  C   UNL     1      42.950  18.034   7.676  1.00  0.00     0.211 C 
ATOM      3  O   UNL     1      42.289  19.279   7.939  1.00  0.00    -0.484 OA
ATOM      4  C   UNL     1      42.936  20.525   7.942  1.00  0.00     0.138 A 
ATOM      5  C   UNL     1      42.165  21.686   8.054  1.00  0.00     0.093 A 
ATOM      6  C   UNL     1      42.775  22.943   8.034  1.00  0.00     0.123 A 
ATOM      7  C   UNL     1      44.165  23.039   7.930  1.00  0.00     0.093 A 
ATOM      8  C   UNL     1      44.959  21.888   7.853  1.00  0.00     0.133 A 
ATOM      9  C   UNL     1      44.339  20.612   7.826  1.00  0.00     0.102 A 
ATOM     10  C   UNL     1      45.074  19.339   7.664  1.00  0.00     0.174 C 
ATOM     11  O   UNL     1      46.199  19.289   7.101  1.00  0.00    -0.294 OA
ENDROOT
BRANCH   2  12
ATOM     12  C   UNL     1      42.826  17.640   6.217  1.00  0.00    -0.007 A 
ATOM     13  C   UNL     1      43.054  16.319   5.785  1.00  0.00     0.011 A 
ATOM     14  C   UNL     1      42.410  18.598   5.275  1.00  0.00     0.011 A 
ATOM     15  C   UNL     1      42.894  15.976   4.439  1.00  0.00     0.046 A 
ATOM     16  C   UNL     1      42.253  18.252   3.930  1.00  0.00     0.046 A 
ATOM     17  C   UNL     1      42.496  16.943   3.507  1.00  0.00     0.115 A 
BRANCH  17  18
ATOM     18  O   UNL     1      42.335  16.612   2.164  1.00  0.00    -0.508 OA
ATOM     19  H   UNL     1      41.898  15.742   1.882  1.00  0.00     0.293 HD
ENDBRANCH  17  18
ENDBRANCH   2  12
BRANCH   8  20
ATOM     20  O   UNL     1      46.344  22.060   7.839  1.00  0.00    -0.507 OA
ATOM     21  H   UNL     1      46.964  21.586   7.198  1.00  0.00     0.293 HD
ENDBRANCH   8  20
BRANCH   6  22
ATOM     22  O   UNL     1      42.012  24.104   8.125  1.00  0.00    -0.508 OA
ATOM     23  H   UNL     1      42.034  24.811   7.398  1.00  0.00     0.293 HD
ENDBRANCH   6  22
TORSDOF 4
ENDMDL
MODEL 2
REMARK VINA RESULT:    -4.957      2.141      6.655
REMARK INTER + INTRA:          -5.987
REMARK INTER:                  -5.756
REMARK INTRA:                  -0.232
REMARK UNBOUND:                -0.306
REMARK SMILES O=C1C[C@H](c2ccc(O)cc2)Oc2cc(O)cc(O)c21
REMARK SMILES IDX 3 1 4 2 12 3 13 4 14 5 15 6 17 7 18 8 20 9 2 10 1 11 5 12
REMARK SMILES IDX 6 13 11 14 7 15 10 16 8 17 9 18 19 20 16 22
REMARK H PARENT 9 19 19 21 16 23
REMARK Flexibility Score: inf
ROOT
ATOM      1  C   UNL     1      41.036  16.575   7.458  1.00  0.00     0.131 C 
ATOM      2  C   UNL     1      42.482  17.053   7.242  1.00  0.00     0.211 C 
ATOM      3  O   UNL     1      42.981  16.654   5.957  1.00  0.00    -0.484 OA
ATOM      4  C   UNL     1      42.175  16.487   4.820  1.00  0.00     0.138 A 
ATOM      5  C   UNL     1      42.788  16.251   3.587  1.00  0.00     0.093 A 
ATOM      6  C   UNL     1      42.016  16.107   2.431  1.00  0.00     0.123 A 
ATOM      7  C   UNL     1      40.623  16.172   2.513  1.00  0.00     0.093 A 
ATOM      8  C   UNL     1      39.987  16.373   3.744  1.00  0.00     0.133 A 
ATOM      9  C   UNL     1      40.770  16.565   4.911  1.00  0.00     0.102 A 
ATOM     10  C   UNL     1      40.205  16.866   6.246  1.00  0.00     0.174 C 
ATOM     11  O   UNL     1      39.077  17.410   6.381  1.00  0.00    -0.294 OA
ENDROOT
BRANCH   2  12
ATOM     12  C   UNL     1      42.607  18.551   7.441  1.00  0.00    -0.007 A 
ATOM     13  C   UNL     1      41.531  19.327   7.914  1.00  0.00     0.011 A 
ATOM     14  C   UNL     1      43.844  19.179   7.209  1.00  0.00     0.011 A 
ATOM     15  C   UNL     1      41.686  20.700   8.125  1.00  0.00     0.046 A 
ATOM     16  C   UNL     1      43.995  20.552   7.419  1.00  0.00     0.046 A 
ATOM     17  C   UNL     1      42.918  21.317   7.875  1.00  0.00     0.115 A 
BRANCH  17  18
ATOM     18  O   UNL     1      43.083  22.685   8.081  1.00  0.00    -0.508 OA
ATOM     19  H   UNL     1      42.574  23.176   8.807  1.00  0.00     0.293 HD
ENDBRANCH  17  18
ENDBRANCH   2  12
BRANCH   8  20
ATOM     20  O   UNL     1      38.591  16.339   3.762  1.00  0.00    -0.507 OA
ATOM     21  H   UNL     1      38.007  17.153   3.637  1.00  0.00     0.293 HD
ENDBRANCH   8  20
BRANCH   6  22
ATOM     22  O   UNL     1      42.621  15.890   1.195  1.00  0.00    -0.508 OA
ATOM     23  H   UNL     1      43.085  15.015   0.978  1.00  0.00     0.293 HD
ENDBRANCH   6  22
TORSDOF 4
ENDMDL
MODEL 3
REMARK VINA RESULT:    -4.351      1.723      2.319
REMARK INTER + INTRA:          -5.293
REMARK INTER:                  -5.208
REMARK INTRA:                  -0.085
REMARK UNBOUND:                -0.306
REMARK SMILES O=C1C[C@H](c2ccc(O)cc2)Oc2cc(O)cc(O)c21
REMARK SMILES IDX 3 1 4 2 12 3 13 4 14 5 15 6 17 7 18 8 20 9 2 10 1 11 5 12
REMARK SMILES IDX 6 13 11 14 7 15 10 16 8 17 9 18 19 20 16 22
REMARK H PARENT 9 19 19 21 16 23
REMARK Flexibility Score: inf
ROOT
ATOM      1  C   UNL     1      42.111  16.942   7.953  1.00  0.00     0.131 C 
ATOM      2  C   UNL     1      41.079  17.801   7.201  1.00  0.00     0.211 C 
ATOM      3  O   UNL     1      41.367  19.200   7.329  1.00  0.00    -0.484 OA
ATOM      4  C   UNL     1      42.660  19.725   7.484  1.00  0.00     0.138 A 
ATOM      5  C   UNL     1      42.836  21.110   7.440  1.00  0.00     0.093 A 
ATOM      6  C   UNL     1      44.114  21.663   7.564  1.00  0.00     0.123 A 
ATOM      7  C   UNL     1      45.216  20.828   7.759  1.00  0.00     0.093 A 
ATOM      8  C   UNL     1      45.058  19.440   7.841  1.00  0.00     0.133 A 
ATOM      9  C   UNL     1      43.768  18.873   7.670  1.00  0.00     0.102 A 
ATOM     10  C   UNL     1      43.500  17.418   7.655  1.00  0.00     0.174 C 
ATOM     11  O   UNL     1      44.390  16.582   7.344  1.00  0.00    -0.294 OA
ENDROOT
BRANCH   2  12
ATOM     12  C   UNL     1      40.973  17.391   5.744  1.00  0.00    -0.007 A 
ATOM     13  C   UNL     1      41.924  17.799   4.790  1.00  0.00     0.011 A 
ATOM     14  C   UNL     1      39.937  16.530   5.343  1.00  0.00     0.011 A 
ATOM     15  C   UNL     1      41.823  17.375   3.462  1.00  0.00     0.046 A 
ATOM     16  C   UNL     1      39.837  16.109   4.013  1.00  0.00     0.046 A 
ATOM     17  C   UNL     1      40.777  16.530   3.069  1.00  0.00     0.115 A 
BRANCH  17  18
ATOM     18  O   UNL     1      40.666  16.102   1.748  1.00  0.00    -0.508 OA
ATOM     19  H   UNL     1      39.771  15.845   1.349  1.00  0.00     0.293 HD
ENDBRANCH  17  18
ENDBRANCH   2  12
BRANCH   8  20
ATOM     20  O   UNL     1      46.192  18.676   8.125  1.00  0.00    -0.507 OA
ATOM     21  H   UNL     1      46.823  18.323   7.421  1.00  0.00     0.293 HD
ENDBRANCH   8  20
BRANCH   6  22
ATOM     22  O   UNL     1      44.300  23.043   7.502  1.00  0.00    -0.508 OA
ATOM     23  H   UNL     1      44.600  23.499   6.648  1.00  0.00     0.293 HD
ENDBRANCH   6  22
TORSDOF 4
ENDMDL
MODEL 4
REMARK VINA RESULT:    -4.008      3.377      4.263
REMARK INTER + INTRA:          -4.900
REMARK INTER:                  -4.612
REMARK INTRA:                  -0.288
REMARK UNBOUND:                -0.306
REMARK SMILES O=C1C[C@H](c2ccc(O)cc2)Oc2cc(O)cc(O)c21
REMARK SMILES IDX 3 1 4 2 12 3 13 4 14 5 15 6 17 7 18 8 20 9 2 10 1 11 5 12
REMARK SMILES IDX 6 13 11 14 7 15 10 16 8 17 9 18 19 20 16 22
REMARK H PARENT 9 19 19 21 16 23
REMARK Flexibility Score: inf
ROOT
ATOM      1  C   UNL     1      42.137  16.844   5.555  1.00  0.00     0.131 C 
ATOM      2  C   UNL     1      41.511  16.829   6.961  1.00  0.00     0.211 C 
ATOM      3  O   UNL     1      41.799  18.038   7.677  1.00  0.00    -0.484 OA
ATOM      4  C   UNL     1      41.990  19.287   7.064  1.00  0.00     0.138 A 
ATOM      5  C   UNL     1      42.108  20.423   7.869  1.00  0.00     0.093 A 
ATOM      6  C   UNL     1      42.272  21.684   7.289  1.00  0.00     0.123 A 
ATOM      7  C   UNL     1      42.346  21.806   5.900  1.00  0.00     0.093 A 
ATOM      8  C   UNL     1      42.266  20.676   5.076  1.00  0.00     0.133 A 
ATOM      9  C   UNL     1      42.053  19.401   5.660  1.00  0.00     0.102 A 
ATOM     10  C   UNL     1      41.871  18.156   4.881  1.00  0.00     0.174 C 
ATOM     11  O   UNL     1      41.446  18.171   3.696  1.00  0.00    -0.294 OA
ENDROOT
BRANCH   2  12
ATOM     12  C   UNL     1      40.019  16.566   6.901  1.00  0.00    -0.007 A 
ATOM     13  C   UNL     1      39.174  16.843   7.993  1.00  0.00     0.011 A 
ATOM     14  C   UNL     1      39.448  16.093   5.707  1.00  0.00     0.011 A 
ATOM     15  C   UNL     1      37.796  16.627   7.897  1.00  0.00     0.046 A 
ATOM     16  C   UNL     1      38.070  15.875   5.614  1.00  0.00     0.046 A 
ATOM     17  C   UNL     1      37.241  16.140   6.707  1.00  0.00     0.115 A 
BRANCH  17  18
ATOM     18  O   UNL     1      35.870  15.919   6.601  1.00  0.00    -0.508 OA
ATOM     19  H   UNL     1      35.459  15.020   6.823  1.00  0.00     0.293 HD
ENDBRANCH  17  18
ENDBRANCH   2  12
BRANCH   8  20
ATOM     20  O   UNL     1      42.436  20.866   3.703  1.00  0.00    -0.507 OA
ATOM     21  H   UNL     1      43.301  20.692   3.214  1.00  0.00     0.293 HD
ENDBRANCH   8  20
BRANCH   6  22
ATOM     22  O   UNL     1      42.371  22.824   8.084  1.00  0.00    -0.508 OA
ATOM     23  H   UNL     1      43.113  22.930   8.767  1.00  0.00     0.293 HD
ENDBRANCH   6  22
TORSDOF 4
ENDMDL
MODEL 5
REMARK VINA RESULT:    -3.285      3.422      6.431
REMARK INTER + INTRA:          -4.072
REMARK INTER:                  -3.664
REMARK INTRA:                  -0.407
REMARK UNBOUND:                -0.306
REMARK SMILES O=C1C[C@H](c2ccc(O)cc2)Oc2cc(O)cc(O)c21
REMARK SMILES IDX 3 1 4 2 12 3 13 4 14 5 15 6 17 7 18 8 20 9 2 10 1 11 5 12
REMARK SMILES IDX 6 13 11 14 7 15 10 16 8 17 9 18 19 20 16 22
REMARK H PARENT 9 19 19 21 16 23
REMARK Flexibility Score: inf
ROOT
ATOM      1  C   UNL     1      41.808  15.901   6.181  1.00  0.00     0.131 C 
ATOM      2  C   UNL     1      42.136  17.027   5.184  1.00  0.00     0.211 C 
ATOM      3  O   UNL     1      40.995  17.372   4.386  1.00  0.00    -0.484 OA
ATOM      4  C   UNL     1      39.667  17.262   4.826  1.00  0.00     0.138 A 
ATOM      5  C   UNL     1      38.645  17.774   4.024  1.00  0.00     0.093 A 
ATOM      6  C   UNL     1      37.314  17.705   4.446  1.00  0.00     0.123 A 
ATOM      7  C   UNL     1      37.003  17.096   5.663  1.00  0.00     0.093 A 
ATOM      8  C   UNL     1      38.008  16.544   6.467  1.00  0.00     0.133 A 
ATOM      9  C   UNL     1      39.363  16.654   6.063  1.00  0.00     0.102 A 
ATOM     10  C   UNL     1      40.508  16.182   6.872  1.00  0.00     0.174 C 
ATOM     11  O   UNL     1      40.433  16.068   8.124  1.00  0.00    -0.294 OA
ENDROOT
BRANCH   2  12
ATOM     12  C   UNL     1      42.704  18.244   5.889  1.00  0.00    -0.007 A 
ATOM     13  C   UNL     1      42.053  19.492   5.852  1.00  0.00     0.011 A 
ATOM     14  C   UNL     1      43.877  18.114   6.654  1.00  0.00     0.011 A 
ATOM     15  C   UNL     1      42.579  20.587   6.543  1.00  0.00     0.046 A 
ATOM     16  C   UNL     1      44.402  19.212   7.343  1.00  0.00     0.046 A 
ATOM     17  C   UNL     1      43.757  20.450   7.289  1.00  0.00     0.115 A 
BRANCH  17  18
ATOM     18  O   UNL     1      44.290  21.535   7.980  1.00  0.00    -0.508 OA
ATOM     19  H   UNL     1      44.813  22.261   7.504  1.00  0.00     0.293 HD
ENDBRANCH  17  18
ENDBRANCH   2  12
BRANCH   8  20
ATOM     20  O   UNL     1      37.612  15.875   7.627  1.00  0.00    -0.507 OA
ATOM     21  H   UNL     1      37.967  14.971   7.904  1.00  0.00     0.293 HD
ENDBRANCH   8  20
BRANCH   6  22
ATOM     22  O   UNL     1      36.291  18.231   3.660  1.00  0.00    -0.508 OA
ATOM     23  H   UNL     1      36.289  19.204   3.375  1.00  0.00     0.293 HD
ENDBRANCH   6  22
TORSDOF 4
ENDMDL
MODEL 6
REMARK VINA RESULT:    -3.233      1.980      5.727
REMARK INTER + INTRA:          -4.011
REMARK INTER:                  -3.821
REMARK INTRA:                  -0.190
REMARK UNBOUND:                -0.306
REMARK SMILES O=C1C[C@H](c2ccc(O)cc2)Oc2cc(O)cc(O)c21
REMARK SMILES IDX 3 1 4 2 12 3 13 4 14 5 15 6 17 7 18 8 20 9 2 10 1 11 5 12
REMARK SMILES IDX 6 13 11 14 7 15 10 16 8 17 9 18 19 20 16 22
REMARK H PARENT 9 19 19 21 16 23
REMARK Flexibility Score: inf
ROOT
ATOM      1  C   UNL     1      42.904  20.153   7.870  1.00  0.00     0.131 C 
ATOM      2  C   UNL     1      43.840  18.958   8.125  1.00  0.00     0.211 C 
ATOM      3  O   UNL     1      43.594  17.891   7.199  1.00  0.00    -0.484 OA
ATOM      4  C   UNL     1      43.124  18.080   5.890  1.00  0.00     0.138 A 
ATOM      5  C   UNL     1      43.071  16.983   5.026  1.00  0.00     0.093 A 
ATOM      6  C   UNL     1      42.634  17.143   3.709  1.00  0.00     0.123 A 
ATOM      7  C   UNL     1      42.222  18.400   3.261  1.00  0.00     0.093 A 
ATOM      8  C   UNL     1      42.233  19.505   4.120  1.00  0.00     0.133 A 
ATOM      9  C   UNL     1      42.720  19.356   5.444  1.00  0.00     0.102 A 
ATOM     10  C   UNL     1      42.854  20.471   6.407  1.00  0.00     0.174 C 
ATOM     11  O   UNL     1      42.984  21.665   6.026  1.00  0.00    -0.294 OA
ENDROOT
BRANCH   2  12
ATOM     12  C   UNL     1      45.297  19.381   8.104  1.00  0.00    -0.007 A 
ATOM     13  C   UNL     1      46.342  18.437   8.113  1.00  0.00     0.011 A 
ATOM     14  C   UNL     1      45.619  20.747   8.010  1.00  0.00     0.011 A 
ATOM     15  C   UNL     1      47.675  18.855   8.054  1.00  0.00     0.046 A 
ATOM     16  C   UNL     1      46.953  21.161   7.953  1.00  0.00     0.046 A 
ATOM     17  C   UNL     1      47.984  20.218   7.977  1.00  0.00     0.115 A 
BRANCH  17  18
ATOM     18  O   UNL     1      49.309  20.645   7.919  1.00  0.00    -0.508 OA
ATOM     19  H   UNL     1      49.545  21.624   7.806  1.00  0.00     0.293 HD
ENDBRANCH  17  18
ENDBRANCH   2  12
BRANCH   8  20
ATOM     20  O   UNL     1      41.725  20.710   3.629  1.00  0.00    -0.507 OA
ATOM     21  H   UNL     1      42.207  21.293   2.960  1.00  0.00     0.293 HD
ENDBRANCH   8  20
BRANCH   6  22
ATOM     22  O   UNL     1      42.596  16.057   2.836  1.00  0.00    -0.508 OA
ATOM     23  H   UNL     1      42.991  15.158   3.091  1.00  0.00     0.293 HD
ENDBRANCH   6  22
TORSDOF 4
ENDMDL
MODEL 7
REMARK VINA RESULT:    -2.872      2.272      5.583
REMARK INTER + INTRA:          -3.598
REMARK INTER:                  -3.280
REMARK INTRA:                  -0.318
REMARK UNBOUND:                -0.306
REMARK SMILES O=C1C[C@H](c2ccc(O)cc2)Oc2cc(O)cc(O)c21
REMARK SMILES IDX 3 1 4 2 12 3 13 4 14 5 15 6 17 7 18 8 20 9 2 10 1 11 5 12
REMARK SMILES IDX 6 13 11 14 7 15 10 16 8 17 9 18 19 20 16 22
REMARK H PARENT 9 19 19 21 16 23
REMARK Flexibility Score: inf
ROOT
ATOM      1  C   UNL     1      42.552  20.799   6.056  1.00  0.00     0.131 C 
ATOM      2  C   UNL     1      42.852  20.522   7.540  1.00  0.00     0.211 C 
ATOM      3  O   UNL     1      41.867  19.656   8.123  1.00  0.00    -0.484 OA
ATOM      4  C   UNL     1      41.165  18.674   7.408  1.00  0.00     0.138 A 
ATOM      5  C   UNL     1      40.346  17.784   8.109  1.00  0.00     0.093 A 
ATOM      6  C   UNL     1      39.654  16.778   7.430  1.00  0.00     0.123 A 
ATOM      7  C   UNL     1      39.759  16.677   6.042  1.00  0.00     0.093 A 
ATOM      8  C   UNL     1      40.546  17.580   5.316  1.00  0.00     0.133 A 
ATOM      9  C   UNL     1      41.286  18.573   6.006  1.00  0.00     0.102 A 
ATOM     10  C   UNL     1      42.210  19.523   5.348  1.00  0.00     0.174 C 
ATOM     11  O   UNL     1      42.756  19.260   4.244  1.00  0.00    -0.294 OA
ENDROOT
BRANCH   2  12
ATOM     12  C   UNL     1      44.252  19.970   7.729  1.00  0.00    -0.007 A 
ATOM     13  C   UNL     1      44.481  18.606   7.993  1.00  0.00     0.011 A 
ATOM     14  C   UNL     1      45.358  20.824   7.574  1.00  0.00     0.011 A 
ATOM     15  C   UNL     1      45.784  18.118   8.125  1.00  0.00     0.046 A 
ATOM     16  C   UNL     1      46.660  20.334   7.708  1.00  0.00     0.046 A 
ATOM     17  C   UNL     1      46.877  18.981   7.985  1.00  0.00     0.115 A 
BRANCH  17  18
ATOM     18  O   UNL     1      48.180  18.506   8.116  1.00  0.00    -0.508 OA
ATOM     19  H   UNL     1      48.370  17.570   8.456  1.00  0.00     0.293 HD
ENDBRANCH  17  18
ENDBRANCH   2  12
BRANCH   8  20
ATOM     20  O   UNL     1      40.533  17.471   3.923  1.00  0.00    -0.507 OA
ATOM     21  H   UNL     1      40.537  18.264   3.297  1.00  0.00     0.293 HD
ENDBRANCH   8  20
BRANCH   6  22
ATOM     22  O   UNL     1      38.851  15.876   8.125  1.00  0.00    -0.508 OA
ATOM     23  H   UNL     1      39.225  15.009   8.495  1.00  0.00     0.293 HD
ENDBRANCH   6  22
TORSDOF 4
ENDMDL
