MODEL 1
REMARK VINA RESULT:    -4.997      0.000      0.000
REMARK INTER + INTRA:          -8.251
REMARK INTER:                  -7.627
REMARK INTRA:                  -0.624
REMARK UNBOUND:                -0.624
REMARK SMILES O=C([O-])CCCCCCCCC(=O)[O-]
REMARK SMILES IDX 7 1 6 2 5 3 4 4 2 5 1 6 3 7 8 8 9 9 10 10 11 11 12 12 13 13
REMARK SMILES IDX 14 14
REMARK H PARENT
REMARK Flexibility Score: inf
ROOT
ATOM      1  C   UNL     1      13.749  76.538  70.934  1.00  0.00     0.000 C 
ENDROOT
BRANCH   1   2
ATOM      2  C   UNL     1      13.931  76.367  69.418  1.00  0.00     0.000 C 
BRANCH   2   3
ATOM      3  C   UNL     1      13.579  74.937  68.980  1.00  0.00     0.006 C 
BRANCH   3   4
ATOM      4  C   UNL     1      14.642  74.337  68.052  1.00  0.00     0.053 C 
BRANCH   4   5
ATOM      5  C   UNL     1      15.337  73.169  68.684  1.00  0.00     0.041 C 
ATOM      6  O   UNL     1      15.939  73.309  69.781  1.00  0.00    -0.550 OA
ATOM      7  O   UNL     1      15.291  71.920  68.078  1.00  0.00    -0.550 OA
ENDBRANCH   4   5
ENDBRANCH   3   4
ENDBRANCH   2   3
ENDBRANCH   1   2
BRANCH   1   8
ATOM      8  C   UNL     1      14.055  75.251  71.715  1.00  0.00     0.000 C 
BRANCH   8   9
ATOM      9  C   UNL     1      15.011  75.490  72.897  1.00  0.00     0.000 C 
BRANCH   9  10
ATOM     10  C   UNL     1      16.460  75.751  72.447  1.00  0.00     0.006 C 
BRANCH  10  11
ATOM     11  C   UNL     1      16.969  77.168  72.754  1.00  0.00     0.053 C 
BRANCH  11  12
ATOM     12  C   UNL     1      18.387  77.162  73.234  1.00  0.00     0.041 C 
ATOM     13  O   UNL     1      18.934  78.232  73.612  1.00  0.00    -0.550 OA
ATOM     14  O   UNL     1      19.095  75.969  73.298  1.00  0.00    -0.550 OA
ENDBRANCH  11  12
ENDBRANCH  10  11
ENDBRANCH   9  10
ENDBRANCH   8   9
ENDBRANCH   1   8
TORSDOF 9
ENDMDL
MODEL 2
REMARK VINA RESULT:    -4.975      2.240      5.506
REMARK INTER + INTRA:          -8.216
REMARK INTER:                  -7.491
REMARK INTRA:                  -0.726
REMARK UNBOUND:                -0.624
REMARK SMILES O=C([O-])CCCCCCCCC(=O)[O-]
REMARK SMILES IDX 7 1 6 2 5 3 4 4 2 5 1 6 3 7 8 8 9 9 10 10 11 11 12 12 13 13
REMARK SMILES IDX 14 14
REMARK H PARENT
REMARK Flexibility Score: inf
ROOT
ATOM      1  C   UNL     1      15.895  74.962  71.020  1.00  0.00     0.000 C 
ENDROOT
BRANCH   1   2
ATOM      2  C   UNL     1      15.342  75.019  72.452  1.00  0.00     0.000 C 
BRANCH   2   3
ATOM      3  C   UNL     1      15.620  76.386  73.095  1.00  0.00     0.006 C 
BRANCH   3   4
ATOM      4  C   UNL     1      16.742  77.147  72.379  1.00  0.00     0.053 C 
BRANCH   4   5
ATOM      5  C   UNL     1      18.044  77.040  73.112  1.00  0.00     0.041 C 
ATOM      6  O   UNL     1      18.516  78.040  73.714  1.00  0.00    -0.550 OA
ATOM      7  O   UNL     1      18.718  75.827  73.160  1.00  0.00    -0.550 OA
ENDBRANCH   4   5
ENDBRANCH   3   4
ENDBRANCH   2   3
ENDBRANCH   1   2
BRANCH   1   8
ATOM      8  C   UNL     1      15.236  73.863  70.174  1.00  0.00     0.000 C 
BRANCH   8   9
ATOM      9  C   UNL     1      14.817  74.359  68.779  1.00  0.00     0.000 C 
BRANCH   9  10
ATOM     10  C   UNL     1      13.349  74.820  68.729  1.00  0.00     0.006 C 
BRANCH  10  11
ATOM     11  C   UNL     1      13.164  76.291  68.324  1.00  0.00     0.053 C 
BRANCH  11  12
ATOM     12  C   UNL     1      13.524  77.227  69.435  1.00  0.00     0.041 C 
ATOM     13  O   UNL     1      13.129  77.000  70.610  1.00  0.00    -0.550 OA
ATOM     14  O   UNL     1      14.326  78.333  69.182  1.00  0.00    -0.550 OA
ENDBRANCH  11  12
ENDBRANCH  10  11
ENDBRANCH   9  10
ENDBRANCH   8   9
ENDBRANCH   1   8
TORSDOF 9
ENDMDL
MODEL 3
REMARK VINA RESULT:    -4.960      1.297      5.410
REMARK INTER + INTRA:          -8.195
REMARK INTER:                  -7.309
REMARK INTRA:                  -0.885
REMARK UNBOUND:                -0.624
REMARK SMILES O=C([O-])CCCCCCCCC(=O)[O-]
REMARK SMILES IDX 7 1 6 2 5 3 4 4 2 5 1 6 3 7 8 8 9 9 10 10 11 11 12 12 13 13
REMARK SMILES IDX 14 14
REMARK H PARENT
REMARK Flexibility Score: inf
ROOT
ATOM      1  C   UNL     1      15.367  76.830  70.941  1.00  0.00     0.000 C 
ENDROOT
BRANCH   1   2
ATOM      2  C   UNL     1      14.816  76.491  72.334  1.00  0.00     0.000 C 
BRANCH   2   3
ATOM      3  C   UNL     1      15.555  75.287  72.940  1.00  0.00     0.006 C 
BRANCH   3   4
ATOM      4  C   UNL     1      16.830  74.938  72.162  1.00  0.00     0.053 C 
BRANCH   4   5
ATOM      5  C   UNL     1      18.065  75.317  72.920  1.00  0.00     0.041 C 
ATOM      6  O   UNL     1      18.858  74.426  73.325  1.00  0.00    -0.550 OA
ATOM      7  O   UNL     1      18.359  76.654  73.150  1.00  0.00    -0.550 OA
ENDBRANCH   4   5
ENDBRANCH   3   4
ENDBRANCH   2   3
ENDBRANCH   1   2
BRANCH   1   8
ATOM      8  C   UNL     1      14.261  76.940  69.880  1.00  0.00     0.000 C 
BRANCH   8   9
ATOM      9  C   UNL     1      13.125  75.926  70.101  1.00  0.00     0.000 C 
BRANCH   9  10
ATOM     10  C   UNL     1      13.206  74.725  69.141  1.00  0.00     0.006 C 
BRANCH  10  11
ATOM     11  C   UNL     1      14.232  73.658  69.553  1.00  0.00     0.053 C 
BRANCH  11  12
ATOM     12  C   UNL     1      15.140  73.288  68.421  1.00  0.00     0.041 C 
ATOM     13  O   UNL     1      15.715  72.167  68.409  1.00  0.00    -0.550 OA
ATOM     14  O   UNL     1      15.326  74.167  67.363  1.00  0.00    -0.550 OA
ENDBRANCH  11  12
ENDBRANCH  10  11
ENDBRANCH   9  10
ENDBRANCH   8   9
ENDBRANCH   1   8
TORSDOF 9
ENDMDL
MODEL 4
REMARK VINA RESULT:    -4.615      2.274      3.078
REMARK INTER + INTRA:          -7.668
REMARK INTER:                  -6.919
REMARK INTRA:                  -0.748
REMARK UNBOUND:                -0.624
REMARK SMILES O=C([O-])CCCCCCCCC(=O)[O-]
REMARK SMILES IDX 7 1 6 2 5 3 4 4 2 5 1 6 3 7 8 8 9 9 10 10 11 11 12 12 13 13
REMARK SMILES IDX 14 14
REMARK H PARENT
REMARK Flexibility Score: inf
ROOT
ATOM      1  C   UNL     1      14.429  73.258  69.178  1.00  0.00     0.000 C 
ENDROOT
BRANCH   1   2
ATOM      2  C   UNL     1      14.315  74.407  68.164  1.00  0.00     0.000 C 
BRANCH   2   3
ATOM      3  C   UNL     1      12.971  75.137  68.310  1.00  0.00     0.006 C 
BRANCH   3   4
ATOM      4  C   UNL     1      13.125  76.660  68.213  1.00  0.00     0.053 C 
BRANCH   4   5
ATOM      5  C   UNL     1      13.637  77.251  69.491  1.00  0.00     0.041 C 
ATOM      6  O   UNL     1      14.550  78.117  69.467  1.00  0.00    -0.550 OA
ATOM      7  O   UNL     1      13.082  76.869  70.706  1.00  0.00    -0.550 OA
ENDBRANCH   4   5
ENDBRANCH   3   4
ENDBRANCH   2   3
ENDBRANCH   1   2
BRANCH   1   8
ATOM      8  C   UNL     1      15.697  73.355  70.040  1.00  0.00     0.000 C 
BRANCH   8   9
ATOM      9  C   UNL     1      16.000  74.796  70.487  1.00  0.00     0.000 C 
BRANCH   9  10
ATOM     10  C   UNL     1      15.789  75.006  71.997  1.00  0.00     0.006 C 
BRANCH  10  11
ATOM     11  C   UNL     1      16.057  76.442  72.476  1.00  0.00     0.053 C 
BRANCH  11  12
ATOM     12  C   UNL     1      17.490  76.648  72.855  1.00  0.00     0.041 C 
ATOM     13  O   UNL     1      17.923  77.807  73.093  1.00  0.00    -0.550 OA
ATOM     14  O   UNL     1      18.341  75.558  72.979  1.00  0.00    -0.550 OA
ENDBRANCH  11  12
ENDBRANCH  10  11
ENDBRANCH   9  10
ENDBRANCH   8   9
ENDBRANCH   1   8
TORSDOF 9
ENDMDL
MODEL 5
REMARK VINA RESULT:    -4.275      2.034      5.270
REMARK INTER + INTRA:          -7.149
REMARK INTER:                  -6.487
REMARK INTRA:                  -0.662
REMARK UNBOUND:                -0.624
REMARK SMILES O=C([O-])CCCCCCCCC(=O)[O-]
REMARK SMILES IDX 7 1 6 2 5 3 4 4 2 5 1 6 3 7 8 8 9 9 10 10 11 11 12 12 13 13
REMARK SMILES IDX 14 14
REMARK H PARENT
REMARK Flexibility Score: inf
ROOT
ATOM      1  C   UNL     1      13.316  76.700  69.700  1.00  0.00     0.000 C 
ENDROOT
BRANCH   1   2
ATOM      2  C   UNL     1      14.597  77.535  69.847  1.00  0.00     0.000 C 
BRANCH   2   3
ATOM      3  C   UNL     1      15.522  76.939  70.919  1.00  0.00     0.006 C 
BRANCH   3   4
ATOM      4  C   UNL     1      14.801  76.726  72.255  1.00  0.00     0.053 C 
BRANCH   4   5
ATOM      5  C   UNL     1      15.302  75.509  72.970  1.00  0.00     0.041 C 
ATOM      6  O   UNL     1      14.530  74.850  73.717  1.00  0.00    -0.550 OA
ATOM      7  O   UNL     1      16.610  75.081  72.785  1.00  0.00    -0.550 OA
ENDBRANCH   4   5
ENDBRANCH   3   4
ENDBRANCH   2   3
ENDBRANCH   1   2
BRANCH   1   8
ATOM      8  C   UNL     1      13.315  75.840  68.427  1.00  0.00     0.000 C 
BRANCH   8   9
ATOM      9  C   UNL     1      13.215  74.335  68.730  1.00  0.00     0.000 C 
BRANCH   9  10
ATOM     10  C   UNL     1      14.091  73.909  69.922  1.00  0.00     0.006 C 
BRANCH  10  11
ATOM     11  C   UNL     1      15.496  73.426  69.530  1.00  0.00     0.053 C 
BRANCH  11  12
ATOM     12  C   UNL     1      15.523  72.837  68.154  1.00  0.00     0.041 C 
ATOM     13  O   UNL     1      15.318  71.606  67.986  1.00  0.00    -0.550 OA
ATOM     14  O   UNL     1      15.739  73.654  67.052  1.00  0.00    -0.550 OA
ENDBRANCH  11  12
ENDBRANCH  10  11
ENDBRANCH   9  10
ENDBRANCH   8   9
ENDBRANCH   1   8
TORSDOF 9
ENDMDL
MODEL 6
REMARK VINA RESULT:    -4.226      2.587      5.102
REMARK INTER + INTRA:          -7.074
REMARK INTER:                  -6.412
REMARK INTRA:                  -0.662
REMARK UNBOUND:                -0.624
REMARK SMILES O=C([O-])CCCCCCCCC(=O)[O-]
REMARK SMILES IDX 7 1 6 2 5 3 4 4 2 5 1 6 3 7 8 8 9 9 10 10 11 11 12 12 13 13
REMARK SMILES IDX 14 14
REMARK H PARENT
REMARK Flexibility Score: inf
ROOT
ATOM      1  C   UNL     1      14.557  73.367  69.412  1.00  0.00     0.000 C 
ENDROOT
BRANCH   1   2
ATOM      2  C   UNL     1      15.030  73.584  70.858  1.00  0.00     0.000 C 
BRANCH   2   3
ATOM      3  C   UNL     1      16.158  74.625  70.917  1.00  0.00     0.006 C 
BRANCH   3   4
ATOM      4  C   UNL     1      16.582  74.940  72.356  1.00  0.00     0.053 C 
BRANCH   4   5
ATOM      5  C   UNL     1      16.127  76.302  72.785  1.00  0.00     0.041 C 
ATOM      6  O   UNL     1      14.977  76.460  73.273  1.00  0.00    -0.550 OA
ATOM      7  O   UNL     1      16.984  77.389  72.678  1.00  0.00    -0.550 OA
ENDBRANCH   4   5
ENDBRANCH   3   4
ENDBRANCH   2   3
ENDBRANCH   1   2
BRANCH   1   8
ATOM      8  C   UNL     1      14.921  74.540  68.489  1.00  0.00     0.000 C 
BRANCH   8   9
ATOM      9  C   UNL     1      13.687  75.336  68.030  1.00  0.00     0.000 C 
BRANCH   9  10
ATOM     10  C   UNL     1      12.697  75.611  69.176  1.00  0.00     0.006 C 
BRANCH  10  11
ATOM     11  C   UNL     1      13.194  76.640  70.205  1.00  0.00     0.053 C 
BRANCH  11  12
ATOM     12  C   UNL     1      14.052  77.692  69.574  1.00  0.00     0.041 C 
ATOM     13  O   UNL     1      15.284  77.744  69.830  1.00  0.00    -0.550 OA
ATOM     14  O   UNL     1      13.499  78.596  68.678  1.00  0.00    -0.550 OA
ENDBRANCH  11  12
ENDBRANCH  10  11
ENDBRANCH   9  10
ENDBRANCH   8   9
ENDBRANCH   1   8
TORSDOF 9
ENDMDL
MODEL 7
REMARK VINA RESULT:    -4.211      0.817      5.566
REMARK INTER + INTRA:          -7.050
REMARK INTER:                  -6.554
REMARK INTRA:                  -0.496
REMARK UNBOUND:                -0.624
REMARK SMILES O=C([O-])CCCCCCCCC(=O)[O-]
REMARK SMILES IDX 7 1 6 2 5 3 4 4 2 5 1 6 3 7 8 8 9 9 10 10 11 11 12 12 13 13
REMARK SMILES IDX 14 14
REMARK H PARENT
REMARK Flexibility Score: inf
ROOT
ATOM      1  C   UNL     1      13.614  75.952  71.352  1.00  0.00     0.000 C 
ENDROOT
BRANCH   1   2
ATOM      2  C   UNL     1      14.629  74.876  71.767  1.00  0.00     0.000 C 
BRANCH   2   3
ATOM      3  C   UNL     1      16.065  75.413  71.684  1.00  0.00     0.006 C 
BRANCH   3   4
ATOM      4  C   UNL     1      16.247  76.711  72.480  1.00  0.00     0.053 C 
BRANCH   4   5
ATOM      5  C   UNL     1      17.658  76.880  72.955  1.00  0.00     0.041 C 
ATOM      6  O   UNL     1      18.087  78.020  73.273  1.00  0.00    -0.550 OA
ATOM      7  O   UNL     1      18.489  75.774  73.078  1.00  0.00    -0.550 OA
ENDBRANCH   4   5
ENDBRANCH   3   4
ENDBRANCH   2   3
ENDBRANCH   1   2
BRANCH   1   8
ATOM      8  C   UNL     1      13.642  76.240  69.843  1.00  0.00     0.000 C 
BRANCH   8   9
ATOM      9  C   UNL     1      13.613  74.956  68.995  1.00  0.00     0.000 C 
BRANCH   9  10
ATOM     10  C   UNL     1      14.950  74.684  68.283  1.00  0.00     0.006 C 
BRANCH  10  11
ATOM     11  C   UNL     1      15.052  73.290  67.644  1.00  0.00     0.053 C 
BRANCH  11  12
ATOM     12  C   UNL     1      15.687  72.296  68.566  1.00  0.00     0.041 C 
ATOM     13  O   UNL     1      16.154  72.668  69.675  1.00  0.00    -0.550 OA
ATOM     14  O   UNL     1      15.734  70.953  68.216  1.00  0.00    -0.550 OA
ENDBRANCH  11  12
ENDBRANCH  10  11
ENDBRANCH   9  10
ENDBRANCH   8   9
ENDBRANCH   1   8
TORSDOF 9
ENDMDL
MODEL 8
REMARK VINA RESULT:    -4.144      1.506      2.185
REMARK INTER + INTRA:          -6.949
REMARK INTER:                  -6.327
REMARK INTRA:                  -0.622
REMARK UNBOUND:                -0.624
REMARK SMILES O=C([O-])CCCCCCCCC(=O)[O-]
REMARK SMILES IDX 7 1 6 2 5 3 4 4 2 5 1 6 3 7 8 8 9 9 10 10 11 11 12 12 13 13
REMARK SMILES IDX 14 14
REMARK H PARENT
REMARK Flexibility Score: inf
ROOT
ATOM      1  C   UNL     1      12.994  76.132  69.974  1.00  0.00     0.000 C 
ENDROOT
BRANCH   1   2
ATOM      2  C   UNL     1      12.736  75.403  68.646  1.00  0.00     0.000 C 
BRANCH   2   3
ATOM      3  C   UNL     1      14.006  74.693  68.152  1.00  0.00     0.006 C 
BRANCH   3   4
ATOM      4  C   UNL     1      14.296  73.410  68.940  1.00  0.00     0.053 C 
BRANCH   4   5
ATOM      5  C   UNL     1      15.309  72.550  68.248  1.00  0.00     0.041 C 
ATOM      6  O   UNL     1      15.504  71.367  68.633  1.00  0.00    -0.550 OA
ATOM      7  O   UNL     1      16.014  73.043  67.158  1.00  0.00    -0.550 OA
ENDBRANCH   4   5
ENDBRANCH   3   4
ENDBRANCH   2   3
ENDBRANCH   1   2
BRANCH   1   8
ATOM      8  C   UNL     1      14.068  77.223  69.850  1.00  0.00     0.000 C 
BRANCH   8   9
ATOM      9  C   UNL     1      15.307  76.934  70.716  1.00  0.00     0.000 C 
BRANCH   9  10
ATOM     10  C   UNL     1      14.943  76.492  72.145  1.00  0.00     0.006 C 
BRANCH  10  11
ATOM     11  C   UNL     1      15.561  75.149  72.565  1.00  0.00     0.053 C 
BRANCH  11  12
ATOM     12  C   UNL     1      17.056  75.207  72.600  1.00  0.00     0.041 C 
ATOM     13  O   UNL     1      17.739  74.206  72.254  1.00  0.00    -0.550 OA
ATOM     14  O   UNL     1      17.699  76.377  72.981  1.00  0.00    -0.550 OA
ENDBRANCH  11  12
ENDBRANCH  10  11
ENDBRANCH   9  10
ENDBRANCH   8   9
ENDBRANCH   1   8
TORSDOF 9
ENDMDL
MODEL 9
REMARK VINA RESULT:    -4.131     11.131     12.856
REMARK INTER + INTRA:          -6.929
REMARK INTER:                  -6.271
REMARK INTRA:                  -0.658
REMARK UNBOUND:                -0.624
REMARK SMILES O=C([O-])CCCCCCCCC(=O)[O-]
REMARK SMILES IDX 7 1 6 2 5 3 4 4 2 5 1 6 3 7 8 8 9 9 10 10 11 11 12 12 13 13
REMARK SMILES IDX 14 14
REMARK H PARENT
REMARK Flexibility Score: inf
ROOT
ATOM      1  C   UNL     1       7.074  77.472  67.205  1.00  0.00     0.000 C 
ENDROOT
BRANCH   1   2
ATOM      2  C   UNL     1       7.370  77.911  65.763  1.00  0.00     0.000 C 
BRANCH   2   3
ATOM      3  C   UNL     1       6.274  77.421  64.804  1.00  0.00     0.006 C 
BRANCH   3   4
ATOM      4  C   UNL     1       5.258  78.521  64.474  1.00  0.00     0.053 C 
BRANCH   4   5
ATOM      5  C   UNL     1       5.618  79.253  63.218  1.00  0.00     0.041 C 
ATOM      6  O   UNL     1       6.612  78.890  62.535  1.00  0.00    -0.550 OA
ATOM      7  O   UNL     1       4.837  80.315  62.782  1.00  0.00    -0.550 OA
ENDBRANCH   4   5
ENDBRANCH   3   4
ENDBRANCH   2   3
ENDBRANCH   1   2
BRANCH   1   8
ATOM      8  C   UNL     1       6.417  78.584  68.037  1.00  0.00     0.000 C 
BRANCH   8   9
ATOM      9  C   UNL     1       5.021  78.191  68.552  1.00  0.00     0.000 C 
BRANCH   9  10
ATOM     10  C   UNL     1       4.626  76.756  68.161  1.00  0.00     0.006 C 
BRANCH  10  11
ATOM     11  C   UNL     1       3.147  76.420  68.407  1.00  0.00     0.053 C 
BRANCH  11  12
ATOM     12  C   UNL     1       2.868  74.959  68.240  1.00  0.00     0.041 C 
ATOM     13  O   UNL     1       3.680  74.103  68.682  1.00  0.00    -0.550 OA
ATOM     14  O   UNL     1       1.696  74.539  67.626  1.00  0.00    -0.550 OA
ENDBRANCH  11  12
ENDBRANCH  10  11
ENDBRANCH   9  10
ENDBRANCH   8   9
ENDBRANCH   1   8
TORSDOF 9
ENDMDL
