MODEL 1
REMARK VINA RESULT:    -5.912      0.000      0.000
REMARK INTER + INTRA:          -6.493
REMARK INTER:                  -6.431
REMARK INTRA:                  -0.062
REMARK UNBOUND:                -0.062
REMARK SMILES COc1cc2ccc(=O)oc2cc1O
REMARK SMILES IDX 3 1 13 2 12 3 11 4 5 5 4 6 6 7 7 8 8 9 9 10 10 11 2 12 1 13
REMARK SMILES IDX 14 14
REMARK H PARENT 14 15
REMARK Flexibility Score: inf
ROOT
ATOM      1  C   UNL     1       2.675  14.436   2.771  1.00  0.00     0.161 A 
ATOM      2  C   UNL     1       3.507  13.702   3.633  1.00  0.00     0.161 A 
ATOM      3  C   UNL     1       2.961  13.013   4.726  1.00  0.00     0.098 A 
ATOM      4  C   UNL     1       1.586  13.050   4.967  1.00  0.00     0.142 A 
ATOM      5  C   UNL     1       0.743  13.785   4.107  1.00  0.00     0.022 A 
ATOM      6  C   UNL     1       1.287  14.475   3.014  1.00  0.00     0.062 A 
ATOM      7  C   UNL     1      -0.630  13.805   4.374  1.00  0.00     0.019 A 
ATOM      8  C   UNL     1      -1.122  13.102   5.474  1.00  0.00     0.094 A 
ATOM      9  C   UNL     1      -0.227  12.395   6.284  1.00  0.00     0.336 A 
ATOM     10  O   UNL     1      -0.651  11.755   7.281  1.00  0.00    -0.246 OA
ATOM     11  O   UNL     1       1.075  12.395   6.006  1.00  0.00    -0.423 OA
ENDROOT
BRANCH   1  12
ATOM     12  O   UNL     1       3.264  15.110   1.690  1.00  0.00    -0.493 OA
ATOM     13  C   UNL     1       3.274  16.526   1.532  1.00  0.00     0.278 C 
ENDBRANCH   1  12
BRANCH   2  14
ATOM     14  O   UNL     1       4.879  13.662   3.394  1.00  0.00    -0.504 OA
ATOM     15  H   UNL     1       5.479  14.448   3.613  1.00  0.00     0.293 HD
ENDBRANCH   2  14
TORSDOF 2
ENDMDL
MODEL 2
REMARK VINA RESULT:    -5.371      2.514      3.823
REMARK INTER + INTRA:          -5.904
REMARK INTER:                  -5.840
REMARK INTRA:                  -0.064
REMARK UNBOUND:                -0.062
REMARK SMILES COc1cc2ccc(=O)oc2cc1O
REMARK SMILES IDX 3 1 13 2 12 3 11 4 5 5 4 6 6 7 7 8 8 9 9 10 10 11 2 12 1 13
REMARK SMILES IDX 14 14
REMARK H PARENT 14 15
REMARK Flexibility Score: inf
ROOT
ATOM      1  C   UNL     1       0.515  13.783   0.940  1.00  0.00     0.161 A 
ATOM      2  C   UNL     1      -0.546  14.169   1.774  1.00  0.00     0.161 A 
ATOM      3  C   UNL     1      -0.387  14.167   3.168  1.00  0.00     0.098 A 
ATOM      4  C   UNL     1       0.826  13.779   3.738  1.00  0.00     0.142 A 
ATOM      5  C   UNL     1       1.898  13.389   2.907  1.00  0.00     0.022 A 
ATOM      6  C   UNL     1       1.742  13.391   1.514  1.00  0.00     0.062 A 
ATOM      7  C   UNL     1       3.102  13.006   3.508  1.00  0.00     0.019 A 
ATOM      8  C   UNL     1       3.208  13.021   4.899  1.00  0.00     0.094 A 
ATOM      9  C   UNL     1       2.103  13.419   5.659  1.00  0.00     0.336 A 
ATOM     10  O   UNL     1       2.179  13.440   6.915  1.00  0.00    -0.246 OA
ATOM     11  O   UNL     1       0.970  13.779   5.061  1.00  0.00    -0.423 OA
ENDROOT
BRANCH   1  12
ATOM     12  O   UNL     1       0.312  13.801  -0.449  1.00  0.00    -0.493 OA
ATOM     13  C   UNL     1       0.227  12.638  -1.267  1.00  0.00     0.278 C 
ENDBRANCH   1  12
BRANCH   2  14
ATOM     14  O   UNL     1      -1.759  14.557   1.208  1.00  0.00    -0.504 OA
ATOM     15  H   UNL     1      -1.842  14.764   0.220  1.00  0.00     0.293 HD
ENDBRANCH   2  14
TORSDOF 2
ENDMDL
MODEL 3
REMARK VINA RESULT:    -5.306      2.249      3.146
REMARK INTER + INTRA:          -5.833
REMARK INTER:                  -5.768
REMARK INTRA:                  -0.064
REMARK UNBOUND:                -0.062
REMARK SMILES COc1cc2ccc(=O)oc2cc1O
REMARK SMILES IDX 3 1 13 2 12 3 11 4 5 5 4 6 6 7 7 8 8 9 9 10 10 11 2 12 1 13
REMARK SMILES IDX 14 14
REMARK H PARENT 14 15
REMARK Flexibility Score: inf
ROOT
ATOM      1  C   UNL     1      -0.188  14.123   1.644  1.00  0.00     0.161 A 
ATOM      2  C   UNL     1       1.191  13.922   1.469  1.00  0.00     0.161 A 
ATOM      3  C   UNL     1       2.022  13.713   2.580  1.00  0.00     0.098 A 
ATOM      4  C   UNL     1       1.486  13.701   3.869  1.00  0.00     0.142 A 
ATOM      5  C   UNL     1       0.101  13.902   4.054  1.00  0.00     0.022 A 
ATOM      6  C   UNL     1      -0.731  14.112   2.945  1.00  0.00     0.062 A 
ATOM      7  C   UNL     1      -0.407  13.886   5.357  1.00  0.00     0.019 A 
ATOM      8  C   UNL     1       0.462  13.673   6.428  1.00  0.00     0.094 A 
ATOM      9  C   UNL     1       1.824  13.482   6.169  1.00  0.00     0.336 A 
ATOM     10  O   UNL     1       2.624  13.288   7.121  1.00  0.00    -0.246 OA
ATOM     11  O   UNL     1       2.280  13.502   4.918  1.00  0.00    -0.423 OA
ENDROOT
BRANCH   1  12
ATOM     12  O   UNL     1      -0.982  14.328   0.505  1.00  0.00    -0.493 OA
ATOM     13  C   UNL     1      -1.913  13.382  -0.009  1.00  0.00     0.278 C 
ENDBRANCH   1  12
BRANCH   2  14
ATOM     14  O   UNL     1       1.729  13.932   0.184  1.00  0.00    -0.504 OA
ATOM     15  H   UNL     1       1.258  14.392  -0.585  1.00  0.00     0.293 HD
ENDBRANCH   2  14
TORSDOF 2
ENDMDL
MODEL 4
REMARK VINA RESULT:    -5.288      1.684      2.891
REMARK INTER + INTRA:          -5.814
REMARK INTER:                  -5.752
REMARK INTRA:                  -0.062
REMARK UNBOUND:                -0.062
REMARK SMILES COc1cc2ccc(=O)oc2cc1O
REMARK SMILES IDX 3 1 13 2 12 3 11 4 5 5 4 6 6 7 7 8 8 9 9 10 10 11 2 12 1 13
REMARK SMILES IDX 14 14
REMARK H PARENT 14 15
REMARK Flexibility Score: inf
ROOT
ATOM      1  C   UNL     1       1.736  14.869   1.313  1.00  0.00     0.161 A 
ATOM      2  C   UNL     1       0.336  14.860   1.428  1.00  0.00     0.161 A 
ATOM      3  C   UNL     1      -0.275  14.381   2.596  1.00  0.00     0.098 A 
ATOM      4  C   UNL     1       0.502  13.908   3.655  1.00  0.00     0.142 A 
ATOM      5  C   UNL     1       1.909  13.913   3.548  1.00  0.00     0.022 A 
ATOM      6  C   UNL     1       2.522  14.391   2.381  1.00  0.00     0.062 A 
ATOM      7  C   UNL     1       2.662  13.432   4.625  1.00  0.00     0.019 A 
ATOM      8  C   UNL     1       2.005  12.966   5.765  1.00  0.00     0.094 A 
ATOM      9  C   UNL     1       0.607  12.991   5.800  1.00  0.00     0.336 A 
ATOM     10  O   UNL     1      -0.004  12.576   6.819  1.00  0.00    -0.246 OA
ATOM     11  O   UNL     1      -0.084  13.454   4.760  1.00  0.00    -0.423 OA
ENDROOT
BRANCH   1  12
ATOM     12  O   UNL     1       2.304  15.358   0.127  1.00  0.00    -0.493 OA
ATOM     13  C   UNL     1       3.134  16.513   0.047  1.00  0.00     0.278 C 
ENDBRANCH   1  12
BRANCH   2  14
ATOM     14  O   UNL     1      -0.443  15.333   0.374  1.00  0.00    -0.504 OA
ATOM     15  H   UNL     1      -1.363  14.956   0.184  1.00  0.00     0.293 HD
ENDBRANCH   2  14
TORSDOF 2
ENDMDL
MODEL 5
REMARK VINA RESULT:    -5.283      2.313      5.177
REMARK INTER + INTRA:          -5.808
REMARK INTER:                  -5.743
REMARK INTRA:                  -0.065
REMARK UNBOUND:                -0.062
REMARK SMILES COc1cc2ccc(=O)oc2cc1O
REMARK SMILES IDX 3 1 13 2 12 3 11 4 5 5 4 6 6 7 7 8 8 9 9 10 10 11 2 12 1 13
REMARK SMILES IDX 14 14
REMARK H PARENT 14 15
REMARK Flexibility Score: inf
ROOT
ATOM      1  C   UNL     1      -1.759  14.465   5.384  1.00  0.00     0.161 A 
ATOM      2  C   UNL     1      -1.676  14.564   3.986  1.00  0.00     0.161 A 
ATOM      3  C   UNL     1      -0.476  14.263   3.325  1.00  0.00     0.098 A 
ATOM      4  C   UNL     1       0.647  13.861   4.051  1.00  0.00     0.142 A 
ATOM      5  C   UNL     1       0.572  13.758   5.457  1.00  0.00     0.022 A 
ATOM      6  C   UNL     1      -0.627  14.060   6.119  1.00  0.00     0.062 A 
ATOM      7  C   UNL     1       1.713  13.354   6.157  1.00  0.00     0.019 A 
ATOM      8  C   UNL     1       2.882  13.065   5.453  1.00  0.00     0.094 A 
ATOM      9  C   UNL     1       2.882  13.189   4.059  1.00  0.00     0.336 A 
ATOM     10  O   UNL     1       3.927  12.933   3.405  1.00  0.00    -0.246 OA
ATOM     11  O   UNL     1       1.781  13.576   3.418  1.00  0.00    -0.423 OA
ENDROOT
BRANCH   1  12
ATOM     12  O   UNL     1      -2.980  14.776   6.003  1.00  0.00    -0.493 OA
ATOM     13  C   UNL     1      -3.904  13.810   6.494  1.00  0.00     0.278 C 
ENDBRANCH   1  12
BRANCH   2  14
ATOM     14  O   UNL     1      -2.795  14.965   3.257  1.00  0.00    -0.504 OA
ATOM     15  H   UNL     1      -3.110  15.927   3.254  1.00  0.00     0.293 HD
ENDBRANCH   2  14
TORSDOF 2
ENDMDL
MODEL 6
REMARK VINA RESULT:    -5.256      2.089      4.511
REMARK INTER + INTRA:          -5.778
REMARK INTER:                  -5.720
REMARK INTRA:                  -0.058
REMARK UNBOUND:                -0.062
REMARK SMILES COc1cc2ccc(=O)oc2cc1O
REMARK SMILES IDX 3 1 13 2 12 3 11 4 5 5 4 6 6 7 7 8 8 9 9 10 10 11 2 12 1 13
REMARK SMILES IDX 14 14
REMARK H PARENT 14 15
REMARK Flexibility Score: inf
ROOT
ATOM      1  C   UNL     1       2.205  13.604   4.289  1.00  0.00     0.161 A 
ATOM      2  C   UNL     1       3.212  14.105   3.447  1.00  0.00     0.161 A 
ATOM      3  C   UNL     1       2.876  14.735   2.240  1.00  0.00     0.098 A 
ATOM      4  C   UNL     1       1.538  14.871   1.864  1.00  0.00     0.142 A 
ATOM      5  C   UNL     1       0.520  14.372   2.704  1.00  0.00     0.022 A 
ATOM      6  C   UNL     1       0.854  13.741   3.911  1.00  0.00     0.062 A 
ATOM      7  C   UNL     1      -0.811  14.522   2.301  1.00  0.00     0.019 A 
ATOM      8  C   UNL     1      -1.092  15.157   1.091  1.00  0.00     0.094 A 
ATOM      9  C   UNL     1      -0.031  15.627   0.310  1.00  0.00     0.336 A 
ATOM     10  O   UNL     1      -0.264  16.203  -0.785  1.00  0.00    -0.246 OA
ATOM     11  O   UNL     1       1.226  15.470   0.718  1.00  0.00    -0.423 OA
ENDROOT
BRANCH   1  12
ATOM     12  O   UNL     1       2.587  12.981   5.487  1.00  0.00    -0.493 OA
ATOM     13  C   UNL     1       2.139  13.377   6.780  1.00  0.00     0.278 C 
ENDBRANCH   1  12
BRANCH   2  14
ATOM     14  O   UNL     1       4.548  13.971   3.819  1.00  0.00    -0.504 OA
ATOM     15  H   UNL     1       5.202  14.739   3.732  1.00  0.00     0.293 HD
ENDBRANCH   2  14
TORSDOF 2
ENDMDL
MODEL 7
REMARK VINA RESULT:    -5.204      1.329      2.310
REMARK INTER + INTRA:          -5.723
REMARK INTER:                  -5.658
REMARK INTRA:                  -0.064
REMARK UNBOUND:                -0.062
REMARK SMILES COc1cc2ccc(=O)oc2cc1O
REMARK SMILES IDX 3 1 13 2 12 3 11 4 5 5 4 6 6 7 7 8 8 9 9 10 10 11 2 12 1 13
REMARK SMILES IDX 14 14
REMARK H PARENT 14 15
REMARK Flexibility Score: inf
ROOT
ATOM      1  C   UNL     1       3.053  13.990   3.662  1.00  0.00     0.161 A 
ATOM      2  C   UNL     1       1.997  14.334   2.803  1.00  0.00     0.161 A 
ATOM      3  C   UNL     1       0.667  14.122   3.197  1.00  0.00     0.098 A 
ATOM      4  C   UNL     1       0.381  13.566   4.445  1.00  0.00     0.142 A 
ATOM      5  C   UNL     1       1.436  13.218   5.315  1.00  0.00     0.022 A 
ATOM      6  C   UNL     1       2.766  13.429   4.923  1.00  0.00     0.062 A 
ATOM      7  C   UNL     1       1.119  12.662   6.559  1.00  0.00     0.019 A 
ATOM      8  C   UNL     1      -0.220  12.472   6.902  1.00  0.00     0.094 A 
ATOM      9  C   UNL     1      -1.213  12.841   5.988  1.00  0.00     0.336 A 
ATOM     10  O   UNL     1      -2.427  12.678   6.279  1.00  0.00    -0.246 OA
ATOM     11  O   UNL     1      -0.882  13.367   4.811  1.00  0.00    -0.423 OA
ENDROOT
BRANCH   1  12
ATOM     12  O   UNL     1       4.368  14.220   3.228  1.00  0.00    -0.493 OA
ATOM     13  C   UNL     1       5.161  15.337   3.619  1.00  0.00     0.278 C 
ENDBRANCH   1  12
BRANCH   2  14
ATOM     14  O   UNL     1       2.278  14.890   1.557  1.00  0.00    -0.504 OA
ATOM     15  H   UNL     1       2.900  14.434   0.901  1.00  0.00     0.293 HD
ENDBRANCH   2  14
TORSDOF 2
ENDMDL
MODEL 8
REMARK VINA RESULT:    -5.162      1.740      4.983
REMARK INTER + INTRA:          -5.677
REMARK INTER:                  -5.632
REMARK INTRA:                  -0.045
REMARK UNBOUND:                -0.062
REMARK SMILES COc1cc2ccc(=O)oc2cc1O
REMARK SMILES IDX 3 1 13 2 12 3 11 4 5 5 4 6 6 7 7 8 8 9 9 10 10 11 2 12 1 13
REMARK SMILES IDX 14 14
REMARK H PARENT 14 15
REMARK Flexibility Score: inf
ROOT
ATOM      1  C   UNL     1      -1.751  13.707   5.626  1.00  0.00     0.161 A 
ATOM      2  C   UNL     1      -1.356  12.463   6.145  1.00  0.00     0.161 A 
ATOM      3  C   UNL     1      -0.165  11.861   5.711  1.00  0.00     0.098 A 
ATOM      4  C   UNL     1       0.639  12.493   4.760  1.00  0.00     0.142 A 
ATOM      5  C   UNL     1       0.249  13.743   4.234  1.00  0.00     0.022 A 
ATOM      6  C   UNL     1      -0.940  14.346   4.666  1.00  0.00     0.062 A 
ATOM      7  C   UNL     1       1.074  14.352   3.282  1.00  0.00     0.019 A 
ATOM      8  C   UNL     1       2.248  13.711   2.884  1.00  0.00     0.094 A 
ATOM      9  C   UNL     1       2.570  12.472   3.449  1.00  0.00     0.336 A 
ATOM     10  O   UNL     1       3.625  11.879   3.104  1.00  0.00    -0.246 OA
ATOM     11  O   UNL     1       1.766  11.916   4.353  1.00  0.00    -0.423 OA
ENDROOT
BRANCH   1  12
ATOM     12  O   UNL     1      -2.949  14.272   6.089  1.00  0.00    -0.493 OA
ATOM     13  C   UNL     1      -3.464  15.530   5.663  1.00  0.00     0.278 C 
ENDBRANCH   1  12
BRANCH   2  14
ATOM     14  O   UNL     1      -2.155  11.830   7.095  1.00  0.00    -0.504 OA
ATOM     15  H   UNL     1      -2.930  12.306   7.539  1.00  0.00     0.293 HD
ENDBRANCH   2  14
TORSDOF 2
ENDMDL
MODEL 9
REMARK VINA RESULT:    -5.094      1.488      4.894
REMARK INTER + INTRA:          -5.603
REMARK INTER:                  -5.540
REMARK INTRA:                  -0.063
REMARK UNBOUND:                -0.062
REMARK SMILES COc1cc2ccc(=O)oc2cc1O
REMARK SMILES IDX 3 1 13 2 12 3 11 4 5 5 4 6 6 7 7 8 8 9 9 10 10 11 2 12 1 13
REMARK SMILES IDX 14 14
REMARK H PARENT 14 15
REMARK Flexibility Score: inf
ROOT
ATOM      1  C   UNL     1       0.190  13.373   5.343  1.00  0.00     0.161 A 
ATOM      2  C   UNL     1       1.592  13.439   5.382  1.00  0.00     0.161 A 
ATOM      3  C   UNL     1       2.312  13.866   4.256  1.00  0.00     0.098 A 
ATOM      4  C   UNL     1       1.641  14.229   3.087  1.00  0.00     0.142 A 
ATOM      5  C   UNL     1       0.232  14.166   3.039  1.00  0.00     0.022 A 
ATOM      6  C   UNL     1      -0.489  13.739   4.163  1.00  0.00     0.062 A 
ATOM      7  C   UNL     1      -0.412  14.535   1.853  1.00  0.00     0.019 A 
ATOM      8  C   UNL     1       0.350  14.953   0.762  1.00  0.00     0.094 A 
ATOM      9  C   UNL     1       1.744  14.990   0.882  1.00  0.00     0.336 A 
ATOM     10  O   UNL     1       2.449  15.364  -0.091  1.00  0.00    -0.246 OA
ATOM     11  O   UNL     1       2.330  14.632   2.023  1.00  0.00    -0.423 OA
ENDROOT
BRANCH   1  12
ATOM     12  O   UNL     1      -0.489  12.941   6.493  1.00  0.00    -0.493 OA
ATOM     13  C   UNL     1      -1.234  11.731   6.582  1.00  0.00     0.278 C 
ENDBRANCH   1  12
BRANCH   2  14
ATOM     14  O   UNL     1       2.265  13.079   6.548  1.00  0.00    -0.504 OA
ATOM     15  H   UNL     1       1.844  13.194   7.461  1.00  0.00     0.293 HD
ENDBRANCH   2  14
TORSDOF 2
ENDMDL
