MODEL 1
REMARK VINA RESULT:    -5.706      0.000      0.000
REMARK INTER + INTRA:          -5.706
REMARK INTER:                  -5.706
REMARK INTRA:                   0.000
REMARK UNBOUND:                 0.000
REMARK SMILES C[C@@H]1CCC=C2CC[C@@H]3[C@H](C3(C)C)[C@]21C
REMARK SMILES IDX 1 1 2 2 3 3 4 4 5 5 6 6 14 7 10 8 9 9 11 10 12 11 13 12 8 13
REMARK SMILES IDX 7 14 15 15
REMARK H PARENT
REMARK Flexibility Score: inf
ROOT
ATOM      1  C   UNL     1       7.031  19.731  27.101  1.00  0.00     0.008 C 
ATOM      2  C   UNL     1       8.312  19.242  26.405  1.00  0.00    -0.004 C 
ATOM      3  C   UNL     1       9.539  19.516  27.293  1.00  0.00     0.008 C 
ATOM      4  C   UNL     1      10.813  18.933  26.679  1.00  0.00     0.027 C 
ATOM      5  C   UNL     1      10.912  19.100  25.184  1.00  0.00    -0.027 C 
ATOM      6  C   UNL     1       9.854  19.345  24.381  1.00  0.00    -0.068 C 
ATOM      7  C   UNL     1       8.498  19.821  24.956  1.00  0.00    -0.005 C 
ATOM      8  C   UNL     1       7.411  19.161  24.051  1.00  0.00     0.009 C 
ATOM      9  C   UNL     1       7.655  19.728  22.610  1.00  0.00    -0.000 C 
ATOM     10  C   UNL     1       6.250  19.501  23.124  1.00  0.00    -0.028 C 
ATOM     11  C   UNL     1       5.421  20.734  23.505  1.00  0.00     0.012 C 
ATOM     12  C   UNL     1       5.497  18.318  22.504  1.00  0.00     0.012 C 
ATOM     13  C   UNL     1       8.770  18.833  22.087  1.00  0.00     0.009 C 
ATOM     14  C   UNL     1      10.059  19.209  22.861  1.00  0.00     0.031 C 
ATOM     15  C   UNL     1       8.471  21.378  24.983  1.00  0.00     0.017 C 
ENDROOT
TORSDOF 0
ENDMDL
MODEL 2
REMARK VINA RESULT:    -5.277      1.184      4.910
REMARK INTER + INTRA:          -5.277
REMARK INTER:                  -5.277
REMARK INTRA:                   0.000
REMARK UNBOUND:                 0.000
REMARK SMILES C[C@@H]1CCC=C2CC[C@@H]3[C@H](C3(C)C)[C@]21C
REMARK SMILES IDX 1 1 2 2 3 3 4 4 5 5 6 6 14 7 10 8 9 9 11 10 12 11 13 12 8 13
REMARK SMILES IDX 7 14 15 15
REMARK H PARENT
REMARK Flexibility Score: inf
ROOT
ATOM      1  C   UNL     1      11.277  19.763  22.785  1.00  0.00     0.008 C 
ATOM      2  C   UNL     1       9.907  19.196  23.195  1.00  0.00    -0.004 C 
ATOM      3  C   UNL     1       8.931  19.250  22.007  1.00  0.00     0.008 C 
ATOM      4  C   UNL     1       7.597  18.583  22.350  1.00  0.00     0.027 C 
ATOM      5  C   UNL     1       7.104  18.869  23.746  1.00  0.00    -0.027 C 
ATOM      6  C   UNL     1       7.895  19.303  24.751  1.00  0.00    -0.068 C 
ATOM      7  C   UNL     1       9.307  19.876  24.478  1.00  0.00    -0.005 C 
ATOM      8  C   UNL     1      10.178  19.425  25.691  1.00  0.00     0.009 C 
ATOM      9  C   UNL     1       9.524  20.086  26.954  1.00  0.00    -0.000 C 
ATOM     10  C   UNL     1      11.028  19.975  26.831  1.00  0.00    -0.028 C 
ATOM     11  C   UNL     1      11.816  21.255  26.528  1.00  0.00     0.012 C 
ATOM     12  C   UNL     1      11.697  18.944  27.748  1.00  0.00     0.012 C 
ATOM     13  C   UNL     1       8.394  19.121  27.285  1.00  0.00     0.009 C 
ATOM     14  C   UNL     1       7.320  19.279  26.179  1.00  0.00     0.031 C 
ATOM     15  C   UNL     1       9.204  21.417  24.280  1.00  0.00     0.017 C 
ENDROOT
TORSDOF 0
ENDMDL
MODEL 3
REMARK VINA RESULT:    -5.226      1.293      4.978
REMARK INTER + INTRA:          -5.226
REMARK INTER:                  -5.226
REMARK INTRA:                   0.000
REMARK UNBOUND:                 0.000
REMARK SMILES C[C@@H]1CCC=C2CC[C@@H]3[C@H](C3(C)C)[C@]21C
REMARK SMILES IDX 1 1 2 2 3 3 4 4 5 5 6 6 14 7 10 8 9 9 11 10 12 11 13 12 8 13
REMARK SMILES IDX 7 14 15 15
REMARK H PARENT
REMARK Flexibility Score: inf
ROOT
ATOM      1  C   UNL     1       7.756  18.116  22.468  1.00  0.00     0.008 C 
ATOM      2  C   UNL     1       6.592  18.953  23.025  1.00  0.00    -0.004 C 
ATOM      3  C   UNL     1       5.683  19.432  21.879  1.00  0.00     0.008 C 
ATOM      4  C   UNL     1       4.452  20.166  22.413  1.00  0.00     0.027 C 
ATOM      5  C   UNL     1       4.733  21.074  23.584  1.00  0.00    -0.027 C 
ATOM      6  C   UNL     1       5.826  20.974  24.371  1.00  0.00    -0.068 C 
ATOM      7  C   UNL     1       7.059  20.144  23.939  1.00  0.00    -0.005 C 
ATOM      8  C   UNL     1       7.621  19.522  25.255  1.00  0.00     0.009 C 
ATOM      9  C   UNL     1       8.034  20.738  26.156  1.00  0.00    -0.000 C 
ATOM     10  C   UNL     1       8.872  19.479  26.124  1.00  0.00    -0.028 C 
ATOM     11  C   UNL     1      10.213  19.532  25.380  1.00  0.00     0.012 C 
ATOM     12  C   UNL     1       8.806  18.602  27.380  1.00  0.00     0.012 C 
ATOM     13  C   UNL     1       6.713  21.138  26.797  1.00  0.00     0.009 C 
ATOM     14  C   UNL     1       5.840  21.775  25.686  1.00  0.00     0.031 C 
ATOM     15  C   UNL     1       8.052  21.064  23.170  1.00  0.00     0.017 C 
ENDROOT
TORSDOF 0
ENDMDL
MODEL 4
REMARK VINA RESULT:    -5.100      1.957      2.996
REMARK INTER + INTRA:          -5.100
REMARK INTER:                  -5.100
REMARK INTRA:                   0.000
REMARK UNBOUND:                 0.000
REMARK SMILES C[C@@H]1CCC=C2CC[C@@H]3[C@H](C3(C)C)[C@]21C
REMARK SMILES IDX 1 1 2 2 3 3 4 4 5 5 6 6 14 7 10 8 9 9 11 10 12 11 13 12 8 13
REMARK SMILES IDX 7 14 15 15
REMARK H PARENT
REMARK Flexibility Score: inf
ROOT
ATOM      1  C   UNL     1       5.160  22.794  25.272  1.00  0.00     0.008 C 
ATOM      2  C   UNL     1       5.825  21.413  25.399  1.00  0.00    -0.004 C 
ATOM      3  C   UNL     1       6.943  21.455  26.456  1.00  0.00     0.008 C 
ATOM      4  C   UNL     1       7.542  20.067  26.689  1.00  0.00     0.027 C 
ATOM      5  C   UNL     1       7.720  19.251  25.434  1.00  0.00    -0.027 C 
ATOM      6  C   UNL     1       7.065  19.493  24.278  1.00  0.00    -0.068 C 
ATOM      7  C   UNL     1       6.335  20.835  24.030  1.00  0.00    -0.005 C 
ATOM      8  C   UNL     1       5.074  20.469  23.185  1.00  0.00     0.009 C 
ATOM      9  C   UNL     1       5.622  19.857  21.849  1.00  0.00    -0.000 C 
ATOM     10  C   UNL     1       4.402  20.752  21.847  1.00  0.00    -0.028 C 
ATOM     11  C   UNL     1       4.561  22.176  21.299  1.00  0.00     0.012 C 
ATOM     12  C   UNL     1       3.062  20.052  21.590  1.00  0.00     0.012 C 
ATOM     13  C   UNL     1       5.898  18.411  22.237  1.00  0.00     0.009 C 
ATOM     14  C   UNL     1       7.129  18.418  23.177  1.00  0.00     0.031 C 
ATOM     15  C   UNL     1       7.316  21.833  23.348  1.00  0.00     0.017 C 
ENDROOT
TORSDOF 0
ENDMDL
MODEL 5
REMARK VINA RESULT:    -5.062     12.705     14.682
REMARK INTER + INTRA:          -5.062
REMARK INTER:                  -5.062
REMARK INTRA:                   0.000
REMARK UNBOUND:                 0.000
REMARK SMILES C[C@@H]1CCC=C2CC[C@@H]3[C@H](C3(C)C)[C@]21C
REMARK SMILES IDX 1 1 2 2 3 3 4 4 5 5 6 6 14 7 10 8 9 9 11 10 12 11 13 12 8 13
REMARK SMILES IDX 7 14 15 15
REMARK H PARENT
REMARK Flexibility Score: inf
ROOT
ATOM      1  C   UNL     1      15.220  17.808  37.253  1.00  0.00     0.008 C 
ATOM      2  C   UNL     1      14.878  16.311  37.353  1.00  0.00    -0.004 C 
ATOM      3  C   UNL     1      15.807  15.491  36.440  1.00  0.00     0.008 C 
ATOM      4  C   UNL     1      15.569  13.989  36.609  1.00  0.00     0.027 C 
ATOM      5  C   UNL     1      14.119  13.604  36.752  1.00  0.00    -0.027 C 
ATOM      6  C   UNL     1      13.143  14.464  37.116  1.00  0.00    -0.068 C 
ATOM      7  C   UNL     1      13.363  15.996  37.083  1.00  0.00    -0.005 C 
ATOM      8  C   UNL     1      12.551  16.556  38.293  1.00  0.00     0.009 C 
ATOM      9  C   UNL     1      11.054  16.184  38.009  1.00  0.00    -0.000 C 
ATOM     10  C   UNL     1      11.416  17.512  38.638  1.00  0.00    -0.028 C 
ATOM     11  C   UNL     1      11.304  18.769  37.767  1.00  0.00     0.012 C 
ATOM     12  C   UNL     1      11.072  17.661  40.125  1.00  0.00     0.012 C 
ATOM     13  C   UNL     1      10.973  14.745  38.499  1.00  0.00     0.009 C 
ATOM     14  C   UNL     1      11.772  13.875  37.496  1.00  0.00     0.031 C 
ATOM     15  C   UNL     1      12.931  16.545  35.691  1.00  0.00     0.017 C 
ENDROOT
TORSDOF 0
ENDMDL
MODEL 6
REMARK VINA RESULT:    -5.013     13.065     15.192
REMARK INTER + INTRA:          -5.013
REMARK INTER:                  -5.013
REMARK INTRA:                   0.000
REMARK UNBOUND:                 0.000
REMARK SMILES C[C@@H]1CCC=C2CC[C@@H]3[C@H](C3(C)C)[C@]21C
REMARK SMILES IDX 1 1 2 2 3 3 4 4 5 5 6 6 14 7 10 8 9 9 11 10 12 11 13 12 8 13
REMARK SMILES IDX 7 14 15 15
REMARK H PARENT
REMARK Flexibility Score: inf
ROOT
ATOM      1  C   UNL     1      12.294  13.536  36.839  1.00  0.00     0.008 C 
ATOM      2  C   UNL     1      12.433  14.612  37.930  1.00  0.00    -0.004 C 
ATOM      3  C   UNL     1      11.046  15.018  38.458  1.00  0.00     0.008 C 
ATOM      4  C   UNL     1      11.160  15.999  39.626  1.00  0.00     0.027 C 
ATOM      5  C   UNL     1      12.238  17.040  39.457  1.00  0.00    -0.027 C 
ATOM      6  C   UNL     1      13.278  16.916  38.605  1.00  0.00    -0.068 C 
ATOM      7  C   UNL     1      13.275  15.858  37.475  1.00  0.00    -0.005 C 
ATOM      8  C   UNL     1      14.758  15.391  37.343  1.00  0.00     0.009 C 
ATOM      9  C   UNL     1      15.571  16.668  36.932  1.00  0.00    -0.000 C 
ATOM     10  C   UNL     1      15.909  15.315  36.346  1.00  0.00    -0.028 C 
ATOM     11  C   UNL     1      15.521  15.051  34.886  1.00  0.00     0.012 C 
ATOM     12  C   UNL     1      17.210  14.678  36.849  1.00  0.00     0.012 C 
ATOM     13  C   UNL     1      15.807  17.354  38.271  1.00  0.00     0.009 C 
ATOM     14  C   UNL     1      14.442  17.914  38.744  1.00  0.00     0.031 C 
ATOM     15  C   UNL     1      12.667  16.487  36.187  1.00  0.00     0.017 C 
ENDROOT
TORSDOF 0
ENDMDL
MODEL 7
REMARK VINA RESULT:    -4.997     13.375     14.942
REMARK INTER + INTRA:          -4.997
REMARK INTER:                  -4.997
REMARK INTRA:                   0.000
REMARK UNBOUND:                 0.000
REMARK SMILES C[C@@H]1CCC=C2CC[C@@H]3[C@H](C3(C)C)[C@]21C
REMARK SMILES IDX 1 1 2 2 3 3 4 4 5 5 6 6 14 7 10 8 9 9 11 10 12 11 13 12 8 13
REMARK SMILES IDX 7 14 15 15
REMARK H PARENT
REMARK Flexibility Score: inf
ROOT
ATOM      1  C   UNL     1      13.177  18.615  39.483  1.00  0.00     0.008 C 
ATOM      2  C   UNL     1      14.126  17.560  38.891  1.00  0.00    -0.004 C 
ATOM      3  C   UNL     1      15.389  18.236  38.327  1.00  0.00     0.008 C 
ATOM      4  C   UNL     1      16.404  17.201  37.839  1.00  0.00     0.027 C 
ATOM      5  C   UNL     1      15.792  16.025  37.120  1.00  0.00    -0.027 C 
ATOM      6  C   UNL     1      14.495  15.665  37.231  1.00  0.00    -0.068 C 
ATOM      7  C   UNL     1      13.439  16.625  37.831  1.00  0.00    -0.005 C 
ATOM      8  C   UNL     1      12.438  15.709  38.602  1.00  0.00     0.009 C 
ATOM      9  C   UNL     1      11.808  14.763  37.521  1.00  0.00    -0.000 C 
ATOM     10  C   UNL     1      10.968  15.312  38.653  1.00  0.00    -0.028 C 
ATOM     11  C   UNL     1       9.959  16.419  38.323  1.00  0.00     0.012 C 
ATOM     12  C   UNL     1      10.566  14.302  39.735  1.00  0.00     0.012 C 
ATOM     13  C   UNL     1      12.856  13.668  37.388  1.00  0.00     0.009 C 
ATOM     14  C   UNL     1      14.081  14.291  36.672  1.00  0.00     0.031 C 
ATOM     15  C   UNL     1      12.807  17.470  36.686  1.00  0.00     0.017 C 
ENDROOT
TORSDOF 0
ENDMDL
MODEL 8
REMARK VINA RESULT:    -4.875      1.724      2.630
REMARK INTER + INTRA:          -4.875
REMARK INTER:                  -4.875
REMARK INTRA:                   0.000
REMARK UNBOUND:                 0.000
REMARK SMILES C[C@@H]1CCC=C2CC[C@@H]3[C@H](C3(C)C)[C@]21C
REMARK SMILES IDX 1 1 2 2 3 3 4 4 5 5 6 6 14 7 10 8 9 9 11 10 12 11 13 12 8 13
REMARK SMILES IDX 7 14 15 15
REMARK H PARENT
REMARK Flexibility Score: inf
ROOT
ATOM      1  C   UNL     1       9.875  18.566  27.278  1.00  0.00     0.008 C 
ATOM      2  C   UNL     1      11.102  19.070  26.499  1.00  0.00    -0.004 C 
ATOM      3  C   UNL     1      12.184  19.568  27.474  1.00  0.00     0.008 C 
ATOM      4  C   UNL     1      13.462  19.964  26.732  1.00  0.00     0.027 C 
ATOM      5  C   UNL     1      13.224  20.690  25.433  1.00  0.00    -0.027 C 
ATOM      6  C   UNL     1      12.058  20.654  24.751  1.00  0.00    -0.068 C 
ATOM      7  C   UNL     1      10.753  20.148  25.410  1.00  0.00    -0.005 C 
ATOM      8  C   UNL     1       9.970  19.419  24.273  1.00  0.00     0.009 C 
ATOM      9  C   UNL     1       9.680  20.514  23.188  1.00  0.00    -0.000 C 
ATOM     10  C   UNL     1       8.651  19.452  23.511  1.00  0.00    -0.028 C 
ATOM     11  C   UNL     1       7.416  19.874  24.317  1.00  0.00     0.012 C 
ATOM     12  C   UNL     1       8.450  18.373  22.440  1.00  0.00     0.012 C 
ATOM     13  C   UNL     1      10.981  20.552  22.400  1.00  0.00     0.009 C 
ATOM     14  C   UNL     1      12.050  21.203  23.313  1.00  0.00     0.031 C 
ATOM     15  C   UNL     1      10.004  21.351  26.055  1.00  0.00     0.017 C 
ENDROOT
TORSDOF 0
ENDMDL
MODEL 9
REMARK VINA RESULT:    -4.867     13.130     14.644
REMARK INTER + INTRA:          -4.867
REMARK INTER:                  -4.867
REMARK INTRA:                   0.000
REMARK UNBOUND:                 0.000
REMARK SMILES C[C@@H]1CCC=C2CC[C@@H]3[C@H](C3(C)C)[C@]21C
REMARK SMILES IDX 1 1 2 2 3 3 4 4 5 5 6 6 14 7 10 8 9 9 11 10 12 11 13 12 8 13
REMARK SMILES IDX 7 14 15 15
REMARK H PARENT
REMARK Flexibility Score: inf
ROOT
ATOM      1  C   UNL     1      11.371  19.240  37.717  1.00  0.00     0.008 C 
ATOM      2  C   UNL     1      10.780  17.821  37.745  1.00  0.00    -0.004 C 
ATOM      3  C   UNL     1       9.512  17.788  38.618  1.00  0.00     0.008 C 
ATOM      4  C   UNL     1       8.837  16.417  38.568  1.00  0.00     0.027 C 
ATOM      5  C   UNL     1       9.796  15.253  38.586  1.00  0.00    -0.027 C 
ATOM      6  C   UNL     1      11.103  15.349  38.262  1.00  0.00    -0.068 C 
ATOM      7  C   UNL     1      11.816  16.720  38.176  1.00  0.00    -0.005 C 
ATOM      8  C   UNL     1      12.849  16.578  37.015  1.00  0.00     0.009 C 
ATOM      9  C   UNL     1      13.836  15.443  37.461  1.00  0.00    -0.000 C 
ATOM     10  C   UNL     1      14.341  16.660  36.718  1.00  0.00    -0.028 C 
ATOM     11  C   UNL     1      15.131  17.707  37.514  1.00  0.00     0.012 C 
ATOM     12  C   UNL     1      14.766  16.424  35.263  1.00  0.00     0.012 C 
ATOM     13  C   UNL     1      13.083  14.178  37.074  1.00  0.00     0.009 C 
ATOM     14  C   UNL     1      11.888  14.041  38.051  1.00  0.00     0.031 C 
ATOM     15  C   UNL     1      12.432  17.064  39.564  1.00  0.00     0.017 C 
ENDROOT
TORSDOF 0
ENDMDL
