MODEL 1
REMARK VINA RESULT:    -4.269      0.000      0.000
REMARK INTER + INTRA:          -5.478
REMARK INTER:                  -5.267
REMARK INTRA:                  -0.211
REMARK UNBOUND:                -0.211
REMARK SMILES C=CC[C@H](C)C(=O)CC
REMARK SMILES IDX 4 1 5 2 6 3 7 4 8 5 9 6 3 7 2 8 1 9
REMARK H PARENT
REMARK Flexibility Score: inf
ROOT
ATOM      1  C   UNL     1      -3.495  28.948 -23.222  1.00  0.00     0.057 C 
ATOM      2  C   UNL     1      -2.277  29.843 -22.954  1.00  0.00     0.016 C 
ENDROOT
BRANCH   1   3
ATOM      3  C   UNL     1      -4.318  29.527 -24.352  1.00  0.00     0.135 C 
ATOM      4  O   UNL     1      -3.782  29.785 -25.421  1.00  0.00    -0.299 OA
BRANCH   3   5
ATOM      5  C   UNL     1      -5.789  29.803 -24.185  1.00  0.00     0.072 C 
ATOM      6  C   UNL     1      -6.273  30.808 -25.225  1.00  0.00     0.012 C 
ENDBRANCH   3   5
ENDBRANCH   1   3
BRANCH   1   7
ATOM      7  C   UNL     1      -4.369  28.781 -21.964  1.00  0.00     0.038 C 
BRANCH   7   8
ATOM      8  C   UNL     1      -3.541  28.807 -20.706  1.00  0.00    -0.034 C 
ATOM      9  C   UNL     1      -3.886  28.111 -19.619  1.00  0.00     0.004 C 
ENDBRANCH   7   8
ENDBRANCH   1   7
TORSDOF 4
ENDMDL
MODEL 2
REMARK VINA RESULT:    -4.250      4.328      6.519
REMARK INTER + INTRA:          -5.454
REMARK INTER:                  -5.191
REMARK INTRA:                  -0.263
REMARK UNBOUND:                -0.211
REMARK SMILES C=CC[C@H](C)C(=O)CC
REMARK SMILES IDX 4 1 5 2 6 3 7 4 8 5 9 6 3 7 2 8 1 9
REMARK H PARENT
REMARK Flexibility Score: inf
ROOT
ATOM      1  C   UNL     1      -4.893  27.114 -17.056  1.00  0.00     0.057 C 
ATOM      2  C   UNL     1      -6.387  27.463 -17.092  1.00  0.00     0.016 C 
ENDROOT
BRANCH   1   3
ATOM      3  C   UNL     1      -4.437  26.672 -18.430  1.00  0.00     0.135 C 
ATOM      4  O   UNL     1      -4.928  25.674 -18.939  1.00  0.00    -0.299 OA
BRANCH   3   5
ATOM      5  C   UNL     1      -3.378  27.434 -19.183  1.00  0.00     0.072 C 
ATOM      6  C   UNL     1      -4.004  28.545 -20.020  1.00  0.00     0.012 C 
ENDBRANCH   3   5
ENDBRANCH   1   3
BRANCH   1   7
ATOM      7  C   UNL     1      -4.588  26.015 -16.019  1.00  0.00     0.038 C 
BRANCH   7   8
ATOM      8  C   UNL     1      -3.111  25.737 -15.924  1.00  0.00    -0.034 C 
ATOM      9  C   UNL     1      -2.404  26.036 -14.831  1.00  0.00     0.004 C 
ENDBRANCH   7   8
ENDBRANCH   1   7
TORSDOF 4
ENDMDL
MODEL 3
REMARK VINA RESULT:    -4.245      5.732      6.468
REMARK INTER + INTRA:          -5.448
REMARK INTER:                  -5.267
REMARK INTRA:                  -0.181
REMARK UNBOUND:                -0.211
REMARK SMILES C=CC[C@H](C)C(=O)CC
REMARK SMILES IDX 4 1 5 2 6 3 7 4 8 5 9 6 3 7 2 8 1 9
REMARK H PARENT
REMARK Flexibility Score: inf
ROOT
ATOM      1  C   UNL     1      -2.086  32.443 -28.278  1.00  0.00     0.057 C 
ATOM      2  C   UNL     1      -2.453  33.858 -28.747  1.00  0.00     0.016 C 
ENDROOT
BRANCH   1   3
ATOM      3  C   UNL     1      -3.341  31.613 -28.122  1.00  0.00     0.135 C 
ATOM      4  O   UNL     1      -3.449  30.850 -27.171  1.00  0.00    -0.299 OA
BRANCH   3   5
ATOM      5  C   UNL     1      -4.464  31.699 -29.123  1.00  0.00     0.072 C 
ATOM      6  C   UNL     1      -5.815  31.758 -28.416  1.00  0.00     0.012 C 
ENDBRANCH   3   5
ENDBRANCH   1   3
BRANCH   1   7
ATOM      7  C   UNL     1      -1.300  32.467 -26.953  1.00  0.00     0.038 C 
BRANCH   7   8
ATOM      8  C   UNL     1      -0.014  33.239 -27.085  1.00  0.00    -0.034 C 
ATOM      9  C   UNL     1       1.178  32.637 -27.059  1.00  0.00     0.004 C 
ENDBRANCH   7   8
ENDBRANCH   1   7
TORSDOF 4
ENDMDL
MODEL 4
REMARK VINA RESULT:    -4.231      1.821      3.391
REMARK INTER + INTRA:          -5.432
REMARK INTER:                  -5.238
REMARK INTRA:                  -0.194
REMARK UNBOUND:                -0.211
REMARK SMILES C=CC[C@H](C)C(=O)CC
REMARK SMILES IDX 4 1 5 2 6 3 7 4 8 5 9 6 3 7 2 8 1 9
REMARK H PARENT
REMARK Flexibility Score: inf
ROOT
ATOM      1  C   UNL     1      -5.626  30.557 -25.093  1.00  0.00     0.057 C 
ATOM      2  C   UNL     1      -7.022  30.939 -24.584  1.00  0.00     0.016 C 
ENDROOT
BRANCH   1   3
ATOM      3  C   UNL     1      -5.507  30.894 -26.564  1.00  0.00     0.135 C 
ATOM      4  O   UNL     1      -4.400  30.975 -27.079  1.00  0.00    -0.299 OA
BRANCH   3   5
ATOM      5  C   UNL     1      -6.729  31.143 -27.409  1.00  0.00     0.072 C 
ATOM      6  C   UNL     1      -6.765  32.588 -27.895  1.00  0.00     0.012 C 
ENDBRANCH   3   5
ENDBRANCH   1   3
BRANCH   1   7
ATOM      7  C   UNL     1      -5.324  29.063 -24.868  1.00  0.00     0.038 C 
BRANCH   7   8
ATOM      8  C   UNL     1      -5.519  28.669 -23.428  1.00  0.00    -0.034 C 
ATOM      9  C   UNL     1      -4.560  28.836 -22.513  1.00  0.00     0.004 C 
ENDBRANCH   7   8
ENDBRANCH   1   7
TORSDOF 4
ENDMDL
MODEL 5
REMARK VINA RESULT:    -4.195      1.873      5.418
REMARK INTER + INTRA:          -5.387
REMARK INTER:                  -5.233
REMARK INTRA:                  -0.154
REMARK UNBOUND:                -0.211
REMARK SMILES C=CC[C@H](C)C(=O)CC
REMARK SMILES IDX 4 1 5 2 6 3 7 4 8 5 9 6 3 7 2 8 1 9
REMARK H PARENT
REMARK Flexibility Score: inf
ROOT
ATOM      1  C   UNL     1      -6.067  30.353 -25.750  1.00  0.00     0.057 C 
ATOM      2  C   UNL     1      -6.973  31.341 -25.001  1.00  0.00     0.016 C 
ENDROOT
BRANCH   1   3
ATOM      3  C   UNL     1      -5.127  29.679 -24.774  1.00  0.00     0.135 C 
ATOM      4  O   UNL     1      -3.938  29.585 -25.046  1.00  0.00    -0.299 OA
BRANCH   3   5
ATOM      5  C   UNL     1      -5.629  29.110 -23.473  1.00  0.00     0.072 C 
ATOM      6  C   UNL     1      -4.466  28.797 -22.536  1.00  0.00     0.012 C 
ENDBRANCH   3   5
ENDBRANCH   1   3
BRANCH   1   7
ATOM      7  C   UNL     1      -5.262  31.050 -26.864  1.00  0.00     0.038 C 
BRANCH   7   8
ATOM      8  C   UNL     1      -6.166  31.707 -27.874  1.00  0.00    -0.034 C 
ATOM      9  C   UNL     1      -5.690  32.499 -28.838  1.00  0.00     0.004 C 
ENDBRANCH   7   8
ENDBRANCH   1   7
TORSDOF 4
ENDMDL
MODEL 6
REMARK VINA RESULT:    -4.099      4.930      7.835
REMARK INTER + INTRA:          -5.268
REMARK INTER:                  -5.025
REMARK INTRA:                  -0.243
REMARK UNBOUND:                -0.211
REMARK SMILES C=CC[C@H](C)C(=O)CC
REMARK SMILES IDX 4 1 5 2 6 3 7 4 8 5 9 6 3 7 2 8 1 9
REMARK H PARENT
REMARK Flexibility Score: inf
ROOT
ATOM      1  C   UNL     1      -5.115  26.439 -17.478  1.00  0.00     0.057 C 
ATOM      2  C   UNL     1      -6.084  27.592 -17.178  1.00  0.00     0.016 C 
ENDROOT
BRANCH   1   3
ATOM      3  C   UNL     1      -4.434  25.997 -16.200  1.00  0.00     0.135 C 
ATOM      4  O   UNL     1      -5.106  25.761 -15.206  1.00  0.00    -0.299 OA
BRANCH   3   5
ATOM      5  C   UNL     1      -2.936  25.851 -16.125  1.00  0.00     0.072 C 
ATOM      6  C   UNL     1      -2.442  26.082 -14.700  1.00  0.00     0.012 C 
ENDBRANCH   3   5
ENDBRANCH   1   3
BRANCH   1   7
ATOM      7  C   UNL     1      -4.060  26.838 -18.528  1.00  0.00     0.038 C 
BRANCH   7   8
ATOM      8  C   UNL     1      -4.326  28.211 -19.088  1.00  0.00    -0.034 C 
ATOM      9  C   UNL     1      -3.906  28.572 -20.303  1.00  0.00     0.004 C 
ENDBRANCH   7   8
ENDBRANCH   1   7
TORSDOF 4
ENDMDL
MODEL 7
REMARK VINA RESULT:    -4.097     13.531     14.272
REMARK INTER + INTRA:          -5.266
REMARK INTER:                  -5.011
REMARK INTRA:                  -0.256
REMARK UNBOUND:                -0.211
REMARK SMILES C=CC[C@H](C)C(=O)CC
REMARK SMILES IDX 4 1 5 2 6 3 7 4 8 5 9 6 3 7 2 8 1 9
REMARK H PARENT
REMARK Flexibility Score: inf
ROOT
ATOM      1  C   UNL     1       2.414  32.116 -10.409  1.00  0.00     0.057 C 
ATOM      2  C   UNL     1       2.358  32.092  -8.875  1.00  0.00     0.016 C 
ENDROOT
BRANCH   1   3
ATOM      3  C   UNL     1       1.264  32.936 -10.951  1.00  0.00     0.135 C 
ATOM      4  O   UNL     1       1.248  33.248 -12.134  1.00  0.00    -0.299 OA
BRANCH   3   5
ATOM      5  C   UNL     1       0.137  33.387 -10.059  1.00  0.00     0.072 C 
ATOM      6  C   UNL     1      -1.144  32.623 -10.378  1.00  0.00     0.012 C 
ENDBRANCH   3   5
ENDBRANCH   1   3
BRANCH   1   7
ATOM      7  C   UNL     1       2.377  30.695 -11.003  1.00  0.00     0.038 C 
BRANCH   7   8
ATOM      8  C   UNL     1       3.741  30.246 -11.454  1.00  0.00    -0.034 C 
ATOM      9  C   UNL     1       4.606  29.663 -10.619  1.00  0.00     0.004 C 
ENDBRANCH   7   8
ENDBRANCH   1   7
TORSDOF 4
ENDMDL
MODEL 8
REMARK VINA RESULT:    -4.045      1.406      2.685
REMARK INTER + INTRA:          -5.202
REMARK INTER:                  -5.002
REMARK INTRA:                  -0.200
REMARK UNBOUND:                -0.211
REMARK SMILES C=CC[C@H](C)C(=O)CC
REMARK SMILES IDX 4 1 5 2 6 3 7 4 8 5 9 6 3 7 2 8 1 9
REMARK H PARENT
REMARK Flexibility Score: inf
ROOT
ATOM      1  C   UNL     1      -4.357  29.151 -22.357  1.00  0.00     0.057 C 
ATOM      2  C   UNL     1      -5.592  28.804 -23.201  1.00  0.00     0.016 C 
ENDROOT
BRANCH   1   3
ATOM      3  C   UNL     1      -3.138  29.248 -23.249  1.00  0.00     0.135 C 
ATOM      4  O   UNL     1      -3.167  28.759 -24.370  1.00  0.00    -0.299 OA
BRANCH   3   5
ATOM      5  C   UNL     1      -1.880  29.930 -22.778  1.00  0.00     0.072 C 
ATOM      6  C   UNL     1      -1.503  31.075 -23.714  1.00  0.00     0.012 C 
ENDBRANCH   3   5
ENDBRANCH   1   3
BRANCH   1   7
ATOM      7  C   UNL     1      -4.116  28.112 -21.245  1.00  0.00     0.038 C 
BRANCH   7   8
ATOM      8  C   UNL     1      -3.889  28.772 -19.910  1.00  0.00    -0.034 C 
ATOM      9  C   UNL     1      -4.838  28.815 -18.972  1.00  0.00     0.004 C 
ENDBRANCH   7   8
ENDBRANCH   1   7
TORSDOF 4
ENDMDL
MODEL 9
REMARK VINA RESULT:    -3.970      6.243      6.805
REMARK INTER + INTRA:          -5.110
REMARK INTER:                  -4.877
REMARK INTRA:                  -0.233
REMARK UNBOUND:                -0.211
REMARK SMILES C=CC[C@H](C)C(=O)CC
REMARK SMILES IDX 4 1 5 2 6 3 7 4 8 5 9 6 3 7 2 8 1 9
REMARK H PARENT
REMARK Flexibility Score: inf
ROOT
ATOM      1  C   UNL     1       2.171  30.354 -24.756  1.00  0.00     0.057 C 
ATOM      2  C   UNL     1       3.588  30.637 -25.276  1.00  0.00     0.016 C 
ENDROOT
BRANCH   1   3
ATOM      3  C   UNL     1       1.209  31.386 -25.303  1.00  0.00     0.135 C 
ATOM      4  O   UNL     1       0.136  31.569 -24.745  1.00  0.00    -0.299 OA
BRANCH   3   5
ATOM      5  C   UNL     1       1.543  32.191 -26.532  1.00  0.00     0.072 C 
ATOM      6  C   UNL     1       0.317  32.950 -27.031  1.00  0.00     0.012 C 
ENDBRANCH   3   5
ENDBRANCH   1   3
BRANCH   1   7
ATOM      7  C   UNL     1       2.119  30.346 -23.216  1.00  0.00     0.038 C 
BRANCH   7   8
ATOM      8  C   UNL     1       2.952  31.453 -22.627  1.00  0.00    -0.034 C 
ATOM      9  C   UNL     1       3.673  31.282 -21.516  1.00  0.00     0.004 C 
ENDBRANCH   7   8
ENDBRANCH   1   7
TORSDOF 4
ENDMDL
