MODEL 1
REMARK VINA RESULT:    -5.774      0.000      0.000
REMARK INTER + INTRA:         -10.074
REMARK INTER:                  -7.969
REMARK INTRA:                  -2.105
REMARK UNBOUND:                -2.105
REMARK SMILES CC[C@H](CC[C@@H](C)[C@@H]1CC[C@H]2[C@@H]3CC=C4C[C@@H](O)CC[C@@]4(C)[C@H]3CC[C@@]21C)C(C)C
REMARK SMILES IDX 5 1 4 2 3 3 2 4 1 5 28 6 29 7 30 8 6 9 7 10 8 11 9 12 26 13
REMARK SMILES IDX 10 14 11 15 25 16 27 17 12 18 24 19 23 20 13 21 21 22 14 23
REMARK SMILES IDX 15 24 20 25 22 26 16 27 19 28 17 29 18 30
REMARK H PARENT 18 31
REMARK Flexibility Score: inf
ROOT
ATOM      1  C   UNL     1     135.575 129.801 136.495  1.00  0.00     0.004 C 
ENDROOT
BRANCH   1   2
ATOM      2  C   UNL     1     135.760 131.015 135.560  1.00  0.00     0.004 C 
BRANCH   2   3
ATOM      3  C   UNL     1     137.252 131.308 135.239  1.00  0.00    -0.009 C 
BRANCH   3   4
ATOM      4  C   UNL     1     137.512 132.835 135.091  1.00  0.00     0.000 C 
ATOM      5  C   UNL     1     136.329 133.749 135.416  1.00  0.00     0.004 C 
ENDBRANCH   3   4
BRANCH   3   6
ATOM      6  C   UNL     1     138.278 130.520 136.128  1.00  0.00    -0.014 C 
ATOM      7  C   UNL     1     139.015 129.425 135.343  1.00  0.00     0.007 C 
ATOM      8  C   UNL     1     139.284 131.391 136.905  1.00  0.00     0.007 C 
ENDBRANCH   3   6
ENDBRANCH   2   3
ENDBRANCH   1   2
BRANCH   1   9
ATOM      9  C   UNL     1     134.807 130.159 137.802  1.00  0.00    -0.011 C 
ATOM     10  C   UNL     1     133.546 129.266 137.916  1.00  0.00     0.008 C 
BRANCH   9  11
ATOM     11  C   UNL     1     135.783 130.102 139.037  1.00  0.00    -0.002 C 
ATOM     12  C   UNL     1     135.219 129.309 140.250  1.00  0.00     0.005 C 
ATOM     13  C   UNL     1     136.284 131.444 139.658  1.00  0.00    -0.026 C 
ATOM     14  C   UNL     1     135.061 130.304 141.414  1.00  0.00     0.005 C 
ATOM     15  C   UNL     1     135.268 131.675 140.784  1.00  0.00    -0.001 C 
ATOM     16  C   UNL     1     136.316 132.704 138.753  1.00  0.00     0.007 C 
ATOM     17  C   UNL     1     137.733 131.186 140.196  1.00  0.00     0.012 C 
ATOM     18  C   UNL     1     135.641 132.864 141.695  1.00  0.00     0.000 C 
ATOM     19  C   UNL     1     136.631 133.982 139.574  1.00  0.00     0.005 C 
ATOM     20  C   UNL     1     135.714 134.156 140.828  1.00  0.00     0.003 C 
ATOM     21  C   UNL     1     134.575 133.086 142.776  1.00  0.00     0.031 C 
ATOM     22  C   UNL     1     135.974 135.480 141.689  1.00  0.00    -0.008 C 
ATOM     23  C   UNL     1     135.005 134.208 143.662  1.00  0.00    -0.027 C 
ATOM     24  C   UNL     1     135.683 135.277 143.195  1.00  0.00    -0.065 C 
ATOM     25  C   UNL     1     137.452 135.958 141.581  1.00  0.00     0.014 C 
ATOM     26  C   UNL     1     135.026 136.574 141.131  1.00  0.00     0.016 C 
ATOM     27  C   UNL     1     136.364 136.141 144.243  1.00  0.00     0.063 C 
ATOM     28  C   UNL     1     137.787 137.235 142.381  1.00  0.00     0.033 C 
ATOM     29  C   UNL     1     136.973 137.434 143.683  1.00  0.00     0.118 C 
BRANCH  29  30
ATOM     30  O   UNL     1     137.756 138.070 144.661  1.00  0.00    -0.393 OA
ATOM     31  H   UNL     1     138.456 138.599 144.194  1.00  0.00     0.210 HD
ENDBRANCH  29  30
ENDBRANCH   9  11
ENDBRANCH   1   9
TORSDOF 7
ENDMDL
MODEL 2
REMARK VINA RESULT:    -5.577      7.185     11.118
REMARK INTER + INTRA:          -9.801
REMARK INTER:                  -8.097
REMARK INTRA:                  -1.705
REMARK UNBOUND:                -2.105
REMARK SMILES CC[C@H](CC[C@@H](C)[C@@H]1CC[C@H]2[C@@H]3CC=C4C[C@@H](O)CC[C@@]4(C)[C@H]3CC[C@@]21C)C(C)C
REMARK SMILES IDX 5 1 4 2 3 3 2 4 1 5 28 6 29 7 30 8 6 9 7 10 8 11 9 12 26 13
REMARK SMILES IDX 10 14 11 15 25 16 27 17 12 18 24 19 23 20 13 21 21 22 14 23
REMARK SMILES IDX 15 24 20 25 22 26 16 27 19 28 17 29 18 30
REMARK H PARENT 18 31
REMARK Flexibility Score: inf
ROOT
ATOM      1  C   UNL     1     132.809 130.341 142.471  1.00  0.00     0.004 C 
ENDROOT
BRANCH   1   2
ATOM      2  C   UNL     1     134.144 130.489 141.711  1.00  0.00     0.004 C 
BRANCH   2   3
ATOM      3  C   UNL     1     134.473 129.259 140.821  1.00  0.00    -0.009 C 
BRANCH   3   4
ATOM      4  C   UNL     1     133.810 129.380 139.418  1.00  0.00     0.000 C 
ATOM      5  C   UNL     1     133.847 128.121 138.550  1.00  0.00     0.004 C 
ENDBRANCH   3   4
BRANCH   3   6
ATOM      6  C   UNL     1     135.983 128.830 140.831  1.00  0.00    -0.014 C 
ATOM      7  C   UNL     1     136.898 129.893 140.206  1.00  0.00     0.007 C 
ATOM      8  C   UNL     1     136.535 128.386 142.200  1.00  0.00     0.007 C 
ENDBRANCH   3   6
ENDBRANCH   2   3
ENDBRANCH   1   2
BRANCH   1   9
ATOM      9  C   UNL     1     132.472 128.860 142.813  1.00  0.00    -0.011 C 
ATOM     10  C   UNL     1     132.995 128.531 144.233  1.00  0.00     0.008 C 
BRANCH   9  11
ATOM     11  C   UNL     1     130.938 128.586 142.584  1.00  0.00    -0.002 C 
ATOM     12  C   UNL     1     130.121 128.437 143.899  1.00  0.00     0.005 C 
ATOM     13  C   UNL     1     130.517 127.347 141.731  1.00  0.00    -0.026 C 
ATOM     14  C   UNL     1     129.572 127.000 143.937  1.00  0.00     0.005 C 
ATOM     15  C   UNL     1     130.296 126.278 142.809  1.00  0.00    -0.001 C 
ATOM     16  C   UNL     1     131.526 126.799 140.688  1.00  0.00     0.007 C 
ATOM     17  C   UNL     1     129.195 127.734 140.984  1.00  0.00     0.012 C 
ATOM     18  C   UNL     1     129.686 124.976 142.246  1.00  0.00     0.000 C 
ATOM     19  C   UNL     1     131.043 125.453 140.087  1.00  0.00     0.005 C 
ATOM     20  C   UNL     1     130.650 124.395 141.169  1.00  0.00     0.003 C 
ATOM     21  C   UNL     1     129.526 123.921 143.348  1.00  0.00     0.031 C 
ATOM     22  C   UNL     1     130.179 122.976 140.600  1.00  0.00    -0.008 C 
ATOM     23  C   UNL     1     128.884 122.703 142.768  1.00  0.00    -0.027 C 
ATOM     24  C   UNL     1     129.131 122.288 141.508  1.00  0.00    -0.065 C 
ATOM     25  C   UNL     1     129.530 123.104 139.190  1.00  0.00     0.014 C 
ATOM     26  C   UNL     1     131.444 122.081 140.517  1.00  0.00     0.016 C 
ATOM     27  C   UNL     1     128.152 121.276 140.939  1.00  0.00     0.063 C 
ATOM     28  C   UNL     1     129.052 121.776 138.567  1.00  0.00     0.033 C 
ATOM     29  C   UNL     1     128.569 120.706 139.576  1.00  0.00     0.118 C 
BRANCH  29  30
ATOM     30  O   UNL     1     127.526 119.943 139.025  1.00  0.00    -0.393 OA
ATOM     31  H   UNL     1     127.662 118.997 139.300  1.00  0.00     0.210 HD
ENDBRANCH  29  30
ENDBRANCH   9  11
ENDBRANCH   1   9
TORSDOF 7
ENDMDL
MODEL 3
REMARK VINA RESULT:    -5.489      3.323      8.289
REMARK INTER + INTRA:          -9.679
REMARK INTER:                  -7.740
REMARK INTRA:                  -1.939
REMARK UNBOUND:                -2.105
REMARK SMILES CC[C@H](CC[C@@H](C)[C@@H]1CC[C@H]2[C@@H]3CC=C4C[C@@H](O)CC[C@@]4(C)[C@H]3CC[C@@]21C)C(C)C
REMARK SMILES IDX 5 1 4 2 3 3 2 4 1 5 28 6 29 7 30 8 6 9 7 10 8 11 9 12 26 13
REMARK SMILES IDX 10 14 11 15 25 16 27 17 12 18 24 19 23 20 13 21 21 22 14 23
REMARK SMILES IDX 15 24 20 25 22 26 16 27 19 28 17 29 18 30
REMARK H PARENT 18 31
REMARK Flexibility Score: inf
ROOT
ATOM      1  C   UNL     1     139.034 134.906 142.180  1.00  0.00     0.004 C 
ENDROOT
BRANCH   1   2
ATOM      2  C   UNL     1     137.631 134.630 142.762  1.00  0.00     0.004 C 
BRANCH   2   3
ATOM      3  C   UNL     1     136.634 135.796 142.514  1.00  0.00    -0.009 C 
BRANCH   3   4
ATOM      4  C   UNL     1     137.343 137.179 142.608  1.00  0.00     0.000 C 
ATOM      5  C   UNL     1     137.125 137.954 143.908  1.00  0.00     0.004 C 
ENDBRANCH   3   4
BRANCH   3   6
ATOM      6  C   UNL     1     135.688 135.593 141.277  1.00  0.00    -0.014 C 
ATOM      7  C   UNL     1     134.901 134.276 141.352  1.00  0.00     0.007 C 
ATOM      8  C   UNL     1     134.739 136.767 140.972  1.00  0.00     0.007 C 
ENDBRANCH   3   6
ENDBRANCH   2   3
ENDBRANCH   1   2
BRANCH   1   9
ATOM      9  C   UNL     1     139.208 134.344 140.738  1.00  0.00    -0.011 C 
ATOM     10  C   UNL     1     140.686 134.501 140.303  1.00  0.00     0.008 C 
BRANCH   9  11
ATOM     11  C   UNL     1     138.637 132.879 140.655  1.00  0.00    -0.002 C 
ATOM     12  C   UNL     1     139.715 131.772 140.827  1.00  0.00     0.005 C 
ATOM     13  C   UNL     1     137.853 132.452 139.374  1.00  0.00    -0.026 C 
ATOM     14  C   UNL     1     139.779 130.984 139.506  1.00  0.00     0.005 C 
ATOM     15  C   UNL     1     138.956 131.808 138.524  1.00  0.00    -0.001 C 
ATOM     16  C   UNL     1     137.163 133.559 138.534  1.00  0.00     0.007 C 
ATOM     17  C   UNL     1     136.761 131.424 139.827  1.00  0.00     0.012 C 
ATOM     18  C   UNL     1     138.411 131.122 137.252  1.00  0.00     0.000 C 
ATOM     19  C   UNL     1     136.618 132.997 137.195  1.00  0.00     0.005 C 
ATOM     20  C   UNL     1     137.681 132.188 136.382  1.00  0.00     0.003 C 
ATOM     21  C   UNL     1     139.551 130.534 136.412  1.00  0.00     0.031 C 
ATOM     22  C   UNL     1     137.178 131.617 134.975  1.00  0.00    -0.008 C 
ATOM     23  C   UNL     1     138.972 129.837 135.224  1.00  0.00    -0.027 C 
ATOM     24  C   UNL     1     137.869 130.286 134.591  1.00  0.00    -0.065 C 
ATOM     25  C   UNL     1     135.646 131.339 134.978  1.00  0.00     0.014 C 
ATOM     26  C   UNL     1     137.515 132.691 133.906  1.00  0.00     0.016 C 
ATOM     27  C   UNL     1     137.193 129.300 133.654  1.00  0.00     0.063 C 
ATOM     28  C   UNL     1     135.078 130.789 133.652  1.00  0.00     0.033 C 
ATOM     29  C   UNL     1     136.051 129.909 132.829  1.00  0.00     0.118 C 
BRANCH  29  30
ATOM     30  O   UNL     1     135.347 128.901 132.148  1.00  0.00    -0.393 OA
ATOM     31  H   UNL     1     135.165 128.168 132.794  1.00  0.00     0.210 HD
ENDBRANCH  29  30
ENDBRANCH   9  11
ENDBRANCH   1   9
TORSDOF 7
ENDMDL
MODEL 4
REMARK VINA RESULT:    -5.478      3.373      7.610
REMARK INTER + INTRA:          -9.665
REMARK INTER:                  -8.208
REMARK INTRA:                  -1.457
REMARK UNBOUND:                -2.105
REMARK SMILES CC[C@H](CC[C@@H](C)[C@@H]1CC[C@H]2[C@@H]3CC=C4C[C@@H](O)CC[C@@]4(C)[C@H]3CC[C@@]21C)C(C)C
REMARK SMILES IDX 5 1 4 2 3 3 2 4 1 5 28 6 29 7 30 8 6 9 7 10 8 11 9 12 26 13
REMARK SMILES IDX 10 14 11 15 25 16 27 17 12 18 24 19 23 20 13 21 21 22 14 23
REMARK SMILES IDX 15 24 20 25 22 26 16 27 19 28 17 29 18 30
REMARK H PARENT 18 31
REMARK Flexibility Score: inf
ROOT
ATOM      1  C   UNL     1     138.837 137.505 142.495  1.00  0.00     0.004 C 
ENDROOT
BRANCH   1   2
ATOM      2  C   UNL     1     140.283 137.771 142.967  1.00  0.00     0.004 C 
BRANCH   2   3
ATOM      3  C   UNL     1     141.345 137.036 142.104  1.00  0.00    -0.009 C 
BRANCH   3   4
ATOM      4  C   UNL     1     142.565 137.954 141.800  1.00  0.00     0.000 C 
ATOM      5  C   UNL     1     143.122 137.877 140.378  1.00  0.00     0.004 C 
ENDBRANCH   3   4
BRANCH   3   6
ATOM      6  C   UNL     1     141.686 135.581 142.587  1.00  0.00    -0.014 C 
ATOM      7  C   UNL     1     141.505 135.409 144.102  1.00  0.00     0.007 C 
ATOM      8  C   UNL     1     140.968 134.448 141.830  1.00  0.00     0.007 C 
ENDBRANCH   3   6
ENDBRANCH   2   3
ENDBRANCH   1   2
BRANCH   1   9
ATOM      9  C   UNL     1     138.048 136.579 143.466  1.00  0.00    -0.011 C 
ATOM     10  C   UNL     1     138.168 137.129 144.909  1.00  0.00     0.008 C 
BRANCH   9  11
ATOM     11  C   UNL     1     136.575 136.378 142.945  1.00  0.00    -0.002 C 
ATOM     12  C   UNL     1     135.511 136.305 144.078  1.00  0.00     0.005 C 
ATOM     13  C   UNL     1     136.260 135.141 142.046  1.00  0.00    -0.026 C 
ATOM     14  C   UNL     1     134.886 134.899 144.030  1.00  0.00     0.005 C 
ATOM     15  C   UNL     1     135.776 134.112 143.076  1.00  0.00    -0.001 C 
ATOM     16  C   UNL     1     137.421 134.515 141.229  1.00  0.00     0.007 C 
ATOM     17  C   UNL     1     135.133 135.575 141.049  1.00  0.00     0.012 C 
ATOM     18  C   UNL     1     135.216 132.828 142.424  1.00  0.00     0.000 C 
ATOM     19  C   UNL     1     136.991 133.181 140.565  1.00  0.00     0.005 C 
ATOM     20  C   UNL     1     136.337 132.172 141.565  1.00  0.00     0.003 C 
ATOM     21  C   UNL     1     134.787 131.811 143.489  1.00  0.00     0.031 C 
ATOM     22  C   UNL     1     135.908 130.764 140.937  1.00  0.00    -0.008 C 
ATOM     23  C   UNL     1     134.204 130.614 142.814  1.00  0.00    -0.027 C 
ATOM     24  C   UNL     1     134.668 130.155 141.632  1.00  0.00    -0.065 C 
ATOM     25  C   UNL     1     135.554 130.890 139.426  1.00  0.00     0.014 C 
ATOM     26  C   UNL     1     137.114 129.804 141.116  1.00  0.00     0.016 C 
ATOM     27  C   UNL     1     133.764 129.179 140.898  1.00  0.00     0.063 C 
ATOM     28  C   UNL     1     135.134 129.572 138.741  1.00  0.00     0.033 C 
ATOM     29  C   UNL     1     134.406 128.554 139.652  1.00  0.00     0.118 C 
BRANCH  29  30
ATOM     30  O   UNL     1     133.449 127.831 138.919  1.00  0.00    -0.393 OA
ATOM     31  H   UNL     1     133.079 128.436 138.222  1.00  0.00     0.210 HD
ENDBRANCH  29  30
ENDBRANCH   9  11
ENDBRANCH   1   9
TORSDOF 7
ENDMDL
MODEL 5
REMARK VINA RESULT:    -5.473      3.107      7.926
REMARK INTER + INTRA:          -9.658
REMARK INTER:                  -7.573
REMARK INTRA:                  -2.084
REMARK UNBOUND:                -2.105
REMARK SMILES CC[C@H](CC[C@@H](C)[C@@H]1CC[C@H]2[C@@H]3CC=C4C[C@@H](O)CC[C@@]4(C)[C@H]3CC[C@@]21C)C(C)C
REMARK SMILES IDX 5 1 4 2 3 3 2 4 1 5 28 6 29 7 30 8 6 9 7 10 8 11 9 12 26 13
REMARK SMILES IDX 10 14 11 15 25 16 27 17 12 18 24 19 23 20 13 21 21 22 14 23
REMARK SMILES IDX 15 24 20 25 22 26 16 27 19 28 17 29 18 30
REMARK H PARENT 18 31
REMARK Flexibility Score: inf
ROOT
ATOM      1  C   UNL     1     140.102 134.947 143.316  1.00  0.00     0.004 C 
ENDROOT
BRANCH   1   2
ATOM      2  C   UNL     1     139.518 135.873 144.404  1.00  0.00     0.004 C 
BRANCH   2   3
ATOM      3  C   UNL     1     139.016 137.230 143.836  1.00  0.00    -0.009 C 
BRANCH   3   4
ATOM      4  C   UNL     1     139.490 137.442 142.369  1.00  0.00     0.000 C 
ATOM      5  C   UNL     1     140.744 138.299 142.189  1.00  0.00     0.004 C 
ENDBRANCH   3   4
BRANCH   3   6
ATOM      6  C   UNL     1     137.502 137.536 144.119  1.00  0.00    -0.014 C 
ATOM      7  C   UNL     1     136.708 137.803 142.832  1.00  0.00     0.007 C 
ATOM      8  C   UNL     1     136.771 136.500 144.994  1.00  0.00     0.007 C 
ENDBRANCH   3   6
ENDBRANCH   2   3
ENDBRANCH   1   2
BRANCH   1   9
ATOM      9  C   UNL     1     139.245 133.665 143.094  1.00  0.00    -0.011 C 
ATOM     10  C   UNL     1     139.142 132.881 144.426  1.00  0.00     0.008 C 
BRANCH   9  11
ATOM     11  C   UNL     1     137.868 134.044 142.430  1.00  0.00    -0.002 C 
ATOM     12  C   UNL     1     136.649 133.292 143.036  1.00  0.00     0.005 C 
ATOM     13  C   UNL     1     137.703 133.857 140.888  1.00  0.00    -0.026 C 
ATOM     14  C   UNL     1     136.053 132.412 141.923  1.00  0.00     0.005 C 
ATOM     15  C   UNL     1     137.082 132.457 140.801  1.00  0.00    -0.001 C 
ATOM     16  C   UNL     1     138.979 133.889 140.006  1.00  0.00     0.007 C 
ATOM     17  C   UNL     1     136.731 134.981 140.393  1.00  0.00     0.012 C 
ATOM     18  C   UNL     1     136.638 132.085 139.369  1.00  0.00     0.000 C 
ATOM     19  C   UNL     1     138.665 133.478 138.543  1.00  0.00     0.005 C 
ATOM     20  C   UNL     1     137.881 132.130 138.431  1.00  0.00     0.003 C 
ATOM     21  C   UNL     1     136.067 130.663 139.320  1.00  0.00     0.031 C 
ATOM     22  C   UNL     1     137.565 131.643 136.941  1.00  0.00    -0.008 C 
ATOM     23  C   UNL     1     135.603 130.371 137.931  1.00  0.00    -0.027 C 
ATOM     24  C   UNL     1     136.241 130.847 136.842  1.00  0.00    -0.065 C 
ATOM     25  C   UNL     1     137.437 132.842 135.955  1.00  0.00     0.014 C 
ATOM     26  C   UNL     1     138.741 130.729 136.505  1.00  0.00     0.016 C 
ATOM     27  C   UNL     1     135.466 130.783 135.537  1.00  0.00     0.063 C 
ATOM     28  C   UNL     1     137.137 132.457 134.491  1.00  0.00     0.033 C 
ATOM     29  C   UNL     1     136.292 131.173 134.304  1.00  0.00     0.118 C 
BRANCH  29  30
ATOM     30  O   UNL     1     135.462 131.289 133.176  1.00  0.00    -0.393 OA
ATOM     31  H   UNL     1     135.846 131.991 132.586  1.00  0.00     0.210 HD
ENDBRANCH  29  30
ENDBRANCH   9  11
ENDBRANCH   1   9
TORSDOF 7
ENDMDL
MODEL 6
REMARK VINA RESULT:    -5.469      3.298      4.958
REMARK INTER + INTRA:          -9.652
REMARK INTER:                  -7.796
REMARK INTRA:                  -1.856
REMARK UNBOUND:                -2.105
REMARK SMILES CC[C@H](CC[C@@H](C)[C@@H]1CC[C@H]2[C@@H]3CC=C4C[C@@H](O)CC[C@@]4(C)[C@H]3CC[C@@]21C)C(C)C
REMARK SMILES IDX 5 1 4 2 3 3 2 4 1 5 28 6 29 7 30 8 6 9 7 10 8 11 9 12 26 13
REMARK SMILES IDX 10 14 11 15 25 16 27 17 12 18 24 19 23 20 13 21 21 22 14 23
REMARK SMILES IDX 15 24 20 25 22 26 16 27 19 28 17 29 18 30
REMARK H PARENT 18 31
REMARK Flexibility Score: inf
ROOT
ATOM      1  C   UNL     1     132.085 129.563 142.566  1.00  0.00     0.004 C 
ENDROOT
BRANCH   1   2
ATOM      2  C   UNL     1     133.371 128.852 142.094  1.00  0.00     0.004 C 
BRANCH   2   3
ATOM      3  C   UNL     1     133.762 129.216 140.635  1.00  0.00    -0.009 C 
BRANCH   3   4
ATOM      4  C   UNL     1     135.304 129.168 140.431  1.00  0.00     0.000 C 
ATOM      5  C   UNL     1     136.101 128.457 141.526  1.00  0.00     0.004 C 
ENDBRANCH   3   4
BRANCH   3   6
ATOM      6  C   UNL     1     132.902 128.502 139.532  1.00  0.00    -0.014 C 
ATOM      7  C   UNL     1     133.725 128.151 138.283  1.00  0.00     0.007 C 
ATOM      8  C   UNL     1     132.103 127.275 140.008  1.00  0.00     0.007 C 
ENDBRANCH   3   6
ENDBRANCH   2   3
ENDBRANCH   1   2
BRANCH   1   9
ATOM      9  C   UNL     1     132.367 130.954 143.207  1.00  0.00    -0.011 C 
ATOM     10  C   UNL     1     131.128 131.403 144.021  1.00  0.00     0.008 C 
BRANCH   9  11
ATOM     11  C   UNL     1     133.720 130.914 144.013  1.00  0.00    -0.002 C 
ATOM     12  C   UNL     1     133.546 131.114 145.545  1.00  0.00     0.005 C 
ATOM     13  C   UNL     1     134.853 131.915 143.624  1.00  0.00    -0.026 C 
ATOM     14  C   UNL     1     134.268 132.420 145.922  1.00  0.00     0.005 C 
ATOM     15  C   UNL     1     134.597 133.080 144.589  1.00  0.00    -0.001 C 
ATOM     16  C   UNL     1     134.876 132.469 142.174  1.00  0.00     0.007 C 
ATOM     17  C   UNL     1     136.216 131.192 143.897  1.00  0.00     0.012 C 
ATOM     18  C   UNL     1     135.706 134.153 144.543  1.00  0.00     0.000 C 
ATOM     19  C   UNL     1     135.925 133.601 142.018  1.00  0.00     0.005 C 
ATOM     20  C   UNL     1     135.792 134.724 143.097  1.00  0.00     0.003 C 
ATOM     21  C   UNL     1     135.386 135.318 145.488  1.00  0.00     0.031 C 
ATOM     22  C   UNL     1     136.828 135.935 142.957  1.00  0.00    -0.008 C 
ATOM     23  C   UNL     1     136.510 136.300 145.450  1.00  0.00    -0.027 C 
ATOM     24  C   UNL     1     137.206 136.556 144.323  1.00  0.00    -0.065 C 
ATOM     25  C   UNL     1     138.160 135.481 142.290  1.00  0.00     0.014 C 
ATOM     26  C   UNL     1     136.143 137.016 142.080  1.00  0.00     0.016 C 
ATOM     27  C   UNL     1     138.528 137.282 144.510  1.00  0.00     0.063 C 
ATOM     28  C   UNL     1     139.215 136.594 142.113  1.00  0.00     0.033 C 
ATOM     29  C   UNL     1     139.197 137.703 143.194  1.00  0.00     0.118 C 
BRANCH  29  30
ATOM     30  O   UNL     1     140.498 138.177 143.437  1.00  0.00    -0.393 OA
ATOM     31  H   UNL     1     140.690 138.057 144.405  1.00  0.00     0.210 HD
ENDBRANCH  29  30
ENDBRANCH   9  11
ENDBRANCH   1   9
TORSDOF 7
ENDMDL
MODEL 7
REMARK VINA RESULT:    -5.425      4.545      7.890
REMARK INTER + INTRA:          -9.592
REMARK INTER:                  -7.584
REMARK INTRA:                  -2.008
REMARK UNBOUND:                -2.105
REMARK SMILES CC[C@H](CC[C@@H](C)[C@@H]1CC[C@H]2[C@@H]3CC=C4C[C@@H](O)CC[C@@]4(C)[C@H]3CC[C@@]21C)C(C)C
REMARK SMILES IDX 5 1 4 2 3 3 2 4 1 5 28 6 29 7 30 8 6 9 7 10 8 11 9 12 26 13
REMARK SMILES IDX 10 14 11 15 25 16 27 17 12 18 24 19 23 20 13 21 21 22 14 23
REMARK SMILES IDX 15 24 20 25 22 26 16 27 19 28 17 29 18 30
REMARK H PARENT 18 31
REMARK Flexibility Score: inf
ROOT
ATOM      1  C   UNL     1     138.450 137.022 144.772  1.00  0.00     0.004 C 
ENDROOT
BRANCH   1   2
ATOM      2  C   UNL     1     138.132 137.588 143.371  1.00  0.00     0.004 C 
BRANCH   2   3
ATOM      3  C   UNL     1     139.330 137.474 142.388  1.00  0.00    -0.009 C 
BRANCH   3   4
ATOM      4  C   UNL     1     140.682 137.758 143.105  1.00  0.00     0.000 C 
ATOM      5  C   UNL     1     141.840 138.187 142.202  1.00  0.00     0.004 C 
ENDBRANCH   3   4
BRANCH   3   6
ATOM      6  C   UNL     1     139.296 136.207 141.462  1.00  0.00    -0.014 C 
ATOM      7  C   UNL     1     139.809 134.947 142.175  1.00  0.00     0.007 C 
ATOM      8  C   UNL     1     137.945 135.923 140.779  1.00  0.00     0.007 C 
ENDBRANCH   3   6
ENDBRANCH   2   3
ENDBRANCH   1   2
BRANCH   1   9
ATOM      9  C   UNL     1     137.514 135.843 145.171  1.00  0.00    -0.011 C 
ATOM     10  C   UNL     1     137.387 135.790 146.714  1.00  0.00     0.008 C 
BRANCH   9  11
ATOM     11  C   UNL     1     136.150 135.946 144.389  1.00  0.00    -0.002 C 
ATOM     12  C   UNL     1     134.957 136.426 145.264  1.00  0.00     0.005 C 
ATOM     13  C   UNL     1     135.604 134.675 143.665  1.00  0.00    -0.026 C 
ATOM     14  C   UNL     1     133.937 135.275 145.321  1.00  0.00     0.005 C 
ATOM     15  C   UNL     1     134.669 134.079 144.726  1.00  0.00    -0.001 C 
ATOM     16  C   UNL     1     136.620 133.585 143.231  1.00  0.00     0.007 C 
ATOM     17  C   UNL     1     134.837 135.169 142.391  1.00  0.00     0.012 C 
ATOM     18  C   UNL     1     133.841 132.888 144.195  1.00  0.00     0.000 C 
ATOM     19  C   UNL     1     135.899 132.309 142.725  1.00  0.00     0.005 C 
ATOM     20  C   UNL     1     134.817 131.772 143.718  1.00  0.00     0.003 C 
ATOM     21  C   UNL     1     132.957 132.296 145.300  1.00  0.00     0.031 C 
ATOM     22  C   UNL     1     134.069 130.434 143.259  1.00  0.00    -0.008 C 
ATOM     23  C   UNL     1     132.138 131.187 144.727  1.00  0.00    -0.027 C 
ATOM     24  C   UNL     1     132.609 130.364 143.766  1.00  0.00    -0.065 C 
ATOM     25  C   UNL     1     134.008 130.310 141.708  1.00  0.00     0.014 C 
ATOM     26  C   UNL     1     134.870 129.244 143.851  1.00  0.00     0.016 C 
ATOM     27  C   UNL     1     131.568 129.538 143.031  1.00  0.00     0.063 C 
ATOM     28  C   UNL     1     133.305 129.041 141.181  1.00  0.00     0.033 C 
ATOM     29  C   UNL     1     132.163 128.496 142.074  1.00  0.00     0.118 C 
BRANCH  29  30
ATOM     30  O   UNL     1     131.152 127.920 141.286  1.00  0.00    -0.393 OA
ATOM     31  H   UNL     1     131.463 127.020 141.001  1.00  0.00     0.210 HD
ENDBRANCH  29  30
ENDBRANCH   9  11
ENDBRANCH   1   9
TORSDOF 7
ENDMDL
MODEL 8
REMARK VINA RESULT:    -5.414      3.264      8.457
REMARK INTER + INTRA:          -9.576
REMARK INTER:                  -7.435
REMARK INTRA:                  -2.140
REMARK UNBOUND:                -2.105
REMARK SMILES CC[C@H](CC[C@@H](C)[C@@H]1CC[C@H]2[C@@H]3CC=C4C[C@@H](O)CC[C@@]4(C)[C@H]3CC[C@@]21C)C(C)C
REMARK SMILES IDX 5 1 4 2 3 3 2 4 1 5 28 6 29 7 30 8 6 9 7 10 8 11 9 12 26 13
REMARK SMILES IDX 10 14 11 15 25 16 27 17 12 18 24 19 23 20 13 21 21 22 14 23
REMARK SMILES IDX 15 24 20 25 22 26 16 27 19 28 17 29 18 30
REMARK H PARENT 18 31
REMARK Flexibility Score: inf
ROOT
ATOM      1  C   UNL     1     138.372 137.871 143.386  1.00  0.00     0.004 C 
ENDROOT
BRANCH   1   2
ATOM      2  C   UNL     1     136.889 137.727 142.984  1.00  0.00     0.004 C 
BRANCH   2   3
ATOM      3  C   UNL     1     136.280 136.359 143.402  1.00  0.00    -0.009 C 
BRANCH   3   4
ATOM      4  C   UNL     1     136.162 136.239 144.949  1.00  0.00     0.000 C 
ATOM      5  C   UNL     1     137.016 135.151 145.602  1.00  0.00     0.004 C 
ENDBRANCH   3   4
BRANCH   3   6
ATOM      6  C   UNL     1     135.010 135.933 142.582  1.00  0.00    -0.014 C 
ATOM      7  C   UNL     1     134.874 136.711 141.265  1.00  0.00     0.007 C 
ATOM      8  C   UNL     1     134.866 134.420 142.328  1.00  0.00     0.007 C 
ENDBRANCH   3   6
ENDBRANCH   2   3
ENDBRANCH   1   2
BRANCH   1   9
ATOM      9  C   UNL     1     139.345 137.335 142.294  1.00  0.00    -0.011 C 
ATOM     10  C   UNL     1     140.593 138.251 142.227  1.00  0.00     0.008 C 
BRANCH   9  11
ATOM     11  C   UNL     1     139.646 135.809 142.538  1.00  0.00    -0.002 C 
ATOM     12  C   UNL     1     141.152 135.491 142.758  1.00  0.00     0.005 C 
ATOM     13  C   UNL     1     139.191 134.774 141.461  1.00  0.00    -0.026 C 
ATOM     14  C   UNL     1     141.605 134.590 141.595  1.00  0.00     0.005 C 
ATOM     15  C   UNL     1     140.452 134.633 140.600  1.00  0.00    -0.001 C 
ATOM     16  C   UNL     1     138.001 135.151 140.540  1.00  0.00     0.007 C 
ATOM     17  C   UNL     1     138.827 133.453 142.222  1.00  0.00     0.012 C 
ATOM     18  C   UNL     1     140.337 133.510 139.546  1.00  0.00     0.000 C 
ATOM     19  C   UNL     1     137.818 134.115 139.399  1.00  0.00     0.005 C 
ATOM     20  C   UNL     1     139.135 133.826 138.607  1.00  0.00     0.003 C 
ATOM     21  C   UNL     1     141.600 133.436 138.679  1.00  0.00     0.031 C 
ATOM     22  C   UNL     1     138.992 132.791 137.395  1.00  0.00    -0.008 C 
ATOM     23  C   UNL     1     141.464 132.304 137.714  1.00  0.00    -0.027 C 
ATOM     24  C   UNL     1     140.280 131.967 137.160  1.00  0.00    -0.065 C 
ATOM     25  C   UNL     1     137.847 131.764 137.644  1.00  0.00     0.014 C 
ATOM     26  C   UNL     1     138.683 133.624 136.124  1.00  0.00     0.016 C 
ATOM     27  C   UNL     1     140.221 130.599 136.502  1.00  0.00     0.063 C 
ATOM     28  C   UNL     1     137.639 130.731 136.517  1.00  0.00     0.033 C 
ATOM     29  C   UNL     1     138.917 130.332 135.739  1.00  0.00     0.118 C 
BRANCH  29  30
ATOM     30  O   UNL     1     138.851 128.987 135.337  1.00  0.00    -0.393 OA
ATOM     31  H   UNL     1     137.989 128.614 135.664  1.00  0.00     0.210 HD
ENDBRANCH  29  30
ENDBRANCH   9  11
ENDBRANCH   1   9
TORSDOF 7
ENDMDL
MODEL 9
REMARK VINA RESULT:    -5.371      4.412      7.943
REMARK INTER + INTRA:          -9.517
REMARK INTER:                  -7.289
REMARK INTRA:                  -2.228
REMARK UNBOUND:                -2.105
REMARK SMILES CC[C@H](CC[C@@H](C)[C@@H]1CC[C@H]2[C@@H]3CC=C4C[C@@H](O)CC[C@@]4(C)[C@H]3CC[C@@]21C)C(C)C
REMARK SMILES IDX 5 1 4 2 3 3 2 4 1 5 28 6 29 7 30 8 6 9 7 10 8 11 9 12 26 13
REMARK SMILES IDX 10 14 11 15 25 16 27 17 12 18 24 19 23 20 13 21 21 22 14 23
REMARK SMILES IDX 15 24 20 25 22 26 16 27 19 28 17 29 18 30
REMARK H PARENT 18 31
REMARK Flexibility Score: inf
ROOT
ATOM      1  C   UNL     1     136.615 137.566 142.413  1.00  0.00     0.004 C 
ENDROOT
BRANCH   1   2
ATOM      2  C   UNL     1     137.151 137.870 143.828  1.00  0.00     0.004 C 
BRANCH   2   3
ATOM      3  C   UNL     1     138.648 137.490 144.002  1.00  0.00    -0.009 C 
BRANCH   3   4
ATOM      4  C   UNL     1     138.843 136.462 145.155  1.00  0.00     0.000 C 
ATOM      5  C   UNL     1     137.663 136.303 146.115  1.00  0.00     0.004 C 
ENDBRANCH   3   4
BRANCH   3   6
ATOM      6  C   UNL     1     139.400 137.168 142.662  1.00  0.00    -0.014 C 
ATOM      7  C   UNL     1     140.443 138.236 142.304  1.00  0.00     0.007 C 
ATOM      8  C   UNL     1     140.022 135.761 142.575  1.00  0.00     0.007 C 
ENDBRANCH   3   6
ENDBRANCH   2   3
ENDBRANCH   1   2
BRANCH   1   9
ATOM      9  C   UNL     1     135.625 136.364 142.390  1.00  0.00    -0.011 C 
ATOM     10  C   UNL     1     134.820 136.390 141.067  1.00  0.00     0.008 C 
BRANCH   9  11
ATOM     11  C   UNL     1     136.396 135.022 142.679  1.00  0.00    -0.002 C 
ATOM     12  C   UNL     1     136.815 134.247 141.397  1.00  0.00     0.005 C 
ATOM     13  C   UNL     1     135.709 133.940 143.571  1.00  0.00    -0.026 C 
ATOM     14  C   UNL     1     136.063 132.903 141.408  1.00  0.00     0.005 C 
ATOM     15  C   UNL     1     135.037 133.042 142.524  1.00  0.00    -0.001 C 
ATOM     16  C   UNL     1     134.634 134.405 144.589  1.00  0.00     0.007 C 
ATOM     17  C   UNL     1     136.848 133.205 144.357  1.00  0.00     0.012 C 
ATOM     18  C   UNL     1     134.424 131.763 143.135  1.00  0.00     0.000 C 
ATOM     19  C   UNL     1     133.907 133.197 145.235  1.00  0.00     0.005 C 
ATOM     20  C   UNL     1     133.354 132.174 144.189  1.00  0.00     0.003 C 
ATOM     21  C   UNL     1     133.724 130.920 142.062  1.00  0.00     0.031 C 
ATOM     22  C   UNL     1     132.562 130.927 144.803  1.00  0.00    -0.008 C 
ATOM     23  C   UNL     1     133.197 129.672 142.689  1.00  0.00    -0.027 C 
ATOM     24  C   UNL     1     132.711 129.646 143.948  1.00  0.00    -0.065 C 
ATOM     25  C   UNL     1     133.066 130.569 146.232  1.00  0.00     0.014 C 
ATOM     26  C   UNL     1     131.063 131.327 144.860  1.00  0.00     0.016 C 
ATOM     27  C   UNL     1     132.557 128.270 144.572  1.00  0.00     0.063 C 
ATOM     28  C   UNL     1     132.349 129.377 146.900  1.00  0.00     0.033 C 
ATOM     29  C   UNL     1     131.843 128.280 145.930  1.00  0.00     0.118 C 
BRANCH  29  30
ATOM     30  O   UNL     1     131.922 127.013 146.534  1.00  0.00    -0.393 OA
ATOM     31  H   UNL     1     132.491 127.097 147.345  1.00  0.00     0.210 HD
ENDBRANCH  29  30
ENDBRANCH   9  11
ENDBRANCH   1   9
TORSDOF 7
ENDMDL
