MODEL 1
REMARK VINA RESULT:    -3.459      0.000      0.000
REMARK INTER + INTRA:          -4.534
REMARK INTER:                  -4.875
REMARK INTRA:                   0.341
REMARK UNBOUND:                 0.341
REMARK SMILES CC1=CCC(=C(C)C)C(=O)CC(C)=CCC1
REMARK SMILES IDX 12 1 14 2 13 3 15 4 16 5 2 6 1 7 3 8 11 10 9 11 10 12 5 13
REMARK SMILES IDX 6 14 7 15 8 16 4 17
REMARK H PARENT
REMARK Flexibility Score: 60.00
ROOT
ATOM      1  C   UNL     1     152.763 161.058 201.264  1.00  0.00    -0.070 C 
ATOM      2  C   UNL     1     153.731 160.185 201.633  1.00  0.00    -0.027 C 
ATOM      3  C   UNL     1     152.165 161.939 202.334  1.00  0.00     0.039 C 
ENDROOT
BRANCH   2   4
ATOM      4  C   UNL     1     154.453 159.248 200.698  1.00  0.00     0.032 C 
BRANCH   4   5
ATOM      5  C   UNL     1     154.333 157.789 201.172  1.00  0.00     0.034 C 
BRANCH   5   6
ATOM      6  C   UNL     1     152.898 157.314 201.298  1.00  0.00    -0.077 C 
ATOM      7  C   UNL     1     152.442 156.737 202.616  1.00  0.00     0.039 C 
ATOM      8  C   UNL     1     152.016 157.300 200.268  1.00  0.00    -0.023 CG0
ATOM      9  G   UNL     1     152.207 157.914 198.897  1.00  0.00     0.000 G0
ENDBRANCH   5   6
ENDBRANCH   4   5
ENDBRANCH   2   4
BRANCH   1  10
ATOM     10  C   UNL     1     152.247 161.184 199.837  1.00  0.00     0.111 C 
BRANCH  10  11
ATOM     11  C   UNL     1     151.131 160.204 199.561  1.00  0.00     0.163 C 
ATOM     12  O   UNL     1     150.054 160.384 200.194  1.00  0.00    -0.294 OA
BRANCH  11  13
ATOM     13  C   UNL     1     151.233 159.064 198.581  1.00  0.00    -0.002 C 
ATOM     14  C   UNL     1     150.494 159.052 197.427  1.00  0.00    -0.069 C 
ATOM     15  C   UNL     1     149.451 160.109 197.131  1.00  0.00     0.039 C 
ATOM     16  C   UNL     1     150.642 157.947 196.402  1.00  0.00     0.039 C 
BRANCH  13  17
ATOM     17  C   UNL     1     152.184 157.909 198.883  1.00  0.00     0.066 CG0
ATOM     18  G   UNL     1     152.016 157.300 200.260  1.00  0.00     0.000 G0
ENDBRANCH  13  17
ENDBRANCH  11  13
ENDBRANCH  10  11
ENDBRANCH   1  10
TORSDOF 0
ENDMDL
MODEL 2
REMARK VINA RESULT:    -3.434      2.211      4.081
REMARK INTER + INTRA:          -4.499
REMARK INTER:                  -4.761
REMARK INTRA:                   0.262
REMARK UNBOUND:                 0.341
REMARK SMILES CC1=CCC(=C(C)C)C(=O)CC(C)=CCC1
REMARK SMILES IDX 12 1 14 2 13 3 15 4 16 5 2 6 1 7 3 8 11 10 9 11 10 12 5 13
REMARK SMILES IDX 6 14 7 15 8 16 4 17
REMARK H PARENT
REMARK Flexibility Score: 60.00
ROOT
ATOM      1  C   UNL     1     150.884 160.369 199.082  1.00  0.00    -0.070 C 
ATOM      2  C   UNL     1     150.493 160.463 200.376  1.00  0.00    -0.027 C 
ATOM      3  C   UNL     1     149.946 159.698 198.110  1.00  0.00     0.039 C 
ENDROOT
BRANCH   2   4
ATOM      4  C   UNL     1     151.288 161.119 201.476  1.00  0.00     0.032 C 
BRANCH   4   5
ATOM      5  C   UNL     1     151.557 160.136 202.628  1.00  0.00     0.034 C 
BRANCH   5   6
ATOM      6  C   UNL     1     152.251 158.862 202.183  1.00  0.00    -0.077 C 
ATOM      7  C   UNL     1     151.562 157.542 202.428  1.00  0.00     0.039 C 
ATOM      8  C   UNL     1     153.497 158.831 201.650  1.00  0.00    -0.023 CG0
ATOM      9  G   UNL     1     154.333 160.018 201.219  1.00  0.00     0.000 G0
ENDBRANCH   5   6
ENDBRANCH   4   5
ENDBRANCH   2   4
BRANCH   1  10
ATOM     10  C   UNL     1     152.219 160.894 198.571  1.00  0.00     0.111 C 
BRANCH  10  11
ATOM     11  C   UNL     1     153.335 159.905 198.816  1.00  0.00     0.163 C 
ATOM     12  O   UNL     1     153.256 158.804 198.207  1.00  0.00    -0.294 OA
BRANCH  11  13
ATOM     13  C   UNL     1     154.515 160.172 199.714  1.00  0.00    -0.002 C 
ATOM     14  C   UNL     1     155.726 160.558 199.200  1.00  0.00    -0.069 C 
ATOM     15  C   UNL     1     155.982 160.618 197.710  1.00  0.00     0.039 C 
ATOM     16  C   UNL     1     156.897 160.896 200.100  1.00  0.00     0.039 C 
BRANCH  13  17
ATOM     17  C   UNL     1     154.349 160.014 201.224  1.00  0.00     0.066 CG0
ATOM     18  G   UNL     1     153.508 158.826 201.643  1.00  0.00     0.000 G0
ENDBRANCH  13  17
ENDBRANCH  11  13
ENDBRANCH  10  11
ENDBRANCH   1  10
TORSDOF 0
ENDMDL
MODEL 3
REMARK VINA RESULT:    -3.305      1.813      3.983
REMARK INTER + INTRA:          -4.317
REMARK INTER:                  -4.445
REMARK INTRA:                   0.128
REMARK UNBOUND:                 0.341
REMARK SMILES CC1=CCC(=C(C)C)C(=O)CC(C)=CCC1
REMARK SMILES IDX 12 1 14 2 13 3 15 4 16 5 2 6 1 7 3 8 11 10 9 11 10 12 5 13
REMARK SMILES IDX 6 14 7 15 8 16 4 17
REMARK H PARENT
REMARK Flexibility Score: 60.00
ROOT
ATOM      1  C   UNL     1     150.668 160.055 198.713  1.00  0.00    -0.070 C 
ATOM      2  C   UNL     1     150.588 158.955 197.927  1.00  0.00    -0.027 C 
ATOM      3  C   UNL     1     149.463 160.414 199.547  1.00  0.00     0.039 C 
ENDROOT
BRANCH   2   4
ATOM      4  C   UNL     1     151.698 158.435 197.049  1.00  0.00     0.032 C 
BRANCH   4   5
ATOM      5  C   UNL     1     152.351 157.184 197.661  1.00  0.00     0.034 C 
BRANCH   5   6
ATOM      6  C   UNL     1     153.718 157.452 198.261  1.00  0.00    -0.077 C 
ATOM      7  C   UNL     1     154.931 157.342 197.369  1.00  0.00     0.039 C 
ATOM      8  C   UNL     1     153.928 157.706 199.576  1.00  0.00    -0.023 CG0
ATOM      9  G   UNL     1     152.873 157.964 200.633  1.00  0.00     0.000 G0
ENDBRANCH   5   6
ENDBRANCH   4   5
ENDBRANCH   2   4
BRANCH   1  10
ATOM     10  C   UNL     1     151.903 160.945 198.785  1.00  0.00     0.111 C 
BRANCH  10  11
ATOM     11  C   UNL     1     152.881 160.452 199.825  1.00  0.00     0.163 C 
ATOM     12  O   UNL     1     154.040 160.948 199.789  1.00  0.00    -0.294 OA
BRANCH  11  13
ATOM     13  C   UNL     1     152.544 159.436 200.886  1.00  0.00    -0.002 C 
ATOM     14  C   UNL     1     151.961 159.812 202.068  1.00  0.00    -0.069 C 
ATOM     15  C   UNL     1     151.738 161.265 202.427  1.00  0.00     0.039 C 
ATOM     16  C   UNL     1     151.553 158.791 203.110  1.00  0.00     0.039 C 
BRANCH  13  17
ATOM     17  C   UNL     1     152.853 157.963 200.629  1.00  0.00     0.066 CG0
ATOM     18  G   UNL     1     153.924 157.719 199.585  1.00  0.00     0.000 G0
ENDBRANCH  13  17
ENDBRANCH  11  13
ENDBRANCH  10  11
ENDBRANCH   1  10
TORSDOF 0
ENDMDL
MODEL 4
REMARK VINA RESULT:    -3.284      1.628      4.019
REMARK INTER + INTRA:          -4.287
REMARK INTER:                  -4.547
REMARK INTRA:                   0.260
REMARK UNBOUND:                 0.341
REMARK SMILES CC1=CCC(=C(C)C)C(=O)CC(C)=CCC1
REMARK SMILES IDX 12 1 14 2 13 3 15 4 16 5 2 6 1 7 3 8 11 10 9 11 10 12 5 13
REMARK SMILES IDX 6 14 7 15 8 16 4 17
REMARK H PARENT
REMARK Flexibility Score: 60.00
ROOT
ATOM      1  C   UNL     1     151.085 160.646 201.658  1.00  0.00    -0.070 C 
ATOM      2  C   UNL     1     150.902 161.022 200.369  1.00  0.00    -0.027 C 
ATOM      3  C   UNL     1     149.861 160.316 202.475  1.00  0.00     0.039 C 
ENDROOT
BRANCH   2   4
ATOM      4  C   UNL     1     152.007 161.365 199.402  1.00  0.00     0.032 C 
BRANCH   4   5
ATOM      5  C   UNL     1     152.193 160.253 198.355  1.00  0.00     0.034 C 
BRANCH   5   6
ATOM      6  C   UNL     1     151.172 159.138 198.473  1.00  0.00    -0.077 C 
ATOM      7  C   UNL     1     149.847 159.295 197.766  1.00  0.00     0.039 C 
ATOM      8  C   UNL     1     151.344 158.038 199.247  1.00  0.00    -0.023 CG0
ATOM      9  G   UNL     1     152.612 157.615 199.959  1.00  0.00     0.000 G0
ENDBRANCH   5   6
ENDBRANCH   4   5
ENDBRANCH   2   4
BRANCH   1  10
ATOM     10  C   UNL     1     152.455 160.554 202.317  1.00  0.00     0.111 C 
BRANCH  10  11
ATOM     11  C   UNL     1     153.272 159.421 201.742  1.00  0.00     0.163 C 
ATOM     12  O   UNL     1     154.495 159.655 201.538  1.00  0.00    -0.294 OA
BRANCH  11  13
ATOM     13  C   UNL     1     152.716 158.057 201.425  1.00  0.00    -0.002 C 
ATOM     14  C   UNL     1     152.296 157.213 202.420  1.00  0.00    -0.069 C 
ATOM     15  C   UNL     1     152.477 157.547 203.885  1.00  0.00     0.039 C 
ATOM     16  C   UNL     1     151.670 155.870 202.108  1.00  0.00     0.039 C 
BRANCH  13  17
ATOM     17  C   UNL     1     152.616 157.616 199.966  1.00  0.00     0.066 CG0
ATOM     18  G   UNL     1     151.341 158.041 199.268  1.00  0.00     0.000 G0
ENDBRANCH  13  17
ENDBRANCH  11  13
ENDBRANCH  10  11
ENDBRANCH   1  10
TORSDOF 0
ENDMDL
MODEL 5
REMARK VINA RESULT:    -3.267      1.540      4.194
REMARK INTER + INTRA:          -4.263
REMARK INTER:                  -4.413
REMARK INTRA:                   0.150
REMARK UNBOUND:                 0.341
REMARK SMILES CC1=CCC(=C(C)C)C(=O)CC(C)=CCC1
REMARK SMILES IDX 12 1 14 2 13 3 15 4 16 5 2 6 1 7 3 8 11 10 9 11 10 12 5 13
REMARK SMILES IDX 6 14 7 15 8 16 4 17
REMARK H PARENT
REMARK Flexibility Score: 60.00
ROOT
ATOM      1  C   UNL     1     151.105 160.578 200.951  1.00  0.00    -0.070 C 
ATOM      2  C   UNL     1     149.976 160.375 200.231  1.00  0.00    -0.027 C 
ATOM      3  C   UNL     1     151.067 160.259 202.425  1.00  0.00     0.039 C 
ENDROOT
BRANCH   2   4
ATOM      4  C   UNL     1     149.838 160.616 198.749  1.00  0.00     0.032 C 
BRANCH   4   5
ATOM      5  C   UNL     1     149.626 159.295 197.990  1.00  0.00     0.034 C 
BRANCH   5   6
ATOM      6  C   UNL     1     150.848 158.844 197.213  1.00  0.00    -0.077 C 
ATOM      7  C   UNL     1     150.934 159.179 195.744  1.00  0.00     0.039 C 
ATOM      8  C   UNL     1     151.838 158.082 197.742  1.00  0.00    -0.023 CG0
ATOM      9  G   UNL     1     152.022 157.711 199.199  1.00  0.00     0.000 G0
ENDBRANCH   5   6
ENDBRANCH   4   5
ENDBRANCH   2   4
BRANCH   1  10
ATOM     10  C   UNL     1     152.396 161.118 200.349  1.00  0.00     0.111 C 
BRANCH  10  11
ATOM     11  C   UNL     1     153.164 160.038 199.624  1.00  0.00     0.163 C 
ATOM     12  O   UNL     1     153.946 160.419 198.710  1.00  0.00    -0.294 OA
BRANCH  11  13
ATOM     13  C   UNL     1     153.058 158.569 199.943  1.00  0.00    -0.002 C 
ATOM     14  C   UNL     1     153.870 157.986 200.881  1.00  0.00    -0.069 C 
ATOM     15  C   UNL     1     154.992 158.745 201.554  1.00  0.00     0.039 C 
ATOM     16  C   UNL     1     153.722 156.526 201.259  1.00  0.00     0.039 C 
BRANCH  13  17
ATOM     17  C   UNL     1     152.019 157.723 199.210  1.00  0.00     0.066 CG0
ATOM     18  G   UNL     1     151.853 158.065 197.743  1.00  0.00     0.000 G0
ENDBRANCH  13  17
ENDBRANCH  11  13
ENDBRANCH  10  11
ENDBRANCH   1  10
TORSDOF 0
ENDMDL
MODEL 6
REMARK VINA RESULT:    -3.155      2.378      3.491
REMARK INTER + INTRA:          -4.106
REMARK INTER:                  -4.272
REMARK INTRA:                   0.167
REMARK UNBOUND:                 0.341
REMARK SMILES CC1=CCC(=C(C)C)C(=O)CC(C)=CCC1
REMARK SMILES IDX 12 1 14 2 13 3 15 4 16 5 2 6 1 7 3 8 11 10 9 11 10 12 5 13
REMARK SMILES IDX 6 14 7 15 8 16 4 17
REMARK H PARENT
REMARK Flexibility Score: 60.00
ROOT
ATOM      1  C   UNL     1     154.929 158.833 201.164  1.00  0.00    -0.070 C 
ATOM      2  C   UNL     1     155.371 158.100 202.214  1.00  0.00    -0.027 C 
ATOM      3  C   UNL     1     155.192 160.319 201.184  1.00  0.00     0.039 C 
ENDROOT
BRANCH   2   4
ATOM      4  C   UNL     1     155.218 156.606 202.353  1.00  0.00     0.032 C 
BRANCH   4   5
ATOM      5  C   UNL     1     154.314 156.248 203.544  1.00  0.00     0.034 C 
BRANCH   5   6
ATOM      6  C   UNL     1     152.944 155.746 203.130  1.00  0.00    -0.077 C 
ATOM      7  C   UNL     1     152.708 154.256 203.074  1.00  0.00     0.039 C 
ATOM      8  C   UNL     1     151.935 156.557 202.725  1.00  0.00    -0.023 CG0
ATOM      9  G   UNL     1     151.899 158.069 202.793  1.00  0.00     0.000 G0
ENDBRANCH   5   6
ENDBRANCH   4   5
ENDBRANCH   2   4
BRANCH   1  10
ATOM     10  C   UNL     1     154.178 158.236 199.982  1.00  0.00     0.111 C 
BRANCH  10  11
ATOM     11  C   UNL     1     152.712 158.045 200.295  1.00  0.00     0.163 C 
ATOM     12  O   UNL     1     152.081 157.230 199.568  1.00  0.00    -0.294 OA
BRANCH  11  13
ATOM     13  C   UNL     1     151.991 158.751 201.414  1.00  0.00    -0.002 C 
ATOM     14  C   UNL     1     151.423 159.984 201.227  1.00  0.00    -0.069 C 
ATOM     15  C   UNL     1     151.593 160.758 199.938  1.00  0.00     0.039 C 
ATOM     16  C   UNL     1     150.635 160.669 202.325  1.00  0.00     0.039 C 
BRANCH  13  17
ATOM     17  C   UNL     1     151.887 158.069 202.777  1.00  0.00     0.066 CG0
ATOM     18  G   UNL     1     151.941 156.556 202.727  1.00  0.00     0.000 G0
ENDBRANCH  13  17
ENDBRANCH  11  13
ENDBRANCH  10  11
ENDBRANCH   1  10
TORSDOF 0
ENDMDL
MODEL 7
REMARK VINA RESULT:    -3.152      2.296      4.128
REMARK INTER + INTRA:          -4.100
REMARK INTER:                  -4.252
REMARK INTRA:                   0.152
REMARK UNBOUND:                 0.341
REMARK SMILES CC1=CCC(=C(C)C)C(=O)CC(C)=CCC1
REMARK SMILES IDX 12 1 14 2 13 3 15 4 16 5 2 6 1 7 3 8 11 10 9 11 10 12 5 13
REMARK SMILES IDX 6 14 7 15 8 16 4 17
REMARK H PARENT
REMARK Flexibility Score: 60.00
ROOT
ATOM      1  C   UNL     1     153.272 157.574 201.792  1.00  0.00    -0.070 C 
ATOM      2  C   UNL     1     154.610 157.394 201.677  1.00  0.00    -0.027 C 
ATOM      3  C   UNL     1     152.698 157.720 203.180  1.00  0.00     0.039 C 
ENDROOT
BRANCH   2   4
ATOM      4  C   UNL     1     155.357 157.254 200.375  1.00  0.00     0.032 C 
BRANCH   4   5
ATOM      5  C   UNL     1     156.139 158.536 200.043  1.00  0.00     0.034 C 
BRANCH   5   6
ATOM      6  C   UNL     1     155.455 159.408 199.008  1.00  0.00    -0.077 C 
ATOM      7  C   UNL     1     155.806 159.211 197.553  1.00  0.00     0.039 C 
ATOM      8  C   UNL     1     154.602 160.416 199.317  1.00  0.00    -0.023 CG0
ATOM      9  G   UNL     1     154.026 160.735 200.681  1.00  0.00     0.000 G0
ENDBRANCH   5   6
ENDBRANCH   4   5
ENDBRANCH   2   4
BRANCH   1  10
ATOM     10  C   UNL     1     152.329 157.626 200.598  1.00  0.00     0.111 C 
BRANCH  10  11
ATOM     11  C   UNL     1     152.089 159.046 200.141  1.00  0.00     0.163 C 
ATOM     12  O   UNL     1     151.427 159.192 199.077  1.00  0.00    -0.294 OA
BRANCH  11  13
ATOM     13  C   UNL     1     152.574 160.264 200.884  1.00  0.00    -0.002 C 
ATOM     14  C   UNL     1     151.747 160.955 201.730  1.00  0.00    -0.069 C 
ATOM     15  C   UNL     1     150.279 160.617 201.872  1.00  0.00     0.039 C 
ATOM     16  C   UNL     1     152.246 162.137 202.535  1.00  0.00     0.039 C 
BRANCH  13  17
ATOM     17  C   UNL     1     154.017 160.725 200.691  1.00  0.00     0.066 CG0
ATOM     18  G   UNL     1     154.594 160.426 199.323  1.00  0.00     0.000 G0
ENDBRANCH  13  17
ENDBRANCH  11  13
ENDBRANCH  10  11
ENDBRANCH   1  10
TORSDOF 0
ENDMDL
MODEL 8
REMARK VINA RESULT:    -3.138      2.172      4.322
REMARK INTER + INTRA:          -4.082
REMARK INTER:                  -4.229
REMARK INTRA:                   0.147
REMARK UNBOUND:                 0.341
REMARK SMILES CC1=CCC(=C(C)C)C(=O)CC(C)=CCC1
REMARK SMILES IDX 12 1 14 2 13 3 15 4 16 5 2 6 1 7 3 8 11 10 9 11 10 12 5 13
REMARK SMILES IDX 6 14 7 15 8 16 4 17
REMARK H PARENT
REMARK Flexibility Score: 60.00
ROOT
ATOM      1  C   UNL     1     151.543 160.625 201.121  1.00  0.00    -0.070 C 
ATOM      2  C   UNL     1     150.416 160.364 200.416  1.00  0.00    -0.027 C 
ATOM      3  C   UNL     1     151.465 160.555 202.626  1.00  0.00     0.039 C 
ENDROOT
BRANCH   2   4
ATOM      4  C   UNL     1     150.314 160.365 198.912  1.00  0.00     0.032 C 
BRANCH   4   5
ATOM      5  C   UNL     1     150.830 159.042 198.320  1.00  0.00     0.034 C 
BRANCH   5   6
ATOM      6  C   UNL     1     151.821 159.235 197.188  1.00  0.00    -0.077 C 
ATOM      7  C   UNL     1     151.336 159.859 195.902  1.00  0.00     0.039 C 
ATOM      8  C   UNL     1     153.106 158.803 197.230  1.00  0.00    -0.023 CG0
ATOM      9  G   UNL     1     153.841 158.248 198.432  1.00  0.00     0.000 G0
ENDBRANCH   5   6
ENDBRANCH   4   5
ENDBRANCH   2   4
BRANCH   1  10
ATOM     10  C   UNL     1     152.870 160.994 200.471  1.00  0.00     0.111 C 
BRANCH  10  11
ATOM     11  C   UNL     1     153.847 159.842 200.511  1.00  0.00     0.163 C 
ATOM     12  O   UNL     1     154.048 159.313 201.638  1.00  0.00    -0.294 OA
BRANCH  11  13
ATOM     13  C   UNL     1     154.559 159.298 199.299  1.00  0.00    -0.002 C 
ATOM     14  C   UNL     1     155.819 159.722 198.966  1.00  0.00    -0.069 C 
ATOM     15  C   UNL     1     156.513 160.840 199.714  1.00  0.00     0.039 C 
ATOM     16  C   UNL     1     156.570 159.129 197.792  1.00  0.00     0.039 C 
BRANCH  13  17
ATOM     17  C   UNL     1     153.860 158.250 198.436  1.00  0.00     0.066 CG0
ATOM     18  G   UNL     1     153.119 158.813 197.241  1.00  0.00     0.000 G0
ENDBRANCH  13  17
ENDBRANCH  11  13
ENDBRANCH  10  11
ENDBRANCH   1  10
TORSDOF 0
ENDMDL
MODEL 9
REMARK VINA RESULT:    -3.098      1.237      1.798
REMARK INTER + INTRA:          -4.024
REMARK INTER:                  -4.143
REMARK INTRA:                   0.119
REMARK UNBOUND:                 0.341
REMARK SMILES CC1=CCC(=C(C)C)C(=O)CC(C)=CCC1
REMARK SMILES IDX 12 1 14 2 13 3 15 4 16 5 2 6 1 7 3 8 11 10 9 11 10 12 5 13
REMARK SMILES IDX 6 14 7 15 8 16 4 17
REMARK H PARENT
REMARK Flexibility Score: 60.00
ROOT
ATOM      1  C   UNL     1     154.312 160.190 200.178  1.00  0.00    -0.070 C 
ATOM      2  C   UNL     1     155.241 159.311 200.624  1.00  0.00    -0.027 C 
ATOM      3  C   UNL     1     154.420 160.663 198.749  1.00  0.00     0.039 C 
ENDROOT
BRANCH   2   4
ATOM      4  C   UNL     1     155.276 158.716 202.010  1.00  0.00     0.032 C 
BRANCH   4   5
ATOM      5  C   UNL     1     154.776 157.262 202.002  1.00  0.00     0.034 C 
BRANCH   5   6
ATOM      6  C   UNL     1     153.341 157.116 202.471  1.00  0.00    -0.077 C 
ATOM      7  C   UNL     1     153.084 156.861 203.937  1.00  0.00     0.039 C 
ATOM      8  C   UNL     1     152.272 157.118 201.637  1.00  0.00    -0.023 CG0
ATOM      9  G   UNL     1     152.270 157.454 200.160  1.00  0.00     0.000 G0
ENDBRANCH   5   6
ENDBRANCH   4   5
ENDBRANCH   2   4
BRANCH   1  10
ATOM     10  C   UNL     1     153.181 160.726 201.046  1.00  0.00     0.111 C 
BRANCH  10  11
ATOM     11  C   UNL     1     151.901 159.954 200.829  1.00  0.00     0.163 C 
ATOM     12  O   UNL     1     150.917 160.281 201.545  1.00  0.00    -0.294 OA
BRANCH  11  13
ATOM     13  C   UNL     1     151.744 158.853 199.812  1.00  0.00    -0.002 C 
ATOM     14  C   UNL     1     151.163 159.089 198.593  1.00  0.00    -0.069 C 
ATOM     15  C   UNL     1     150.539 160.424 198.247  1.00  0.00     0.039 C 
ATOM     16  C   UNL     1     151.064 158.006 197.539  1.00  0.00     0.039 C 
BRANCH  13  17
ATOM     17  C   UNL     1     152.249 157.452 200.150  1.00  0.00     0.066 CG0
ATOM     18  G   UNL     1     152.263 157.130 201.630  1.00  0.00     0.000 G0
ENDBRANCH  13  17
ENDBRANCH  11  13
ENDBRANCH  10  11
ENDBRANCH   1  10
TORSDOF 0
ENDMDL
