MODEL 1
REMARK VINA RESULT:    -3.878      0.000      0.000
REMARK INTER + INTRA:          -3.878
REMARK INTER:                  -3.878
REMARK INTRA:                   0.000
REMARK UNBOUND:                 0.000
REMARK SMILES O=C1CCCCC1
REMARK SMILES IDX 5 1 4 2 3 3 2 4 1 5 7 6 6 7
REMARK H PARENT
REMARK Flexibility Score: inf
ROOT
ATOM      1  C   UNL     1      15.963  42.047 -13.743  1.00  0.00     0.001 C 
ATOM      2  C   UNL     1      15.374  42.680 -12.473  1.00  0.00     0.008 C 
ATOM      3  C   UNL     1      14.180  43.586 -12.801  1.00  0.00     0.075 C 
ATOM      4  C   UNL     1      14.543  44.556 -13.892  1.00  0.00     0.132 C 
ATOM      5  O   UNL     1      14.208  45.728 -13.813  1.00  0.00    -0.300 OA
ATOM      6  C   UNL     1      15.237  44.047 -15.125  1.00  0.00     0.075 C 
ATOM      7  C   UNL     1      16.404  43.129 -14.741  1.00  0.00     0.008 C 
ENDROOT
TORSDOF 0
ENDMDL
MODEL 2
REMARK VINA RESULT:    -3.810      1.960      2.748
REMARK INTER + INTRA:          -3.810
REMARK INTER:                  -3.810
REMARK INTRA:                   0.000
REMARK UNBOUND:                 0.000
REMARK SMILES O=C1CCCCC1
REMARK SMILES IDX 5 1 4 2 3 3 2 4 1 5 7 6 6 7
REMARK H PARENT
REMARK Flexibility Score: inf
ROOT
ATOM      1  C   UNL     1      14.466  44.639 -13.928  1.00  0.00     0.001 C 
ATOM      2  C   UNL     1      14.060  43.678 -12.800  1.00  0.00     0.008 C 
ATOM      3  C   UNL     1      15.251  42.832 -12.331  1.00  0.00     0.075 C 
ATOM      4  C   UNL     1      15.932  42.188 -13.507  1.00  0.00     0.132 C 
ATOM      5  O   UNL     1      16.286  41.020 -13.453  1.00  0.00    -0.300 OA
ATOM      6  C   UNL     1      16.258  43.024 -14.714  1.00  0.00     0.075 C 
ATOM      7  C   UNL     1      15.044  43.867 -15.124  1.00  0.00     0.008 C 
ENDROOT
TORSDOF 0
ENDMDL
MODEL 3
REMARK VINA RESULT:    -3.609     14.351     15.477
REMARK INTER + INTRA:          -3.609
REMARK INTER:                  -3.609
REMARK INTRA:                   0.000
REMARK UNBOUND:                 0.000
REMARK SMILES O=C1CCCCC1
REMARK SMILES IDX 5 1 4 2 3 3 2 4 1 5 7 6 6 7
REMARK H PARENT
REMARK Flexibility Score: inf
ROOT
ATOM      1  C   UNL     1      17.534  43.674   1.639  1.00  0.00     0.001 C 
ATOM      2  C   UNL     1      18.886  43.914   2.330  1.00  0.00     0.008 C 
ATOM      3  C   UNL     1      20.030  43.985   1.312  1.00  0.00     0.075 C 
ATOM      4  C   UNL     1      19.984  42.799   0.388  1.00  0.00     0.132 C 
ATOM      5  O   UNL     1      21.010  42.207   0.091  1.00  0.00    -0.300 OA
ATOM      6  C   UNL     1      18.675  42.409  -0.241  1.00  0.00     0.075 C 
ATOM      7  C   UNL     1      17.562  42.378   0.816  1.00  0.00     0.008 C 
ENDROOT
TORSDOF 0
ENDMDL
MODEL 4
REMARK VINA RESULT:    -3.541     14.426     15.355
REMARK INTER + INTRA:          -3.541
REMARK INTER:                  -3.541
REMARK INTRA:                   0.000
REMARK UNBOUND:                 0.000
REMARK SMILES O=C1CCCCC1
REMARK SMILES IDX 5 1 4 2 3 3 2 4 1 5 7 6 6 7
REMARK H PARENT
REMARK Flexibility Score: inf
ROOT
ATOM      1  C   UNL     1      16.833  44.680  -0.079  1.00  0.00     0.001 C 
ATOM      2  C   UNL     1      18.030  45.606  -0.345  1.00  0.00     0.008 C 
ATOM      3  C   UNL     1      19.359  44.910  -0.025  1.00  0.00     0.075 C 
ATOM      4  C   UNL     1      19.313  44.300   1.349  1.00  0.00     0.132 C 
ATOM      5  O   UNL     1      20.267  44.406   2.104  1.00  0.00    -0.300 OA
ATOM      6  C   UNL     1      18.119  43.476   1.747  1.00  0.00     0.075 C 
ATOM      7  C   UNL     1      16.820  44.207   1.382  1.00  0.00     0.008 C 
ENDROOT
TORSDOF 0
ENDMDL
MODEL 5
REMARK VINA RESULT:    -3.503     14.200     15.272
REMARK INTER + INTRA:          -3.503
REMARK INTER:                  -3.503
REMARK INTRA:                   0.000
REMARK UNBOUND:                 0.000
REMARK SMILES O=C1CCCCC1
REMARK SMILES IDX 5 1 4 2 3 3 2 4 1 5 7 6 6 7
REMARK H PARENT
REMARK Flexibility Score: inf
ROOT
ATOM      1  C   UNL     1      19.776  44.218   1.959  1.00  0.00     0.001 C 
ATOM      2  C   UNL     1      20.618  43.043   1.438  1.00  0.00     0.008 C 
ATOM      3  C   UNL     1      20.248  42.688  -0.008  1.00  0.00     0.075 C 
ATOM      4  C   UNL     1      18.760  42.520  -0.143  1.00  0.00     0.132 C 
ATOM      5  O   UNL     1      18.299  41.593  -0.790  1.00  0.00    -0.300 OA
ATOM      6  C   UNL     1      17.848  43.560   0.447  1.00  0.00     0.075 C 
ATOM      7  C   UNL     1      18.276  43.895   1.882  1.00  0.00     0.008 C 
ENDROOT
TORSDOF 0
ENDMDL
MODEL 6
REMARK VINA RESULT:    -3.458     14.335     15.141
REMARK INTER + INTRA:          -3.458
REMARK INTER:                  -3.458
REMARK INTRA:                   0.000
REMARK UNBOUND:                 0.000
REMARK SMILES O=C1CCCCC1
REMARK SMILES IDX 5 1 4 2 3 3 2 4 1 5 7 6 6 7
REMARK H PARENT
REMARK Flexibility Score: inf
ROOT
ATOM      1  C   UNL     1      19.868  43.899   0.315  1.00  0.00     0.001 C 
ATOM      2  C   UNL     1      19.462  43.364   1.697  1.00  0.00     0.008 C 
ATOM      3  C   UNL     1      17.972  43.005   1.743  1.00  0.00     0.075 C 
ATOM      4  C   UNL     1      17.142  44.150   1.229  1.00  0.00     0.132 C 
ATOM      5  O   UNL     1      16.118  44.479   1.808  1.00  0.00    -0.300 OA
ATOM      6  C   UNL     1      17.535  44.822  -0.057  1.00  0.00     0.075 C 
ATOM      7  C   UNL     1      19.037  45.135  -0.059  1.00  0.00     0.008 C 
ENDROOT
TORSDOF 0
ENDMDL
MODEL 7
REMARK VINA RESULT:    -3.444     14.012     14.955
REMARK INTER + INTRA:          -3.444
REMARK INTER:                  -3.444
REMARK INTRA:                   0.000
REMARK UNBOUND:                 0.000
REMARK SMILES O=C1CCCCC1
REMARK SMILES IDX 5 1 4 2 3 3 2 4 1 5 7 6 6 7
REMARK H PARENT
REMARK Flexibility Score: inf
ROOT
ATOM      1  C   UNL     1      19.834  44.480   1.480  1.00  0.00     0.001 C 
ATOM      2  C   UNL     1      19.422  45.001   0.094  1.00  0.00     0.008 C 
ATOM      3  C   UNL     1      17.920  44.813  -0.152  1.00  0.00     0.075 C 
ATOM      4  C   UNL     1      17.514  43.396   0.147  1.00  0.00     0.132 C 
ATOM      5  O   UNL     1      16.757  42.799  -0.602  1.00  0.00    -0.300 OA
ATOM      6  C   UNL     1      17.975  42.755   1.427  1.00  0.00     0.075 C 
ATOM      7  C   UNL     1      19.476  42.995   1.635  1.00  0.00     0.008 C 
ENDROOT
TORSDOF 0
ENDMDL
MODEL 8
REMARK VINA RESULT:    -3.434     14.035     14.798
REMARK INTER + INTRA:          -3.434
REMARK INTER:                  -3.434
REMARK INTRA:                   0.000
REMARK UNBOUND:                 0.000
REMARK SMILES O=C1CCCCC1
REMARK SMILES IDX 5 1 4 2 3 3 2 4 1 5 7 6 6 7
REMARK H PARENT
REMARK Flexibility Score: inf
ROOT
ATOM      1  C   UNL     1      19.426  43.087   1.524  1.00  0.00     0.001 C 
ATOM      2  C   UNL     1      17.898  42.946   1.602  1.00  0.00     0.008 C 
ATOM      3  C   UNL     1      17.225  43.426   0.310  1.00  0.00     0.075 C 
ATOM      4  C   UNL     1      17.724  44.794  -0.064  1.00  0.00     0.132 C 
ATOM      5  O   UNL     1      16.945  45.652  -0.450  1.00  0.00    -0.300 OA
ATOM      6  C   UNL     1      19.203  45.065  -0.049  1.00  0.00     0.075 C 
ATOM      7  C   UNL     1      19.829  44.544   1.252  1.00  0.00     0.008 C 
ENDROOT
TORSDOF 0
ENDMDL
