MODEL 1
REMARK VINA RESULT:    -2.965      0.000      0.000
REMARK INTER + INTRA:          -3.225
REMARK INTER:                  -3.225
REMARK INTRA:                   0.000
REMARK UNBOUND:                 0.000
REMARK SMILES [NH3+]CC(=O)[O-]
REMARK SMILES IDX 2 1 1 2 3 6 4 7 5 8
REMARK H PARENT 1 3 1 4 1 5
REMARK Flexibility Score: inf
ROOT
ATOM      1  C   UNL     1     169.014 170.617 171.502  1.00  0.00     0.312 C 
ENDROOT
BRANCH   1   2
ATOM      2  N   UNL     1     170.340 170.711 170.895  1.00  0.00    -0.353 N 
ATOM      3  H   UNL     1     170.767 169.758 170.856  1.00  0.00     0.344 HD
ATOM      4  H   UNL     1     170.263 171.089 169.922  1.00  0.00     0.344 HD
ATOM      5  H   UNL     1     170.954 171.335 171.468  1.00  0.00     0.344 HD
ENDBRANCH   1   2
BRANCH   1   6
ATOM      6  C   UNL     1     168.067 169.895 170.594  1.00  0.00     0.096 C 
ATOM      7  O   UNL     1     168.219 169.951 169.347  1.00  0.00    -0.544 OA
ATOM      8  O   UNL     1     167.046 169.119 171.129  1.00  0.00    -0.544 OA
ENDBRANCH   1   6
TORSDOF 2
ENDMDL
MODEL 2
REMARK VINA RESULT:    -2.884      2.317      2.492
REMARK INTER + INTRA:          -3.137
REMARK INTER:                  -3.137
REMARK INTRA:                   0.000
REMARK UNBOUND:                 0.000
REMARK SMILES [NH3+]CC(=O)[O-]
REMARK SMILES IDX 2 1 1 2 3 6 4 7 5 8
REMARK H PARENT 1 3 1 4 1 5
REMARK Flexibility Score: inf
ROOT
ATOM      1  C   UNL     1     168.198 169.917 170.061  1.00  0.00     0.312 C 
ENDROOT
BRANCH   1   2
ATOM      2  N   UNL     1     166.802 169.616 170.371  1.00  0.00    -0.353 N 
ATOM      3  H   UNL     1     166.718 169.393 171.389  1.00  0.00     0.344 HD
ATOM      4  H   UNL     1     166.200 170.444 170.155  1.00  0.00     0.344 HD
ATOM      5  H   UNL     1     166.481 168.791 169.814  1.00  0.00     0.344 HD
ENDBRANCH   1   2
BRANCH   1   6
ATOM      6  C   UNL     1     168.948 170.288 171.303  1.00  0.00     0.096 C 
ATOM      7  O   UNL     1     170.024 170.934 171.223  1.00  0.00    -0.544 OA
ATOM      8  O   UNL     1     168.431 169.963 172.551  1.00  0.00    -0.544 OA
ENDBRANCH   1   6
TORSDOF 2
ENDMDL
MODEL 3
REMARK VINA RESULT:    -2.707      9.668      9.838
REMARK INTER + INTRA:          -2.945
REMARK INTER:                  -2.945
REMARK INTRA:                   0.000
REMARK UNBOUND:                 0.000
REMARK SMILES [NH3+]CC(=O)[O-]
REMARK SMILES IDX 2 1 1 2 3 6 4 7 5 8
REMARK H PARENT 1 3 1 4 1 5
REMARK Flexibility Score: inf
ROOT
ATOM      1  C   UNL     1     160.499 164.582 167.798  1.00  0.00     0.312 C 
ENDROOT
BRANCH   1   2
ATOM      2  N   UNL     1     161.274 163.961 168.871  1.00  0.00    -0.353 N 
ATOM      3  H   UNL     1     160.863 163.026 169.093  1.00  0.00     0.344 HD
ATOM      4  H   UNL     1     162.267 163.831 168.568  1.00  0.00     0.344 HD
ATOM      5  H   UNL     1     161.242 164.559 169.728  1.00  0.00     0.344 HD
ENDBRANCH   1   2
BRANCH   1   6
ATOM      6  C   UNL     1     160.101 165.976 168.172  1.00  0.00     0.096 C 
ATOM      7  O   UNL     1     160.340 166.933 167.390  1.00  0.00    -0.544 OA
ATOM      8  O   UNL     1     159.420 166.210 169.360  1.00  0.00    -0.544 OA
ENDBRANCH   1   6
TORSDOF 2
ENDMDL
MODEL 4
REMARK VINA RESULT:    -2.478      9.076      9.349
REMARK INTER + INTRA:          -2.696
REMARK INTER:                  -2.696
REMARK INTRA:                   0.000
REMARK UNBOUND:                 0.000
REMARK SMILES [NH3+]CC(=O)[O-]
REMARK SMILES IDX 2 1 1 2 3 6 4 7 5 8
REMARK H PARENT 1 3 1 4 1 5
REMARK Flexibility Score: inf
ROOT
ATOM      1  C   UNL     1     165.189 176.620 167.015  1.00  0.00     0.312 C 
ENDROOT
BRANCH   1   2
ATOM      2  N   UNL     1     163.995 176.354 166.216  1.00  0.00    -0.353 N 
ATOM      3  H   UNL     1     163.772 177.198 165.642  1.00  0.00     0.344 HD
ATOM      4  H   UNL     1     164.164 175.543 165.577  1.00  0.00     0.344 HD
ATOM      5  H   UNL     1     163.183 176.145 166.843  1.00  0.00     0.344 HD
ENDBRANCH   1   2
BRANCH   1   6
ATOM      6  C   UNL     1     165.030 177.887 167.799  1.00  0.00     0.096 C 
ATOM      7  O   UNL     1     164.030 178.046 168.546  1.00  0.00    -0.544 OA
ATOM      8  O   UNL     1     166.012 178.867 167.742  1.00  0.00    -0.544 OA
ENDBRANCH   1   6
TORSDOF 2
ENDMDL
MODEL 5
REMARK VINA RESULT:    -2.460      9.126      9.288
REMARK INTER + INTRA:          -2.676
REMARK INTER:                  -2.676
REMARK INTRA:                   0.000
REMARK UNBOUND:                 0.000
REMARK SMILES [NH3+]CC(=O)[O-]
REMARK SMILES IDX 2 1 1 2 3 6 4 7 5 8
REMARK H PARENT 1 3 1 4 1 5
REMARK Flexibility Score: inf
ROOT
ATOM      1  C   UNL     1     165.198 176.684 167.069  1.00  0.00     0.312 C 
ENDROOT
BRANCH   1   2
ATOM      2  N   UNL     1     163.967 176.357 166.352  1.00  0.00    -0.353 N 
ATOM      3  H   UNL     1     163.978 175.343 166.099  1.00  0.00     0.344 HD
ATOM      4  H   UNL     1     163.137 176.545 166.961  1.00  0.00     0.344 HD
ATOM      5  H   UNL     1     163.900 176.925 165.477  1.00  0.00     0.344 HD
ENDBRANCH   1   2
BRANCH   1   6
ATOM      6  C   UNL     1     165.037 177.957 167.842  1.00  0.00     0.096 C 
ATOM      7  O   UNL     1     165.933 178.840 167.801  1.00  0.00    -0.544 OA
ATOM      8  O   UNL     1     163.875 178.187 168.567  1.00  0.00    -0.544 OA
ENDBRANCH   1   6
TORSDOF 2
ENDMDL
MODEL 6
REMARK VINA RESULT:    -2.356     10.794     10.979
REMARK INTER + INTRA:          -2.562
REMARK INTER:                  -2.562
REMARK INTRA:                   0.000
REMARK UNBOUND:                 0.000
REMARK SMILES [NH3+]CC(=O)[O-]
REMARK SMILES IDX 2 1 1 2 3 6 4 7 5 8
REMARK H PARENT 1 3 1 4 1 5
REMARK Flexibility Score: inf
ROOT
ATOM      1  C   UNL     1     160.646 163.228 167.716  1.00  0.00     0.312 C 
ENDROOT
BRANCH   1   2
ATOM      2  N   UNL     1     160.952 164.368 168.578  1.00  0.00    -0.353 N 
ATOM      3  H   UNL     1     160.122 164.574 169.180  1.00  0.00     0.344 HD
ATOM      4  H   UNL     1     161.769 164.144 169.192  1.00  0.00     0.344 HD
ATOM      5  H   UNL     1     161.168 165.210 167.997  1.00  0.00     0.344 HD
ENDBRANCH   1   2
BRANCH   1   6
ATOM      6  C   UNL     1     161.206 161.964 168.291  1.00  0.00     0.096 C 
ATOM      7  O   UNL     1     162.264 161.469 167.821  1.00  0.00    -0.544 OA
ATOM      8  O   UNL     1     160.588 161.361 169.379  1.00  0.00    -0.544 OA
ENDBRANCH   1   6
TORSDOF 2
ENDMDL
MODEL 7
REMARK VINA RESULT:    -2.306      8.967      9.111
REMARK INTER + INTRA:          -2.509
REMARK INTER:                  -2.509
REMARK INTRA:                   0.000
REMARK UNBOUND:                 0.000
REMARK SMILES [NH3+]CC(=O)[O-]
REMARK SMILES IDX 2 1 1 2 3 6 4 7 5 8
REMARK H PARENT 1 3 1 4 1 5
REMARK Flexibility Score: inf
ROOT
ATOM      1  C   UNL     1     165.715 178.590 166.720  1.00  0.00     0.312 C 
ENDROOT
BRANCH   1   2
ATOM      2  N   UNL     1     166.805 179.098 167.550  1.00  0.00    -0.353 N 
ATOM      3  H   UNL     1     166.796 180.143 167.526  1.00  0.00     0.344 HD
ATOM      4  H   UNL     1     166.681 178.781 168.539  1.00  0.00     0.344 HD
ATOM      5  H   UNL     1     167.724 178.758 167.183  1.00  0.00     0.344 HD
ENDBRANCH   1   2
BRANCH   1   6
ATOM      6  C   UNL     1     164.969 177.504 167.432  1.00  0.00     0.096 C 
ATOM      7  O   UNL     1     165.216 176.296 167.179  1.00  0.00    -0.544 OA
ATOM      8  O   UNL     1     164.039 177.826 168.412  1.00  0.00    -0.544 OA
ENDBRANCH   1   6
TORSDOF 2
ENDMDL
MODEL 8
REMARK VINA RESULT:    -2.246     10.275     10.485
REMARK INTER + INTRA:          -2.443
REMARK INTER:                  -2.443
REMARK INTRA:                   0.000
REMARK UNBOUND:                 0.000
REMARK SMILES [NH3+]CC(=O)[O-]
REMARK SMILES IDX 2 1 1 2 3 6 4 7 5 8
REMARK H PARENT 1 3 1 4 1 5
REMARK Flexibility Score: inf
ROOT
ATOM      1  C   UNL     1     162.262 178.587 168.907  1.00  0.00     0.312 C 
ENDROOT
BRANCH   1   2
ATOM      2  N   UNL     1     162.307 177.476 169.856  1.00  0.00    -0.353 N 
ATOM      3  H   UNL     1     162.545 176.597 169.342  1.00  0.00     0.344 HD
ATOM      4  H   UNL     1     163.039 177.653 170.582  1.00  0.00     0.344 HD
ATOM      5  H   UNL     1     161.375 177.358 170.315  1.00  0.00     0.344 HD
ENDBRANCH   1   2
BRANCH   1   6
ATOM      6  C   UNL     1     163.596 178.779 168.254  1.00  0.00     0.096 C 
ATOM      7  O   UNL     1     164.450 177.855 168.276  1.00  0.00    -0.544 OA
ATOM      8  O   UNL     1     163.875 179.960 167.578  1.00  0.00    -0.544 OA
ENDBRANCH   1   6
TORSDOF 2
ENDMDL
MODEL 9
REMARK VINA RESULT:    -2.137     11.099     11.240
REMARK INTER + INTRA:          -2.324
REMARK INTER:                  -2.324
REMARK INTRA:                   0.000
REMARK UNBOUND:                 0.000
REMARK SMILES [NH3+]CC(=O)[O-]
REMARK SMILES IDX 2 1 1 2 3 6 4 7 5 8
REMARK H PARENT 1 3 1 4 1 5
REMARK Flexibility Score: inf
ROOT
ATOM      1  C   UNL     1     176.187 178.106 170.736  1.00  0.00     0.312 C 
ENDROOT
BRANCH   1   2
ATOM      2  N   UNL     1     176.188 176.662 170.507  1.00  0.00    -0.353 N 
ATOM      3  H   UNL     1     175.503 176.212 171.156  1.00  0.00     0.344 HD
ATOM      4  H   UNL     1     175.907 176.455 169.521  1.00  0.00     0.344 HD
ATOM      5  H   UNL     1     177.140 176.270 170.693  1.00  0.00     0.344 HD
ENDBRANCH   1   2
BRANCH   1   6
ATOM      6  C   UNL     1     175.740 178.836 169.506  1.00  0.00     0.096 C 
ATOM      7  O   UNL     1     176.366 178.693 168.424  1.00  0.00    -0.544 OA
ATOM      8  O   UNL     1     174.603 179.632 169.546  1.00  0.00    -0.544 OA
ENDBRANCH   1   6
TORSDOF 2
ENDMDL
