MODEL 1
REMARK VINA RESULT:    -3.927      0.000      0.000
REMARK INTER + INTRA:          -5.817
REMARK INTER:                  -5.534
REMARK INTRA:                  -0.283
REMARK UNBOUND:                -0.283
REMARK SMILES CCCCCCCCC(=O)[O-]
REMARK SMILES IDX 6 1 7 2 8 3 9 4 10 5 11 6 5 7 4 8 3 9 2 10 1 11
REMARK H PARENT
REMARK Flexibility Score: inf
ROOT
ATOM      1  C   UNL     1       6.550  -1.497  -1.469  1.00  0.00     0.000 C 
ENDROOT
BRANCH   1   2
ATOM      2  C   UNL     1       6.533  -1.105   0.017  1.00  0.00     0.006 C 
BRANCH   2   3
ATOM      3  C   UNL     1       5.744   0.187   0.268  1.00  0.00     0.053 C 
BRANCH   3   4
ATOM      4  C   UNL     1       5.615   0.486   1.730  1.00  0.00     0.041 C 
ATOM      5  O   UNL     1       5.391  -0.445   2.549  1.00  0.00    -0.550 OA
ATOM      6  O   UNL     1       5.706   1.796   2.185  1.00  0.00    -0.550 OA
ENDBRANCH   3   4
ENDBRANCH   2   3
ENDBRANCH   1   2
BRANCH   1   7
ATOM      7  C   UNL     1       5.419  -0.796  -2.235  1.00  0.00     0.000 C 
BRANCH   7   8
ATOM      8  C   UNL     1       5.421  -1.123  -3.740  1.00  0.00    -0.000 C 
BRANCH   8   9
ATOM      9  C   UNL     1       4.417  -2.209  -4.170  1.00  0.00    -0.000 C 
BRANCH   9  10
ATOM     10  C   UNL     1       2.960  -1.832  -3.866  1.00  0.00    -0.003 C 
ATOM     11  C   UNL     1       2.331  -1.081  -5.036  1.00  0.00     0.004 C 
ENDBRANCH   9  10
ENDBRANCH   8   9
ENDBRANCH   7   8
ENDBRANCH   1   7
TORSDOF 7
ENDMDL
MODEL 2
REMARK VINA RESULT:    -3.566      1.944      3.472
REMARK INTER + INTRA:          -5.307
REMARK INTER:                  -4.835
REMARK INTRA:                  -0.473
REMARK UNBOUND:                -0.283
REMARK SMILES CCCCCCCCC(=O)[O-]
REMARK SMILES IDX 6 1 7 2 8 3 9 4 10 5 11 6 5 7 4 8 3 9 2 10 1 11
REMARK H PARENT
REMARK Flexibility Score: inf
ROOT
ATOM      1  C   UNL     1       5.268  -0.834  -1.837  1.00  0.00     0.000 C 
ENDROOT
BRANCH   1   2
ATOM      2  C   UNL     1       5.678   0.207  -0.783  1.00  0.00     0.006 C 
BRANCH   2   3
ATOM      3  C   UNL     1       6.170  -0.444   0.516  1.00  0.00     0.053 C 
BRANCH   3   4
ATOM      4  C   UNL     1       5.633   0.256   1.727  1.00  0.00     0.041 C 
ATOM      5  O   UNL     1       5.410  -0.392   2.784  1.00  0.00    -0.550 OA
ATOM      6  O   UNL     1       5.346   1.614   1.678  1.00  0.00    -0.550 OA
ENDBRANCH   3   4
ENDBRANCH   2   3
ENDBRANCH   1   2
BRANCH   1   7
ATOM      7  C   UNL     1       6.237  -0.819  -3.029  1.00  0.00     0.000 C 
BRANCH   7   8
ATOM      8  C   UNL     1       7.590  -1.483  -2.710  1.00  0.00    -0.000 C 
BRANCH   8   9
ATOM      9  C   UNL     1       7.516  -2.989  -2.396  1.00  0.00    -0.000 C 
BRANCH   9  10
ATOM     10  C   UNL     1       8.014  -3.332  -0.985  1.00  0.00    -0.003 C 
ATOM     11  C   UNL     1       8.600  -4.740  -0.936  1.00  0.00     0.004 C 
ENDBRANCH   9  10
ENDBRANCH   8   9
ENDBRANCH   7   8
ENDBRANCH   1   7
TORSDOF 7
ENDMDL
MODEL 3
REMARK VINA RESULT:    -3.564      1.982      3.037
REMARK INTER + INTRA:          -5.305
REMARK INTER:                  -4.888
REMARK INTRA:                  -0.417
REMARK UNBOUND:                -0.283
REMARK SMILES CCCCCCCCC(=O)[O-]
REMARK SMILES IDX 6 1 7 2 8 3 9 4 10 5 11 6 5 7 4 8 3 9 2 10 1 11
REMARK H PARENT
REMARK Flexibility Score: inf
ROOT
ATOM      1  C   UNL     1       5.129  -2.020  -4.064  1.00  0.00     0.000 C 
ENDROOT
BRANCH   1   2
ATOM      2  C   UNL     1       5.965  -1.227  -3.047  1.00  0.00     0.006 C 
BRANCH   2   3
ATOM      3  C   UNL     1       5.153  -0.838  -1.804  1.00  0.00     0.053 C 
BRANCH   3   4
ATOM      4  C   UNL     1       5.773   0.313  -1.072  1.00  0.00     0.041 C 
ATOM      5  O   UNL     1       6.483   1.148  -1.692  1.00  0.00    -0.550 OA
ATOM      6  O   UNL     1       5.595   0.444   0.300  1.00  0.00    -0.550 OA
ENDBRANCH   3   4
ENDBRANCH   2   3
ENDBRANCH   1   2
BRANCH   1   7
ATOM      7  C   UNL     1       4.323  -1.075  -4.968  1.00  0.00     0.000 C 
BRANCH   7   8
ATOM      8  C   UNL     1       2.816  -1.390  -4.973  1.00  0.00    -0.000 C 
BRANCH   8   9
ATOM      9  C   UNL     1       2.337  -2.291  -3.820  1.00  0.00    -0.000 C 
BRANCH   9  10
ATOM     10  C   UNL     1       1.772  -3.634  -4.304  1.00  0.00    -0.003 C 
ATOM     11  C   UNL     1       0.900  -4.282  -3.232  1.00  0.00     0.004 C 
ENDBRANCH   9  10
ENDBRANCH   8   9
ENDBRANCH   7   8
ENDBRANCH   1   7
TORSDOF 7
ENDMDL
MODEL 4
REMARK VINA RESULT:    -3.493      3.806      5.742
REMARK INTER + INTRA:          -5.205
REMARK INTER:                  -4.797
REMARK INTRA:                  -0.407
REMARK UNBOUND:                -0.283
REMARK SMILES CCCCCCCCC(=O)[O-]
REMARK SMILES IDX 6 1 7 2 8 3 9 4 10 5 11 6 5 7 4 8 3 9 2 10 1 11
REMARK H PARENT
REMARK Flexibility Score: inf
ROOT
ATOM      1  C   UNL     1       2.430  -2.679  -5.846  1.00  0.00     0.000 C 
ENDROOT
BRANCH   1   2
ATOM      2  C   UNL     1       2.694  -1.454  -4.955  1.00  0.00     0.006 C 
BRANCH   2   3
ATOM      3  C   UNL     1       4.164  -1.018  -4.987  1.00  0.00     0.053 C 
BRANCH   3   4
ATOM      4  C   UNL     1       4.963  -1.673  -3.902  1.00  0.00     0.041 C 
ATOM      5  O   UNL     1       5.546  -2.768  -4.118  1.00  0.00    -0.550 OA
ATOM      6  O   UNL     1       5.035  -1.092  -2.642  1.00  0.00    -0.550 OA
ENDBRANCH   3   4
ENDBRANCH   2   3
ENDBRANCH   1   2
BRANCH   1   7
ATOM      7  C   UNL     1       1.887  -3.853  -5.018  1.00  0.00     0.000 C 
BRANCH   7   8
ATOM      8  C   UNL     1       1.567  -3.464  -3.563  1.00  0.00    -0.000 C 
BRANCH   8   9
ATOM      9  C   UNL     1       0.606  -4.420  -2.831  1.00  0.00    -0.000 C 
BRANCH   9  10
ATOM     10  C   UNL     1       1.162  -5.845  -2.703  1.00  0.00    -0.003 C 
ATOM     11  C   UNL     1       1.089  -6.335  -1.259  1.00  0.00     0.004 C 
ENDBRANCH   9  10
ENDBRANCH   8   9
ENDBRANCH   7   8
ENDBRANCH   1   7
TORSDOF 7
ENDMDL
MODEL 5
REMARK VINA RESULT:    -3.438      4.214      6.432
REMARK INTER + INTRA:          -5.128
REMARK INTER:                  -4.801
REMARK INTRA:                  -0.328
REMARK UNBOUND:                -0.283
REMARK SMILES CCCCCCCCC(=O)[O-]
REMARK SMILES IDX 6 1 7 2 8 3 9 4 10 5 11 6 5 7 4 8 3 9 2 10 1 11
REMARK H PARENT
REMARK Flexibility Score: inf
ROOT
ATOM      1  C   UNL     1       4.167  -1.145  -4.875  1.00  0.00     0.000 C 
ENDROOT
BRANCH   1   2
ATOM      2  C   UNL     1       2.639  -1.289  -4.796  1.00  0.00     0.006 C 
BRANCH   2   3
ATOM      3  C   UNL     1       2.212  -2.562  -4.053  1.00  0.00     0.053 C 
BRANCH   3   4
ATOM      4  C   UNL     1       2.205  -3.757  -4.956  1.00  0.00     0.041 C 
ATOM      5  O   UNL     1       1.924  -3.626  -6.177  1.00  0.00    -0.550 OA
ATOM      6  O   UNL     1       2.473  -5.020  -4.443  1.00  0.00    -0.550 OA
ENDBRANCH   3   4
ENDBRANCH   2   3
ENDBRANCH   1   2
BRANCH   1   7
ATOM      7  C   UNL     1       4.838  -1.717  -3.617  1.00  0.00     0.000 C 
BRANCH   7   8
ATOM      8  C   UNL     1       5.697  -0.680  -2.871  1.00  0.00    -0.000 C 
BRANCH   8   9
ATOM      9  C   UNL     1       5.481  -0.633  -1.347  1.00  0.00    -0.000 C 
BRANCH   9  10
ATOM     10  C   UNL     1       6.776  -0.848  -0.551  1.00  0.00    -0.003 C 
ATOM     11  C   UNL     1       7.231  -2.303  -0.625  1.00  0.00     0.004 C 
ENDBRANCH   9  10
ENDBRANCH   8   9
ENDBRANCH   7   8
ENDBRANCH   1   7
TORSDOF 7
ENDMDL
MODEL 6
REMARK VINA RESULT:    -3.414      3.399      4.677
REMARK INTER + INTRA:          -5.094
REMARK INTER:                  -4.751
REMARK INTRA:                  -0.343
REMARK UNBOUND:                -0.283
REMARK SMILES CCCCCCCCC(=O)[O-]
REMARK SMILES IDX 6 1 7 2 8 3 9 4 10 5 11 6 5 7 4 8 3 9 2 10 1 11
REMARK H PARENT
REMARK Flexibility Score: inf
ROOT
ATOM      1  C   UNL     1       5.597   3.035  -0.129  1.00  0.00     0.000 C 
ENDROOT
BRANCH   1   2
ATOM      2  C   UNL     1       5.068   2.736   1.283  1.00  0.00     0.006 C 
BRANCH   2   3
ATOM      3  C   UNL     1       4.500   3.986   1.968  1.00  0.00     0.053 C 
BRANCH   3   4
ATOM      4  C   UNL     1       3.007   3.931   2.075  1.00  0.00     0.041 C 
ATOM      5  O   UNL     1       2.461   3.646   3.173  1.00  0.00    -0.550 OA
ATOM      6  O   UNL     1       2.218   4.161   0.954  1.00  0.00    -0.550 OA
ENDBRANCH   3   4
ENDBRANCH   2   3
ENDBRANCH   1   2
BRANCH   1   7
ATOM      7  C   UNL     1       6.789   2.130  -0.472  1.00  0.00     0.000 C 
BRANCH   7   8
ATOM      8  C   UNL     1       6.428   1.014  -1.470  1.00  0.00    -0.000 C 
BRANCH   8   9
ATOM      9  C   UNL     1       5.733  -0.212  -0.850  1.00  0.00    -0.000 C 
BRANCH   9  10
ATOM     10  C   UNL     1       6.641  -0.994   0.110  1.00  0.00    -0.003 C 
ATOM     11  C   UNL     1       7.220  -2.233  -0.568  1.00  0.00     0.004 C 
ENDBRANCH   9  10
ENDBRANCH   8   9
ENDBRANCH   7   8
ENDBRANCH   1   7
TORSDOF 7
ENDMDL
MODEL 7
REMARK VINA RESULT:    -3.369      4.473      6.518
REMARK INTER + INTRA:          -5.030
REMARK INTER:                  -4.692
REMARK INTRA:                  -0.338
REMARK UNBOUND:                -0.283
REMARK SMILES CCCCCCCCC(=O)[O-]
REMARK SMILES IDX 6 1 7 2 8 3 9 4 10 5 11 6 5 7 4 8 3 9 2 10 1 11
REMARK H PARENT
REMARK Flexibility Score: inf
ROOT
ATOM      1  C   UNL     1       2.117  -3.908  -4.598  1.00  0.00     0.000 C 
ENDROOT
BRANCH   1   2
ATOM      2  C   UNL     1       0.929  -4.763  -4.132  1.00  0.00     0.006 C 
BRANCH   2   3
ATOM      3  C   UNL     1       0.660  -4.615  -2.628  1.00  0.00     0.053 C 
BRANCH   3   4
ATOM      4  C   UNL     1       0.823  -5.915  -1.903  1.00  0.00     0.041 C 
ATOM      5  O   UNL     1       1.296  -5.934  -0.736  1.00  0.00    -0.550 OA
ATOM      6  O   UNL     1       0.485  -7.110  -2.527  1.00  0.00    -0.550 OA
ENDBRANCH   3   4
ENDBRANCH   2   3
ENDBRANCH   1   2
BRANCH   1   7
ATOM      7  C   UNL     1       2.110  -2.535  -3.909  1.00  0.00     0.000 C 
BRANCH   7   8
ATOM      8  C   UNL     1       2.628  -1.405  -4.817  1.00  0.00    -0.000 C 
BRANCH   8   9
ATOM      9  C   UNL     1       4.162  -1.293  -4.903  1.00  0.00    -0.000 C 
BRANCH   9  10
ATOM     10  C   UNL     1       4.848  -1.400  -3.534  1.00  0.00    -0.003 C 
ATOM     11  C   UNL     1       6.260  -1.963  -3.670  1.00  0.00     0.004 C 
ENDBRANCH   9  10
ENDBRANCH   8   9
ENDBRANCH   7   8
ENDBRANCH   1   7
TORSDOF 7
ENDMDL
MODEL 8
REMARK VINA RESULT:    -3.356      5.972      7.302
REMARK INTER + INTRA:          -5.012
REMARK INTER:                  -4.731
REMARK INTRA:                  -0.281
REMARK UNBOUND:                -0.283
REMARK SMILES CCCCCCCCC(=O)[O-]
REMARK SMILES IDX 6 1 7 2 8 3 9 4 10 5 11 6 5 7 4 8 3 9 2 10 1 11
REMARK H PARENT
REMARK Flexibility Score: inf
ROOT
ATOM      1  C   UNL     1       0.403  -4.750  -3.019  1.00  0.00     0.000 C 
ENDROOT
BRANCH   1   2
ATOM      2  C   UNL     1       0.678  -5.219  -1.581  1.00  0.00     0.006 C 
BRANCH   2   3
ATOM      3  C   UNL     1       1.306  -6.618  -1.536  1.00  0.00     0.053 C 
BRANCH   3   4
ATOM      4  C   UNL     1       0.302  -7.667  -1.167  1.00  0.00     0.041 C 
ATOM      5  O   UNL     1       0.649  -8.657  -0.469  1.00  0.00    -0.550 OA
ATOM      6  O   UNL     1      -1.007  -7.571  -1.622  1.00  0.00    -0.550 OA
ENDBRANCH   3   4
ENDBRANCH   2   3
ENDBRANCH   1   2
BRANCH   1   7
ATOM      7  C   UNL     1       1.644  -4.936  -3.904  1.00  0.00     0.000 C 
BRANCH   7   8
ATOM      8  C   UNL     1       1.962  -3.696  -4.759  1.00  0.00    -0.000 C 
BRANCH   8   9
ATOM      9  C   UNL     1       2.269  -2.416  -3.959  1.00  0.00    -0.000 C 
BRANCH   9  10
ATOM     10  C   UNL     1       2.640  -1.225  -4.853  1.00  0.00    -0.003 C 
ATOM     11  C   UNL     1       4.147  -1.160  -5.086  1.00  0.00     0.004 C 
ENDBRANCH   9  10
ENDBRANCH   8   9
ENDBRANCH   7   8
ENDBRANCH   1   7
TORSDOF 7
ENDMDL
MODEL 9
REMARK VINA RESULT:    -3.299      2.237      3.031
REMARK INTER + INTRA:          -4.932
REMARK INTER:                  -4.317
REMARK INTRA:                  -0.615
REMARK UNBOUND:                -0.283
REMARK SMILES CCCCCCCCC(=O)[O-]
REMARK SMILES IDX 6 1 7 2 8 3 9 4 10 5 11 6 5 7 4 8 3 9 2 10 1 11
REMARK H PARENT
REMARK Flexibility Score: inf
ROOT
ATOM      1  C   UNL     1       7.821  -0.654   0.059  1.00  0.00     0.000 C 
ENDROOT
BRANCH   1   2
ATOM      2  C   UNL     1       6.309  -0.756  -0.198  1.00  0.00     0.006 C 
BRANCH   2   3
ATOM      3  C   UNL     1       5.556   0.503   0.253  1.00  0.00     0.053 C 
BRANCH   3   4
ATOM      4  C   UNL     1       5.626   0.691   1.737  1.00  0.00     0.041 C 
ATOM      5  O   UNL     1       5.966   1.804   2.219  1.00  0.00    -0.550 OA
ATOM      6  O   UNL     1       5.349  -0.371   2.589  1.00  0.00    -0.550 OA
ENDBRANCH   3   4
ENDBRANCH   2   3
ENDBRANCH   1   2
BRANCH   1   7
ATOM      7  C   UNL     1       8.531  -1.963  -0.316  1.00  0.00     0.000 C 
BRANCH   7   8
ATOM      8  C   UNL     1       7.583  -3.002  -0.943  1.00  0.00    -0.000 C 
BRANCH   8   9
ATOM      9  C   UNL     1       7.872  -3.338  -2.418  1.00  0.00    -0.000 C 
BRANCH   9  10
ATOM     10  C   UNL     1       6.749  -2.893  -3.366  1.00  0.00    -0.003 C 
ATOM     11  C   UNL     1       6.920  -1.432  -3.773  1.00  0.00     0.004 C 
ENDBRANCH   9  10
ENDBRANCH   8   9
ENDBRANCH   7   8
ENDBRANCH   1   7
TORSDOF 7
ENDMDL
