MODEL 1
REMARK VINA RESULT:    -8.724      0.000      0.000
REMARK INTER + INTRA:         -12.807
REMARK INTER:                 -11.529
REMARK INTRA:                  -1.277
REMARK UNBOUND:                -1.277
REMARK SMILES CC[C@@H](C=C[C@@H](C)[C@@H]1CC[C@@H]2[C@@H]3CC[C@@H]4C[C@@H](O)CC[C@]4(C)[C@@H]3CC[C@@]21C)C(C)C
REMARK SMILES IDX 6 1 7 2 5 3 4 4 3 5 2 6 1 7 28 8 29 9 30 10 8 11 9 12 26 13
REMARK SMILES IDX 10 14 11 15 25 16 27 17 12 18 24 19 23 20 13 21 21 22 14 23
REMARK SMILES IDX 15 24 20 25 22 26 16 27 19 28 17 29 18 30
REMARK H PARENT 18 31
REMARK Flexibility Score: inf
ROOT
ATOM      1  C   UNL     1     132.523 125.224 138.878  1.00  0.00     0.012 C 
ATOM      2  C   UNL     1     131.415 125.565 139.894  1.00  0.00     0.012 C 
ENDROOT
BRANCH   1   3
ATOM      3  C   UNL     1     133.141 123.888 139.236  1.00  0.00    -0.028 C 
ATOM      4  C   UNL     1     134.450 123.747 139.515  1.00  0.00    -0.027 C 
BRANCH   4   5
ATOM      5  C   UNL     1     135.065 122.412 139.896  1.00  0.00     0.014 C 
BRANCH   5   6
ATOM      6  C   UNL     1     133.969 121.406 140.333  1.00  0.00     0.004 C 
ATOM      7  C   UNL     1     134.269 119.971 139.894  1.00  0.00     0.004 C 
ENDBRANCH   5   6
BRANCH   5   8
ATOM      8  C   UNL     1     136.179 122.596 140.977  1.00  0.00    -0.011 C 
ATOM      9  C   UNL     1     137.413 121.720 140.696  1.00  0.00     0.008 C 
ATOM     10  C   UNL     1     136.626 124.066 141.076  1.00  0.00     0.008 C 
ENDBRANCH   5   8
ENDBRANCH   4   5
ENDBRANCH   1   3
BRANCH   1  11
ATOM     11  C   UNL     1     133.622 126.331 138.674  1.00  0.00     0.002 C 
ATOM     12  C   UNL     1     133.738 127.402 139.760  1.00  0.00     0.005 C 
ATOM     13  C   UNL     1     133.606 127.115 137.328  1.00  0.00    -0.026 C 
ATOM     14  C   UNL     1     134.546 128.536 139.135  1.00  0.00     0.005 C 
ATOM     15  C   UNL     1     134.611 128.269 137.616  1.00  0.00    -0.001 C 
ATOM     16  C   UNL     1     132.187 127.657 136.925  1.00  0.00     0.007 C 
ATOM     17  C   UNL     1     134.142 126.212 136.188  1.00  0.00     0.012 C 
ATOM     18  C   UNL     1     134.433 129.522 136.703  1.00  0.00    -0.004 C 
ATOM     19  C   UNL     1     131.948 129.130 137.274  1.00  0.00     0.005 C 
ATOM     20  C   UNL     1     132.959 130.033 136.528  1.00  0.00    -0.001 C 
ATOM     21  C   UNL     1     135.445 130.625 137.049  1.00  0.00     0.004 C 
ATOM     22  C   UNL     1     132.729 131.588 136.731  1.00  0.00    -0.026 C 
ATOM     23  C   UNL     1     135.308 131.812 136.105  1.00  0.00     0.004 C 
ATOM     24  C   UNL     1     133.866 132.397 135.991  1.00  0.00    -0.002 C 
ATOM     25  C   UNL     1     132.641 131.972 138.246  1.00  0.00     0.010 C 
ATOM     26  C   UNL     1     131.365 131.964 136.071  1.00  0.00     0.012 C 
ATOM     27  C   UNL     1     133.858 133.906 136.344  1.00  0.00     0.036 C 
ATOM     28  C   UNL     1     132.659 133.484 138.507  1.00  0.00     0.032 C 
ATOM     29  C   UNL     1     133.881 134.142 137.856  1.00  0.00     0.114 C 
BRANCH  29  30
ATOM     30  O   UNL     1     133.860 135.524 138.103  1.00  0.00    -0.393 OA
ATOM     31  H   UNL     1     134.300 135.960 137.325  1.00  0.00     0.210 HD
ENDBRANCH  29  30
ENDBRANCH   1  11
TORSDOF 6
ENDMDL
MODEL 2
REMARK VINA RESULT:    -8.298      3.183      5.063
REMARK INTER + INTRA:         -12.243
REMARK INTER:                 -11.165
REMARK INTRA:                  -1.078
REMARK UNBOUND:                -1.277
REMARK SMILES CC[C@@H](C=C[C@@H](C)[C@@H]1CC[C@@H]2[C@@H]3CC[C@@H]4C[C@@H](O)CC[C@]4(C)[C@@H]3CC[C@@]21C)C(C)C
REMARK SMILES IDX 6 1 7 2 5 3 4 4 3 5 2 6 1 7 28 8 29 9 30 10 8 11 9 12 26 13
REMARK SMILES IDX 10 14 11 15 25 16 27 17 12 18 24 19 23 20 13 21 21 22 14 23
REMARK SMILES IDX 15 24 20 25 22 26 16 27 19 28 17 29 18 30
REMARK H PARENT 18 31
REMARK Flexibility Score: inf
ROOT
ATOM      1  C   UNL     1     135.615 123.492 140.281  1.00  0.00     0.012 C 
ATOM      2  C   UNL     1     136.851 124.337 140.646  1.00  0.00     0.012 C 
ENDROOT
BRANCH   1   3
ATOM      3  C   UNL     1     136.064 122.191 139.645  1.00  0.00    -0.028 C 
ATOM      4  C   UNL     1     136.267 121.069 140.359  1.00  0.00    -0.027 C 
BRANCH   4   5
ATOM      5  C   UNL     1     136.693 119.759 139.719  1.00  0.00     0.014 C 
BRANCH   5   6
ATOM      6  C   UNL     1     138.172 119.829 139.258  1.00  0.00     0.004 C 
ATOM      7  C   UNL     1     139.077 118.851 140.012  1.00  0.00     0.004 C 
ENDBRANCH   5   6
BRANCH   5   8
ATOM      8  C   UNL     1     135.721 119.357 138.563  1.00  0.00    -0.011 C 
ATOM      9  C   UNL     1     136.457 119.166 137.224  1.00  0.00     0.008 C 
ATOM     10  C   UNL     1     134.957 118.063 138.899  1.00  0.00     0.008 C 
ENDBRANCH   5   8
ENDBRANCH   4   5
ENDBRANCH   1   3
BRANCH   1  11
ATOM     11  C   UNL     1     134.530 124.217 139.404  1.00  0.00     0.002 C 
ATOM     12  C   UNL     1     134.894 125.596 138.851  1.00  0.00     0.005 C 
ATOM     13  C   UNL     1     133.109 124.387 140.019  1.00  0.00    -0.026 C 
ATOM     14  C   UNL     1     133.573 126.229 138.419  1.00  0.00     0.005 C 
ATOM     15  C   UNL     1     132.438 125.369 139.015  1.00  0.00    -0.001 C 
ATOM     16  C   UNL     1     133.115 124.958 141.484  1.00  0.00     0.007 C 
ATOM     17  C   UNL     1     132.368 123.026 140.013  1.00  0.00     0.012 C 
ATOM     18  C   UNL     1     131.227 126.162 139.598  1.00  0.00    -0.004 C 
ATOM     19  C   UNL     1     132.852 126.464 141.579  1.00  0.00     0.005 C 
ATOM     20  C   UNL     1     131.452 126.805 141.013  1.00  0.00    -0.001 C 
ATOM     21  C   UNL     1     130.622 127.119 138.560  1.00  0.00     0.004 C 
ATOM     22  C   UNL     1     131.033 128.326 141.165  1.00  0.00    -0.026 C 
ATOM     23  C   UNL     1     129.399 127.834 139.119  1.00  0.00     0.004 C 
ATOM     24  C   UNL     1     129.629 128.562 140.480  1.00  0.00    -0.002 C 
ATOM     25  C   UNL     1     132.123 129.292 140.593  1.00  0.00     0.010 C 
ATOM     26  C   UNL     1     130.882 128.634 142.688  1.00  0.00     0.012 C 
ATOM     27  C   UNL     1     129.260 130.063 140.365  1.00  0.00     0.036 C 
ATOM     28  C   UNL     1     131.668 130.754 140.496  1.00  0.00     0.032 C 
ATOM     29  C   UNL     1     130.369 130.877 139.693  1.00  0.00     0.114 C 
BRANCH  29  30
ATOM     30  O   UNL     1     129.975 132.224 139.634  1.00  0.00    -0.393 OA
ATOM     31  H   UNL     1     130.695 132.752 140.070  1.00  0.00     0.210 HD
ENDBRANCH  29  30
ENDBRANCH   1  11
TORSDOF 6
ENDMDL
MODEL 3
REMARK VINA RESULT:    -8.181      1.655      2.976
REMARK INTER + INTRA:         -12.089
REMARK INTER:                 -11.055
REMARK INTRA:                  -1.034
REMARK UNBOUND:                -1.277
REMARK SMILES CC[C@@H](C=C[C@@H](C)[C@@H]1CC[C@@H]2[C@@H]3CC[C@@H]4C[C@@H](O)CC[C@]4(C)[C@@H]3CC[C@@]21C)C(C)C
REMARK SMILES IDX 6 1 7 2 5 3 4 4 3 5 2 6 1 7 28 8 29 9 30 10 8 11 9 12 26 13
REMARK SMILES IDX 10 14 11 15 25 16 27 17 12 18 24 19 23 20 13 21 21 22 14 23
REMARK SMILES IDX 15 24 20 25 22 26 16 27 19 28 17 29 18 30
REMARK H PARENT 18 31
REMARK Flexibility Score: inf
ROOT
ATOM      1  C   UNL     1     133.961 123.098 139.598  1.00  0.00     0.012 C 
ATOM      2  C   UNL     1     132.633 123.002 140.375  1.00  0.00     0.012 C 
ENDROOT
BRANCH   1   3
ATOM      3  C   UNL     1     134.916 122.033 140.099  1.00  0.00    -0.028 C 
ATOM      4  C   UNL     1     135.031 120.829 139.511  1.00  0.00    -0.027 C 
BRANCH   4   5
ATOM      5  C   UNL     1     136.005 119.770 139.998  1.00  0.00     0.014 C 
BRANCH   5   6
ATOM      6  C   UNL     1     137.309 120.423 140.524  1.00  0.00     0.004 C 
ATOM      7  C   UNL     1     138.417 119.403 140.799  1.00  0.00     0.004 C 
ENDBRANCH   5   6
BRANCH   5   8
ATOM      8  C   UNL     1     136.271 118.700 138.890  1.00  0.00    -0.011 C 
ATOM      9  C   UNL     1     135.058 117.778 138.668  1.00  0.00     0.008 C 
ATOM     10  C   UNL     1     136.644 119.362 137.551  1.00  0.00     0.008 C 
ENDBRANCH   5   8
ENDBRANCH   4   5
ENDBRANCH   1   3
BRANCH   1  11
ATOM     11  C   UNL     1     134.640 124.517 139.582  1.00  0.00     0.002 C 
ATOM     12  C   UNL     1     134.071 125.568 140.537  1.00  0.00     0.005 C 
ATOM     13  C   UNL     1     134.757 125.238 138.206  1.00  0.00    -0.026 C 
ATOM     14  C   UNL     1     134.601 126.909 140.036  1.00  0.00     0.005 C 
ATOM     15  C   UNL     1     135.190 126.672 138.629  1.00  0.00    -0.001 C 
ATOM     16  C   UNL     1     133.421 125.248 137.378  1.00  0.00     0.007 C 
ATOM     17  C   UNL     1     135.869 124.572 137.357  1.00  0.00     0.012 C 
ATOM     18  C   UNL     1     134.880 127.778 137.573  1.00  0.00    -0.004 C 
ATOM     19  C   UNL     1     132.615 126.546 137.489  1.00  0.00     0.005 C 
ATOM     20  C   UNL     1     133.439 127.741 136.951  1.00  0.00    -0.001 C 
ATOM     21  C   UNL     1     135.321 129.167 138.059  1.00  0.00     0.004 C 
ATOM     22  C   UNL     1     132.656 129.119 136.916  1.00  0.00    -0.026 C 
ATOM     23  C   UNL     1     135.077 130.226 136.992  1.00  0.00     0.004 C 
ATOM     24  C   UNL     1     133.623 130.269 136.430  1.00  0.00    -0.002 C 
ATOM     25  C   UNL     1     132.009 129.457 138.301  1.00  0.00     0.010 C 
ATOM     26  C   UNL     1     131.500 128.990 135.875  1.00  0.00     0.012 C 
ATOM     27  C   UNL     1     133.012 131.682 136.603  1.00  0.00     0.036 C 
ATOM     28  C   UNL     1     131.447 130.882 138.392  1.00  0.00     0.032 C 
ATOM     29  C   UNL     1     132.513 131.921 138.030  1.00  0.00     0.114 C 
BRANCH  29  30
ATOM     30  O   UNL     1     131.963 133.211 138.112  1.00  0.00    -0.393 OA
ATOM     31  H   UNL     1     131.123 133.198 137.581  1.00  0.00     0.210 HD
ENDBRANCH  29  30
ENDBRANCH   1  11
TORSDOF 6
ENDMDL
MODEL 4
REMARK VINA RESULT:    -8.093      3.582      4.631
REMARK INTER + INTRA:         -11.973
REMARK INTER:                 -10.616
REMARK INTRA:                  -1.357
REMARK UNBOUND:                -1.277
REMARK SMILES CC[C@@H](C=C[C@@H](C)[C@@H]1CC[C@@H]2[C@@H]3CC[C@@H]4C[C@@H](O)CC[C@]4(C)[C@@H]3CC[C@@]21C)C(C)C
REMARK SMILES IDX 6 1 7 2 5 3 4 4 3 5 2 6 1 7 28 8 29 9 30 10 8 11 9 12 26 13
REMARK SMILES IDX 10 14 11 15 25 16 27 17 12 18 24 19 23 20 13 21 21 22 14 23
REMARK SMILES IDX 15 24 20 25 22 26 16 27 19 28 17 29 18 30
REMARK H PARENT 18 31
REMARK Flexibility Score: inf
ROOT
ATOM      1  C   UNL     1     130.448 125.223 141.068  1.00  0.00     0.012 C 
ATOM      2  C   UNL     1     129.893 124.869 142.461  1.00  0.00     0.012 C 
ENDROOT
BRANCH   1   3
ATOM      3  C   UNL     1     131.342 124.100 140.580  1.00  0.00    -0.028 C 
ATOM      4  C   UNL     1     132.531 124.325 139.993  1.00  0.00    -0.027 C 
BRANCH   4   5
ATOM      5  C   UNL     1     133.438 123.199 139.526  1.00  0.00     0.014 C 
BRANCH   5   6
ATOM      6  C   UNL     1     133.095 121.877 140.260  1.00  0.00     0.004 C 
ATOM      7  C   UNL     1     134.233 120.855 140.206  1.00  0.00     0.004 C 
ENDBRANCH   5   6
BRANCH   5   8
ATOM      8  C   UNL     1     134.943 123.595 139.669  1.00  0.00    -0.011 C 
ATOM      9  C   UNL     1     135.486 124.283 138.403  1.00  0.00     0.008 C 
ATOM     10  C   UNL     1     135.164 124.527 140.875  1.00  0.00     0.008 C 
ENDBRANCH   5   8
ENDBRANCH   4   5
ENDBRANCH   1   3
BRANCH   1  11
ATOM     11  C   UNL     1     131.165 126.619 140.956  1.00  0.00     0.002 C 
ATOM     12  C   UNL     1     131.415 127.376 142.262  1.00  0.00     0.005 C 
ATOM     13  C   UNL     1     130.541 127.669 139.989  1.00  0.00    -0.026 C 
ATOM     14  C   UNL     1     131.718 128.816 141.852  1.00  0.00     0.005 C 
ATOM     15  C   UNL     1     131.325 128.960 140.366  1.00  0.00    -0.001 C 
ATOM     16  C   UNL     1     128.990 127.851 140.164  1.00  0.00     0.007 C 
ATOM     17  C   UNL     1     130.838 127.272 138.521  1.00  0.00     0.012 C 
ATOM     18  C   UNL     1     130.600 130.289 139.986  1.00  0.00    -0.004 C 
ATOM     19  C   UNL     1     128.585 129.055 141.020  1.00  0.00     0.005 C 
ATOM     20  C   UNL     1     129.081 130.370 140.373  1.00  0.00    -0.001 C 
ATOM     21  C   UNL     1     131.421 131.521 140.397  1.00  0.00     0.004 C 
ATOM     22  C   UNL     1     128.619 131.689 141.121  1.00  0.00    -0.026 C 
ATOM     23  C   UNL     1     130.737 132.808 139.958  1.00  0.00     0.004 C 
ATOM     24  C   UNL     1     129.253 132.952 140.415  1.00  0.00    -0.002 C 
ATOM     25  C   UNL     1     128.966 131.646 142.647  1.00  0.00     0.010 C 
ATOM     26  C   UNL     1     127.066 131.796 140.994  1.00  0.00     0.012 C 
ATOM     27  C   UNL     1     129.055 134.257 141.227  1.00  0.00     0.036 C 
ATOM     28  C   UNL     1     128.760 132.984 143.368  1.00  0.00     0.032 C 
ATOM     29  C   UNL     1     129.532 134.111 142.674  1.00  0.00     0.114 C 
BRANCH  29  30
ATOM     30  O   UNL     1     129.312 135.322 143.351  1.00  0.00    -0.393 OA
ATOM     31  H   UNL     1     128.378 135.296 143.689  1.00  0.00     0.210 HD
ENDBRANCH  29  30
ENDBRANCH   1  11
TORSDOF 6
ENDMDL
MODEL 5
REMARK VINA RESULT:    -8.060      4.588      9.301
REMARK INTER + INTRA:         -11.928
REMARK INTER:                 -10.992
REMARK INTRA:                  -0.937
REMARK UNBOUND:                -1.277
REMARK SMILES CC[C@@H](C=C[C@@H](C)[C@@H]1CC[C@@H]2[C@@H]3CC[C@@H]4C[C@@H](O)CC[C@]4(C)[C@@H]3CC[C@@]21C)C(C)C
REMARK SMILES IDX 6 1 7 2 5 3 4 4 3 5 2 6 1 7 28 8 29 9 30 10 8 11 9 12 26 13
REMARK SMILES IDX 10 14 11 15 25 16 27 17 12 18 24 19 23 20 13 21 21 22 14 23
REMARK SMILES IDX 15 24 20 25 22 26 16 27 19 28 17 29 18 30
REMARK H PARENT 18 31
REMARK Flexibility Score: inf
ROOT
ATOM      1  C   UNL     1     132.284 126.545 138.798  1.00  0.00     0.012 C 
ATOM      2  C   UNL     1     132.145 127.727 137.819  1.00  0.00     0.012 C 
ENDROOT
BRANCH   1   3
ATOM      3  C   UNL     1     131.576 126.880 140.096  1.00  0.00    -0.028 C 
ATOM      4  C   UNL     1     130.400 126.326 140.443  1.00  0.00    -0.027 C 
BRANCH   4   5
ATOM      5  C   UNL     1     129.702 126.644 141.754  1.00  0.00     0.014 C 
BRANCH   5   6
ATOM      6  C   UNL     1     130.448 127.771 142.514  1.00  0.00     0.004 C 
ATOM      7  C   UNL     1     129.523 128.914 142.941  1.00  0.00     0.004 C 
ENDBRANCH   5   6
BRANCH   5   8
ATOM      8  C   UNL     1     129.518 125.354 142.619  1.00  0.00    -0.011 C 
ATOM      9  C   UNL     1     129.487 124.078 141.758  1.00  0.00     0.008 C 
ATOM     10  C   UNL     1     130.636 125.220 143.668  1.00  0.00     0.008 C 
ENDBRANCH   5   8
ENDBRANCH   4   5
ENDBRANCH   1   3
BRANCH   1  11
ATOM     11  C   UNL     1     133.752 126.043 139.057  1.00  0.00     0.002 C 
ATOM     12  C   UNL     1     134.503 125.454 137.861  1.00  0.00     0.005 C 
ATOM     13  C   UNL     1     133.966 125.024 140.215  1.00  0.00    -0.026 C 
ATOM     14  C   UNL     1     135.685 124.690 138.454  1.00  0.00     0.005 C 
ATOM     15  C   UNL     1     135.433 124.563 139.971  1.00  0.00    -0.001 C 
ATOM     16  C   UNL     1     132.959 123.817 140.194  1.00  0.00     0.007 C 
ATOM     17  C   UNL     1     133.853 125.749 141.580  1.00  0.00     0.012 C 
ATOM     18  C   UNL     1     135.787 123.179 140.600  1.00  0.00    -0.004 C 
ATOM     19  C   UNL     1     133.515 122.538 139.561  1.00  0.00     0.005 C 
ATOM     20  C   UNL     1     134.744 122.032 140.353  1.00  0.00    -0.001 C 
ATOM     21  C   UNL     1     137.242 122.780 140.311  1.00  0.00     0.004 C 
ATOM     22  C   UNL     1     135.331 120.649 139.848  1.00  0.00    -0.026 C 
ATOM     23  C   UNL     1     137.596 121.463 140.989  1.00  0.00     0.004 C 
ATOM     24  C   UNL     1     136.624 120.283 140.678  1.00  0.00    -0.002 C 
ATOM     25  C   UNL     1     135.620 120.666 138.309  1.00  0.00     0.010 C 
ATOM     26  C   UNL     1     134.260 119.545 140.114  1.00  0.00     0.012 C 
ATOM     27  C   UNL     1     137.398 119.078 140.087  1.00  0.00     0.036 C 
ATOM     28  C   UNL     1     136.407 119.446 137.812  1.00  0.00     0.032 C 
ATOM     29  C   UNL     1     137.709 119.270 138.600  1.00  0.00     0.114 C 
BRANCH  29  30
ATOM     30  O   UNL     1     138.398 118.140 138.129  1.00  0.00    -0.393 OA
ATOM     31  H   UNL     1     139.112 117.943 138.792  1.00  0.00     0.210 HD
ENDBRANCH  29  30
ENDBRANCH   1  11
TORSDOF 6
ENDMDL
MODEL 6
REMARK VINA RESULT:    -8.023      1.818      3.651
REMARK INTER + INTRA:         -11.880
REMARK INTER:                 -10.962
REMARK INTRA:                  -0.918
REMARK UNBOUND:                -1.277
REMARK SMILES CC[C@@H](C=C[C@@H](C)[C@@H]1CC[C@@H]2[C@@H]3CC[C@@H]4C[C@@H](O)CC[C@]4(C)[C@@H]3CC[C@@]21C)C(C)C
REMARK SMILES IDX 6 1 7 2 5 3 4 4 3 5 2 6 1 7 28 8 29 9 30 10 8 11 9 12 26 13
REMARK SMILES IDX 10 14 11 15 25 16 27 17 12 18 24 19 23 20 13 21 21 22 14 23
REMARK SMILES IDX 15 24 20 25 22 26 16 27 19 28 17 29 18 30
REMARK H PARENT 18 31
REMARK Flexibility Score: inf
ROOT
ATOM      1  C   UNL     1     135.390 123.647 140.065  1.00  0.00     0.012 C 
ATOM      2  C   UNL     1     136.824 123.983 140.520  1.00  0.00     0.012 C 
ENDROOT
BRANCH   1   3
ATOM      3  C   UNL     1     135.229 122.142 139.978  1.00  0.00    -0.028 C 
ATOM      4  C   UNL     1     136.095 121.359 139.311  1.00  0.00    -0.027 C 
BRANCH   4   5
ATOM      5  C   UNL     1     135.946 119.849 139.243  1.00  0.00     0.014 C 
BRANCH   5   6
ATOM      6  C   UNL     1     136.879 119.158 140.272  1.00  0.00     0.004 C 
ATOM      7  C   UNL     1     137.990 120.080 140.780  1.00  0.00     0.004 C 
ENDBRANCH   5   6
BRANCH   5   8
ATOM      8  C   UNL     1     136.167 119.328 137.786  1.00  0.00    -0.011 C 
ATOM      9  C   UNL     1     137.658 119.127 137.460  1.00  0.00     0.008 C 
ATOM     10  C   UNL     1     135.422 118.002 137.546  1.00  0.00     0.008 C 
ENDBRANCH   5   8
ENDBRANCH   4   5
ENDBRANCH   1   3
BRANCH   1  11
ATOM     11  C   UNL     1     134.911 124.355 138.744  1.00  0.00     0.002 C 
ATOM     12  C   UNL     1     135.874 125.360 138.109  1.00  0.00     0.005 C 
ATOM     13  C   UNL     1     133.532 125.076 138.779  1.00  0.00    -0.026 C 
ATOM     14  C   UNL     1     135.030 126.176 137.132  1.00  0.00     0.005 C 
ATOM     15  C   UNL     1     133.549 125.869 137.440  1.00  0.00    -0.001 C 
ATOM     16  C   UNL     1     133.340 126.022 140.020  1.00  0.00     0.007 C 
ATOM     17  C   UNL     1     132.391 124.028 138.765  1.00  0.00     0.012 C 
ATOM     18  C   UNL     1     132.584 127.096 137.404  1.00  0.00    -0.004 C 
ATOM     19  C   UNL     1     133.608 127.503 139.736  1.00  0.00     0.005 C 
ATOM     20  C   UNL     1     132.629 128.034 138.662  1.00  0.00    -0.001 C 
ATOM     21  C   UNL     1     132.662 127.839 136.061  1.00  0.00     0.004 C 
ATOM     22  C   UNL     1     132.746 129.588 138.373  1.00  0.00    -0.026 C 
ATOM     23  C   UNL     1     131.666 128.991 136.013  1.00  0.00     0.004 C 
ATOM     24  C   UNL     1     131.758 129.989 137.207  1.00  0.00    -0.002 C 
ATOM     25  C   UNL     1     134.219 130.012 138.052  1.00  0.00     0.010 C 
ATOM     26  C   UNL     1     132.306 130.352 139.661  1.00  0.00     0.012 C 
ATOM     27  C   UNL     1     131.987 131.434 136.695  1.00  0.00     0.036 C 
ATOM     28  C   UNL     1     134.352 131.449 137.533  1.00  0.00     0.032 C 
ATOM     29  C   UNL     1     133.450 131.684 136.317  1.00  0.00     0.114 C 
BRANCH  29  30
ATOM     30  O   UNL     1     133.586 133.010 135.875  1.00  0.00    -0.393 OA
ATOM     31  H   UNL     1     133.528 132.989 134.883  1.00  0.00     0.210 HD
ENDBRANCH  29  30
ENDBRANCH   1  11
TORSDOF 6
ENDMDL
MODEL 7
REMARK VINA RESULT:    -7.884      3.274      8.141
REMARK INTER + INTRA:         -11.696
REMARK INTER:                 -10.820
REMARK INTRA:                  -0.876
REMARK UNBOUND:                -1.277
REMARK SMILES CC[C@@H](C=C[C@@H](C)[C@@H]1CC[C@@H]2[C@@H]3CC[C@@H]4C[C@@H](O)CC[C@]4(C)[C@@H]3CC[C@@]21C)C(C)C
REMARK SMILES IDX 6 1 7 2 5 3 4 4 3 5 2 6 1 7 28 8 29 9 30 10 8 11 9 12 26 13
REMARK SMILES IDX 10 14 11 15 25 16 27 17 12 18 24 19 23 20 13 21 21 22 14 23
REMARK SMILES IDX 15 24 20 25 22 26 16 27 19 28 17 29 18 30
REMARK H PARENT 18 31
REMARK Flexibility Score: inf
ROOT
ATOM      1  C   UNL     1     133.109 130.659 136.269  1.00  0.00     0.012 C 
ATOM      2  C   UNL     1     134.075 131.860 136.290  1.00  0.00     0.012 C 
ENDROOT
BRANCH   1   3
ATOM      3  C   UNL     1     132.180 130.739 137.464  1.00  0.00    -0.028 C 
ATOM      4  C   UNL     1     130.866 130.460 137.380  1.00  0.00    -0.027 C 
BRANCH   4   5
ATOM      5  C   UNL     1     129.940 130.517 138.582  1.00  0.00     0.014 C 
BRANCH   5   6
ATOM      6  C   UNL     1     130.237 131.770 139.446  1.00  0.00     0.004 C 
ATOM      7  C   UNL     1     128.990 132.616 139.715  1.00  0.00     0.004 C 
ENDBRANCH   5   6
BRANCH   5   8
ATOM      8  C   UNL     1     130.006 129.189 139.405  1.00  0.00    -0.011 C 
ATOM      9  C   UNL     1     128.967 129.156 140.540  1.00  0.00     0.008 C 
ATOM     10  C   UNL     1     129.796 127.960 138.502  1.00  0.00     0.008 C 
ENDBRANCH   5   8
ENDBRANCH   4   5
ENDBRANCH   1   3
BRANCH   1  11
ATOM     11  C   UNL     1     133.785 129.243 136.160  1.00  0.00     0.002 C 
ATOM     12  C   UNL     1     132.863 128.056 135.875  1.00  0.00     0.005 C 
ATOM     13  C   UNL     1     134.685 128.786 137.346  1.00  0.00    -0.026 C 
ATOM     14  C   UNL     1     133.674 126.811 136.229  1.00  0.00     0.005 C 
ATOM     15  C   UNL     1     134.917 127.283 137.013  1.00  0.00    -0.001 C 
ATOM     16  C   UNL     1     134.022 128.980 138.758  1.00  0.00     0.007 C 
ATOM     17  C   UNL     1     136.029 129.556 137.312  1.00  0.00     0.012 C 
ATOM     18  C   UNL     1     135.314 126.405 138.241  1.00  0.00    -0.004 C 
ATOM     19  C   UNL     1     133.381 127.715 139.337  1.00  0.00     0.005 C 
ATOM     20  C   UNL     1     134.447 126.610 139.534  1.00  0.00    -0.001 C 
ATOM     21  C   UNL     1     135.515 124.934 137.845  1.00  0.00     0.004 C 
ATOM     22  C   UNL     1     133.910 125.294 140.234  1.00  0.00    -0.026 C 
ATOM     23  C   UNL     1     135.969 124.101 139.037  1.00  0.00     0.004 C 
ATOM     24  C   UNL     1     135.065 124.218 140.302  1.00  0.00    -0.002 C 
ATOM     25  C   UNL     1     132.639 124.729 139.517  1.00  0.00     0.010 C 
ATOM     26  C   UNL     1     133.504 125.656 141.697  1.00  0.00     0.012 C 
ATOM     27  C   UNL     1     134.561 122.821 140.744  1.00  0.00     0.036 C 
ATOM     28  C   UNL     1     132.221 123.334 140.001  1.00  0.00     0.032 C 
ATOM     29  C   UNL     1     133.382 122.340 139.893  1.00  0.00     0.114 C 
BRANCH  29  30
ATOM     30  O   UNL     1     132.970 121.080 140.355  1.00  0.00    -0.393 OA
ATOM     31  H   UNL     1     133.358 120.967 141.263  1.00  0.00     0.210 HD
ENDBRANCH  29  30
ENDBRANCH   1  11
TORSDOF 6
ENDMDL
MODEL 8
REMARK VINA RESULT:    -7.851      5.130      7.265
REMARK INTER + INTRA:         -11.652
REMARK INTER:                 -11.544
REMARK INTRA:                  -0.108
REMARK UNBOUND:                -1.277
REMARK SMILES CC[C@@H](C=C[C@@H](C)[C@@H]1CC[C@@H]2[C@@H]3CC[C@@H]4C[C@@H](O)CC[C@]4(C)[C@@H]3CC[C@@]21C)C(C)C
REMARK SMILES IDX 6 1 7 2 5 3 4 4 3 5 2 6 1 7 28 8 29 9 30 10 8 11 9 12 26 13
REMARK SMILES IDX 10 14 11 15 25 16 27 17 12 18 24 19 23 20 13 21 21 22 14 23
REMARK SMILES IDX 15 24 20 25 22 26 16 27 19 28 17 29 18 30
REMARK H PARENT 18 31
REMARK Flexibility Score: inf
ROOT
ATOM      1  C   UNL     1     130.955 124.907 140.450  1.00  0.00     0.012 C 
ATOM      2  C   UNL     1     130.236 124.104 141.552  1.00  0.00     0.012 C 
ENDROOT
BRANCH   1   3
ATOM      3  C   UNL     1     131.946 124.009 139.737  1.00  0.00    -0.028 C 
ATOM      4  C   UNL     1     132.837 123.247 140.396  1.00  0.00    -0.027 C 
BRANCH   4   5
ATOM      5  C   UNL     1     133.814 122.329 139.682  1.00  0.00     0.014 C 
BRANCH   5   6
ATOM      6  C   UNL     1     133.823 120.922 140.334  1.00  0.00     0.004 C 
ATOM      7  C   UNL     1     134.933 120.021 139.788  1.00  0.00     0.004 C 
ENDBRANCH   5   6
BRANCH   5   8
ATOM      8  C   UNL     1     135.238 122.970 139.615  1.00  0.00    -0.011 C 
ATOM      9  C   UNL     1     135.312 124.115 138.588  1.00  0.00     0.008 C 
ATOM     10  C   UNL     1     135.677 123.506 140.990  1.00  0.00     0.008 C 
ENDBRANCH   5   8
ENDBRANCH   4   5
ENDBRANCH   1   3
BRANCH   1  11
ATOM     11  C   UNL     1     131.628 126.251 140.916  1.00  0.00     0.002 C 
ATOM     12  C   UNL     1     133.156 126.272 140.989  1.00  0.00     0.005 C 
ATOM     13  C   UNL     1     131.146 126.862 142.265  1.00  0.00    -0.026 C 
ATOM     14  C   UNL     1     133.511 127.491 141.837  1.00  0.00     0.005 C 
ATOM     15  C   UNL     1     132.209 127.972 142.514  1.00  0.00    -0.001 C 
ATOM     16  C   UNL     1     131.090 125.827 143.447  1.00  0.00     0.007 C 
ATOM     17  C   UNL     1     129.744 127.495 142.084  1.00  0.00     0.012 C 
ATOM     18  C   UNL     1     132.346 128.411 144.005  1.00  0.00    -0.004 C 
ATOM     19  C   UNL     1     132.306 125.859 144.377  1.00  0.00     0.005 C 
ATOM     20  C   UNL     1     132.434 127.245 145.053  1.00  0.00    -0.001 C 
ATOM     21  C   UNL     1     133.419 129.497 144.180  1.00  0.00     0.004 C 
ATOM     22  C   UNL     1     133.598 127.352 146.123  1.00  0.00    -0.026 C 
ATOM     23  C   UNL     1     133.495 129.967 145.627  1.00  0.00     0.004 C 
ATOM     24  C   UNL     1     133.679 128.830 146.678  1.00  0.00    -0.002 C 
ATOM     25  C   UNL     1     134.972 126.881 145.540  1.00  0.00     0.010 C 
ATOM     26  C   UNL     1     133.245 126.410 147.316  1.00  0.00     0.012 C 
ATOM     27  C   UNL     1     134.941 129.081 147.540  1.00  0.00     0.036 C 
ATOM     28  C   UNL     1     136.171 127.186 146.448  1.00  0.00     0.032 C 
ATOM     29  C   UNL     1     136.225 128.674 146.811  1.00  0.00     0.114 C 
BRANCH  29  30
ATOM     30  O   UNL     1     137.323 128.916 147.651  1.00  0.00    -0.393 OA
ATOM     31  H   UNL     1     138.034 129.318 147.084  1.00  0.00     0.210 HD
ENDBRANCH  29  30
ENDBRANCH   1  11
TORSDOF 6
ENDMDL
MODEL 9
REMARK VINA RESULT:    -7.758      3.306      8.750
REMARK INTER + INTRA:         -11.530
REMARK INTER:                 -10.818
REMARK INTRA:                  -0.713
REMARK UNBOUND:                -1.277
REMARK SMILES CC[C@@H](C=C[C@@H](C)[C@@H]1CC[C@@H]2[C@@H]3CC[C@@H]4C[C@@H](O)CC[C@]4(C)[C@@H]3CC[C@@]21C)C(C)C
REMARK SMILES IDX 6 1 7 2 5 3 4 4 3 5 2 6 1 7 28 8 29 9 30 10 8 11 9 12 26 13
REMARK SMILES IDX 10 14 11 15 25 16 27 17 12 18 24 19 23 20 13 21 21 22 14 23
REMARK SMILES IDX 15 24 20 25 22 26 16 27 19 28 17 29 18 30
REMARK H PARENT 18 31
REMARK Flexibility Score: inf
ROOT
ATOM      1  C   UNL     1     131.126 132.967 136.174  1.00  0.00     0.012 C 
ATOM      2  C   UNL     1     132.240 134.024 136.037  1.00  0.00     0.012 C 
ENDROOT
BRANCH   1   3
ATOM      3  C   UNL     1     130.478 133.092 137.538  1.00  0.00    -0.028 C 
ATOM      4  C   UNL     1     129.169 133.364 137.695  1.00  0.00    -0.027 C 
BRANCH   4   5
ATOM      5  C   UNL     1     128.514 133.467 139.061  1.00  0.00     0.014 C 
BRANCH   5   6
ATOM      6  C   UNL     1     128.935 134.777 139.776  1.00  0.00     0.004 C 
ATOM      7  C   UNL     1     128.581 136.032 138.974  1.00  0.00     0.004 C 
ENDBRANCH   5   6
BRANCH   5   8
ATOM      8  C   UNL     1     128.804 132.193 139.919  1.00  0.00    -0.011 C 
ATOM      9  C   UNL     1     129.916 132.431 140.957  1.00  0.00     0.008 C 
ATOM     10  C   UNL     1     127.538 131.709 140.650  1.00  0.00     0.008 C 
ENDBRANCH   5   8
ENDBRANCH   4   5
ENDBRANCH   1   3
BRANCH   1  11
ATOM     11  C   UNL     1     131.556 131.483 135.875  1.00  0.00     0.002 C 
ATOM     12  C   UNL     1     130.457 130.420 135.928  1.00  0.00     0.005 C 
ATOM     13  C   UNL     1     132.731 130.896 136.711  1.00  0.00    -0.026 C 
ATOM     14  C   UNL     1     131.184 129.081 136.020  1.00  0.00     0.005 C 
ATOM     15  C   UNL     1     132.662 129.384 136.348  1.00  0.00    -0.001 C 
ATOM     16  C   UNL     1     132.592 131.136 138.258  1.00  0.00     0.007 C 
ATOM     17  C   UNL     1     134.073 131.501 136.228  1.00  0.00     0.012 C 
ATOM     18  C   UNL     1     133.328 128.438 137.395  1.00  0.00    -0.004 C 
ATOM     19  C   UNL     1     132.029 129.943 139.037  1.00  0.00     0.005 C 
ATOM     20  C   UNL     1     132.960 128.716 138.896  1.00  0.00    -0.001 C 
ATOM     21  C   UNL     1     133.212 126.962 136.981  1.00  0.00     0.004 C 
ATOM     22  C   UNL     1     132.527 127.457 139.755  1.00  0.00    -0.026 C 
ATOM     23  C   UNL     1     133.927 126.055 137.974  1.00  0.00     0.004 C 
ATOM     24  C   UNL     1     133.504 126.250 139.463  1.00  0.00    -0.002 C 
ATOM     25  C   UNL     1     131.034 127.063 139.502  1.00  0.00     0.010 C 
ATOM     26  C   UNL     1     132.666 127.832 141.264  1.00  0.00     0.012 C 
ATOM     27  C   UNL     1     133.008 124.914 140.069  1.00  0.00     0.036 C 
ATOM     28  C   UNL     1     130.633 125.717 140.120  1.00  0.00     0.032 C 
ATOM     29  C   UNL     1     131.568 124.595 139.658  1.00  0.00     0.114 C 
BRANCH  29  30
ATOM     30  O   UNL     1     131.182 123.382 140.250  1.00  0.00    -0.393 OA
ATOM     31  H   UNL     1     131.225 122.690 139.539  1.00  0.00     0.210 HD
ENDBRANCH  29  30
ENDBRANCH   1  11
TORSDOF 6
ENDMDL
