MODEL 1
REMARK VINA RESULT:    -4.082      0.000      0.000
REMARK INTER + INTRA:          -5.233
REMARK INTER:                  -5.036
REMARK INTRA:                  -0.197
REMARK UNBOUND:                -0.197
REMARK SMILES Oc1cc(O)c2cc(O)c(-c3cc(O)c(O)c(O)c3)[o+]c2c1.[Cl-]
REMARK SMILES IDX 10 1 20 2 21 3 22 4 2 5 3 6 4 7 6 8 7 9 8 10 11 11 12 12
REMARK SMILES IDX 13 13 19 14 15 15 17 16 14 17 16 19 18 21 9 23 1 25 5 27
REMARK H PARENT 14 18 16 20 18 22 9 24 1 26 5 28
REMARK Flexibility Score: inf
ROOT
ATOM      1  C   UNL     1     -17.290  44.792  -8.071  1.00  0.00     0.402 A 
ATOM      2  O   UNL     1     -18.361  45.419  -8.550  1.00  0.00    -0.202 OA
ATOM      3  C   UNL     1     -19.238  44.845  -9.367  1.00  0.00     0.368 A 
ATOM      4  C   UNL     1     -20.331  45.587  -9.821  1.00  0.00     0.162 A 
ATOM      5  C   UNL     1     -21.266  45.011 -10.682  1.00  0.00     0.128 A 
ATOM      6  C   UNL     1     -21.107  43.683 -11.095  1.00  0.00     0.093 A 
ATOM      7  C   UNL     1     -20.020  42.919 -10.655  1.00  0.00     0.136 A 
ATOM      8  C   UNL     1     -19.068  43.501  -9.777  1.00  0.00     0.125 A 
ATOM      9  C   UNL     1     -17.956  42.806  -9.274  1.00  0.00     0.078 A 
ATOM     10  C   UNL     1     -17.063  43.445  -8.409  1.00  0.00     0.223 A 
ENDROOT
BRANCH   1  11
ATOM     11  C   UNL     1     -16.380  45.543  -7.175  1.00  0.00     0.091 A 
ATOM     12  C   UNL     1     -15.697  46.688  -7.618  1.00  0.00     0.068 A 
ATOM     13  C   UNL     1     -14.858  47.400  -6.748  1.00  0.00     0.162 A 
ATOM     14  C   UNL     1     -16.240  45.140  -5.838  1.00  0.00     0.068 A 
ATOM     15  C   UNL     1     -14.707  46.973  -5.418  1.00  0.00     0.200 A 
ATOM     16  C   UNL     1     -15.403  45.845  -4.964  1.00  0.00     0.162 A 
BRANCH  13  17
ATOM     17  O   UNL     1     -14.179  48.530  -7.200  1.00  0.00    -0.504 OA
ATOM     18  H   UNL     1     -13.997  48.683  -8.185  1.00  0.00     0.293 HD
ENDBRANCH  13  17
BRANCH  15  19
ATOM     19  O   UNL     1     -13.875  47.661  -4.535  1.00  0.00    -0.502 OA
ATOM     20  H   UNL     1     -13.726  48.661  -4.603  1.00  0.00     0.293 HD
ENDBRANCH  15  19
BRANCH  16  21
ATOM     21  O   UNL     1     -15.256  45.431  -3.642  1.00  0.00    -0.504 OA
ATOM     22  H   UNL     1     -15.723  45.911  -2.880  1.00  0.00     0.293 HD
ENDBRANCH  16  21
ENDBRANCH   1  11
BRANCH  10  23
ATOM     23  O   UNL     1     -15.986  42.742  -7.870  1.00  0.00    -0.500 OA
ATOM     24  H   UNL     1     -16.085  41.789  -7.536  1.00  0.00     0.294 HD
ENDBRANCH  10  23
BRANCH   5  25
ATOM     25  O   UNL     1     -22.349  45.768 -11.124  1.00  0.00    -0.507 OA
ATOM     26  H   UNL     1     -22.978  45.424 -11.840  1.00  0.00     0.293 HD
ENDBRANCH   5  25
BRANCH   7  27
ATOM     27  O   UNL     1     -19.930  41.602 -11.115  1.00  0.00    -0.507 OA
ATOM     28  H   UNL     1     -19.193  41.254 -11.710  1.00  0.00     0.293 HD
ENDBRANCH   7  27
TORSDOF 7
ENDMDL
MODEL 2
REMARK VINA RESULT:    -3.765      1.209      7.384
REMARK INTER + INTRA:          -4.842
REMARK INTER:                  -4.979
REMARK INTRA:                   0.138
REMARK UNBOUND:                -0.197
REMARK SMILES Oc1cc(O)c2cc(O)c(-c3cc(O)c(O)c(O)c3)[o+]c2c1.[Cl-]
REMARK SMILES IDX 10 1 20 2 21 3 22 4 2 5 3 6 4 7 6 8 7 9 8 10 11 11 12 12
REMARK SMILES IDX 13 13 19 14 15 15 17 16 14 17 16 19 18 21 9 23 1 25 5 27
REMARK H PARENT 14 18 16 20 18 22 9 24 1 26 5 28
REMARK Flexibility Score: inf
ROOT
ATOM      1  C   UNL     1     -17.484  45.726  -8.534  1.00  0.00     0.402 A 
ATOM      2  O   UNL     1     -17.017  45.283  -7.369  1.00  0.00    -0.202 OA
ATOM      3  C   UNL     1     -16.074  45.911  -6.674  1.00  0.00     0.368 A 
ATOM      4  C   UNL     1     -15.646  45.365  -5.461  1.00  0.00     0.162 A 
ATOM      5  C   UNL     1     -14.655  46.001  -4.712  1.00  0.00     0.128 A 
ATOM      6  C   UNL     1     -14.086  47.190  -5.178  1.00  0.00     0.093 A 
ATOM      7  C   UNL     1     -14.496  47.758  -6.391  1.00  0.00     0.136 A 
ATOM      8  C   UNL     1     -15.505  47.115  -7.154  1.00  0.00     0.125 A 
ATOM      9  C   UNL     1     -15.989  47.618  -8.373  1.00  0.00     0.078 A 
ATOM     10  C   UNL     1     -16.990  46.931  -9.068  1.00  0.00     0.223 A 
ENDROOT
BRANCH   1  11
ATOM     11  C   UNL     1     -18.530  44.932  -9.218  1.00  0.00     0.091 A 
ATOM     12  C   UNL     1     -18.511  43.527  -9.200  1.00  0.00     0.068 A 
ATOM     13  C   UNL     1     -19.524  42.792  -9.833  1.00  0.00     0.162 A 
ATOM     14  C   UNL     1     -19.595  45.593  -9.850  1.00  0.00     0.068 A 
ATOM     15  C   UNL     1     -20.573  43.464 -10.484  1.00  0.00     0.200 A 
ATOM     16  C   UNL     1     -20.608  44.864 -10.486  1.00  0.00     0.162 A 
BRANCH  13  17
ATOM     17  O   UNL     1     -19.492  41.399  -9.815  1.00  0.00    -0.504 OA
ATOM     18  H   UNL     1     -19.435  40.857 -10.669  1.00  0.00     0.293 HD
ENDBRANCH  13  17
BRANCH  15  19
ATOM     19  O   UNL     1     -21.589  42.755 -11.125  1.00  0.00    -0.502 OA
ATOM     20  H   UNL     1     -21.838  42.926 -12.092  1.00  0.00     0.293 HD
ENDBRANCH  15  19
BRANCH  16  21
ATOM     21  O   UNL     1     -21.655  45.525 -11.125  1.00  0.00    -0.504 OA
ATOM     22  H   UNL     1     -21.507  46.058 -11.975  1.00  0.00     0.293 HD
ENDBRANCH  16  21
ENDBRANCH   1  11
BRANCH  10  23
ATOM     23  O   UNL     1     -17.506  47.455 -10.253  1.00  0.00    -0.500 OA
ATOM     24  H   UNL     1     -18.057  48.306 -10.263  1.00  0.00     0.294 HD
ENDBRANCH  10  23
BRANCH   5  25
ATOM     25  O   UNL     1     -14.243  45.440  -3.505  1.00  0.00    -0.507 OA
ATOM     26  H   UNL     1     -14.900  44.996  -2.876  1.00  0.00     0.293 HD
ENDBRANCH   5  25
BRANCH   7  27
ATOM     27  O   UNL     1     -13.876  48.945  -6.789  1.00  0.00    -0.507 OA
ATOM     28  H   UNL     1     -14.358  49.822  -6.927  1.00  0.00     0.293 HD
ENDBRANCH   7  27
TORSDOF 7
ENDMDL
MODEL 3
REMARK VINA RESULT:    -3.710      1.221      7.061
REMARK INTER + INTRA:          -4.774
REMARK INTER:                  -4.838
REMARK INTRA:                   0.063
REMARK UNBOUND:                -0.197
REMARK SMILES Oc1cc(O)c2cc(O)c(-c3cc(O)c(O)c(O)c3)[o+]c2c1.[Cl-]
REMARK SMILES IDX 10 1 20 2 21 3 22 4 2 5 3 6 4 7 6 8 7 9 8 10 11 11 12 12
REMARK SMILES IDX 13 13 19 14 15 15 17 16 14 17 16 19 18 21 9 23 1 25 5 27
REMARK H PARENT 14 18 16 20 18 22 9 24 1 26 5 28
REMARK Flexibility Score: inf
ROOT
ATOM      1  C   UNL     1     -17.453  45.017  -7.872  1.00  0.00     0.402 A 
ATOM      2  O   UNL     1     -16.888  46.166  -8.232  1.00  0.00    -0.202 OA
ATOM      3  C   UNL     1     -15.927  46.758  -7.531  1.00  0.00     0.368 A 
ATOM      4  C   UNL     1     -15.398  47.968  -7.990  1.00  0.00     0.162 A 
ATOM      5  C   UNL     1     -14.390  48.613  -7.272  1.00  0.00     0.128 A 
ATOM      6  C   UNL     1     -13.907  48.048  -6.087  1.00  0.00     0.093 A 
ATOM      7  C   UNL     1     -14.421  46.837  -5.606  1.00  0.00     0.136 A 
ATOM      8  C   UNL     1     -15.444  46.177  -6.334  1.00  0.00     0.125 A 
ATOM      9  C   UNL     1     -16.008  44.954  -5.936  1.00  0.00     0.078 A 
ATOM     10  C   UNL     1     -17.011  44.359  -6.709  1.00  0.00     0.223 A 
ENDROOT
BRANCH   1  11
ATOM     11  C   UNL     1     -18.523  44.461  -8.733  1.00  0.00     0.091 A 
ATOM     12  C   UNL     1     -18.586  43.089  -9.028  1.00  0.00     0.068 A 
ATOM     13  C   UNL     1     -19.619  42.578  -9.826  1.00  0.00     0.162 A 
ATOM     14  C   UNL     1     -19.529  45.311  -9.218  1.00  0.00     0.068 A 
ATOM     15  C   UNL     1     -20.609  43.441 -10.326  1.00  0.00     0.200 A 
ATOM     16  C   UNL     1     -20.564  44.807 -10.016  1.00  0.00     0.162 A 
BRANCH  13  17
ATOM     17  O   UNL     1     -19.669  41.216 -10.118  1.00  0.00    -0.504 OA
ATOM     18  H   UNL     1     -20.362  40.607  -9.701  1.00  0.00     0.293 HD
ENDBRANCH  13  17
BRANCH  15  19
ATOM     19  O   UNL     1     -21.645  42.958 -11.125  1.00  0.00    -0.502 OA
ATOM     20  H   UNL     1     -22.519  43.459 -11.237  1.00  0.00     0.293 HD
ENDBRANCH  15  19
BRANCH  16  21
ATOM     21  O   UNL     1     -21.552  45.657 -10.508  1.00  0.00    -0.504 OA
ATOM     22  H   UNL     1     -21.408  46.659 -10.571  1.00  0.00     0.293 HD
ENDBRANCH  16  21
ENDBRANCH   1  11
BRANCH  10  23
ATOM     23  O   UNL     1     -17.538  43.121  -6.341  1.00  0.00    -0.500 OA
ATOM     24  H   UNL     1     -16.995  42.268  -6.417  1.00  0.00     0.294 HD
ENDBRANCH  10  23
BRANCH   5  25
ATOM     25  O   UNL     1     -13.875  49.818  -7.746  1.00  0.00    -0.507 OA
ATOM     26  H   UNL     1     -14.476  50.530  -8.145  1.00  0.00     0.293 HD
ENDBRANCH   5  25
BRANCH   7  27
ATOM     27  O   UNL     1     -13.888  46.340  -4.414  1.00  0.00    -0.507 OA
ATOM     28  H   UNL     1     -14.395  45.761  -3.759  1.00  0.00     0.293 HD
ENDBRANCH   7  27
TORSDOF 7
ENDMDL
MODEL 4
REMARK VINA RESULT:    -3.707      1.268      7.253
REMARK INTER + INTRA:          -4.771
REMARK INTER:                  -4.927
REMARK INTRA:                   0.156
REMARK UNBOUND:                -0.197
REMARK SMILES Oc1cc(O)c2cc(O)c(-c3cc(O)c(O)c(O)c3)[o+]c2c1.[Cl-]
REMARK SMILES IDX 10 1 20 2 21 3 22 4 2 5 3 6 4 7 6 8 7 9 8 10 11 11 12 12
REMARK SMILES IDX 13 13 19 14 15 15 17 16 14 17 16 19 18 21 9 23 1 25 5 27
REMARK H PARENT 14 18 16 20 18 22 9 24 1 26 5 28
REMARK Flexibility Score: inf
ROOT
ATOM      1  C   UNL     1     -17.396  45.707  -8.338  1.00  0.00     0.402 A 
ATOM      2  O   UNL     1     -16.893  45.252  -7.194  1.00  0.00    -0.202 OA
ATOM      3  C   UNL     1     -15.960  45.895  -6.500  1.00  0.00     0.368 A 
ATOM      4  C   UNL     1     -15.490  45.333  -5.310  1.00  0.00     0.162 A 
ATOM      5  C   UNL     1     -14.509  45.985  -4.562  1.00  0.00     0.128 A 
ATOM      6  C   UNL     1     -13.991  47.207  -5.006  1.00  0.00     0.093 A 
ATOM      7  C   UNL     1     -14.444  47.790  -6.196  1.00  0.00     0.136 A 
ATOM      8  C   UNL     1     -15.444  47.131  -6.958  1.00  0.00     0.125 A 
ATOM      9  C   UNL     1     -15.968  47.648  -8.154  1.00  0.00     0.078 A 
ATOM     10  C   UNL     1     -16.956  46.943  -8.849  1.00  0.00     0.223 A 
ENDROOT
BRANCH   1  11
ATOM     11  C   UNL     1     -18.426  44.894  -9.025  1.00  0.00     0.091 A 
ATOM     12  C   UNL     1     -19.480  45.493  -9.734  1.00  0.00     0.068 A 
ATOM     13  C   UNL     1     -20.432  44.706 -10.397  1.00  0.00     0.162 A 
ATOM     14  C   UNL     1     -18.317  43.494  -9.017  1.00  0.00     0.068 A 
ATOM     15  C   UNL     1     -20.328  43.305 -10.363  1.00  0.00     0.200 A 
ATOM     16  C   UNL     1     -19.266  42.702  -9.676  1.00  0.00     0.162 A 
BRANCH  13  17
ATOM     17  O   UNL     1     -21.478  45.311 -11.092  1.00  0.00    -0.504 OA
ATOM     18  H   UNL     1     -21.367  45.630 -12.048  1.00  0.00     0.293 HD
ENDBRANCH  13  17
BRANCH  15  19
ATOM     19  O   UNL     1     -21.265  42.501 -11.012  1.00  0.00    -0.502 OA
ATOM     20  H   UNL     1     -20.998  41.824 -11.718  1.00  0.00     0.293 HD
ENDBRANCH  15  19
BRANCH  16  21
ATOM     21  O   UNL     1     -19.162  41.313  -9.653  1.00  0.00    -0.504 OA
ATOM     22  H   UNL     1     -18.284  40.843  -9.844  1.00  0.00     0.293 HD
ENDBRANCH  16  21
ENDBRANCH   1  11
BRANCH  10  23
ATOM     23  O   UNL     1     -17.513  47.479 -10.010  1.00  0.00    -0.500 OA
ATOM     24  H   UNL     1     -17.976  46.894 -10.697  1.00  0.00     0.294 HD
ENDBRANCH  10  23
BRANCH   5  25
ATOM     25  O   UNL     1     -14.053  45.409  -3.378  1.00  0.00    -0.507 OA
ATOM     26  H   UNL     1     -14.412  44.520  -3.050  1.00  0.00     0.293 HD
ENDBRANCH   5  25
BRANCH   7  27
ATOM     27  O   UNL     1     -13.875  49.009  -6.573  1.00  0.00    -0.507 OA
ATOM     28  H   UNL     1     -13.842  49.355  -7.521  1.00  0.00     0.293 HD
ENDBRANCH   7  27
TORSDOF 7
ENDMDL
MODEL 5
REMARK VINA RESULT:    -3.474      1.238      6.930
REMARK INTER + INTRA:          -4.484
REMARK INTER:                  -4.607
REMARK INTRA:                   0.124
REMARK UNBOUND:                -0.197
REMARK SMILES Oc1cc(O)c2cc(O)c(-c3cc(O)c(O)c(O)c3)[o+]c2c1.[Cl-]
REMARK SMILES IDX 10 1 20 2 21 3 22 4 2 5 3 6 4 7 6 8 7 9 8 10 11 11 12 12
REMARK SMILES IDX 13 13 19 14 15 15 17 16 14 17 16 19 18 21 9 23 1 25 5 27
REMARK H PARENT 14 18 16 20 18 22 9 24 1 26 5 28
REMARK Flexibility Score: inf
ROOT
ATOM      1  C   UNL     1     -17.568  45.093  -7.852  1.00  0.00     0.402 A 
ATOM      2  O   UNL     1     -16.987  46.235  -8.209  1.00  0.00    -0.202 OA
ATOM      3  C   UNL     1     -15.992  46.792  -7.526  1.00  0.00     0.368 A 
ATOM      4  C   UNL     1     -15.448  47.997  -7.979  1.00  0.00     0.162 A 
ATOM      5  C   UNL     1     -14.405  48.606  -7.280  1.00  0.00     0.128 A 
ATOM      6  C   UNL     1     -13.901  48.009  -6.119  1.00  0.00     0.093 A 
ATOM      7  C   UNL     1     -14.430  46.802  -5.644  1.00  0.00     0.136 A 
ATOM      8  C   UNL     1     -15.489  46.179  -6.354  1.00  0.00     0.125 A 
ATOM      9  C   UNL     1     -16.070  44.962  -5.960  1.00  0.00     0.078 A 
ATOM     10  C   UNL     1     -17.109  44.405  -6.713  1.00  0.00     0.223 A 
ENDROOT
BRANCH   1  11
ATOM     11  C   UNL     1     -18.675  44.577  -8.690  1.00  0.00     0.091 A 
ATOM     12  C   UNL     1     -19.623  45.442  -9.263  1.00  0.00     0.068 A 
ATOM     13  C   UNL     1     -20.650  44.937 -10.073  1.00  0.00     0.162 A 
ATOM     14  C   UNL     1     -18.747  43.203  -8.968  1.00  0.00     0.068 A 
ATOM     15  C   UNL     1     -20.728  43.557 -10.326  1.00  0.00     0.200 A 
ATOM     16  C   UNL     1     -19.772  42.693  -9.776  1.00  0.00     0.162 A 
BRANCH  13  17
ATOM     17  O   UNL     1     -21.590  45.803 -10.631  1.00  0.00    -0.504 OA
ATOM     18  H   UNL     1     -22.509  45.481 -10.911  1.00  0.00     0.293 HD
ENDBRANCH  13  17
BRANCH  15  19
ATOM     19  O   UNL     1     -21.743  43.031 -11.125  1.00  0.00    -0.502 OA
ATOM     20  H   UNL     1     -22.490  43.606 -11.497  1.00  0.00     0.293 HD
ENDBRANCH  15  19
BRANCH  16  21
ATOM     21  O   UNL     1     -19.848  41.326 -10.036  1.00  0.00    -0.504 OA
ATOM     22  H   UNL     1     -20.537  40.945 -10.675  1.00  0.00     0.293 HD
ENDBRANCH  16  21
ENDBRANCH   1  11
BRANCH  10  23
ATOM     23  O   UNL     1     -17.653  43.173  -6.351  1.00  0.00    -0.500 OA
ATOM     24  H   UNL     1     -18.493  42.812  -6.790  1.00  0.00     0.294 HD
ENDBRANCH  10  23
BRANCH   5  25
ATOM     25  O   UNL     1     -13.875  49.807  -7.748  1.00  0.00    -0.507 OA
ATOM     26  H   UNL     1     -14.448  50.481  -8.241  1.00  0.00     0.293 HD
ENDBRANCH   5  25
BRANCH   7  27
ATOM     27  O   UNL     1     -13.875  46.272  -4.477  1.00  0.00    -0.507 OA
ATOM     28  H   UNL     1     -13.672  45.293  -4.334  1.00  0.00     0.293 HD
ENDBRANCH   7  27
TORSDOF 7
ENDMDL
MODEL 6
REMARK VINA RESULT:    -2.830      1.818      3.103
REMARK INTER + INTRA:          -3.688
REMARK INTER:                  -3.663
REMARK INTRA:                  -0.025
REMARK UNBOUND:                -0.197
REMARK SMILES Oc1cc(O)c2cc(O)c(-c3cc(O)c(O)c(O)c3)[o+]c2c1.[Cl-]
REMARK SMILES IDX 10 1 20 2 21 3 22 4 2 5 3 6 4 7 6 8 7 9 8 10 11 11 12 12
REMARK SMILES IDX 13 13 19 14 15 15 17 16 14 17 16 19 18 21 9 23 1 25 5 27
REMARK H PARENT 14 18 16 20 18 22 9 24 1 26 5 28
REMARK Flexibility Score: inf
ROOT
ATOM      1  C   UNL     1     -18.247  45.129  -7.453  1.00  0.00     0.402 A 
ATOM      2  O   UNL     1     -18.088  43.821  -7.637  1.00  0.00    -0.202 OA
ATOM      3  C   UNL     1     -18.783  43.119  -8.526  1.00  0.00     0.368 A 
ATOM      4  C   UNL     1     -18.547  41.746  -8.643  1.00  0.00     0.162 A 
ATOM      5  C   UNL     1     -19.264  40.984  -9.566  1.00  0.00     0.128 A 
ATOM      6  C   UNL     1     -20.224  41.596 -10.379  1.00  0.00     0.093 A 
ATOM      7  C   UNL     1     -20.480  42.969 -10.281  1.00  0.00     0.136 A 
ATOM      8  C   UNL     1     -19.751  43.748  -9.345  1.00  0.00     0.125 A 
ATOM      9  C   UNL     1     -19.929  45.132  -9.188  1.00  0.00     0.078 A 
ATOM     10  C   UNL     1     -19.171  45.835  -8.246  1.00  0.00     0.223 A 
ENDROOT
BRANCH   1  11
ATOM     11  C   UNL     1     -17.419  45.798  -6.423  1.00  0.00     0.091 A 
ATOM     12  C   UNL     1     -16.025  45.626  -6.379  1.00  0.00     0.068 A 
ATOM     13  C   UNL     1     -15.256  46.286  -5.410  1.00  0.00     0.162 A 
ATOM     14  C   UNL     1     -18.030  46.669  -5.507  1.00  0.00     0.068 A 
ATOM     15  C   UNL     1     -15.880  47.137  -4.482  1.00  0.00     0.200 A 
ATOM     16  C   UNL     1     -17.267  47.330  -4.536  1.00  0.00     0.162 A 
BRANCH  13  17
ATOM     17  O   UNL     1     -13.875  46.103  -5.370  1.00  0.00    -0.504 OA
ATOM     18  H   UNL     1     -13.461  45.179  -5.351  1.00  0.00     0.293 HD
ENDBRANCH  13  17
BRANCH  15  19
ATOM     19  O   UNL     1     -15.137  47.802  -3.507  1.00  0.00    -0.502 OA
ATOM     20  H   UNL     1     -14.248  47.449  -3.172  1.00  0.00     0.293 HD
ENDBRANCH  15  19
BRANCH  16  21
ATOM     21  O   UNL     1     -17.880  48.182  -3.619  1.00  0.00    -0.504 OA
ATOM     22  H   UNL     1     -18.854  48.447  -3.710  1.00  0.00     0.293 HD
ENDBRANCH  16  21
ENDBRANCH   1  11
BRANCH  10  23
ATOM     23  O   UNL     1     -19.312  47.217  -8.124  1.00  0.00    -0.500 OA
ATOM     24  H   UNL     1     -20.123  47.704  -8.488  1.00  0.00     0.294 HD
ENDBRANCH  10  23
BRANCH   5  25
ATOM     25  O   UNL     1     -19.014  39.617  -9.667  1.00  0.00    -0.507 OA
ATOM     26  H   UNL     1     -19.033  39.140 -10.561  1.00  0.00     0.293 HD
ENDBRANCH   5  25
BRANCH   7  27
ATOM     27  O   UNL     1     -21.456  43.504 -11.125  1.00  0.00    -0.507 OA
ATOM     28  H   UNL     1     -22.447  43.489 -10.933  1.00  0.00     0.293 HD
ENDBRANCH   7  27
TORSDOF 7
ENDMDL
MODEL 7
REMARK VINA RESULT:    -2.714      1.799      3.202
REMARK INTER + INTRA:          -3.546
REMARK INTER:                  -3.409
REMARK INTRA:                  -0.137
REMARK UNBOUND:                -0.197
REMARK SMILES Oc1cc(O)c2cc(O)c(-c3cc(O)c(O)c(O)c3)[o+]c2c1.[Cl-]
REMARK SMILES IDX 10 1 20 2 21 3 22 4 2 5 3 6 4 7 6 8 7 9 8 10 11 11 12 12
REMARK SMILES IDX 13 13 19 14 15 15 17 16 14 17 16 19 18 21 9 23 1 25 5 27
REMARK H PARENT 14 18 16 20 18 22 9 24 1 26 5 28
REMARK Flexibility Score: inf
ROOT
ATOM      1  C   UNL     1     -18.283  45.191  -7.482  1.00  0.00     0.402 A 
ATOM      2  O   UNL     1     -18.117  43.883  -7.658  1.00  0.00    -0.202 OA
ATOM      3  C   UNL     1     -18.811  43.171  -8.540  1.00  0.00     0.368 A 
ATOM      4  C   UNL     1     -18.566  41.799  -8.649  1.00  0.00     0.162 A 
ATOM      5  C   UNL     1     -19.283  41.027  -9.564  1.00  0.00     0.128 A 
ATOM      6  C   UNL     1     -20.252  41.626 -10.374  1.00  0.00     0.093 A 
ATOM      7  C   UNL     1     -20.517  42.999 -10.283  1.00  0.00     0.136 A 
ATOM      8  C   UNL     1     -19.788  43.789  -9.356  1.00  0.00     0.125 A 
ATOM      9  C   UNL     1     -19.976  45.172  -9.206  1.00  0.00     0.078 A 
ATOM     10  C   UNL     1     -19.217  45.886  -8.274  1.00  0.00     0.223 A 
ENDROOT
BRANCH   1  11
ATOM     11  C   UNL     1     -17.455  45.873  -6.461  1.00  0.00     0.091 A 
ATOM     12  C   UNL     1     -18.037  46.655  -5.449  1.00  0.00     0.068 A 
ATOM     13  C   UNL     1     -17.238  47.273  -4.476  1.00  0.00     0.162 A 
ATOM     14  C   UNL     1     -16.063  45.689  -6.466  1.00  0.00     0.068 A 
ATOM     15  C   UNL     1     -15.843  47.102  -4.506  1.00  0.00     0.200 A 
ATOM     16  C   UNL     1     -15.259  46.305  -5.499  1.00  0.00     0.162 A 
BRANCH  13  17
ATOM     17  O   UNL     1     -17.825  48.052  -3.481  1.00  0.00    -0.504 OA
ATOM     18  H   UNL     1     -17.646  49.047  -3.409  1.00  0.00     0.293 HD
ENDBRANCH  13  17
BRANCH  15  19
ATOM     19  O   UNL     1     -15.027  47.710  -3.552  1.00  0.00    -0.502 OA
ATOM     20  H   UNL     1     -14.224  48.273  -3.809  1.00  0.00     0.293 HD
ENDBRANCH  15  19
BRANCH  16  21
ATOM     21  O   UNL     1     -13.877  46.132  -5.518  1.00  0.00    -0.504 OA
ATOM     22  H   UNL     1     -13.427  45.391  -4.991  1.00  0.00     0.293 HD
ENDBRANCH  16  21
ENDBRANCH   1  11
BRANCH  10  23
ATOM     23  O   UNL     1     -19.367  47.268  -8.159  1.00  0.00    -0.500 OA
ATOM     24  H   UNL     1     -18.941  47.907  -8.820  1.00  0.00     0.294 HD
ENDBRANCH  10  23
BRANCH   5  25
ATOM     25  O   UNL     1     -19.024  39.661  -9.658  1.00  0.00    -0.507 OA
ATOM     26  H   UNL     1     -18.661  39.248 -10.509  1.00  0.00     0.293 HD
ENDBRANCH   5  25
BRANCH   7  27
ATOM     27  O   UNL     1     -21.502  43.521 -11.125  1.00  0.00    -0.507 OA
ATOM     28  H   UNL     1     -21.361  43.743 -12.100  1.00  0.00     0.293 HD
ENDBRANCH   7  27
TORSDOF 7
ENDMDL
MODEL 8
REMARK VINA RESULT:    -2.193      2.051      7.408
REMARK INTER + INTRA:          -2.902
REMARK INTER:                  -3.203
REMARK INTRA:                   0.301
REMARK UNBOUND:                -0.197
REMARK SMILES Oc1cc(O)c2cc(O)c(-c3cc(O)c(O)c(O)c3)[o+]c2c1.[Cl-]
REMARK SMILES IDX 10 1 20 2 21 3 22 4 2 5 3 6 4 7 6 8 7 9 8 10 11 11 12 12
REMARK SMILES IDX 13 13 19 14 15 15 17 16 14 17 16 19 18 21 9 23 1 25 5 27
REMARK H PARENT 14 18 16 20 18 22 9 24 1 26 5 28
REMARK Flexibility Score: inf
ROOT
ATOM      1  C   UNL     1     -18.658  44.840  -7.355  1.00  0.00     0.402 A 
ATOM      2  O   UNL     1     -17.440  44.774  -6.824  1.00  0.00    -0.202 OA
ATOM      3  C   UNL     1     -16.979  45.654  -5.941  1.00  0.00     0.368 A 
ATOM      4  C   UNL     1     -15.682  45.501  -5.443  1.00  0.00     0.162 A 
ATOM      5  C   UNL     1     -15.170  46.411  -4.518  1.00  0.00     0.128 A 
ATOM      6  C   UNL     1     -15.959  47.484  -4.087  1.00  0.00     0.093 A 
ATOM      7  C   UNL     1     -17.261  47.660  -4.572  1.00  0.00     0.136 A 
ATOM      8  C   UNL     1     -17.785  46.734  -5.511  1.00  0.00     0.125 A 
ATOM      9  C   UNL     1     -19.083  46.822  -6.040  1.00  0.00     0.078 A 
ATOM     10  C   UNL     1     -19.533  45.869  -6.959  1.00  0.00     0.223 A 
ENDROOT
BRANCH   1  11
ATOM     11  C   UNL     1     -19.053  43.805  -8.336  1.00  0.00     0.091 A 
ATOM     12  C   UNL     1     -18.477  42.523  -8.320  1.00  0.00     0.068 A 
ATOM     13  C   UNL     1     -18.882  41.548  -9.243  1.00  0.00     0.162 A 
ATOM     14  C   UNL     1     -20.065  44.087  -9.268  1.00  0.00     0.068 A 
ATOM     15  C   UNL     1     -19.879  41.849 -10.187  1.00  0.00     0.200 A 
ATOM     16  C   UNL     1     -20.472  43.118 -10.193  1.00  0.00     0.162 A 
BRANCH  13  17
ATOM     17  O   UNL     1     -18.299  40.282  -9.223  1.00  0.00    -0.504 OA
ATOM     18  H   UNL     1     -17.320  40.150  -8.999  1.00  0.00     0.293 HD
ENDBRANCH  13  17
BRANCH  15  19
ATOM     19  O   UNL     1     -20.295  40.897 -11.118  1.00  0.00    -0.502 OA
ATOM     20  H   UNL     1     -19.849  40.796 -12.022  1.00  0.00     0.293 HD
ENDBRANCH  15  19
BRANCH  16  21
ATOM     21  O   UNL     1     -21.467  43.408 -11.125  1.00  0.00    -0.504 OA
ATOM     22  H   UNL     1     -22.442  43.478 -10.857  1.00  0.00     0.293 HD
ENDBRANCH  16  21
ENDBRANCH   1  11
BRANCH  10  23
ATOM     23  O   UNL     1     -20.838  45.928  -7.447  1.00  0.00    -0.500 OA
ATOM     24  H   UNL     1     -21.319  46.811  -7.576  1.00  0.00     0.294 HD
ENDBRANCH  10  23
BRANCH   5  25
ATOM     25  O   UNL     1     -13.875  46.242  -4.033  1.00  0.00    -0.507 OA
ATOM     26  H   UNL     1     -13.077  46.203  -4.656  1.00  0.00     0.293 HD
ENDBRANCH   5  25
BRANCH   7  27
ATOM     27  O   UNL     1     -17.982  48.757  -4.095  1.00  0.00    -0.507 OA
ATOM     28  H   UNL     1     -17.618  49.444  -3.451  1.00  0.00     0.293 HD
ENDBRANCH   7  27
TORSDOF 7
ENDMDL
