MODEL 1
REMARK VINA RESULT:    -5.440      0.000      0.000
REMARK INTER + INTRA:          -6.884
REMARK INTER:                  -6.553
REMARK INTRA:                  -0.330
REMARK UNBOUND:                -0.330
REMARK SMILES Oc1cc(O)c2cc(O)c(-c3ccc(O)c(O)c3)[o+]c2c1
REMARK SMILES IDX 10 1 19 2 20 3 21 4 2 5 3 6 4 7 6 8 7 9 8 10 11 11 12 12
REMARK SMILES IDX 13 13 14 14 18 15 16 16 15 17 17 19 9 21 1 23 5 25
REMARK H PARENT 15 18 17 20 9 22 1 24 5 26
REMARK Flexibility Score: inf
ROOT
ATOM      1  C   UNL     1       2.968 109.102 181.836  1.00  0.00     0.402 A 
ATOM      2  O   UNL     1       3.901 109.964 181.437  1.00  0.00    -0.202 OA
ATOM      3  C   UNL     1       4.185 111.086 182.089  1.00  0.00     0.368 A 
ATOM      4  C   UNL     1       5.183 111.927 181.593  1.00  0.00     0.162 A 
ATOM      5  C   UNL     1       5.505 113.111 182.258  1.00  0.00     0.128 A 
ATOM      6  C   UNL     1       4.822 113.458 183.430  1.00  0.00     0.093 A 
ATOM      7  C   UNL     1       3.818 112.632 183.949  1.00  0.00     0.136 A 
ATOM      8  C   UNL     1       3.487 111.428 183.272  1.00  0.00     0.125 A 
ATOM      9  C   UNL     1       2.485 110.547 183.711  1.00  0.00     0.078 A 
ATOM     10  C   UNL     1       2.212 109.382 182.989  1.00  0.00     0.223 A 
ENDROOT
BRANCH   1  11
ATOM     11  C   UNL     1       2.753 107.879 181.028  1.00  0.00     0.087 A 
ATOM     12  C   UNL     1       3.577 106.750 181.175  1.00  0.00     0.022 A 
ATOM     13  C   UNL     1       3.368 105.617 180.386  1.00  0.00     0.051 A 
ATOM     14  C   UNL     1       2.345 105.596 179.432  1.00  0.00     0.157 A 
ATOM     15  C   UNL     1       1.740 107.864 180.055  1.00  0.00     0.068 A 
ATOM     16  C   UNL     1       1.529 106.726 179.262  1.00  0.00     0.158 A 
BRANCH  14  17
ATOM     17  O   UNL     1       2.160 104.450 178.659  1.00  0.00    -0.504 OA
ATOM     18  H   UNL     1       1.338 103.866 178.753  1.00  0.00     0.293 HD
ENDBRANCH  14  17
BRANCH  16  19
ATOM     19  O   UNL     1       0.512 106.717 178.308  1.00  0.00    -0.504 OA
ATOM     20  H   UNL     1       0.464 107.417 177.576  1.00  0.00     0.293 HD
ENDBRANCH  16  19
ENDBRANCH   1  11
BRANCH  10  21
ATOM     21  O   UNL     1       1.184 108.531 183.396  1.00  0.00    -0.500 OA
ATOM     22  H   UNL     1       0.517 108.805 184.108  1.00  0.00     0.294 HD
ENDBRANCH  10  21
BRANCH   5  23
ATOM     23  O   UNL     1       6.503 113.936 181.747  1.00  0.00    -0.507 OA
ATOM     24  H   UNL     1       6.602 114.899 182.049  1.00  0.00     0.293 HD
ENDBRANCH   5  23
BRANCH   7  25
ATOM     25  O   UNL     1       3.186 113.047 185.125  1.00  0.00    -0.507 OA
ATOM     26  H   UNL     1       2.344 113.602 185.155  1.00  0.00     0.293 HD
ENDBRANCH   7  25
TORSDOF 6
ENDMDL
MODEL 2
REMARK VINA RESULT:    -5.362      1.577      6.868
REMARK INTER + INTRA:          -6.790
REMARK INTER:                  -6.476
REMARK INTRA:                  -0.313
REMARK UNBOUND:                -0.330
REMARK SMILES Oc1cc(O)c2cc(O)c(-c3ccc(O)c(O)c3)[o+]c2c1
REMARK SMILES IDX 10 1 19 2 20 3 21 4 2 5 3 6 4 7 6 8 7 9 8 10 11 11 12 12
REMARK SMILES IDX 13 13 14 14 18 15 16 16 15 17 17 19 9 21 1 23 5 25
REMARK H PARENT 15 18 17 20 9 22 1 24 5 26
REMARK Flexibility Score: inf
ROOT
ATOM      1  C   UNL     1       3.792 109.024 181.818  1.00  0.00     0.402 A 
ATOM      2  O   UNL     1       3.265 109.165 180.604  1.00  0.00    -0.202 OA
ATOM      3  C   UNL     1       2.876 108.140 179.854  1.00  0.00     0.368 A 
ATOM      4  C   UNL     1       2.331 108.388 178.592  1.00  0.00     0.162 A 
ATOM      5  C   UNL     1       1.912 107.332 177.783  1.00  0.00     0.128 A 
ATOM      6  C   UNL     1       2.036 106.014 178.239  1.00  0.00     0.093 A 
ATOM      7  C   UNL     1       2.577 105.738 179.501  1.00  0.00     0.136 A 
ATOM      8  C   UNL     1       3.008 106.811 180.324  1.00  0.00     0.125 A 
ATOM      9  C   UNL     1       3.575 106.628 181.596  1.00  0.00     0.078 A 
ATOM     10  C   UNL     1       3.981 107.734 182.348  1.00  0.00     0.223 A 
ENDROOT
BRANCH   1  11
ATOM     11  C   UNL     1       4.176 110.247 182.561  1.00  0.00     0.087 A 
ATOM     12  C   UNL     1       5.516 110.663 182.642  1.00  0.00     0.022 A 
ATOM     13  C   UNL     1       5.857 111.807 183.368  1.00  0.00     0.051 A 
ATOM     14  C   UNL     1       4.871 112.544 184.032  1.00  0.00     0.157 A 
ATOM     15  C   UNL     1       3.191 110.976 183.247  1.00  0.00     0.068 A 
ATOM     16  C   UNL     1       3.532 112.125 183.976  1.00  0.00     0.158 A 
BRANCH  14  17
ATOM     17  O   UNL     1       5.241 113.683 184.748  1.00  0.00    -0.504 OA
ATOM     18  H   UNL     1       5.270 113.696 185.760  1.00  0.00     0.293 HD
ENDBRANCH  14  17
BRANCH  16  19
ATOM     19  O   UNL     1       2.544 112.850 184.642  1.00  0.00    -0.504 OA
ATOM     20  H   UNL     1       2.132 113.682 184.237  1.00  0.00     0.293 HD
ENDBRANCH  16  19
ENDBRANCH   1  11
BRANCH  10  21
ATOM     21  O   UNL     1       4.589 107.551 183.590  1.00  0.00    -0.500 OA
ATOM     22  H   UNL     1       4.046 107.447 184.439  1.00  0.00     0.294 HD
ENDBRANCH  10  21
BRANCH   5  23
ATOM     23  O   UNL     1       1.371 107.600 176.528  1.00  0.00    -0.507 OA
ATOM     24  H   UNL     1       0.683 108.333 176.392  1.00  0.00     0.293 HD
ENDBRANCH   5  23
BRANCH   7  25
ATOM     25  O   UNL     1       2.665 104.396 179.885  1.00  0.00    -0.507 OA
ATOM     26  H   UNL     1       2.661 103.618 179.242  1.00  0.00     0.293 HD
ENDBRANCH   7  25
TORSDOF 6
ENDMDL
MODEL 3
REMARK VINA RESULT:    -5.335      2.245      7.299
REMARK INTER + INTRA:          -6.757
REMARK INTER:                  -6.440
REMARK INTRA:                  -0.317
REMARK UNBOUND:                -0.330
REMARK SMILES Oc1cc(O)c2cc(O)c(-c3ccc(O)c(O)c3)[o+]c2c1
REMARK SMILES IDX 10 1 19 2 20 3 21 4 2 5 3 6 4 7 6 8 7 9 8 10 11 11 12 12
REMARK SMILES IDX 13 13 14 14 18 15 16 16 15 17 17 19 9 21 1 23 5 25
REMARK H PARENT 15 18 17 20 9 22 1 24 5 26
REMARK Flexibility Score: inf
ROOT
ATOM      1  C   UNL     1       3.782 107.507 180.427  1.00  0.00     0.402 A 
ATOM      2  O   UNL     1       3.107 107.436 179.282  1.00  0.00    -0.202 OA
ATOM      3  C   UNL     1       3.295 106.476 178.383  1.00  0.00     0.368 A 
ATOM      4  C   UNL     1       2.536 106.484 177.210  1.00  0.00     0.162 A 
ATOM      5  C   UNL     1       2.710 105.488 176.249  1.00  0.00     0.128 A 
ATOM      6  C   UNL     1       3.651 104.474 176.460  1.00  0.00     0.093 A 
ATOM      7  C   UNL     1       4.425 104.443 177.627  1.00  0.00     0.136 A 
ATOM      8  C   UNL     1       4.252 105.457 178.605  1.00  0.00     0.125 A 
ATOM      9  C   UNL     1       4.993 105.513 179.798  1.00  0.00     0.078 A 
ATOM     10  C   UNL     1       4.769 106.546 180.712  1.00  0.00     0.223 A 
ENDROOT
BRANCH   1  11
ATOM     11  C   UNL     1       3.473 108.620 181.354  1.00  0.00     0.087 A 
ATOM     12  C   UNL     1       4.286 109.764 181.423  1.00  0.00     0.022 A 
ATOM     13  C   UNL     1       3.986 110.790 182.322  1.00  0.00     0.051 A 
ATOM     14  C   UNL     1       2.882 110.686 183.173  1.00  0.00     0.157 A 
ATOM     15  C   UNL     1       2.377 108.508 182.225  1.00  0.00     0.068 A 
ATOM     16  C   UNL     1       2.074 109.538 183.128  1.00  0.00     0.158 A 
BRANCH  14  17
ATOM     17  O   UNL     1       2.607 111.727 184.059  1.00  0.00    -0.504 OA
ATOM     18  H   UNL     1       2.535 111.578 185.058  1.00  0.00     0.293 HD
ENDBRANCH  14  17
BRANCH  16  19
ATOM     19  O   UNL     1       0.976 109.423 183.980  1.00  0.00    -0.504 OA
ATOM     20  H   UNL     1       0.473 108.548 184.083  1.00  0.00     0.293 HD
ENDBRANCH  16  19
ENDBRANCH   1  11
BRANCH  10  21
ATOM     21  O   UNL     1       5.539 106.631 181.873  1.00  0.00    -0.500 OA
ATOM     22  H   UNL     1       5.346 107.319 182.590  1.00  0.00     0.294 HD
ENDBRANCH  10  21
BRANCH   5  23
ATOM     23  O   UNL     1       1.942 105.514 175.087  1.00  0.00    -0.507 OA
ATOM     24  H   UNL     1       1.907 106.334 174.492  1.00  0.00     0.293 HD
ENDBRANCH   5  23
BRANCH   7  25
ATOM     25  O   UNL     1       5.341 103.395 177.764  1.00  0.00    -0.507 OA
ATOM     26  H   UNL     1       5.256 102.648 178.438  1.00  0.00     0.293 HD
ENDBRANCH   7  25
TORSDOF 6
ENDMDL
MODEL 4
REMARK VINA RESULT:    -5.279      3.997      6.263
REMARK INTER + INTRA:          -6.689
REMARK INTER:                  -6.357
REMARK INTRA:                  -0.332
REMARK UNBOUND:                -0.330
REMARK SMILES Oc1cc(O)c2cc(O)c(-c3ccc(O)c(O)c3)[o+]c2c1
REMARK SMILES IDX 10 1 19 2 20 3 21 4 2 5 3 6 4 7 6 8 7 9 8 10 11 11 12 12
REMARK SMILES IDX 13 13 14 14 18 15 16 16 15 17 17 19 9 21 1 23 5 25
REMARK H PARENT 15 18 17 20 9 22 1 24 5 26
REMARK Flexibility Score: inf
ROOT
ATOM      1  C   UNL     1       4.641 104.831 178.372  1.00  0.00     0.402 A 
ATOM      2  O   UNL     1       5.711 105.389 178.933  1.00  0.00    -0.202 OA
ATOM      3  C   UNL     1       5.677 106.024 180.099  1.00  0.00     0.368 A 
ATOM      4  C   UNL     1       6.855 106.576 180.609  1.00  0.00     0.162 A 
ATOM      5  C   UNL     1       6.849 107.246 181.832  1.00  0.00     0.128 A 
ATOM      6  C   UNL     1       5.656 107.367 182.554  1.00  0.00     0.093 A 
ATOM      7  C   UNL     1       4.462 106.823 182.066  1.00  0.00     0.136 A 
ATOM      8  C   UNL     1       4.464 106.142 180.820  1.00  0.00     0.125 A 
ATOM      9  C   UNL     1       3.313 105.578 180.247  1.00  0.00     0.078 A 
ATOM     10  C   UNL     1       3.392 104.927 179.013  1.00  0.00     0.223 A 
ENDROOT
BRANCH   1  11
ATOM     11  C   UNL     1       4.811 104.139 177.073  1.00  0.00     0.087 A 
ATOM     12  C   UNL     1       4.517 104.781 175.858  1.00  0.00     0.022 A 
ATOM     13  C   UNL     1       4.663 104.101 174.647  1.00  0.00     0.051 A 
ATOM     14  C   UNL     1       5.091 102.770 174.630  1.00  0.00     0.157 A 
ATOM     15  C   UNL     1       5.221 102.796 177.055  1.00  0.00     0.068 A 
ATOM     16  C   UNL     1       5.368 102.112 175.839  1.00  0.00     0.158 A 
BRANCH  14  17
ATOM     17  O   UNL     1       5.230 102.116 173.405  1.00  0.00    -0.504 OA
ATOM     18  H   UNL     1       4.682 102.375 172.593  1.00  0.00     0.293 HD
ENDBRANCH  14  17
BRANCH  16  19
ATOM     19  O   UNL     1       5.788 100.782 175.831  1.00  0.00    -0.504 OA
ATOM     20  H   UNL     1       6.765 100.534 175.721  1.00  0.00     0.293 HD
ENDBRANCH  16  19
ENDBRANCH   1  11
BRANCH  10  21
ATOM     21  O   UNL     1       2.240 104.409 178.420  1.00  0.00    -0.500 OA
ATOM     22  H   UNL     1       1.328 104.513 178.849  1.00  0.00     0.294 HD
ENDBRANCH  10  21
BRANCH   5  23
ATOM     23  O   UNL     1       8.034 107.789 182.323  1.00  0.00    -0.507 OA
ATOM     24  H   UNL     1       8.256 107.772 183.312  1.00  0.00     0.293 HD
ENDBRANCH   5  23
BRANCH   7  25
ATOM     25  O   UNL     1       3.314 106.983 182.848  1.00  0.00    -0.507 OA
ATOM     26  H   UNL     1       3.237 107.625 183.622  1.00  0.00     0.293 HD
ENDBRANCH   7  25
TORSDOF 6
ENDMDL
MODEL 5
REMARK VINA RESULT:    -5.039      2.262      7.113
REMARK INTER + INTRA:          -6.400
REMARK INTER:                  -6.050
REMARK INTRA:                  -0.351
REMARK UNBOUND:                -0.330
REMARK SMILES Oc1cc(O)c2cc(O)c(-c3ccc(O)c(O)c3)[o+]c2c1
REMARK SMILES IDX 10 1 19 2 20 3 21 4 2 5 3 6 4 7 6 8 7 9 8 10 11 11 12 12
REMARK SMILES IDX 13 13 14 14 18 15 16 16 15 17 17 19 9 21 1 23 5 25
REMARK H PARENT 15 18 17 20 9 22 1 24 5 26
REMARK Flexibility Score: inf
ROOT
ATOM      1  C   UNL     1       4.508 110.974 183.274  1.00  0.00     0.402 A 
ATOM      2  O   UNL     1       3.831 110.242 182.392  1.00  0.00    -0.202 OA
ATOM      3  C   UNL     1       4.074 108.954 182.173  1.00  0.00     0.368 A 
ATOM      4  C   UNL     1       3.307 108.267 181.229  1.00  0.00     0.162 A 
ATOM      5  C   UNL     1       3.539 106.915 180.979  1.00  0.00     0.128 A 
ATOM      6  C   UNL     1       4.546 106.240 181.679  1.00  0.00     0.093 A 
ATOM      7  C   UNL     1       5.328 106.905 182.631  1.00  0.00     0.136 A 
ATOM      8  C   UNL     1       5.097 108.282 182.885  1.00  0.00     0.125 A 
ATOM      9  C   UNL     1       5.841 109.032 183.811  1.00  0.00     0.078 A 
ATOM     10  C   UNL     1       5.558 110.387 184.004  1.00  0.00     0.223 A 
ENDROOT
BRANCH   1  11
ATOM     11  C   UNL     1       4.134 112.398 183.436  1.00  0.00     0.087 A 
ATOM     12  C   UNL     1       3.237 112.810 184.435  1.00  0.00     0.022 A 
ATOM     13  C   UNL     1       2.882 114.156 184.554  1.00  0.00     0.051 A 
ATOM     14  C   UNL     1       3.405 115.107 183.672  1.00  0.00     0.157 A 
ATOM     15  C   UNL     1       4.642 113.351 182.538  1.00  0.00     0.068 A 
ATOM     16  C   UNL     1       4.286 114.703 182.656  1.00  0.00     0.158 A 
BRANCH  14  17
ATOM     17  O   UNL     1       3.033 116.443 183.816  1.00  0.00    -0.504 OA
ATOM     18  H   UNL     1       3.364 117.164 183.187  1.00  0.00     0.293 HD
ENDBRANCH  14  17
BRANCH  16  19
ATOM     19  O   UNL     1       4.806 115.644 181.767  1.00  0.00    -0.504 OA
ATOM     20  H   UNL     1       5.359 115.368 180.964  1.00  0.00     0.293 HD
ENDBRANCH  16  19
ENDBRANCH   1  11
BRANCH  10  21
ATOM     21  O   UNL     1       6.329 111.144 184.887  1.00  0.00    -0.500 OA
ATOM     22  H   UNL     1       5.953 111.484 185.764  1.00  0.00     0.294 HD
ENDBRANCH  10  21
BRANCH   5  23
ATOM     23  O   UNL     1       2.763 106.249 180.033  1.00  0.00    -0.507 OA
ATOM     24  H   UNL     1       2.754 105.236 179.973  1.00  0.00     0.293 HD
ENDBRANCH   5  23
BRANCH   7  25
ATOM     25  O   UNL     1       6.311 106.160 183.290  1.00  0.00    -0.507 OA
ATOM     26  H   UNL     1       7.259 106.473 183.442  1.00  0.00     0.293 HD
ENDBRANCH   7  25
TORSDOF 6
ENDMDL
MODEL 6
REMARK VINA RESULT:    -5.016      2.363      3.857
REMARK INTER + INTRA:          -6.372
REMARK INTER:                  -6.118
REMARK INTRA:                  -0.255
REMARK UNBOUND:                -0.330
REMARK SMILES Oc1cc(O)c2cc(O)c(-c3ccc(O)c(O)c3)[o+]c2c1
REMARK SMILES IDX 10 1 19 2 20 3 21 4 2 5 3 6 4 7 6 8 7 9 8 10 11 11 12 12
REMARK SMILES IDX 13 13 14 14 18 15 16 16 15 17 17 19 9 21 1 23 5 25
REMARK H PARENT 15 18 17 20 9 22 1 24 5 26
REMARK Flexibility Score: inf
ROOT
ATOM      1  C   UNL     1       3.158 107.028 179.425  1.00  0.00     0.402 A 
ATOM      2  O   UNL     1       4.155 107.691 180.007  1.00  0.00    -0.202 OA
ATOM      3  C   UNL     1       3.982 108.507 181.042  1.00  0.00     0.368 A 
ATOM      4  C   UNL     1       5.091 109.158 181.588  1.00  0.00     0.162 A 
ATOM      5  C   UNL     1       4.941 110.018 182.676  1.00  0.00     0.128 A 
ATOM      6  C   UNL     1       3.671 110.230 183.225  1.00  0.00     0.093 A 
ATOM      7  C   UNL     1       2.543 109.590 182.697  1.00  0.00     0.136 A 
ATOM      8  C   UNL     1       2.693 108.716 181.588  1.00  0.00     0.125 A 
ATOM      9  C   UNL     1       1.617 108.043 180.985  1.00  0.00     0.078 A 
ATOM     10  C   UNL     1       1.842 107.202 179.892  1.00  0.00     0.223 A 
ENDROOT
BRANCH   1  11
ATOM     11  C   UNL     1       3.481 106.139 178.285  1.00  0.00     0.087 A 
ATOM     12  C   UNL     1       3.107 106.468 176.971  1.00  0.00     0.022 A 
ATOM     13  C   UNL     1       3.403 105.602 175.916  1.00  0.00     0.051 A 
ATOM     14  C   UNL     1       4.061 104.392 176.156  1.00  0.00     0.157 A 
ATOM     15  C   UNL     1       4.123 104.913 178.527  1.00  0.00     0.068 A 
ATOM     16  C   UNL     1       4.421 104.043 177.468  1.00  0.00     0.158 A 
BRANCH  14  17
ATOM     17  O   UNL     1       4.344 103.548 175.081  1.00  0.00    -0.504 OA
ATOM     18  H   UNL     1       3.613 103.128 174.521  1.00  0.00     0.293 HD
ENDBRANCH  14  17
BRANCH  16  19
ATOM     19  O   UNL     1       5.071 102.834 177.716  1.00  0.00    -0.504 OA
ATOM     20  H   UNL     1       4.664 102.126 178.317  1.00  0.00     0.293 HD
ENDBRANCH  16  19
ENDBRANCH   1  11
BRANCH  10  21
ATOM     21  O   UNL     1       0.769 106.571 179.262  1.00  0.00    -0.500 OA
ATOM     22  H   UNL     1      -0.048 106.267 179.779  1.00  0.00     0.294 HD
ENDBRANCH  10  21
BRANCH   5  23
ATOM     23  O   UNL     1       6.059 110.657 183.205  1.00  0.00    -0.507 OA
ATOM     24  H   UNL     1       6.521 110.314 184.041  1.00  0.00     0.293 HD
ENDBRANCH   5  23
BRANCH   7  25
ATOM     25  O   UNL     1       1.311 109.852 183.303  1.00  0.00    -0.507 OA
ATOM     26  H   UNL     1       0.704 109.144 183.691  1.00  0.00     0.293 HD
ENDBRANCH   7  25
TORSDOF 6
ENDMDL
MODEL 7
REMARK VINA RESULT:    -4.988      2.405      3.996
REMARK INTER + INTRA:          -6.339
REMARK INTER:                  -6.018
REMARK INTRA:                  -0.321
REMARK UNBOUND:                -0.330
REMARK SMILES Oc1cc(O)c2cc(O)c(-c3ccc(O)c(O)c3)[o+]c2c1
REMARK SMILES IDX 10 1 19 2 20 3 21 4 2 5 3 6 4 7 6 8 7 9 8 10 11 11 12 12
REMARK SMILES IDX 13 13 14 14 18 15 16 16 15 17 17 19 9 21 1 23 5 25
REMARK H PARENT 15 18 17 20 9 22 1 24 5 26
REMARK Flexibility Score: inf
ROOT
ATOM      1  C   UNL     1       2.871 106.928 179.485  1.00  0.00     0.402 A 
ATOM      2  O   UNL     1       3.168 108.208 179.696  1.00  0.00    -0.202 OA
ATOM      3  C   UNL     1       3.739 108.650 180.811  1.00  0.00     0.368 A 
ATOM      4  C   UNL     1       4.016 110.014 180.940  1.00  0.00     0.162 A 
ATOM      5  C   UNL     1       4.616 110.507 182.098  1.00  0.00     0.128 A 
ATOM      6  C   UNL     1       4.946 109.630 183.139  1.00  0.00     0.093 A 
ATOM      7  C   UNL     1       4.680 108.259 183.035  1.00  0.00     0.136 A 
ATOM      8  C   UNL     1       4.066 107.756 181.858  1.00  0.00     0.125 A 
ATOM      9  C   UNL     1       3.750 106.399 181.672  1.00  0.00     0.078 A 
ATOM     10  C   UNL     1       3.141 105.978 180.488  1.00  0.00     0.223 A 
ENDROOT
BRANCH   1  11
ATOM     11  C   UNL     1       2.246 106.558 178.194  1.00  0.00     0.087 A 
ATOM     12  C   UNL     1       0.869 106.725 177.972  1.00  0.00     0.022 A 
ATOM     13  C   UNL     1       0.299 106.348 176.754  1.00  0.00     0.051 A 
ATOM     14  C   UNL     1       1.089 105.786 175.746  1.00  0.00     0.157 A 
ATOM     15  C   UNL     1       3.035 105.975 177.188  1.00  0.00     0.068 A 
ATOM     16  C   UNL     1       2.463 105.595 175.964  1.00  0.00     0.158 A 
BRANCH  14  17
ATOM     17  O   UNL     1       0.492 105.420 174.540  1.00  0.00    -0.504 OA
ATOM     18  H   UNL     1       0.777 104.594 174.029  1.00  0.00     0.293 HD
ENDBRANCH  14  17
BRANCH  16  19
ATOM     19  O   UNL     1       3.257 105.028 174.967  1.00  0.00    -0.504 OA
ATOM     20  H   UNL     1       3.635 105.585 174.210  1.00  0.00     0.293 HD
ENDBRANCH  16  19
ENDBRANCH   1  11
BRANCH  10  21
ATOM     21  O   UNL     1       2.781 104.640 180.323  1.00  0.00    -0.500 OA
ATOM     22  H   UNL     1       2.100 104.353 179.630  1.00  0.00     0.294 HD
ENDBRANCH  10  21
BRANCH   5  23
ATOM     23  O   UNL     1       4.884 111.869 182.207  1.00  0.00    -0.507 OA
ATOM     24  H   UNL     1       4.612 112.523 181.481  1.00  0.00     0.293 HD
ENDBRANCH   5  23
BRANCH   7  25
ATOM     25  O   UNL     1       5.041 107.449 184.116  1.00  0.00    -0.507 OA
ATOM     26  H   UNL     1       5.830 106.820 184.118  1.00  0.00     0.293 HD
ENDBRANCH   7  25
TORSDOF 6
ENDMDL
MODEL 8
REMARK VINA RESULT:    -4.934      3.879      6.230
REMARK INTER + INTRA:          -6.274
REMARK INTER:                  -6.007
REMARK INTRA:                  -0.267
REMARK UNBOUND:                -0.330
REMARK SMILES Oc1cc(O)c2cc(O)c(-c3ccc(O)c(O)c3)[o+]c2c1
REMARK SMILES IDX 10 1 19 2 20 3 21 4 2 5 3 6 4 7 6 8 7 9 8 10 11 11 12 12
REMARK SMILES IDX 13 13 14 14 18 15 16 16 15 17 17 19 9 21 1 23 5 25
REMARK H PARENT 15 18 17 20 9 22 1 24 5 26
REMARK Flexibility Score: inf
ROOT
ATOM      1  C   UNL     1       4.865 105.369 178.403  1.00  0.00     0.402 A 
ATOM      2  O   UNL     1       5.211 105.576 179.672  1.00  0.00    -0.202 OA
ATOM      3  C   UNL     1       4.537 106.376 180.491  1.00  0.00     0.368 A 
ATOM      4  C   UNL     1       4.977 106.528 181.809  1.00  0.00     0.162 A 
ATOM      5  C   UNL     1       4.289 107.358 182.692  1.00  0.00     0.128 A 
ATOM      6  C   UNL     1       3.148 108.044 182.258  1.00  0.00     0.093 A 
ATOM      7  C   UNL     1       2.686 107.909 180.943  1.00  0.00     0.136 A 
ATOM      8  C   UNL     1       3.386 107.066 180.041  1.00  0.00     0.125 A 
ATOM      9  C   UNL     1       3.004 106.881 178.702  1.00  0.00     0.078 A 
ATOM     10  C   UNL     1       3.747 106.039 177.871  1.00  0.00     0.223 A 
ENDROOT
BRANCH   1  11
ATOM     11  C   UNL     1       5.691 104.445 177.593  1.00  0.00     0.087 A 
ATOM     12  C   UNL     1       6.968 104.813 177.138  1.00  0.00     0.022 A 
ATOM     13  C   UNL     1       7.720 103.932 176.356  1.00  0.00     0.051 A 
ATOM     14  C   UNL     1       7.205 102.680 176.006  1.00  0.00     0.157 A 
ATOM     15  C   UNL     1       5.167 103.196 177.223  1.00  0.00     0.068 A 
ATOM     16  C   UNL     1       5.921 102.310 176.438  1.00  0.00     0.158 A 
BRANCH  14  17
ATOM     17  O   UNL     1       7.979 101.821 175.225  1.00  0.00    -0.504 OA
ATOM     18  H   UNL     1       8.972 101.964 175.093  1.00  0.00     0.293 HD
ENDBRANCH  14  17
BRANCH  16  19
ATOM     19  O   UNL     1       5.397 101.066 176.087  1.00  0.00    -0.504 OA
ATOM     20  H   UNL     1       5.533 100.674 175.162  1.00  0.00     0.293 HD
ENDBRANCH  16  19
ENDBRANCH   1  11
BRANCH  10  21
ATOM     21  O   UNL     1       3.397 105.894 176.528  1.00  0.00    -0.500 OA
ATOM     22  H   UNL     1       3.078 106.679 175.973  1.00  0.00     0.294 HD
ENDBRANCH  10  21
BRANCH   5  23
ATOM     23  O   UNL     1       4.744 107.496 184.001  1.00  0.00    -0.507 OA
ATOM     24  H   UNL     1       4.810 106.700 184.627  1.00  0.00     0.293 HD
ENDBRANCH   5  23
BRANCH   7  25
ATOM     25  O   UNL     1       1.538 108.624 180.587  1.00  0.00    -0.507 OA
ATOM     26  H   UNL     1       0.658 108.201 180.334  1.00  0.00     0.293 HD
ENDBRANCH   7  25
TORSDOF 6
ENDMDL
