MODEL 1
REMARK VINA RESULT:    -4.246      0.000      0.000
REMARK INTER + INTRA:          -5.428
REMARK INTER:                  -4.990
REMARK INTRA:                  -0.437
REMARK UNBOUND:                -0.437
REMARK SMILES C=C[C@@]1(C)CC[C@@H](C(=C)C)C[C@H]1C(=C)C
REMARK SMILES IDX 7 1 6 2 5 3 3 4 12 5 11 6 4 7 8 8 10 9 9 10 13 11 14 12
REMARK SMILES IDX 15 13 2 14 1 15
REMARK H PARENT
REMARK Flexibility Score: inf
ROOT
ATOM      1  C   UNL     1      24.348   3.930  23.644  1.00  0.00     0.015 C 
ATOM      2  C   UNL     1      23.253   4.974  23.931  1.00  0.00     0.009 C 
ATOM      3  C   UNL     1      22.237   4.437  24.951  1.00  0.00     0.012 C 
ATOM      4  C   UNL     1      22.904   4.017  26.296  1.00  0.00    -0.008 C 
ATOM      5  C   UNL     1      24.036   2.971  25.977  1.00  0.00     0.024 C 
ATOM      6  C   UNL     1      25.057   3.513  24.946  1.00  0.00     0.017 C 
ATOM      7  C   UNL     1      21.822   3.360  27.185  1.00  0.00     0.016 C 
ENDROOT
BRANCH   1   8
ATOM      8  C   UNL     1      25.346   4.448  22.615  1.00  0.00    -0.077 C 
ATOM      9  C   UNL     1      26.034   3.517  21.648  1.00  0.00     0.039 C 
ATOM     10  C   UNL     1      25.626   5.760  22.551  1.00  0.00     0.008 C 
ENDBRANCH   1   8
BRANCH   5  11
ATOM     11  C   UNL     1      24.712   2.375  27.221  1.00  0.00    -0.077 C 
ATOM     12  C   UNL     1      25.836   2.942  27.696  1.00  0.00     0.008 C 
ATOM     13  C   UNL     1      24.183   1.163  27.950  1.00  0.00     0.039 C 
ENDBRANCH   5  11
BRANCH   4  14
ATOM     14  C   UNL     1      23.460   5.249  27.012  1.00  0.00    -0.028 C 
ATOM     15  C   UNL     1      23.084   5.612  28.246  1.00  0.00     0.004 C 
ENDBRANCH   4  14
TORSDOF 3
ENDMDL
MODEL 2
REMARK VINA RESULT:    -3.995      1.657      2.792
REMARK INTER + INTRA:          -5.133
REMARK INTER:                  -4.726
REMARK INTRA:                  -0.408
REMARK UNBOUND:                -0.437
REMARK SMILES C=C[C@@]1(C)CC[C@@H](C(=C)C)C[C@H]1C(=C)C
REMARK SMILES IDX 7 1 6 2 5 3 3 4 12 5 11 6 4 7 8 8 10 9 9 10 13 11 14 12
REMARK SMILES IDX 15 13 2 14 1 15
REMARK H PARENT
REMARK Flexibility Score: inf
ROOT
ATOM      1  C   UNL     1      25.116   5.649  23.055  1.00  0.00     0.015 C 
ATOM      2  C   UNL     1      25.643   6.572  24.169  1.00  0.00     0.009 C 
ATOM      3  C   UNL     1      24.488   7.113  25.025  1.00  0.00     0.012 C 
ATOM      4  C   UNL     1      23.635   5.977  25.668  1.00  0.00    -0.008 C 
ATOM      5  C   UNL     1      23.128   5.032  24.516  1.00  0.00     0.024 C 
ATOM      6  C   UNL     1      24.294   4.491  23.651  1.00  0.00     0.017 C 
ATOM      7  C   UNL     1      22.424   6.627  26.379  1.00  0.00     0.016 C 
ENDROOT
BRANCH   1   8
ATOM      8  C   UNL     1      26.254   5.127  22.188  1.00  0.00    -0.077 C 
ATOM      9  C   UNL     1      26.240   3.726  21.628  1.00  0.00     0.039 C 
ATOM     10  C   UNL     1      27.299   5.921  21.900  1.00  0.00     0.008 C 
ENDBRANCH   1   8
BRANCH   5  11
ATOM     11  C   UNL     1      22.175   3.922  24.984  1.00  0.00    -0.077 C 
ATOM     12  C   UNL     1      20.853   4.059  24.782  1.00  0.00     0.008 C 
ATOM     13  C   UNL     1      22.646   2.665  25.678  1.00  0.00     0.039 C 
ENDBRANCH   5  11
BRANCH   4  14
ATOM     14  C   UNL     1      24.470   5.214  26.698  1.00  0.00    -0.028 C 
ATOM     15  C   UNL     1      24.214   5.237  28.013  1.00  0.00     0.004 C 
ENDBRANCH   4  14
TORSDOF 3
ENDMDL
MODEL 3
REMARK VINA RESULT:    -3.931      1.949      4.673
REMARK INTER + INTRA:          -5.058
REMARK INTER:                  -4.636
REMARK INTRA:                  -0.422
REMARK UNBOUND:                -0.437
REMARK SMILES C=C[C@@]1(C)CC[C@@H](C(=C)C)C[C@H]1C(=C)C
REMARK SMILES IDX 7 1 6 2 5 3 3 4 12 5 11 6 4 7 8 8 10 9 9 10 13 11 14 12
REMARK SMILES IDX 15 13 2 14 1 15
REMARK H PARENT
REMARK Flexibility Score: inf
ROOT
ATOM      1  C   UNL     1      20.727   4.959  25.553  1.00  0.00     0.015 C 
ATOM      2  C   UNL     1      21.118   4.398  26.933  1.00  0.00     0.009 C 
ATOM      3  C   UNL     1      22.209   3.324  26.800  1.00  0.00     0.012 C 
ATOM      4  C   UNL     1      23.488   3.855  26.086  1.00  0.00    -0.008 C 
ATOM      5  C   UNL     1      23.063   4.446  24.690  1.00  0.00     0.024 C 
ATOM      6  C   UNL     1      21.961   5.526  24.827  1.00  0.00     0.017 C 
ATOM      7  C   UNL     1      24.452   2.663  25.875  1.00  0.00     0.016 C 
ENDROOT
BRANCH   1   8
ATOM      8  C   UNL     1      19.630   6.008  25.677  1.00  0.00    -0.077 C 
ATOM      9  C   UNL     1      18.868   6.204  26.964  1.00  0.00     0.039 C 
ATOM     10  C   UNL     1      19.326   6.790  24.627  1.00  0.00     0.008 C 
ENDBRANCH   1   8
BRANCH   5  11
ATOM     11  C   UNL     1      24.239   4.909  23.817  1.00  0.00    -0.077 C 
ATOM     12  C   UNL     1      24.688   6.172  23.929  1.00  0.00     0.008 C 
ATOM     13  C   UNL     1      24.927   4.013  22.814  1.00  0.00     0.039 C 
ENDBRANCH   5  11
BRANCH   4  14
ATOM     14  C   UNL     1      24.177   4.906  26.958  1.00  0.00    -0.028 C 
ATOM     15  C   UNL     1      25.433   4.779  27.406  1.00  0.00     0.004 C 
ENDBRANCH   4  14
TORSDOF 3
ENDMDL
MODEL 4
REMARK VINA RESULT:    -3.895     10.126     12.469
REMARK INTER + INTRA:          -5.015
REMARK INTER:                  -4.580
REMARK INTRA:                  -0.435
REMARK UNBOUND:                -0.437
REMARK SMILES C=C[C@@]1(C)CC[C@@H](C(=C)C)C[C@H]1C(=C)C
REMARK SMILES IDX 7 1 6 2 5 3 3 4 12 5 11 6 4 7 8 8 10 9 9 10 13 11 14 12
REMARK SMILES IDX 15 13 2 14 1 15
REMARK H PARENT
REMARK Flexibility Score: inf
ROOT
ATOM      1  C   UNL     1      16.567  -7.099  27.584  1.00  0.00     0.015 C 
ATOM      2  C   UNL     1      15.190  -6.558  28.012  1.00  0.00     0.009 C 
ATOM      3  C   UNL     1      15.281  -5.834  29.364  1.00  0.00     0.012 C 
ATOM      4  C   UNL     1      16.306  -4.659  29.347  1.00  0.00    -0.008 C 
ATOM      5  C   UNL     1      17.698  -5.228  28.882  1.00  0.00     0.024 C 
ATOM      6  C   UNL     1      17.602  -5.960  27.520  1.00  0.00     0.017 C 
ATOM      7  C   UNL     1      16.424  -4.102  30.785  1.00  0.00     0.016 C 
ENDROOT
BRANCH   1   8
ATOM      8  C   UNL     1      16.479  -7.838  26.254  1.00  0.00    -0.077 C 
ATOM      9  C   UNL     1      16.725  -9.323  26.161  1.00  0.00     0.039 C 
ATOM     10  C   UNL     1      16.170  -7.168  25.131  1.00  0.00     0.008 C 
ENDBRANCH   1   8
BRANCH   5  11
ATOM     11  C   UNL     1      18.842  -4.205  28.923  1.00  0.00    -0.077 C 
ATOM     12  C   UNL     1      19.162  -3.526  27.807  1.00  0.00     0.008 C 
ATOM     13  C   UNL     1      19.651  -3.917  30.167  1.00  0.00     0.039 C 
ENDBRANCH   5  11
BRANCH   4  14
ATOM     14  C   UNL     1      15.812  -3.548  28.418  1.00  0.00    -0.028 C 
ATOM     15  C   UNL     1      15.597  -2.291  28.829  1.00  0.00     0.004 C 
ENDBRANCH   4  14
TORSDOF 3
ENDMDL
MODEL 5
REMARK VINA RESULT:    -3.842     12.014     14.192
REMARK INTER + INTRA:          -4.953
REMARK INTER:                  -4.533
REMARK INTRA:                  -0.420
REMARK UNBOUND:                -0.437
REMARK SMILES C=C[C@@]1(C)CC[C@@H](C(=C)C)C[C@H]1C(=C)C
REMARK SMILES IDX 7 1 6 2 5 3 3 4 12 5 11 6 4 7 8 8 10 9 9 10 13 11 14 12
REMARK SMILES IDX 15 13 2 14 1 15
REMARK H PARENT
REMARK Flexibility Score: inf
ROOT
ATOM      1  C   UNL     1      16.178  -8.928  25.919  1.00  0.00     0.015 C 
ATOM      2  C   UNL     1      16.271  -7.543  25.252  1.00  0.00     0.009 C 
ATOM      3  C   UNL     1      15.635  -6.463  26.140  1.00  0.00     0.012 C 
ATOM      4  C   UNL     1      16.285  -6.390  27.554  1.00  0.00    -0.008 C 
ATOM      5  C   UNL     1      16.203  -7.819  28.207  1.00  0.00     0.024 C 
ATOM      6  C   UNL     1      16.842  -8.907  27.309  1.00  0.00     0.017 C 
ATOM      7  C   UNL     1      15.477  -5.381  28.405  1.00  0.00     0.016 C 
ENDROOT
BRANCH   1   8
ATOM      8  C   UNL     1      16.787 -10.007  25.034  1.00  0.00    -0.077 C 
ATOM      9  C   UNL     1      17.446 -11.230  25.623  1.00  0.00     0.039 C 
ATOM     10  C   UNL     1      16.740  -9.887  23.697  1.00  0.00     0.008 C 
ENDBRANCH   1   8
BRANCH   5  11
ATOM     11  C   UNL     1      16.706  -7.880  29.657  1.00  0.00    -0.077 C 
ATOM     12  C   UNL     1      17.989  -8.204  29.898  1.00  0.00     0.008 C 
ATOM     13  C   UNL     1      15.824  -7.600  30.852  1.00  0.00     0.039 C 
ENDBRANCH   5  11
BRANCH   4  14
ATOM     14  C   UNL     1      17.731  -5.903  27.441  1.00  0.00    -0.028 C 
ATOM     15  C   UNL     1      18.185  -4.803  28.057  1.00  0.00     0.004 C 
ENDBRANCH   4  14
TORSDOF 3
ENDMDL
MODEL 6
REMARK VINA RESULT:    -3.834      1.359      4.864
REMARK INTER + INTRA:          -4.944
REMARK INTER:                  -4.522
REMARK INTRA:                  -0.422
REMARK UNBOUND:                -0.437
REMARK SMILES C=C[C@@]1(C)CC[C@@H](C(=C)C)C[C@H]1C(=C)C
REMARK SMILES IDX 7 1 6 2 5 3 3 4 12 5 11 6 4 7 8 8 10 9 9 10 13 11 14 12
REMARK SMILES IDX 15 13 2 14 1 15
REMARK H PARENT
REMARK Flexibility Score: inf
ROOT
ATOM      1  C   UNL     1      24.263   2.013  27.696  1.00  0.00     0.015 C 
ATOM      2  C   UNL     1      24.580   3.157  28.677  1.00  0.00     0.009 C 
ATOM      3  C   UNL     1      25.420   4.247  27.996  1.00  0.00     0.012 C 
ATOM      4  C   UNL     1      24.724   4.839  26.734  1.00  0.00    -0.008 C 
ATOM      5  C   UNL     1      24.386   3.652  25.756  1.00  0.00     0.024 C 
ATOM      6  C   UNL     1      23.542   2.552  26.447  1.00  0.00     0.017 C 
ATOM      7  C   UNL     1      25.713   5.812  26.049  1.00  0.00     0.016 C 
ENDROOT
BRANCH   1   8
ATOM      8  C   UNL     1      23.449   0.917  28.372  1.00  0.00    -0.077 C 
ATOM      9  C   UNL     1      24.015  -0.464  28.591  1.00  0.00     0.039 C 
ATOM     10  C   UNL     1      22.199   1.171  28.794  1.00  0.00     0.008 C 
ENDBRANCH   1   8
BRANCH   5  11
ATOM     11  C   UNL     1      23.795   4.092  24.409  1.00  0.00    -0.077 C 
ATOM     12  C   UNL     1      24.579   4.105  23.317  1.00  0.00     0.008 C 
ATOM     13  C   UNL     1      22.359   4.528  24.239  1.00  0.00     0.039 C 
ENDBRANCH   5  11
BRANCH   4  14
ATOM     14  C   UNL     1      23.466   5.609  27.142  1.00  0.00    -0.028 C 
ATOM     15  C   UNL     1      23.309   6.922  26.927  1.00  0.00     0.004 C 
ENDBRANCH   4  14
TORSDOF 3
ENDMDL
MODEL 7
REMARK VINA RESULT:    -3.816     12.980     15.303
REMARK INTER + INTRA:          -4.923
REMARK INTER:                  -4.543
REMARK INTRA:                  -0.380
REMARK UNBOUND:                -0.437
REMARK SMILES C=C[C@@]1(C)CC[C@@H](C(=C)C)C[C@H]1C(=C)C
REMARK SMILES IDX 7 1 6 2 5 3 3 4 12 5 11 6 4 7 8 8 10 9 9 10 13 11 14 12
REMARK SMILES IDX 15 13 2 14 1 15
REMARK H PARENT
REMARK Flexibility Score: inf
ROOT
ATOM      1  C   UNL     1      16.882  -7.101  26.716  1.00  0.00     0.015 C 
ATOM      2  C   UNL     1      16.008  -7.092  25.448  1.00  0.00     0.009 C 
ATOM      3  C   UNL     1      16.443  -8.196  24.473  1.00  0.00     0.012 C 
ATOM      4  C   UNL     1      16.392  -9.616  25.115  1.00  0.00    -0.008 C 
ATOM      5  C   UNL     1      17.269  -9.597  26.422  1.00  0.00     0.024 C 
ATOM      6  C   UNL     1      16.831  -8.480  27.401  1.00  0.00     0.017 C 
ATOM      7  C   UNL     1      16.986 -10.625  24.103  1.00  0.00     0.016 C 
ENDROOT
BRANCH   1   8
ATOM      8  C   UNL     1      16.470  -5.993  27.677  1.00  0.00    -0.077 C 
ATOM      9  C   UNL     1      17.481  -5.031  28.249  1.00  0.00     0.039 C 
ATOM     10  C   UNL     1      15.181  -5.852  28.028  1.00  0.00     0.008 C 
ENDBRANCH   1   8
BRANCH   5  11
ATOM     11  C   UNL     1      17.408 -10.963  27.108  1.00  0.00    -0.077 C 
ATOM     12  C   UNL     1      18.574 -11.628  27.026  1.00  0.00     0.008 C 
ATOM     13  C   UNL     1      16.286 -11.620  27.878  1.00  0.00     0.039 C 
ENDBRANCH   5  11
BRANCH   4  14
ATOM     14  C   UNL     1      14.942 -10.003  25.414  1.00  0.00    -0.028 C 
ATOM     15  C   UNL     1      14.012 -10.155  24.462  1.00  0.00     0.004 C 
ENDBRANCH   4  14
TORSDOF 3
ENDMDL
MODEL 8
REMARK VINA RESULT:    -3.780      8.273     10.993
REMARK INTER + INTRA:          -4.880
REMARK INTER:                  -4.452
REMARK INTRA:                  -0.428
REMARK UNBOUND:                -0.437
REMARK SMILES C=C[C@@]1(C)CC[C@@H](C(=C)C)C[C@H]1C(=C)C
REMARK SMILES IDX 7 1 6 2 5 3 3 4 12 5 11 6 4 7 8 8 10 9 9 10 13 11 14 12
REMARK SMILES IDX 15 13 2 14 1 15
REMARK H PARENT
REMARK Flexibility Score: inf
ROOT
ATOM      1  C   UNL     1      20.363  -3.369  29.166  1.00  0.00     0.015 C 
ATOM      2  C   UNL     1      19.580  -3.230  27.847  1.00  0.00     0.009 C 
ATOM      3  C   UNL     1      19.039  -4.591  27.384  1.00  0.00     0.012 C 
ATOM      4  C   UNL     1      18.124  -5.266  28.449  1.00  0.00    -0.008 C 
ATOM      5  C   UNL     1      18.933  -5.375  29.794  1.00  0.00     0.024 C 
ATOM      6  C   UNL     1      19.480  -4.002  30.258  1.00  0.00     0.017 C 
ATOM      7  C   UNL     1      17.759  -6.682  27.943  1.00  0.00     0.016 C 
ENDROOT
BRANCH   1   8
ATOM      8  C   UNL     1      20.921  -2.026  29.619  1.00  0.00    -0.077 C 
ATOM      9  C   UNL     1      22.335  -1.611  29.295  1.00  0.00     0.039 C 
ATOM     10  C   UNL     1      20.149  -1.178  30.320  1.00  0.00     0.008 C 
ENDBRANCH   1   8
BRANCH   5  11
ATOM     11  C   UNL     1      18.197  -6.126  30.914  1.00  0.00    -0.077 C 
ATOM     12  C   UNL     1      17.466  -5.433  31.804  1.00  0.00     0.008 C 
ATOM     13  C   UNL     1      18.255  -7.627  31.081  1.00  0.00     0.039 C 
ENDBRANCH   5  11
BRANCH   4  14
ATOM     14  C   UNL     1      16.840  -4.453  28.627  1.00  0.00    -0.028 C 
ATOM     15  C   UNL     1      15.633  -4.895  28.249  1.00  0.00     0.004 C 
ENDBRANCH   4  14
TORSDOF 3
ENDMDL
MODEL 9
REMARK VINA RESULT:    -3.755     13.405     15.566
REMARK INTER + INTRA:          -4.852
REMARK INTER:                  -4.508
REMARK INTRA:                  -0.343
REMARK UNBOUND:                -0.437
REMARK SMILES C=C[C@@]1(C)CC[C@@H](C(=C)C)C[C@H]1C(=C)C
REMARK SMILES IDX 7 1 6 2 5 3 3 4 12 5 11 6 4 7 8 8 10 9 9 10 13 11 14 12
REMARK SMILES IDX 15 13 2 14 1 15
REMARK H PARENT
REMARK Flexibility Score: inf
ROOT
ATOM      1  C   UNL     1      16.545  -9.836  24.221  1.00  0.00     0.015 C 
ATOM      2  C   UNL     1      16.628 -11.022  25.199  1.00  0.00     0.009 C 
ATOM      3  C   UNL     1      17.513 -10.678  26.406  1.00  0.00     0.012 C 
ATOM      4  C   UNL     1      17.014  -9.418  27.176  1.00  0.00    -0.008 C 
ATOM      5  C   UNL     1      16.912  -8.226  26.154  1.00  0.00     0.024 C 
ATOM      6  C   UNL     1      16.021  -8.576  24.936  1.00  0.00     0.017 C 
ATOM      7  C   UNL     1      18.053  -9.079  28.271  1.00  0.00     0.016 C 
ENDROOT
BRANCH   1   8
ATOM      8  C   UNL     1      15.686 -10.179  23.010  1.00  0.00    -0.077 C 
ATOM      9  C   UNL     1      15.931 -11.427  22.199  1.00  0.00     0.039 C 
ATOM     10  C   UNL     1      14.680  -9.366  22.647  1.00  0.00     0.008 C 
ENDBRANCH   1   8
BRANCH   5  11
ATOM     11  C   UNL     1      16.538  -6.879  26.791  1.00  0.00    -0.077 C 
ATOM     12  C   UNL     1      15.273  -6.433  26.697  1.00  0.00     0.008 C 
ATOM     13  C   UNL     1      17.530  -6.007  27.524  1.00  0.00     0.039 C 
ENDBRANCH   5  11
BRANCH   4  14
ATOM     14  C   UNL     1      15.666  -9.710  27.839  1.00  0.00    -0.028 C 
ATOM     15  C   UNL     1      15.489 -10.683  28.743  1.00  0.00     0.004 C 
ENDBRANCH   4  14
TORSDOF 3
ENDMDL
