MODEL 1
REMARK VINA RESULT:    -3.655      0.000      0.000
REMARK INTER + INTRA:          -4.391
REMARK INTER:                  -4.296
REMARK INTRA:                  -0.095
REMARK UNBOUND:                -0.095
REMARK SMILES O=C([O-])CCC(=O)[O-]
REMARK SMILES IDX 4 1 2 2 1 3 3 4 5 5 6 6 7 7 8 8
REMARK H PARENT
REMARK Flexibility Score: inf
ROOT
ATOM      1  C   UNL     1     -13.395 -27.152 -35.487  1.00  0.00     0.059 C 
ENDROOT
BRANCH   1   2
ATOM      2  C   UNL     1     -12.981 -25.719 -35.642  1.00  0.00     0.042 C 
ATOM      3  O   UNL     1     -13.335 -25.064 -36.656  1.00  0.00    -0.550 OA
ATOM      4  O   UNL     1     -12.240 -25.098 -34.644  1.00  0.00    -0.550 OA
ENDBRANCH   1   2
BRANCH   1   5
ATOM      5  C   UNL     1     -13.807 -27.468 -34.046  1.00  0.00     0.059 C 
BRANCH   5   6
ATOM      6  C   UNL     1     -12.747 -28.242 -33.324  1.00  0.00     0.042 C 
ATOM      7  O   UNL     1     -11.700 -28.595 -33.928  1.00  0.00    -0.550 OA
ATOM      8  O   UNL     1     -12.896 -28.537 -31.975  1.00  0.00    -0.550 OA
ENDBRANCH   5   6
ENDBRANCH   1   5
TORSDOF 3
ENDMDL
MODEL 2
REMARK VINA RESULT:    -3.637      0.079      3.740
REMARK INTER + INTRA:          -4.370
REMARK INTER:                  -4.279
REMARK INTRA:                  -0.090
REMARK UNBOUND:                -0.095
REMARK SMILES O=C([O-])CCC(=O)[O-]
REMARK SMILES IDX 4 1 2 2 1 3 3 4 5 5 6 6 7 7 8 8
REMARK H PARENT
REMARK Flexibility Score: inf
ROOT
ATOM      1  C   UNL     1     -13.763 -27.465 -33.970  1.00  0.00     0.059 C 
ENDROOT
BRANCH   1   2
ATOM      2  C   UNL     1     -12.680 -28.273 -33.319  1.00  0.00     0.042 C 
ATOM      3  O   UNL     1     -11.660 -28.607 -33.975  1.00  0.00    -0.550 OA
ATOM      4  O   UNL     1     -12.781 -28.619 -31.977  1.00  0.00    -0.550 OA
ENDBRANCH   1   2
BRANCH   1   5
ATOM      5  C   UNL     1     -13.432 -27.152 -35.432  1.00  0.00     0.059 C 
BRANCH   5   6
ATOM      6  C   UNL     1     -12.969 -25.738 -35.604  1.00  0.00     0.042 C 
ATOM      7  O   UNL     1     -13.319 -25.076 -36.616  1.00  0.00    -0.550 OA
ATOM      8  O   UNL     1     -12.186 -25.138 -34.626  1.00  0.00    -0.550 OA
ENDBRANCH   5   6
ENDBRANCH   1   5
TORSDOF 3
ENDMDL
MODEL 3
REMARK VINA RESULT:    -3.597      1.488      3.940
REMARK INTER + INTRA:          -4.323
REMARK INTER:                  -4.221
REMARK INTRA:                  -0.102
REMARK UNBOUND:                -0.095
REMARK SMILES O=C([O-])CCC(=O)[O-]
REMARK SMILES IDX 4 1 2 2 1 3 3 4 5 5 6 6 7 7 8 8
REMARK H PARENT
REMARK Flexibility Score: inf
ROOT
ATOM      1  C   UNL     1     -13.413 -27.814 -33.053  1.00  0.00     0.059 C 
ENDROOT
BRANCH   1   2
ATOM      2  C   UNL     1     -12.658 -28.289 -31.848  1.00  0.00     0.042 C 
ATOM      3  O   UNL     1     -13.231 -29.001 -30.983  1.00  0.00    -0.550 OA
ATOM      4  O   UNL     1     -11.312 -27.978 -31.703  1.00  0.00    -0.550 OA
ENDBRANCH   1   2
BRANCH   1   5
ATOM      5  C   UNL     1     -12.719 -28.231 -34.354  1.00  0.00     0.059 C 
BRANCH   5   6
ATOM      6  C   UNL     1     -12.135 -27.053 -35.072  1.00  0.00     0.042 C 
ATOM      7  O   UNL     1     -10.886 -26.921 -35.162  1.00  0.00    -0.550 OA
ATOM      8  O   UNL     1     -12.971 -26.123 -35.678  1.00  0.00    -0.550 OA
ENDBRANCH   5   6
ENDBRANCH   1   5
TORSDOF 3
ENDMDL
MODEL 4
REMARK VINA RESULT:    -3.588      1.517      2.172
REMARK INTER + INTRA:          -4.312
REMARK INTER:                  -4.216
REMARK INTRA:                  -0.095
REMARK UNBOUND:                -0.095
REMARK SMILES O=C([O-])CCC(=O)[O-]
REMARK SMILES IDX 4 1 2 2 1 3 3 4 5 5 6 6 7 7 8 8
REMARK H PARENT
REMARK Flexibility Score: inf
ROOT
ATOM      1  C   UNL     1     -12.582 -28.247 -34.357  1.00  0.00     0.059 C 
ENDROOT
BRANCH   1   2
ATOM      2  C   UNL     1     -12.084 -27.033 -35.083  1.00  0.00     0.042 C 
ATOM      3  O   UNL     1     -10.848 -26.815 -35.178  1.00  0.00    -0.550 OA
ATOM      4  O   UNL     1     -12.985 -26.166 -35.688  1.00  0.00    -0.550 OA
ENDBRANCH   1   2
BRANCH   1   5
ATOM      5  C   UNL     1     -13.333 -27.870 -33.076  1.00  0.00     0.059 C 
BRANCH   5   6
ATOM      6  C   UNL     1     -12.594 -28.312 -31.851  1.00  0.00     0.042 C 
ATOM      7  O   UNL     1     -13.162 -29.043 -30.998  1.00  0.00    -0.550 OA
ATOM      8  O   UNL     1     -11.264 -27.951 -31.672  1.00  0.00    -0.550 OA
ENDBRANCH   5   6
ENDBRANCH   1   5
TORSDOF 3
ENDMDL
MODEL 5
REMARK VINA RESULT:    -3.586      1.595      4.157
REMARK INTER + INTRA:          -4.309
REMARK INTER:                  -4.194
REMARK INTRA:                  -0.116
REMARK UNBOUND:                -0.095
REMARK SMILES O=C([O-])CCC(=O)[O-]
REMARK SMILES IDX 4 1 2 2 1 3 3 4 5 5 6 6 7 7 8 8
REMARK H PARENT
REMARK Flexibility Score: inf
ROOT
ATOM      1  C   UNL     1     -11.455 -26.480 -35.097  1.00  0.00     0.059 C 
ENDROOT
BRANCH   1   2
ATOM      2  C   UNL     1     -12.181 -27.747 -34.759  1.00  0.00     0.042 C 
ATOM      3  O   UNL     1     -11.723 -28.524 -33.881  1.00  0.00    -0.550 OA
ATOM      4  O   UNL     1     -13.384 -28.048 -35.384  1.00  0.00    -0.550 OA
ENDBRANCH   1   2
BRANCH   1   5
ATOM      5  C   UNL     1     -12.208 -25.246 -34.591  1.00  0.00     0.059 C 
BRANCH   5   6
ATOM      6  C   UNL     1     -12.753 -24.427 -35.720  1.00  0.00     0.042 C 
ATOM      7  O   UNL     1     -13.353 -24.987 -36.676  1.00  0.00    -0.550 OA
ATOM      8  O   UNL     1     -12.636 -23.044 -35.698  1.00  0.00    -0.550 OA
ENDBRANCH   5   6
ENDBRANCH   1   5
TORSDOF 3
ENDMDL
MODEL 6
REMARK VINA RESULT:    -3.578      1.798      2.152
REMARK INTER + INTRA:          -4.300
REMARK INTER:                  -4.182
REMARK INTRA:                  -0.118
REMARK UNBOUND:                -0.095
REMARK SMILES O=C([O-])CCC(=O)[O-]
REMARK SMILES IDX 4 1 2 2 1 3 3 4 5 5 6 6 7 7 8 8
REMARK H PARENT
REMARK Flexibility Score: inf
ROOT
ATOM      1  C   UNL     1     -13.792 -27.513 -33.706  1.00  0.00     0.059 C 
ENDROOT
BRANCH   1   2
ATOM      2  C   UNL     1     -14.002 -27.259 -35.169  1.00  0.00     0.042 C 
ATOM      3  O   UNL     1     -14.919 -27.857 -35.790  1.00  0.00    -0.550 OA
ATOM      4  O   UNL     1     -13.210 -26.332 -35.834  1.00  0.00    -0.550 OA
ENDBRANCH   1   2
BRANCH   1   5
ATOM      5  C   UNL     1     -12.501 -28.295 -33.448  1.00  0.00     0.059 C 
BRANCH   5   6
ATOM      6  C   UNL     1     -11.523 -27.500 -32.639  1.00  0.00     0.042 C 
ATOM      7  O   UNL     1     -11.090 -26.400 -33.072  1.00  0.00    -0.550 OA
ATOM      8  O   UNL     1     -11.123 -27.953 -31.388  1.00  0.00    -0.550 OA
ENDBRANCH   5   6
ENDBRANCH   1   5
TORSDOF 3
ENDMDL
MODEL 7
REMARK VINA RESULT:    -3.569      1.989      3.625
REMARK INTER + INTRA:          -4.290
REMARK INTER:                  -4.174
REMARK INTRA:                  -0.117
REMARK UNBOUND:                -0.095
REMARK SMILES O=C([O-])CCC(=O)[O-]
REMARK SMILES IDX 4 1 2 2 1 3 3 4 5 5 6 6 7 7 8 8
REMARK H PARENT
REMARK Flexibility Score: inf
ROOT
ATOM      1  C   UNL     1     -12.633 -28.326 -32.653  1.00  0.00     0.059 C 
ENDROOT
BRANCH   1   2
ATOM      2  C   UNL     1     -11.501 -27.527 -32.080  1.00  0.00     0.042 C 
ATOM      3  O   UNL     1     -10.928 -27.907 -31.026  1.00  0.00    -0.550 OA
ATOM      4  O   UNL     1     -11.052 -26.387 -32.735  1.00  0.00    -0.550 OA
ENDBRANCH   1   2
BRANCH   1   5
ATOM      5  C   UNL     1     -13.625 -27.437 -33.409  1.00  0.00     0.059 C 
BRANCH   5   6
ATOM      6  C   UNL     1     -13.571 -27.680 -34.887  1.00  0.00     0.042 C 
ATOM      7  O   UNL     1     -12.463 -27.849 -35.460  1.00  0.00    -0.550 OA
ATOM      8  O   UNL     1     -14.747 -27.760 -35.622  1.00  0.00    -0.550 OA
ENDBRANCH   5   6
ENDBRANCH   1   5
TORSDOF 3
ENDMDL
MODEL 8
REMARK VINA RESULT:    -3.549      1.516      3.796
REMARK INTER + INTRA:          -4.266
REMARK INTER:                  -4.171
REMARK INTRA:                  -0.095
REMARK UNBOUND:                -0.095
REMARK SMILES O=C([O-])CCC(=O)[O-]
REMARK SMILES IDX 4 1 2 2 1 3 3 4 5 5 6 6 7 7 8 8
REMARK H PARENT
REMARK Flexibility Score: inf
ROOT
ATOM      1  C   UNL     1     -12.280 -28.584 -33.995  1.00  0.00     0.059 C 
ENDROOT
BRANCH   1   2
ATOM      2  C   UNL     1     -12.274 -28.075 -32.585  1.00  0.00     0.042 C 
ATOM      3  O   UNL     1     -12.970 -28.643 -31.703  1.00  0.00    -0.550 OA
ATOM      4  O   UNL     1     -11.467 -26.999 -32.237  1.00  0.00    -0.550 OA
ENDBRANCH   1   2
BRANCH   1   5
ATOM      5  C   UNL     1     -12.097 -27.449 -35.006  1.00  0.00     0.059 C 
BRANCH   5   6
ATOM      6  C   UNL     1     -13.412 -26.932 -35.503  1.00  0.00     0.042 C 
ATOM      7  O   UNL     1     -14.460 -27.612 -35.344  1.00  0.00    -0.550 OA
ATOM      8  O   UNL     1     -13.487 -25.683 -36.105  1.00  0.00    -0.550 OA
ENDBRANCH   5   6
ENDBRANCH   1   5
TORSDOF 3
ENDMDL
MODEL 9
REMARK VINA RESULT:    -3.447      1.530      1.809
REMARK INTER + INTRA:          -4.146
REMARK INTER:                  -4.030
REMARK INTRA:                  -0.116
REMARK UNBOUND:                -0.095
REMARK SMILES O=C([O-])CCC(=O)[O-]
REMARK SMILES IDX 4 1 2 2 1 3 3 4 5 5 6 6 7 7 8 8
REMARK H PARENT
REMARK Flexibility Score: inf
ROOT
ATOM      1  C   UNL     1     -12.246 -25.100 -34.395  1.00  0.00     0.059 C 
ENDROOT
BRANCH   1   2
ATOM      2  C   UNL     1     -12.739 -24.475 -35.665  1.00  0.00     0.042 C 
ATOM      3  O   UNL     1     -13.340 -25.173 -36.522  1.00  0.00    -0.550 OA
ATOM      4  O   UNL     1     -12.571 -23.112 -35.881  1.00  0.00    -0.550 OA
ENDBRANCH   1   2
BRANCH   1   5
ATOM      5  C   UNL     1     -11.647 -26.488 -34.644  1.00  0.00     0.059 C 
BRANCH   5   6
ATOM      6  C   UNL     1     -12.483 -27.569 -34.030  1.00  0.00     0.042 C 
ATOM      7  O   UNL     1     -11.989 -28.709 -33.823  1.00  0.00    -0.550 OA
ATOM      8  O   UNL     1     -13.792 -27.306 -33.649  1.00  0.00    -0.550 OA
ENDBRANCH   5   6
ENDBRANCH   1   5
TORSDOF 3
ENDMDL
