MODEL 1
REMARK VINA RESULT:    -4.240      0.000      0.000
REMARK INTER + INTRA:          -5.471
REMARK INTER:                  -5.107
REMARK INTRA:                  -0.364
REMARK UNBOUND:                -0.364
REMARK SMILES NC(=O)C[C@@H]([NH3+])C(=O)[O-]
REMARK SMILES IDX 4 1 5 2 6 3 7 7 8 8 9 9 2 10 3 11 1 12
REMARK H PARENT 6 4 6 5 6 6 1 13 1 14
REMARK Flexibility Score: inf
ROOT
ATOM      1  C   UNL     1     190.897 193.384  82.736  1.00  0.00     0.171 C 
ENDROOT
BRANCH   1   2
ATOM      2  C   UNL     1     190.712 194.844  82.268  1.00  0.00     0.237 C 
BRANCH   2   3
ATOM      3  N   UNL     1     190.014 195.655  83.275  1.00  0.00    -0.350 N 
ATOM      4  H   UNL     1     190.578 196.507  83.496  1.00  0.00     0.345 HD
ATOM      5  H   UNL     1     189.901 195.100  84.154  1.00  0.00     0.345 HD
ATOM      6  H   UNL     1     189.068 195.948  82.936  1.00  0.00     0.345 HD
ENDBRANCH   2   3
BRANCH   2   7
ATOM      7  C   UNL     1     192.031 195.469  81.885  1.00  0.00     0.100 C 
ATOM      8  O   UNL     1     192.736 194.945  80.983  1.00  0.00    -0.544 OA
ATOM      9  O   UNL     1     192.503 196.593  82.553  1.00  0.00    -0.544 OA
ENDBRANCH   2   7
ENDBRANCH   1   2
BRANCH   1  10
ATOM     10  C   UNL     1     191.181 193.263  84.207  1.00  0.00     0.223 C 
ATOM     11  O   UNL     1     190.229 193.107  85.018  1.00  0.00    -0.275 OA
ATOM     12  N   UNL     1     192.523 193.303  84.693  1.00  0.00    -0.369 N 
ATOM     13  H   UNL     1     192.716 193.208  85.714  1.00  0.00     0.159 HD
ATOM     14  H   UNL     1     193.325 193.424  84.036  1.00  0.00     0.159 HD
ENDBRANCH   1  10
TORSDOF 4
ENDMDL
MODEL 2
REMARK VINA RESULT:    -4.227      1.594      1.946
REMARK INTER + INTRA:          -5.457
REMARK INTER:                  -5.340
REMARK INTRA:                  -0.117
REMARK UNBOUND:                -0.364
REMARK SMILES NC(=O)C[C@@H]([NH3+])C(=O)[O-]
REMARK SMILES IDX 4 1 5 2 6 3 7 7 8 8 9 9 2 10 3 11 1 12
REMARK H PARENT 6 4 6 5 6 6 1 13 1 14
REMARK Flexibility Score: inf
ROOT
ATOM      1  C   UNL     1     191.360 193.459  82.688  1.00  0.00     0.171 C 
ENDROOT
BRANCH   1   2
ATOM      2  C   UNL     1     192.375 194.516  82.203  1.00  0.00     0.237 C 
BRANCH   2   3
ATOM      3  N   UNL     1     193.125 194.053  81.027  1.00  0.00    -0.350 N 
ATOM      4  H   UNL     1     192.535 194.154  80.170  1.00  0.00     0.345 HD
ATOM      5  H   UNL     1     193.367 193.042  81.142  1.00  0.00     0.345 HD
ATOM      6  H   UNL     1     194.009 194.600  80.902  1.00  0.00     0.345 HD
ENDBRANCH   2   3
BRANCH   2   7
ATOM      7  C   UNL     1     191.703 195.840  81.934  1.00  0.00     0.100 C 
ATOM      8  O   UNL     1     191.408 196.601  82.893  1.00  0.00    -0.544 OA
ATOM      9  O   UNL     1     191.358 196.208  80.639  1.00  0.00    -0.544 OA
ENDBRANCH   2   7
ENDBRANCH   1   2
BRANCH   1  10
ATOM     10  C   UNL     1     191.398 193.236  84.174  1.00  0.00     0.223 C 
ATOM     11  O   UNL     1     190.329 193.013  84.802  1.00  0.00    -0.275 OA
ATOM     12  N   UNL     1     192.640 193.255  84.879  1.00  0.00    -0.369 N 
ATOM     13  H   UNL     1     192.663 193.090  85.909  1.00  0.00     0.159 HD
ATOM     14  H   UNL     1     193.537 193.431  84.375  1.00  0.00     0.159 HD
ENDBRANCH   1  10
TORSDOF 4
ENDMDL
MODEL 3
REMARK VINA RESULT:    -4.192      1.130      3.783
REMARK INTER + INTRA:          -5.414
REMARK INTER:                  -4.906
REMARK INTRA:                  -0.508
REMARK UNBOUND:                -0.364
REMARK SMILES NC(=O)C[C@@H]([NH3+])C(=O)[O-]
REMARK SMILES IDX 4 1 5 2 6 3 7 7 8 8 9 9 2 10 3 11 1 12
REMARK H PARENT 6 4 6 5 6 6 1 13 1 14
REMARK Flexibility Score: inf
ROOT
ATOM      1  C   UNL     1     191.332 194.148  82.423  1.00  0.00     0.171 C 
ENDROOT
BRANCH   1   2
ATOM      2  C   UNL     1     191.487 193.109  83.554  1.00  0.00     0.237 C 
BRANCH   2   3
ATOM      3  N   UNL     1     192.360 193.599  84.629  1.00  0.00    -0.350 N 
ATOM      4  H   UNL     1     192.555 192.826  85.306  1.00  0.00     0.345 HD
ATOM      5  H   UNL     1     191.881 194.373  85.144  1.00  0.00     0.345 HD
ATOM      6  H   UNL     1     193.266 193.958  84.248  1.00  0.00     0.345 HD
ENDBRANCH   2   3
BRANCH   2   7
ATOM      7  C   UNL     1     190.145 192.682  84.094  1.00  0.00     0.100 C 
ATOM      8  O   UNL     1     189.675 191.554  83.791  1.00  0.00    -0.544 OA
ATOM      9  O   UNL     1     189.394 193.544  84.886  1.00  0.00    -0.544 OA
ENDBRANCH   2   7
ENDBRANCH   1   2
BRANCH   1  10
ATOM     10  C   UNL     1     191.299 195.567  82.919  1.00  0.00     0.223 C 
ATOM     11  O   UNL     1     192.370 196.223  83.013  1.00  0.00    -0.275 OA
ATOM     12  N   UNL     1     190.059 196.185  83.266  1.00  0.00    -0.369 N 
ATOM     13  H   UNL     1     190.040 197.173  83.601  1.00  0.00     0.159 HD
ATOM     14  H   UNL     1     189.161 195.660  83.187  1.00  0.00     0.159 HD
ENDBRANCH   1  10
TORSDOF 4
ENDMDL
MODEL 4
REMARK VINA RESULT:    -4.172      1.686      3.972
REMARK INTER + INTRA:          -5.390
REMARK INTER:                  -5.302
REMARK INTRA:                  -0.088
REMARK UNBOUND:                -0.364
REMARK SMILES NC(=O)C[C@@H]([NH3+])C(=O)[O-]
REMARK SMILES IDX 4 1 5 2 6 3 7 7 8 8 9 9 2 10 3 11 1 12
REMARK H PARENT 6 4 6 5 6 6 1 13 1 14
REMARK Flexibility Score: inf
ROOT
ATOM      1  C   UNL     1     191.693 194.891  83.032  1.00  0.00     0.171 C 
ENDROOT
BRANCH   1   2
ATOM      2  C   UNL     1     191.602 193.456  83.594  1.00  0.00     0.237 C 
BRANCH   2   3
ATOM      3  N   UNL     1     192.473 193.272  84.763  1.00  0.00    -0.350 N 
ATOM      4  H   UNL     1     192.280 194.019  85.469  1.00  0.00     0.345 HD
ATOM      5  H   UNL     1     193.474 193.351  84.469  1.00  0.00     0.345 HD
ATOM      6  H   UNL     1     192.323 192.335  85.204  1.00  0.00     0.345 HD
ENDBRANCH   2   3
BRANCH   2   7
ATOM      7  C   UNL     1     190.177 193.081  83.912  1.00  0.00     0.100 C 
ATOM      8  O   UNL     1     189.382 193.951  84.356  1.00  0.00    -0.544 OA
ATOM      9  O   UNL     1     189.741 191.768  83.769  1.00  0.00    -0.544 OA
ENDBRANCH   2   7
ENDBRANCH   1   2
BRANCH   1  10
ATOM     10  C   UNL     1     192.161 194.942  81.604  1.00  0.00     0.223 C 
ATOM     11  O   UNL     1     191.715 195.830  80.830  1.00  0.00    -0.275 OA
ATOM     12  N   UNL     1     193.124 194.004  81.123  1.00  0.00    -0.369 N 
ATOM     13  H   UNL     1     193.454 194.049  80.134  1.00  0.00     0.159 HD
ATOM     14  H   UNL     1     193.511 193.267  81.751  1.00  0.00     0.159 HD
ENDBRANCH   1  10
TORSDOF 4
ENDMDL
MODEL 5
REMARK VINA RESULT:    -4.093      1.871      3.533
REMARK INTER + INTRA:          -5.295
REMARK INTER:                  -4.831
REMARK INTRA:                  -0.464
REMARK UNBOUND:                -0.364
REMARK SMILES NC(=O)C[C@@H]([NH3+])C(=O)[O-]
REMARK SMILES IDX 4 1 5 2 6 3 7 7 8 8 9 9 2 10 3 11 1 12
REMARK H PARENT 6 4 6 5 6 6 1 13 1 14
REMARK Flexibility Score: inf
ROOT
ATOM      1  C   UNL     1     191.973 195.844  82.437  1.00  0.00     0.171 C 
ENDROOT
BRANCH   1   2
ATOM      2  C   UNL     1     190.580 195.482  82.997  1.00  0.00     0.237 C 
BRANCH   2   3
ATOM      3  N   UNL     1     189.552 195.489  81.947  1.00  0.00    -0.350 N 
ATOM      4  H   UNL     1     189.875 194.917  81.133  1.00  0.00     0.345 HD
ATOM      5  H   UNL     1     189.395 196.469  81.617  1.00  0.00     0.345 HD
ATOM      6  H   UNL     1     188.647 195.102  82.301  1.00  0.00     0.345 HD
ENDBRANCH   2   3
BRANCH   2   7
ATOM      7  C   UNL     1     190.607 194.161  83.725  1.00  0.00     0.100 C 
ATOM      8  O   UNL     1     189.529 193.620  84.085  1.00  0.00    -0.544 OA
ATOM      9  O   UNL     1     191.816 193.556  84.048  1.00  0.00    -0.544 OA
ENDBRANCH   2   7
ENDBRANCH   1   2
BRANCH   1  10
ATOM     10  C   UNL     1     192.288 195.159  81.137  1.00  0.00     0.223 C 
ATOM     11  O   UNL     1     191.826 195.617  80.059  1.00  0.00    -0.275 OA
ATOM     12  N   UNL     1     193.125 194.002  81.112  1.00  0.00    -0.369 N 
ATOM     13  H   UNL     1     193.349 193.535  80.205  1.00  0.00     0.159 HD
ATOM     14  H   UNL     1     193.523 193.612  81.994  1.00  0.00     0.159 HD
ENDBRANCH   1  10
TORSDOF 4
ENDMDL
MODEL 6
REMARK VINA RESULT:    -3.968     17.747     18.273
REMARK INTER + INTRA:          -5.144
REMARK INTER:                  -4.723
REMARK INTRA:                  -0.421
REMARK UNBOUND:                -0.364
REMARK SMILES NC(=O)C[C@@H]([NH3+])C(=O)[O-]
REMARK SMILES IDX 4 1 5 2 6 3 7 7 8 8 9 9 2 10 3 11 1 12
REMARK H PARENT 6 4 6 5 6 6 1 13 1 14
REMARK Flexibility Score: inf
ROOT
ATOM      1  C   UNL     1     185.238 206.575  93.687  1.00  0.00     0.171 C 
ENDROOT
BRANCH   1   2
ATOM      2  C   UNL     1     186.249 207.739  93.608  1.00  0.00     0.237 C 
BRANCH   2   3
ATOM      3  N   UNL     1     185.574 209.043  93.540  1.00  0.00    -0.350 N 
ATOM      4  H   UNL     1     185.925 209.663  94.306  1.00  0.00     0.345 HD
ATOM      5  H   UNL     1     184.545 208.912  93.670  1.00  0.00     0.345 HD
ATOM      6  H   UNL     1     185.741 209.509  92.618  1.00  0.00     0.345 HD
ENDBRANCH   2   3
BRANCH   2   7
ATOM      7  C   UNL     1     187.231 207.693  94.752  1.00  0.00     0.100 C 
ATOM      8  O   UNL     1     187.540 208.753  95.358  1.00  0.00    -0.544 OA
ATOM      9  O   UNL     1     187.840 206.497  95.114  1.00  0.00    -0.544 OA
ENDBRANCH   2   7
ENDBRANCH   1   2
BRANCH   1  10
ATOM     10  C   UNL     1     184.532 206.490  95.012  1.00  0.00     0.223 C 
ATOM     11  O   UNL     1     183.629 207.321  95.295  1.00  0.00    -0.275 OA
ATOM     12  N   UNL     1     184.864 205.461  95.945  1.00  0.00    -0.369 N 
ATOM     13  H   UNL     1     184.364 205.399  96.859  1.00  0.00     0.159 HD
ATOM     14  H   UNL     1     185.604 204.759  95.725  1.00  0.00     0.159 HD
ENDBRANCH   1  10
TORSDOF 4
ENDMDL
MODEL 7
REMARK VINA RESULT:    -3.966     17.609     18.224
REMARK INTER + INTRA:          -5.141
REMARK INTER:                  -4.702
REMARK INTRA:                  -0.439
REMARK UNBOUND:                -0.364
REMARK SMILES NC(=O)C[C@@H]([NH3+])C(=O)[O-]
REMARK SMILES IDX 4 1 5 2 6 3 7 7 8 8 9 9 2 10 3 11 1 12
REMARK H PARENT 6 4 6 5 6 6 1 13 1 14
REMARK Flexibility Score: inf
ROOT
ATOM      1  C   UNL     1     186.361 208.087  93.395  1.00  0.00     0.171 C 
ENDROOT
BRANCH   1   2
ATOM      2  C   UNL     1     186.738 208.341  94.870  1.00  0.00     0.237 C 
BRANCH   2   3
ATOM      3  N   UNL     1     185.567 208.261  95.753  1.00  0.00    -0.350 N 
ATOM      4  H   UNL     1     184.785 207.771  95.261  1.00  0.00     0.345 HD
ATOM      5  H   UNL     1     185.246 209.227  95.997  1.00  0.00     0.345 HD
ATOM      6  H   UNL     1     185.791 207.747  96.637  1.00  0.00     0.345 HD
ENDBRANCH   2   3
BRANCH   2   7
ATOM      7  C   UNL     1     187.829 207.404  95.327  1.00  0.00     0.100 C 
ATOM      8  O   UNL     1     187.637 206.160  95.310  1.00  0.00    -0.544 OA
ATOM      9  O   UNL     1     189.031 207.902  95.816  1.00  0.00    -0.544 OA
ENDBRANCH   2   7
ENDBRANCH   1   2
BRANCH   1  10
ATOM     10  C   UNL     1     185.052 207.367  93.230  1.00  0.00     0.223 C 
ATOM     11  O   UNL     1     184.007 208.019  92.971  1.00  0.00    -0.275 OA
ATOM     12  N   UNL     1     184.988 205.945  93.346  1.00  0.00    -0.369 N 
ATOM     13  H   UNL     1     184.078 205.448  93.221  1.00  0.00     0.159 HD
ATOM     14  H   UNL     1     185.845 205.387  93.553  1.00  0.00     0.159 HD
ENDBRANCH   1  10
TORSDOF 4
ENDMDL
MODEL 8
REMARK VINA RESULT:    -3.884     17.832     18.611
REMARK INTER + INTRA:          -5.043
REMARK INTER:                  -4.579
REMARK INTRA:                  -0.464
REMARK UNBOUND:                -0.364
REMARK SMILES NC(=O)C[C@@H]([NH3+])C(=O)[O-]
REMARK SMILES IDX 4 1 5 2 6 3 7 7 8 8 9 9 2 10 3 11 1 12
REMARK H PARENT 6 4 6 5 6 6 1 13 1 14
REMARK Flexibility Score: inf
ROOT
ATOM      1  C   UNL     1     184.754 208.550  93.092  1.00  0.00     0.171 C 
ENDROOT
BRANCH   1   2
ATOM      2  C   UNL     1     184.405 207.156  93.655  1.00  0.00     0.237 C 
BRANCH   2   3
ATOM      3  N   UNL     1     185.326 206.122  93.162  1.00  0.00    -0.350 N 
ATOM      4  H   UNL     1     185.652 206.369  92.199  1.00  0.00     0.345 HD
ATOM      5  H   UNL     1     184.828 205.204  93.113  1.00  0.00     0.345 HD
ATOM      6  H   UNL     1     186.156 206.023  93.790  1.00  0.00     0.345 HD
ENDBRANCH   2   3
BRANCH   2   7
ATOM      7  C   UNL     1     184.359 207.168  95.163  1.00  0.00     0.100 C 
ATOM      8  O   UNL     1     183.260 207.019  95.759  1.00  0.00    -0.544 OA
ATOM      9  O   UNL     1     185.513 207.395  95.905  1.00  0.00    -0.544 OA
ENDBRANCH   2   7
ENDBRANCH   1   2
BRANCH   1  10
ATOM     10  C   UNL     1     186.232 208.814  93.030  1.00  0.00     0.223 C 
ATOM     11  O   UNL     1     186.895 208.436  92.028  1.00  0.00    -0.275 OA
ATOM     12  N   UNL     1     186.889 209.509  94.091  1.00  0.00    -0.369 N 
ATOM     13  H   UNL     1     187.914 209.699  94.039  1.00  0.00     0.159 HD
ATOM     14  H   UNL     1     186.356 209.836  94.925  1.00  0.00     0.159 HD
ENDBRANCH   1  10
TORSDOF 4
ENDMDL
MODEL 9
REMARK VINA RESULT:    -3.864     17.593     17.982
REMARK INTER + INTRA:          -5.019
REMARK INTER:                  -4.697
REMARK INTRA:                  -0.321
REMARK UNBOUND:                -0.364
REMARK SMILES NC(=O)C[C@@H]([NH3+])C(=O)[O-]
REMARK SMILES IDX 4 1 5 2 6 3 7 7 8 8 9 9 2 10 3 11 1 12
REMARK H PARENT 6 4 6 5 6 6 1 13 1 14
REMARK Flexibility Score: inf
ROOT
ATOM      1  C   UNL     1     185.676 207.027  93.847  1.00  0.00     0.171 C 
ENDROOT
BRANCH   1   2
ATOM      2  C   UNL     1     185.930 208.548  93.767  1.00  0.00     0.237 C 
BRANCH   2   3
ATOM      3  N   UNL     1     186.673 209.039  94.935  1.00  0.00    -0.350 N 
ATOM      4  H   UNL     1     186.560 208.372  95.733  1.00  0.00     0.345 HD
ATOM      5  H   UNL     1     186.291 209.967  95.228  1.00  0.00     0.345 HD
ATOM      6  H   UNL     1     187.691 209.146  94.719  1.00  0.00     0.345 HD
ENDBRANCH   2   3
BRANCH   2   7
ATOM      7  C   UNL     1     186.626 208.921  92.482  1.00  0.00     0.100 C 
ATOM      8  O   UNL     1     187.717 208.371  92.176  1.00  0.00    -0.544 OA
ATOM      9  O   UNL     1     186.102 209.906  91.652  1.00  0.00    -0.544 OA
ENDBRANCH   2   7
ENDBRANCH   1   2
BRANCH   1  10
ATOM     10  C   UNL     1     186.162 206.410  95.128  1.00  0.00     0.223 C 
ATOM     11  O   UNL     1     187.399 206.310  95.346  1.00  0.00    -0.275 OA
ATOM     12  N   UNL     1     185.233 205.953  96.112  1.00  0.00    -0.369 N 
ATOM     13  H   UNL     1     185.575 205.534  97.004  1.00  0.00     0.159 HD
ATOM     14  H   UNL     1     184.205 206.034  95.952  1.00  0.00     0.159 HD
ENDBRANCH   1  10
TORSDOF 4
ENDMDL
