MODEL 1
REMARK VINA RESULT:    -3.940      0.000      0.000
REMARK INTER + INTRA:         -16.271
REMARK INTER:                 -10.390
REMARK INTRA:                  -5.881
REMARK UNBOUND:                -5.881
REMARK SMILES CCCCCCCCCCCCCCCCCCCCCCCCCCCCCC(=O)[O-]
REMARK SMILES IDX 16 1 17 2 18 3 19 4 20 5 21 6 22 7 23 8 24 9 25 10 26 11
REMARK SMILES IDX 27 12 28 13 29 14 30 15 31 16 32 17 15 18 14 19 13 20 12 21
REMARK SMILES IDX 11 22 10 23 9 24 8 25 7 26 6 27 5 28 4 29 3 30 2 31 1 32
REMARK H PARENT
REMARK Flexibility Score: inf
ROOT
ATOM      1  C   UNL     1      27.812   6.830  41.918  1.00  0.00     0.000 C 
ENDROOT
BRANCH   1   2
ATOM      2  C   UNL     1      29.105   7.577  41.545  1.00  0.00     0.000 C 
BRANCH   2   3
ATOM      3  C   UNL     1      28.907   8.544  40.367  1.00  0.00     0.000 C 
BRANCH   3   4
ATOM      4  C   UNL     1      30.188   8.741  39.542  1.00  0.00     0.000 C 
BRANCH   4   5
ATOM      5  C   UNL     1      30.042   8.115  38.146  1.00  0.00     0.000 C 
BRANCH   5   6
ATOM      6  C   UNL     1      30.902   6.854  37.968  1.00  0.00     0.000 C 
BRANCH   6   7
ATOM      7  C   UNL     1      30.211   5.587  38.503  1.00  0.00     0.000 C 
BRANCH   7   8
ATOM      8  C   UNL     1      31.104   4.783  39.462  1.00  0.00     0.000 C 
BRANCH   8   9
ATOM      9  C   UNL     1      32.046   5.674  40.285  1.00  0.00     0.000 C 
BRANCH   9  10
ATOM     10  C   UNL     1      31.998   5.295  41.772  1.00  0.00     0.000 C 
BRANCH  10  11
ATOM     11  C   UNL     1      32.958   6.137  42.628  1.00  0.00     0.000 C 
BRANCH  11  12
ATOM     12  C   UNL     1      32.772   7.648  42.410  1.00  0.00     0.000 C 
BRANCH  12  13
ATOM     13  C   UNL     1      32.000   8.331  43.553  1.00  0.00     0.006 C 
BRANCH  13  14
ATOM     14  C   UNL     1      32.722   9.552  44.153  1.00  0.00     0.053 C 
BRANCH  14  15
ATOM     15  C   UNL     1      33.364   9.251  45.473  1.00  0.00     0.041 C 
ATOM     16  O   UNL     1      33.293  10.079  46.418  1.00  0.00    -0.550 OA
ATOM     17  O   UNL     1      34.019   8.040  45.668  1.00  0.00    -0.550 OA
ENDBRANCH  14  15
ENDBRANCH  13  14
ENDBRANCH  12  13
ENDBRANCH  11  12
ENDBRANCH  10  11
ENDBRANCH   9  10
ENDBRANCH   8   9
ENDBRANCH   7   8
ENDBRANCH   6   7
ENDBRANCH   5   6
ENDBRANCH   4   5
ENDBRANCH   3   4
ENDBRANCH   2   3
ENDBRANCH   1   2
BRANCH   1  18
ATOM     18  C   UNL     1      27.625   5.524  41.126  1.00  0.00     0.000 C 
BRANCH  18  19
ATOM     19  C   UNL     1      28.153   4.254  41.818  1.00  0.00     0.000 C 
BRANCH  19  20
ATOM     20  C   UNL     1      28.315   4.422  43.338  1.00  0.00     0.000 C 
BRANCH  20  21
ATOM     21  C   UNL     1      29.577   3.729  43.875  1.00  0.00     0.000 C 
BRANCH  21  22
ATOM     22  C   UNL     1      30.335   4.591  44.901  1.00  0.00     0.000 C 
BRANCH  22  23
ATOM     23  C   UNL     1      29.655   5.958  45.127  1.00  0.00     0.000 C 
BRANCH  23  24
ATOM     24  C   UNL     1      30.268   6.775  46.278  1.00  0.00    -0.000 C 
BRANCH  24  25
ATOM     25  C   UNL     1      31.499   6.095  46.898  1.00  0.00    -0.000 C 
BRANCH  25  26
ATOM     26  C   UNL     1      31.431   6.027  48.431  1.00  0.00    -0.000 C 
BRANCH  26  27
ATOM     27  C   UNL     1      31.510   4.589  48.966  1.00  0.00    -0.000 C 
BRANCH  27  28
ATOM     28  C   UNL     1      30.183   4.172  49.619  1.00  0.00    -0.000 C 
BRANCH  28  29
ATOM     29  C   UNL     1      29.032   5.143  49.306  1.00  0.00    -0.000 C 
BRANCH  29  30
ATOM     30  C   UNL     1      27.956   4.593  48.350  1.00  0.00    -0.000 C 
BRANCH  30  31
ATOM     31  C   UNL     1      26.932   5.647  47.881  1.00  0.00    -0.003 C 
ATOM     32  C   UNL     1      27.267   7.057  48.369  1.00  0.00     0.004 C 
ENDBRANCH  30  31
ENDBRANCH  29  30
ENDBRANCH  28  29
ENDBRANCH  27  28
ENDBRANCH  26  27
ENDBRANCH  25  26
ENDBRANCH  24  25
ENDBRANCH  23  24
ENDBRANCH  22  23
ENDBRANCH  21  22
ENDBRANCH  20  21
ENDBRANCH  19  20
ENDBRANCH  18  19
ENDBRANCH   1  18
TORSDOF 28
ENDMDL
MODEL 2
REMARK VINA RESULT:    -3.564      2.711      6.813
REMARK INTER + INTRA:         -15.279
REMARK INTER:                 -10.571
REMARK INTRA:                  -4.708
REMARK UNBOUND:                -5.881
REMARK SMILES CCCCCCCCCCCCCCCCCCCCCCCCCCCCCC(=O)[O-]
REMARK SMILES IDX 16 1 17 2 18 3 19 4 20 5 21 6 22 7 23 8 24 9 25 10 26 11
REMARK SMILES IDX 27 12 28 13 29 14 30 15 31 16 32 17 15 18 14 19 13 20 12 21
REMARK SMILES IDX 11 22 10 23 9 24 8 25 7 26 6 27 5 28 4 29 3 30 2 31 1 32
REMARK H PARENT
REMARK Flexibility Score: inf
ROOT
ATOM      1  C   UNL     1      31.090   5.310  39.364  1.00  0.00     0.000 C 
ENDROOT
BRANCH   1   2
ATOM      2  C   UNL     1      32.241   5.961  40.152  1.00  0.00     0.000 C 
BRANCH   2   3
ATOM      3  C   UNL     1      32.771   5.056  41.275  1.00  0.00     0.000 C 
BRANCH   3   4
ATOM      4  C   UNL     1      32.282   5.491  42.665  1.00  0.00     0.000 C 
BRANCH   4   5
ATOM      5  C   UNL     1      32.933   6.818  43.084  1.00  0.00     0.000 C 
BRANCH   5   6
ATOM      6  C   UNL     1      33.100   6.943  44.607  1.00  0.00     0.000 C 
BRANCH   6   7
ATOM      7  C   UNL     1      33.602   8.334  45.034  1.00  0.00     0.000 C 
BRANCH   7   8
ATOM      8  C   UNL     1      32.505   9.183  45.696  1.00  0.00     0.000 C 
BRANCH   8   9
ATOM      9  C   UNL     1      31.425   9.639  44.705  1.00  0.00     0.000 C 
BRANCH   9  10
ATOM     10  C   UNL     1      30.021   9.333  45.247  1.00  0.00     0.000 C 
BRANCH  10  11
ATOM     11  C   UNL     1      30.033   8.261  46.348  1.00  0.00     0.000 C 
BRANCH  11  12
ATOM     12  C   UNL     1      29.376   6.946  45.899  1.00  0.00     0.000 C 
BRANCH  12  13
ATOM     13  C   UNL     1      30.186   5.699  46.298  1.00  0.00     0.006 C 
BRANCH  13  14
ATOM     14  C   UNL     1      31.085   5.906  47.529  1.00  0.00     0.053 C 
BRANCH  14  15
ATOM     15  C   UNL     1      30.477   5.361  48.786  1.00  0.00     0.041 C 
ATOM     16  O   UNL     1      29.226   5.333  48.927  1.00  0.00    -0.550 OA
ATOM     17  O   UNL     1      31.294   4.857  49.792  1.00  0.00    -0.550 OA
ENDBRANCH  14  15
ENDBRANCH  13  14
ENDBRANCH  12  13
ENDBRANCH  11  12
ENDBRANCH  10  11
ENDBRANCH   9  10
ENDBRANCH   8   9
ENDBRANCH   7   8
ENDBRANCH   6   7
ENDBRANCH   5   6
ENDBRANCH   4   5
ENDBRANCH   3   4
ENDBRANCH   2   3
ENDBRANCH   1   2
BRANCH   1  18
ATOM     18  C   UNL     1      30.366   6.300  38.434  1.00  0.00     0.000 C 
BRANCH  18  19
ATOM     19  C   UNL     1      30.822   7.766  38.552  1.00  0.00     0.000 C 
BRANCH  19  20
ATOM     20  C   UNL     1      29.649   8.748  38.718  1.00  0.00     0.000 C 
BRANCH  20  21
ATOM     21  C   UNL     1      28.849   8.495  40.006  1.00  0.00     0.000 C 
BRANCH  21  22
ATOM     22  C   UNL     1      29.744   8.436  41.258  1.00  0.00     0.000 C 
BRANCH  22  23
ATOM     23  C   UNL     1      29.348   7.281  42.201  1.00  0.00     0.000 C 
BRANCH  23  24
ATOM     24  C   UNL     1      28.312   6.315  41.599  1.00  0.00    -0.000 C 
BRANCH  24  25
ATOM     25  C   UNL     1      27.976   5.145  42.536  1.00  0.00    -0.000 C 
BRANCH  25  26
ATOM     26  C   UNL     1      26.957   4.169  41.928  1.00  0.00    -0.000 C 
BRANCH  26  27
ATOM     27  C   UNL     1      26.963   4.186  40.391  1.00  0.00    -0.000 C 
BRANCH  27  28
ATOM     28  C   UNL     1      25.663   3.587  39.830  1.00  0.00    -0.000 C 
BRANCH  28  29
ATOM     29  C   UNL     1      24.522   3.565  40.860  1.00  0.00    -0.000 C 
BRANCH  29  30
ATOM     30  C   UNL     1      23.653   2.292  40.844  1.00  0.00    -0.000 C 
BRANCH  30  31
ATOM     31  C   UNL     1      23.692   1.520  39.509  1.00  0.00    -0.003 C 
ATOM     32  C   UNL     1      22.678   2.044  38.491  1.00  0.00     0.004 C 
ENDBRANCH  30  31
ENDBRANCH  29  30
ENDBRANCH  28  29
ENDBRANCH  27  28
ENDBRANCH  26  27
ENDBRANCH  25  26
ENDBRANCH  24  25
ENDBRANCH  23  24
ENDBRANCH  22  23
ENDBRANCH  21  22
ENDBRANCH  20  21
ENDBRANCH  19  20
ENDBRANCH  18  19
ENDBRANCH   1  18
TORSDOF 28
ENDMDL
MODEL 3
REMARK VINA RESULT:    -3.534      3.538      6.235
REMARK INTER + INTRA:         -15.198
REMARK INTER:                 -10.378
REMARK INTRA:                  -4.821
REMARK UNBOUND:                -5.881
REMARK SMILES CCCCCCCCCCCCCCCCCCCCCCCCCCCCCC(=O)[O-]
REMARK SMILES IDX 16 1 17 2 18 3 19 4 20 5 21 6 22 7 23 8 24 9 25 10 26 11
REMARK SMILES IDX 27 12 28 13 29 14 30 15 31 16 32 17 15 18 14 19 13 20 12 21
REMARK SMILES IDX 11 22 10 23 9 24 8 25 7 26 6 27 5 28 4 29 3 30 2 31 1 32
REMARK H PARENT
REMARK Flexibility Score: inf
ROOT
ATOM      1  C   UNL     1      32.734   6.429  42.411  1.00  0.00     0.000 C 
ENDROOT
BRANCH   1   2
ATOM      2  C   UNL     1      31.964   5.315  41.679  1.00  0.00     0.000 C 
BRANCH   2   3
ATOM      3  C   UNL     1      32.221   5.319  40.164  1.00  0.00     0.000 C 
BRANCH   3   4
ATOM      4  C   UNL     1      30.924   5.391  39.345  1.00  0.00     0.000 C 
BRANCH   4   5
ATOM      5  C   UNL     1      30.907   6.643  38.455  1.00  0.00     0.000 C 
BRANCH   5   6
ATOM      6  C   UNL     1      29.850   7.669  38.892  1.00  0.00     0.000 C 
BRANCH   6   7
ATOM      7  C   UNL     1      30.302   8.505  40.103  1.00  0.00     0.000 C 
BRANCH   7   8
ATOM      8  C   UNL     1      29.198   8.665  41.160  1.00  0.00     0.000 C 
BRANCH   8   9
ATOM      9  C   UNL     1      29.165   7.506  42.168  1.00  0.00     0.000 C 
BRANCH   9  10
ATOM     10  C   UNL     1      27.920   6.632  41.956  1.00  0.00     0.000 C 
BRANCH  10  11
ATOM     11  C   UNL     1      28.238   5.129  42.018  1.00  0.00     0.000 C 
BRANCH  11  12
ATOM     12  C   UNL     1      27.662   4.355  40.820  1.00  0.00     0.000 C 
BRANCH  12  13
ATOM     13  C   UNL     1      26.137   4.166  40.900  1.00  0.00     0.006 C 
BRANCH  13  14
ATOM     14  C   UNL     1      25.524   3.496  39.657  1.00  0.00     0.053 C 
BRANCH  14  15
ATOM     15  C   UNL     1      24.325   2.660  39.985  1.00  0.00     0.041 C 
ATOM     16  O   UNL     1      23.879   1.832  39.147  1.00  0.00    -0.550 OA
ATOM     17  O   UNL     1      23.716   2.775  41.229  1.00  0.00    -0.550 OA
ENDBRANCH  14  15
ENDBRANCH  13  14
ENDBRANCH  12  13
ENDBRANCH  11  12
ENDBRANCH  10  11
ENDBRANCH   9  10
ENDBRANCH   8   9
ENDBRANCH   7   8
ENDBRANCH   6   7
ENDBRANCH   5   6
ENDBRANCH   4   5
ENDBRANCH   3   4
ENDBRANCH   2   3
ENDBRANCH   1   2
BRANCH   1  18
ATOM     18  C   UNL     1      33.359   7.455  41.450  1.00  0.00     0.000 C 
BRANCH  18  19
ATOM     19  C   UNL     1      34.106   8.619  42.126  1.00  0.00     0.000 C 
BRANCH  19  20
ATOM     20  C   UNL     1      33.164   9.724  42.633  1.00  0.00     0.000 C 
BRANCH  20  21
ATOM     21  C   UNL     1      33.467  10.136  44.083  1.00  0.00     0.000 C 
BRANCH  21  22
ATOM     22  C   UNL     1      32.454   9.557  45.088  1.00  0.00     0.000 C 
BRANCH  22  23
ATOM     23  C   UNL     1      33.090   8.492  46.005  1.00  0.00     0.000 C 
BRANCH  23  24
ATOM     24  C   UNL     1      32.124   7.366  46.413  1.00  0.00    -0.000 C 
BRANCH  24  25
ATOM     25  C   UNL     1      30.938   7.223  45.446  1.00  0.00    -0.000 C 
BRANCH  25  26
ATOM     26  C   UNL     1      29.585   7.495  46.121  1.00  0.00    -0.000 C 
BRANCH  26  27
ATOM     27  C   UNL     1      28.515   6.457  45.748  1.00  0.00    -0.000 C 
BRANCH  27  28
ATOM     28  C   UNL     1      28.432   5.348  46.808  1.00  0.00    -0.000 C 
BRANCH  28  29
ATOM     29  C   UNL     1      28.718   5.858  48.230  1.00  0.00    -0.000 C 
BRANCH  29  30
ATOM     30  C   UNL     1      29.289   4.804  49.199  1.00  0.00    -0.000 C 
BRANCH  30  31
ATOM     31  C   UNL     1      30.721   5.105  49.686  1.00  0.00    -0.003 C 
ATOM     32  C   UNL     1      31.786   4.326  48.912  1.00  0.00     0.004 C 
ENDBRANCH  30  31
ENDBRANCH  29  30
ENDBRANCH  28  29
ENDBRANCH  27  28
ENDBRANCH  26  27
ENDBRANCH  25  26
ENDBRANCH  24  25
ENDBRANCH  23  24
ENDBRANCH  22  23
ENDBRANCH  21  22
ENDBRANCH  20  21
ENDBRANCH  19  20
ENDBRANCH  18  19
ENDBRANCH   1  18
TORSDOF 28
ENDMDL
MODEL 4
REMARK VINA RESULT:    -3.498      4.234      6.267
REMARK INTER + INTRA:         -15.104
REMARK INTER:                 -10.454
REMARK INTRA:                  -4.650
REMARK UNBOUND:                -5.881
REMARK SMILES CCCCCCCCCCCCCCCCCCCCCCCCCCCCCC(=O)[O-]
REMARK SMILES IDX 16 1 17 2 18 3 19 4 20 5 21 6 22 7 23 8 24 9 25 10 26 11
REMARK SMILES IDX 27 12 28 13 29 14 30 15 31 16 32 17 15 18 14 19 13 20 12 21
REMARK SMILES IDX 11 22 10 23 9 24 8 25 7 26 6 27 5 28 4 29 3 30 2 31 1 32
REMARK H PARENT
REMARK Flexibility Score: inf
ROOT
ATOM      1  C   UNL     1      28.378   8.060  40.848  1.00  0.00     0.000 C 
ENDROOT
BRANCH   1   2
ATOM      2  C   UNL     1      29.371   9.202  40.567  1.00  0.00     0.000 C 
BRANCH   2   3
ATOM      3  C   UNL     1      30.472   8.794  39.576  1.00  0.00     0.000 C 
BRANCH   3   4
ATOM      4  C   UNL     1      29.914   8.083  38.333  1.00  0.00     0.000 C 
BRANCH   4   5
ATOM      5  C   UNL     1      30.853   6.953  37.881  1.00  0.00     0.000 C 
BRANCH   5   6
ATOM      6  C   UNL     1      31.142   5.939  38.999  1.00  0.00     0.000 C 
BRANCH   6   7
ATOM      7  C   UNL     1      30.260   4.681  38.899  1.00  0.00     0.000 C 
BRANCH   7   8
ATOM      8  C   UNL     1      29.329   4.512  40.110  1.00  0.00     0.000 C 
BRANCH   8   9
ATOM      9  C   UNL     1      27.904   4.098  39.712  1.00  0.00     0.000 C 
BRANCH   9  10
ATOM     10  C   UNL     1      26.948   4.208  40.909  1.00  0.00     0.000 C 
BRANCH  10  11
ATOM     11  C   UNL     1      25.473   4.061  40.502  1.00  0.00     0.000 C 
BRANCH  11  12
ATOM     12  C   UNL     1      24.578   5.142  41.129  1.00  0.00     0.000 C 
BRANCH  12  13
ATOM     13  C   UNL     1      23.625   4.589  42.203  1.00  0.00     0.006 C 
BRANCH  13  14
ATOM     14  C   UNL     1      22.134   4.807  41.889  1.00  0.00     0.053 C 
BRANCH  14  15
ATOM     15  C   UNL     1      21.508   3.626  41.213  1.00  0.00     0.041 C 
ATOM     16  O   UNL     1      20.268   3.601  40.996  1.00  0.00    -0.550 OA
ATOM     17  O   UNL     1      22.300   2.562  40.796  1.00  0.00    -0.550 OA
ENDBRANCH  14  15
ENDBRANCH  13  14
ENDBRANCH  12  13
ENDBRANCH  11  12
ENDBRANCH  10  11
ENDBRANCH   9  10
ENDBRANCH   8   9
ENDBRANCH   7   8
ENDBRANCH   6   7
ENDBRANCH   5   6
ENDBRANCH   4   5
ENDBRANCH   3   4
ENDBRANCH   2   3
ENDBRANCH   1   2
BRANCH   1  18
ATOM     18  C   UNL     1      28.617   7.379  42.208  1.00  0.00     0.000 C 
BRANCH  18  19
ATOM     19  C   UNL     1      30.017   7.593  42.813  1.00  0.00     0.000 C 
BRANCH  19  20
ATOM     20  C   UNL     1      30.876   6.318  42.803  1.00  0.00     0.000 C 
BRANCH  20  21
ATOM     21  C   UNL     1      31.258   5.855  44.219  1.00  0.00     0.000 C 
BRANCH  21  22
ATOM     22  C   UNL     1      30.677   4.472  44.566  1.00  0.00     0.000 C 
BRANCH  22  23
ATOM     23  C   UNL     1      29.481   4.101  43.664  1.00  0.00     0.000 C 
BRANCH  23  24
ATOM     24  C   UNL     1      28.136   4.041  44.410  1.00  0.00    -0.000 C 
BRANCH  24  25
ATOM     25  C   UNL     1      28.157   4.816  45.737  1.00  0.00    -0.000 C 
BRANCH  25  26
ATOM     26  C   UNL     1      27.646   6.257  45.592  1.00  0.00    -0.000 C 
BRANCH  26  27
ATOM     27  C   UNL     1      28.345   7.235  46.549  1.00  0.00    -0.000 C 
BRANCH  27  28
ATOM     28  C   UNL     1      29.109   6.477  47.646  1.00  0.00    -0.000 C 
BRANCH  28  29
ATOM     29  C   UNL     1      30.633   6.657  47.546  1.00  0.00    -0.000 C 
BRANCH  29  30
ATOM     30  C   UNL     1      31.466   5.563  48.242  1.00  0.00    -0.000 C 
BRANCH  30  31
ATOM     31  C   UNL     1      30.810   4.984  49.512  1.00  0.00    -0.003 C 
ATOM     32  C   UNL     1      31.423   3.649  49.940  1.00  0.00     0.004 C 
ENDBRANCH  30  31
ENDBRANCH  29  30
ENDBRANCH  28  29
ENDBRANCH  27  28
ENDBRANCH  26  27
ENDBRANCH  25  26
ENDBRANCH  24  25
ENDBRANCH  23  24
ENDBRANCH  22  23
ENDBRANCH  21  22
ENDBRANCH  20  21
ENDBRANCH  19  20
ENDBRANCH  18  19
ENDBRANCH   1  18
TORSDOF 28
ENDMDL
MODEL 5
REMARK VINA RESULT:    -3.469      3.891      7.025
REMARK INTER + INTRA:         -15.028
REMARK INTER:                  -9.939
REMARK INTRA:                  -5.088
REMARK UNBOUND:                -5.881
REMARK SMILES CCCCCCCCCCCCCCCCCCCCCCCCCCCCCC(=O)[O-]
REMARK SMILES IDX 16 1 17 2 18 3 19 4 20 5 21 6 22 7 23 8 24 9 25 10 26 11
REMARK SMILES IDX 27 12 28 13 29 14 30 15 31 16 32 17 15 18 14 19 13 20 12 21
REMARK SMILES IDX 11 22 10 23 9 24 8 25 7 26 6 27 5 28 4 29 3 30 2 31 1 32
REMARK H PARENT
REMARK Flexibility Score: inf
ROOT
ATOM      1  C   UNL     1      31.510   6.484  47.549  1.00  0.00     0.000 C 
ENDROOT
BRANCH   1   2
ATOM      2  C   UNL     1      30.842   6.670  46.175  1.00  0.00     0.000 C 
BRANCH   2   3
ATOM      3  C   UNL     1      31.864   6.772  45.032  1.00  0.00     0.000 C 
BRANCH   3   4
ATOM      4  C   UNL     1      31.802   5.572  44.075  1.00  0.00     0.000 C 
BRANCH   4   5
ATOM      5  C   UNL     1      30.657   4.622  44.462  1.00  0.00     0.000 C 
BRANCH   5   6
ATOM      6  C   UNL     1      29.569   4.531  43.380  1.00  0.00     0.000 C 
BRANCH   6   7
ATOM      7  C   UNL     1      29.963   5.260  42.083  1.00  0.00     0.000 C 
BRANCH   7   8
ATOM      8  C   UNL     1      29.105   6.508  41.820  1.00  0.00     0.000 C 
BRANCH   8   9
ATOM      9  C   UNL     1      27.943   6.651  42.813  1.00  0.00     0.000 C 
BRANCH   9  10
ATOM     10  C   UNL     1      26.657   7.083  42.093  1.00  0.00     0.000 C 
BRANCH  10  11
ATOM     11  C   UNL     1      25.514   6.069  42.265  1.00  0.00     0.000 C 
BRANCH  11  12
ATOM     12  C   UNL     1      26.021   4.621  42.372  1.00  0.00     0.000 C 
BRANCH  12  13
ATOM     13  C   UNL     1      26.284   3.971  41.002  1.00  0.00     0.006 C 
BRANCH  13  14
ATOM     14  C   UNL     1      25.066   3.985  40.060  1.00  0.00     0.053 C 
BRANCH  14  15
ATOM     15  C   UNL     1      24.194   2.777  40.228  1.00  0.00     0.041 C 
ATOM     16  O   UNL     1      24.174   1.880  39.345  1.00  0.00    -0.550 OA
ATOM     17  O   UNL     1      23.422   2.631  41.375  1.00  0.00    -0.550 OA
ENDBRANCH  14  15
ENDBRANCH  13  14
ENDBRANCH  12  13
ENDBRANCH  11  12
ENDBRANCH  10  11
ENDBRANCH   9  10
ENDBRANCH   8   9
ENDBRANCH   7   8
ENDBRANCH   6   7
ENDBRANCH   5   6
ENDBRANCH   4   5
ENDBRANCH   3   4
ENDBRANCH   2   3
ENDBRANCH   1   2
BRANCH   1  18
ATOM     18  C   UNL     1      31.300   5.074  48.131  1.00  0.00     0.000 C 
BRANCH  18  19
ATOM     19  C   UNL     1      30.582   5.026  49.492  1.00  0.00     0.000 C 
BRANCH  19  20
ATOM     20  C   UNL     1      29.150   4.472  49.397  1.00  0.00     0.000 C 
BRANCH  20  21
ATOM     21  C   UNL     1      28.235   5.353  48.530  1.00  0.00     0.000 C 
BRANCH  21  22
ATOM     22  C   UNL     1      27.736   4.626  47.267  1.00  0.00     0.000 C 
BRANCH  22  23
ATOM     23  C   UNL     1      27.183   5.607  46.213  1.00  0.00     0.000 C 
BRANCH  23  24
ATOM     24  C   UNL     1      27.290   7.086  46.624  1.00  0.00    -0.000 C 
BRANCH  24  25
ATOM     25  C   UNL     1      25.927   7.708  46.967  1.00  0.00    -0.000 C 
BRANCH  25  26
ATOM     26  C   UNL     1      25.600   7.634  48.466  1.00  0.00    -0.000 C 
BRANCH  26  27
ATOM     27  C   UNL     1      24.106   7.844  48.759  1.00  0.00    -0.000 C 
BRANCH  27  28
ATOM     28  C   UNL     1      23.354   6.504  48.763  1.00  0.00    -0.000 C 
BRANCH  28  29
ATOM     29  C   UNL     1      24.266   5.307  49.078  1.00  0.00    -0.000 C 
BRANCH  29  30
ATOM     30  C   UNL     1      24.171   4.135  48.083  1.00  0.00    -0.000 C 
BRANCH  30  31
ATOM     31  C   UNL     1      24.767   2.813  48.608  1.00  0.00    -0.003 C 
ATOM     32  C   UNL     1      25.456   2.971  49.965  1.00  0.00     0.004 C 
ENDBRANCH  30  31
ENDBRANCH  29  30
ENDBRANCH  28  29
ENDBRANCH  27  28
ENDBRANCH  26  27
ENDBRANCH  25  26
ENDBRANCH  24  25
ENDBRANCH  23  24
ENDBRANCH  22  23
ENDBRANCH  21  22
ENDBRANCH  20  21
ENDBRANCH  19  20
ENDBRANCH  18  19
ENDBRANCH   1  18
TORSDOF 28
ENDMDL
MODEL 6
REMARK VINA RESULT:    -3.444      2.296      3.736
REMARK INTER + INTRA:         -14.961
REMARK INTER:                  -9.115
REMARK INTRA:                  -5.846
REMARK UNBOUND:                -5.881
REMARK SMILES CCCCCCCCCCCCCCCCCCCCCCCCCCCCCC(=O)[O-]
REMARK SMILES IDX 16 1 17 2 18 3 19 4 20 5 21 6 22 7 23 8 24 9 25 10 26 11
REMARK SMILES IDX 27 12 28 13 29 14 30 15 31 16 32 17 15 18 14 19 13 20 12 21
REMARK SMILES IDX 11 22 10 23 9 24 8 25 7 26 6 27 5 28 4 29 3 30 2 31 1 32
REMARK H PARENT
REMARK Flexibility Score: inf
ROOT
ATOM      1  C   UNL     1      30.636   4.891  39.682  1.00  0.00     0.000 C 
ENDROOT
BRANCH   1   2
ATOM      2  C   UNL     1      30.674   5.740  38.400  1.00  0.00     0.000 C 
BRANCH   2   3
ATOM      3  C   UNL     1      30.045   7.129  38.595  1.00  0.00     0.000 C 
BRANCH   3   4
ATOM      4  C   UNL     1      31.089   8.210  38.914  1.00  0.00     0.000 C 
BRANCH   4   5
ATOM      5  C   UNL     1      30.416   9.475  39.469  1.00  0.00     0.000 C 
BRANCH   5   6
ATOM      6  C   UNL     1      29.000   9.208  40.004  1.00  0.00     0.000 C 
BRANCH   6   7
ATOM      7  C   UNL     1      28.882   9.468  41.517  1.00  0.00     0.000 C 
BRANCH   7   8
ATOM      8  C   UNL     1      29.613   8.411  42.360  1.00  0.00     0.000 C 
BRANCH   8   9
ATOM      9  C   UNL     1      30.625   9.024  43.338  1.00  0.00     0.000 C 
BRANCH   9  10
ATOM     10  C   UNL     1      32.020   8.415  43.135  1.00  0.00     0.000 C 
BRANCH  10  11
ATOM     11  C   UNL     1      32.001   7.192  42.203  1.00  0.00     0.000 C 
BRANCH  11  12
ATOM     12  C   UNL     1      32.889   6.046  42.715  1.00  0.00     0.000 C 
BRANCH  12  13
ATOM     13  C   UNL     1      33.603   5.285  41.584  1.00  0.00     0.006 C 
BRANCH  13  14
ATOM     14  C   UNL     1      34.073   6.183  40.426  1.00  0.00     0.053 C 
BRANCH  14  15
ATOM     15  C   UNL     1      35.232   5.600  39.676  1.00  0.00     0.041 C 
ATOM     16  O   UNL     1      35.230   4.384  39.348  1.00  0.00    -0.550 OA
ATOM     17  O   UNL     1      36.305   6.407  39.316  1.00  0.00    -0.550 OA
ENDBRANCH  14  15
ENDBRANCH  13  14
ENDBRANCH  12  13
ENDBRANCH  11  12
ENDBRANCH  10  11
ENDBRANCH   9  10
ENDBRANCH   8   9
ENDBRANCH   7   8
ENDBRANCH   6   7
ENDBRANCH   5   6
ENDBRANCH   4   5
ENDBRANCH   3   4
ENDBRANCH   2   3
ENDBRANCH   1   2
BRANCH   1  18
ATOM     18  C   UNL     1      29.427   5.212  40.578  1.00  0.00     0.000 C 
BRANCH  18  19
ATOM     19  C   UNL     1      29.219   4.259  41.770  1.00  0.00     0.000 C 
BRANCH  19  20
ATOM     20  C   UNL     1      28.862   4.995  43.072  1.00  0.00     0.000 C 
BRANCH  20  21
ATOM     21  C   UNL     1      29.771   4.590  44.244  1.00  0.00     0.000 C 
BRANCH  21  22
ATOM     22  C   UNL     1      30.093   5.771  45.179  1.00  0.00     0.000 C 
BRANCH  22  23
ATOM     23  C   UNL     1      31.352   5.510  46.032  1.00  0.00     0.000 C 
BRANCH  23  24
ATOM     24  C   UNL     1      31.222   5.982  47.491  1.00  0.00    -0.000 C 
BRANCH  24  25
ATOM     25  C   UNL     1      31.090   4.816  48.484  1.00  0.00    -0.000 C 
BRANCH  25  26
ATOM     26  C   UNL     1      29.873   4.958  49.409  1.00  0.00    -0.000 C 
BRANCH  26  27
ATOM     27  C   UNL     1      28.685   5.654  48.726  1.00  0.00    -0.000 C 
BRANCH  27  28
ATOM     28  C   UNL     1      27.536   4.665  48.480  1.00  0.00    -0.000 C 
BRANCH  28  29
ATOM     29  C   UNL     1      27.322   4.355  46.989  1.00  0.00    -0.000 C 
BRANCH  29  30
ATOM     30  C   UNL     1      25.959   4.793  46.421  1.00  0.00    -0.000 C 
BRANCH  30  31
ATOM     31  C   UNL     1      26.054   5.840  45.292  1.00  0.00    -0.003 C 
ATOM     32  C   UNL     1      26.683   7.155  45.756  1.00  0.00     0.004 C 
ENDBRANCH  30  31
ENDBRANCH  29  30
ENDBRANCH  28  29
ENDBRANCH  27  28
ENDBRANCH  26  27
ENDBRANCH  25  26
ENDBRANCH  24  25
ENDBRANCH  23  24
ENDBRANCH  22  23
ENDBRANCH  21  22
ENDBRANCH  20  21
ENDBRANCH  19  20
ENDBRANCH  18  19
ENDBRANCH   1  18
TORSDOF 28
ENDMDL
MODEL 7
REMARK VINA RESULT:    -3.442      3.249      8.050
REMARK INTER + INTRA:         -14.956
REMARK INTER:                  -9.761
REMARK INTRA:                  -5.195
REMARK UNBOUND:                -5.881
REMARK SMILES CCCCCCCCCCCCCCCCCCCCCCCCCCCCCC(=O)[O-]
REMARK SMILES IDX 16 1 17 2 18 3 19 4 20 5 21 6 22 7 23 8 24 9 25 10 26 11
REMARK SMILES IDX 27 12 28 13 29 14 30 15 31 16 32 17 15 18 14 19 13 20 12 21
REMARK SMILES IDX 11 22 10 23 9 24 8 25 7 26 6 27 5 28 4 29 3 30 2 31 1 32
REMARK H PARENT
REMARK Flexibility Score: inf
ROOT
ATOM      1  C   UNL     1      30.935   9.600  45.792  1.00  0.00     0.000 C 
ENDROOT
BRANCH   1   2
ATOM      2  C   UNL     1      30.373   8.494  44.881  1.00  0.00     0.000 C 
BRANCH   2   3
ATOM      3  C   UNL     1      29.623   7.407  45.667  1.00  0.00     0.000 C 
BRANCH   3   4
ATOM      4  C   UNL     1      30.081   5.988  45.297  1.00  0.00     0.000 C 
BRANCH   4   5
ATOM      5  C   UNL     1      31.411   5.645  45.987  1.00  0.00     0.000 C 
BRANCH   5   6
ATOM      6  C   UNL     1      31.446   6.082  47.460  1.00  0.00     0.000 C 
BRANCH   6   7
ATOM      7  C   UNL     1      31.460   4.888  48.431  1.00  0.00     0.000 C 
BRANCH   7   8
ATOM      8  C   UNL     1      30.449   5.044  49.578  1.00  0.00     0.000 C 
BRANCH   8   9
ATOM      9  C   UNL     1      29.010   4.721  49.152  1.00  0.00     0.000 C 
BRANCH   9  10
ATOM     10  C   UNL     1      28.259   5.998  48.747  1.00  0.00     0.000 C 
BRANCH  10  11
ATOM     11  C   UNL     1      26.932   5.701  48.029  1.00  0.00     0.000 C 
BRANCH  11  12
ATOM     12  C   UNL     1      27.104   4.729  46.851  1.00  0.00     0.000 C 
BRANCH  12  13
ATOM     13  C   UNL     1      25.986   4.851  45.800  1.00  0.00     0.006 C 
BRANCH  13  14
ATOM     14  C   UNL     1      25.653   3.529  45.085  1.00  0.00     0.053 C 
BRANCH  14  15
ATOM     15  C   UNL     1      24.403   2.888  45.608  1.00  0.00     0.041 C 
ATOM     16  O   UNL     1      23.311   3.033  44.998  1.00  0.00    -0.550 OA
ATOM     17  O   UNL     1      24.451   2.108  46.757  1.00  0.00    -0.550 OA
ENDBRANCH  14  15
ENDBRANCH  13  14
ENDBRANCH  12  13
ENDBRANCH  11  12
ENDBRANCH  10  11
ENDBRANCH   9  10
ENDBRANCH   8   9
ENDBRANCH   7   8
ENDBRANCH   6   7
ENDBRANCH   5   6
ENDBRANCH   4   5
ENDBRANCH   3   4
ENDBRANCH   2   3
ENDBRANCH   1   2
BRANCH   1  18
ATOM     18  C   UNL     1      32.438   9.850  45.574  1.00  0.00     0.000 C 
BRANCH  18  19
ATOM     19  C   UNL     1      33.368   8.718  46.049  1.00  0.00     0.000 C 
BRANCH  19  20
ATOM     20  C   UNL     1      34.056   7.980  44.889  1.00  0.00     0.000 C 
BRANCH  20  21
ATOM     21  C   UNL     1      33.884   8.705  43.545  1.00  0.00     0.000 C 
BRANCH  21  22
ATOM     22  C   UNL     1      33.065   7.886  42.530  1.00  0.00     0.000 C 
BRANCH  22  23
ATOM     23  C   UNL     1      33.142   6.370  42.811  1.00  0.00     0.000 C 
BRANCH  23  24
ATOM     24  C   UNL     1      33.322   5.512  41.547  1.00  0.00    -0.000 C 
BRANCH  24  25
ATOM     25  C   UNL     1      32.404   5.951  40.395  1.00  0.00    -0.000 C 
BRANCH  25  26
ATOM     26  C   UNL     1      31.107   5.130  40.323  1.00  0.00    -0.000 C 
BRANCH  26  27
ATOM     27  C   UNL     1      29.967   5.881  39.618  1.00  0.00    -0.000 C 
BRANCH  27  28
ATOM     28  C   UNL     1      29.446   7.034  40.491  1.00  0.00    -0.000 C 
BRANCH  28  29
ATOM     29  C   UNL     1      28.812   6.549  41.805  1.00  0.00    -0.000 C 
BRANCH  29  30
ATOM     30  C   UNL     1      27.436   5.873  41.655  1.00  0.00    -0.000 C 
BRANCH  30  31
ATOM     31  C   UNL     1      27.461   4.343  41.851  1.00  0.00    -0.003 C 
ATOM     32  C   UNL     1      28.690   3.866  42.627  1.00  0.00     0.004 C 
ENDBRANCH  30  31
ENDBRANCH  29  30
ENDBRANCH  28  29
ENDBRANCH  27  28
ENDBRANCH  26  27
ENDBRANCH  25  26
ENDBRANCH  24  25
ENDBRANCH  23  24
ENDBRANCH  22  23
ENDBRANCH  21  22
ENDBRANCH  20  21
ENDBRANCH  19  20
ENDBRANCH  18  19
ENDBRANCH   1  18
TORSDOF 28
ENDMDL
MODEL 8
REMARK VINA RESULT:    -3.438      3.318      5.537
REMARK INTER + INTRA:         -14.946
REMARK INTER:                 -10.211
REMARK INTRA:                  -4.735
REMARK UNBOUND:                -5.881
REMARK SMILES CCCCCCCCCCCCCCCCCCCCCCCCCCCCCC(=O)[O-]
REMARK SMILES IDX 16 1 17 2 18 3 19 4 20 5 21 6 22 7 23 8 24 9 25 10 26 11
REMARK SMILES IDX 27 12 28 13 29 14 30 15 31 16 32 17 15 18 14 19 13 20 12 21
REMARK SMILES IDX 11 22 10 23 9 24 8 25 7 26 6 27 5 28 4 29 3 30 2 31 1 32
REMARK H PARENT
REMARK Flexibility Score: inf
ROOT
ATOM      1  C   UNL     1      30.476   5.079  42.027  1.00  0.00     0.000 C 
ENDROOT
BRANCH   1   2
ATOM      2  C   UNL     1      31.099   5.022  40.621  1.00  0.00     0.000 C 
BRANCH   2   3
ATOM      3  C   UNL     1      30.042   4.883  39.515  1.00  0.00     0.000 C 
BRANCH   3   4
ATOM      4  C   UNL     1      30.329   5.787  38.306  1.00  0.00     0.000 C 
BRANCH   4   5
ATOM      5  C   UNL     1      31.207   6.981  38.712  1.00  0.00     0.000 C 
BRANCH   5   6
ATOM      6  C   UNL     1      30.409   8.288  38.845  1.00  0.00     0.000 C 
BRANCH   6   7
ATOM      7  C   UNL     1      30.141   8.670  40.311  1.00  0.00     0.000 C 
BRANCH   7   8
ATOM      8  C   UNL     1      28.795   8.138  40.827  1.00  0.00     0.000 C 
BRANCH   8   9
ATOM      9  C   UNL     1      28.626   8.314  42.343  1.00  0.00     0.000 C 
BRANCH   9  10
ATOM     10  C   UNL     1      27.436   7.493  42.861  1.00  0.00     0.000 C 
BRANCH  10  11
ATOM     11  C   UNL     1      26.789   6.634  41.762  1.00  0.00     0.000 C 
BRANCH  11  12
ATOM     12  C   UNL     1      26.734   5.143  42.135  1.00  0.00     0.000 C 
BRANCH  12  13
ATOM     13  C   UNL     1      26.700   4.216  40.907  1.00  0.00     0.006 C 
BRANCH  13  14
ATOM     14  C   UNL     1      25.314   4.101  40.248  1.00  0.00     0.053 C 
BRANCH  14  15
ATOM     15  C   UNL     1      24.212   3.925  41.249  1.00  0.00     0.041 C 
ATOM     16  O   UNL     1      24.035   2.812  41.810  1.00  0.00    -0.550 OA
ATOM     17  O   UNL     1      23.398   5.001  41.583  1.00  0.00    -0.550 OA
ENDBRANCH  14  15
ENDBRANCH  13  14
ENDBRANCH  12  13
ENDBRANCH  11  12
ENDBRANCH  10  11
ENDBRANCH   9  10
ENDBRANCH   8   9
ENDBRANCH   7   8
ENDBRANCH   6   7
ENDBRANCH   5   6
ENDBRANCH   4   5
ENDBRANCH   3   4
ENDBRANCH   2   3
ENDBRANCH   1   2
BRANCH   1  18
ATOM     18  C   UNL     1      31.331   5.876  43.029  1.00  0.00     0.000 C 
BRANCH  18  19
ATOM     19  C   UNL     1      32.489   6.680  42.411  1.00  0.00     0.000 C 
BRANCH  19  20
ATOM     20  C   UNL     1      32.615   8.097  42.994  1.00  0.00     0.000 C 
BRANCH  20  21
ATOM     21  C   UNL     1      32.563   8.108  44.530  1.00  0.00     0.000 C 
BRANCH  21  22
ATOM     22  C   UNL     1      31.259   8.719  45.075  1.00  0.00     0.000 C 
BRANCH  22  23
ATOM     23  C   UNL     1      30.599   7.821  46.143  1.00  0.00     0.000 C 
BRANCH  23  24
ATOM     24  C   UNL     1      31.593   6.919  46.897  1.00  0.00    -0.000 C 
BRANCH  24  25
ATOM     25  C   UNL     1      30.991   5.557  47.275  1.00  0.00    -0.000 C 
BRANCH  25  26
ATOM     26  C   UNL     1      30.611   5.467  48.760  1.00  0.00    -0.000 C 
BRANCH  26  27
ATOM     27  C   UNL     1      29.128   5.128  48.974  1.00  0.00    -0.000 C 
BRANCH  27  28
ATOM     28  C   UNL     1      28.223   6.160  48.282  1.00  0.00    -0.000 C 
BRANCH  28  29
ATOM     29  C   UNL     1      27.050   5.514  47.526  1.00  0.00    -0.000 C 
BRANCH  29  30
ATOM     30  C   UNL     1      26.639   4.117  48.030  1.00  0.00    -0.000 C 
BRANCH  30  31
ATOM     31  C   UNL     1      25.440   4.124  49.000  1.00  0.00    -0.003 C 
ATOM     32  C   UNL     1      25.364   2.859  49.857  1.00  0.00     0.004 C 
ENDBRANCH  30  31
ENDBRANCH  29  30
ENDBRANCH  28  29
ENDBRANCH  27  28
ENDBRANCH  26  27
ENDBRANCH  25  26
ENDBRANCH  24  25
ENDBRANCH  23  24
ENDBRANCH  22  23
ENDBRANCH  21  22
ENDBRANCH  20  21
ENDBRANCH  19  20
ENDBRANCH  18  19
ENDBRANCH   1  18
TORSDOF 28
ENDMDL
MODEL 9
REMARK VINA RESULT:    -3.434     11.892     15.453
REMARK INTER + INTRA:         -14.936
REMARK INTER:                  -9.254
REMARK INTRA:                  -5.682
REMARK UNBOUND:                -5.881
REMARK SMILES CCCCCCCCCCCCCCCCCCCCCCCCCCCCCC(=O)[O-]
REMARK SMILES IDX 16 1 17 2 18 3 19 4 20 5 21 6 22 7 23 8 24 9 25 10 26 11
REMARK SMILES IDX 27 12 28 13 29 14 30 15 31 16 32 17 15 18 14 19 13 20 12 21
REMARK SMILES IDX 11 22 10 23 9 24 8 25 7 26 6 27 5 28 4 29 3 30 2 31 1 32
REMARK H PARENT
REMARK Flexibility Score: inf
ROOT
ATOM      1  C   UNL     1      22.876  -5.185  49.175  1.00  0.00     0.000 C 
ENDROOT
BRANCH   1   2
ATOM      2  C   UNL     1      22.802  -6.254  48.071  1.00  0.00     0.000 C 
BRANCH   2   3
ATOM      3  C   UNL     1      22.740  -5.643  46.663  1.00  0.00     0.000 C 
BRANCH   3   4
ATOM      4  C   UNL     1      22.087  -6.583  45.638  1.00  0.00     0.000 C 
BRANCH   4   5
ATOM      5  C   UNL     1      20.629  -6.175  45.372  1.00  0.00     0.000 C 
BRANCH   5   6
ATOM      6  C   UNL     1      19.632  -6.900  46.289  1.00  0.00     0.000 C 
BRANCH   6   7
ATOM      7  C   UNL     1      19.002  -5.963  47.335  1.00  0.00     0.000 C 
BRANCH   7   8
ATOM      8  C   UNL     1      18.913  -4.507  46.851  1.00  0.00     0.000 C 
BRANCH   8   9
ATOM      9  C   UNL     1      19.048  -3.490  47.993  1.00  0.00     0.000 C 
BRANCH   9  10
ATOM     10  C   UNL     1      20.213  -2.524  47.731  1.00  0.00     0.000 C 
BRANCH  10  11
ATOM     11  C   UNL     1      20.651  -2.513  46.257  1.00  0.00     0.000 C 
BRANCH  11  12
ATOM     12  C   UNL     1      22.139  -2.167  46.086  1.00  0.00     0.000 C 
BRANCH  12  13
ATOM     13  C   UNL     1      22.822  -1.772  47.408  1.00  0.00     0.006 C 
BRANCH  13  14
ATOM     14  C   UNL     1      24.209  -2.410  47.610  1.00  0.00     0.053 C 
BRANCH  14  15
ATOM     15  C   UNL     1      25.316  -1.574  47.043  1.00  0.00     0.041 C 
ATOM     16  O   UNL     1      26.439  -2.088  46.797  1.00  0.00    -0.550 OA
ATOM     17  O   UNL     1      25.098  -0.231  46.759  1.00  0.00    -0.550 OA
ENDBRANCH  14  15
ENDBRANCH  13  14
ENDBRANCH  12  13
ENDBRANCH  11  12
ENDBRANCH  10  11
ENDBRANCH   9  10
ENDBRANCH   8   9
ENDBRANCH   7   8
ENDBRANCH   6   7
ENDBRANCH   5   6
ENDBRANCH   4   5
ENDBRANCH   3   4
ENDBRANCH   2   3
ENDBRANCH   1   2
BRANCH   1  18
ATOM     18  C   UNL     1      21.614  -5.143  50.055  1.00  0.00     0.000 C 
BRANCH  18  19
ATOM     19  C   UNL     1      21.415  -3.845  50.859  1.00  0.00     0.000 C 
BRANCH  19  20
ATOM     20  C   UNL     1      20.463  -4.019  52.054  1.00  0.00     0.000 C 
BRANCH  20  21
ATOM     21  C   UNL     1      20.211  -5.497  52.395  1.00  0.00     0.000 C 
BRANCH  21  22
ATOM     22  C   UNL     1      20.274  -5.775  53.908  1.00  0.00     0.000 C 
BRANCH  22  23
ATOM     23  C   UNL     1      20.152  -4.482  54.741  1.00  0.00     0.000 C 
BRANCH  23  24
ATOM     24  C   UNL     1      20.796  -4.580  56.136  1.00  0.00    -0.000 C 
BRANCH  24  25
ATOM     25  C   UNL     1      21.236  -3.213  56.684  1.00  0.00    -0.000 C 
BRANCH  25  26
ATOM     26  C   UNL     1      22.615  -3.259  57.360  1.00  0.00    -0.000 C 
BRANCH  26  27
ATOM     27  C   UNL     1      23.735  -2.712  56.462  1.00  0.00    -0.000 C 
BRANCH  27  28
ATOM     28  C   UNL     1      23.154  -2.024  55.217  1.00  0.00    -0.000 C 
BRANCH  28  29
ATOM     29  C   UNL     1      23.350  -2.848  53.933  1.00  0.00    -0.000 C 
BRANCH  29  30
ATOM     30  C   UNL     1      23.939  -4.256  54.145  1.00  0.00    -0.000 C 
BRANCH  30  31
ATOM     31  C   UNL     1      24.139  -5.058  52.843  1.00  0.00    -0.003 C 
ATOM     32  C   UNL     1      23.637  -6.499  52.952  1.00  0.00     0.004 C 
ENDBRANCH  30  31
ENDBRANCH  29  30
ENDBRANCH  28  29
ENDBRANCH  27  28
ENDBRANCH  26  27
ENDBRANCH  25  26
ENDBRANCH  24  25
ENDBRANCH  23  24
ENDBRANCH  22  23
ENDBRANCH  21  22
ENDBRANCH  20  21
ENDBRANCH  19  20
ENDBRANCH  18  19
ENDBRANCH   1  18
TORSDOF 28
ENDMDL
