MODEL 1
REMARK VINA RESULT:    -4.298      0.000      0.000
REMARK INTER + INTRA:         -10.035
REMARK INTER:                  -8.066
REMARK INTRA:                  -1.969
REMARK UNBOUND:                -1.969
REMARK SMILES O=C([O-])CCCCCCCCCCCCCCC(=O)[O-]
REMARK SMILES IDX 10 1 9 2 8 3 7 4 6 5 5 6 4 7 2 8 1 9 3 10 11 11 12 12 13 13
REMARK SMILES IDX 14 14 15 15 16 16 17 17 18 18 19 19 20 20
REMARK H PARENT
REMARK Flexibility Score: inf
ROOT
ATOM      1  C   UNL     1      18.840  10.114   5.109  1.00  0.00     0.000 C 
ENDROOT
BRANCH   1   2
ATOM      2  C   UNL     1      17.327  10.031   4.870  1.00  0.00     0.000 C 
BRANCH   2   3
ATOM      3  C   UNL     1      16.599   9.525   6.121  1.00  0.00     0.000 C 
BRANCH   3   4
ATOM      4  C   UNL     1      16.432   7.999   6.080  1.00  0.00     0.000 C 
BRANCH   4   5
ATOM      5  C   UNL     1      16.396   7.438   4.648  1.00  0.00     0.000 C 
BRANCH   5   6
ATOM      6  C   UNL     1      17.391   6.295   4.364  1.00  0.00     0.006 C 
BRANCH   6   7
ATOM      7  C   UNL     1      18.604   6.715   3.513  1.00  0.00     0.053 C 
BRANCH   7   8
ATOM      8  C   UNL     1      18.207   7.325   2.202  1.00  0.00     0.041 C 
ATOM      9  O   UNL     1      18.556   8.502   1.918  1.00  0.00    -0.550 OA
ATOM     10  O   UNL     1      17.488   6.581   1.277  1.00  0.00    -0.550 OA
ENDBRANCH   7   8
ENDBRANCH   6   7
ENDBRANCH   5   6
ENDBRANCH   4   5
ENDBRANCH   3   4
ENDBRANCH   2   3
ENDBRANCH   1   2
BRANCH   1  11
ATOM     11  C   UNL     1      19.147  10.566   6.541  1.00  0.00     0.000 C 
BRANCH  11  12
ATOM     12  C   UNL     1      19.980   9.511   7.284  1.00  0.00     0.000 C 
BRANCH  12  13
ATOM     13  C   UNL     1      20.068   8.172   6.530  1.00  0.00     0.000 C 
BRANCH  13  14
ATOM     14  C   UNL     1      20.620   6.992   7.351  1.00  0.00     0.000 C 
BRANCH  14  15
ATOM     15  C   UNL     1      21.970   7.305   8.017  1.00  0.00     0.000 C 
BRANCH  15  16
ATOM     16  C   UNL     1      23.173   6.890   7.149  1.00  0.00     0.006 C 
BRANCH  16  17
ATOM     17  C   UNL     1      22.969   5.584   6.364  1.00  0.00     0.053 C 
BRANCH  17  18
ATOM     18  C   UNL     1      23.697   5.594   5.054  1.00  0.00     0.041 C 
ATOM     19  O   UNL     1      24.956   5.604   5.030  1.00  0.00    -0.550 OA
ATOM     20  O   UNL     1      22.985   5.627   3.862  1.00  0.00    -0.550 OA
ENDBRANCH  17  18
ENDBRANCH  16  17
ENDBRANCH  15  16
ENDBRANCH  14  15
ENDBRANCH  13  14
ENDBRANCH  12  13
ENDBRANCH  11  12
ENDBRANCH   1  11
TORSDOF 15
ENDMDL
MODEL 2
REMARK VINA RESULT:    -4.288      1.227      5.498
REMARK INTER + INTRA:         -10.017
REMARK INTER:                  -8.382
REMARK INTRA:                  -1.635
REMARK UNBOUND:                -1.969
REMARK SMILES O=C([O-])CCCCCCCCCCCCCCC(=O)[O-]
REMARK SMILES IDX 10 1 9 2 8 3 7 4 6 5 5 6 4 7 2 8 1 9 3 10 11 11 12 12 13 13
REMARK SMILES IDX 14 14 15 15 16 16 17 17 18 18 19 19 20 20
REMARK H PARENT
REMARK Flexibility Score: inf
ROOT
ATOM      1  C   UNL     1      19.934  10.677   7.328  1.00  0.00     0.000 C 
ENDROOT
BRANCH   1   2
ATOM      2  C   UNL     1      20.720   9.645   8.146  1.00  0.00     0.000 C 
BRANCH   2   3
ATOM      3  C   UNL     1      20.502   8.229   7.601  1.00  0.00     0.000 C 
BRANCH   3   4
ATOM      4  C   UNL     1      21.809   7.422   7.632  1.00  0.00     0.000 C 
BRANCH   4   5
ATOM      5  C   UNL     1      21.948   6.460   6.440  1.00  0.00     0.000 C 
BRANCH   5   6
ATOM      6  C   UNL     1      23.379   6.293   5.893  1.00  0.00     0.006 C 
BRANCH   6   7
ATOM      7  C   UNL     1      23.454   5.559   4.541  1.00  0.00     0.053 C 
BRANCH   7   8
ATOM      8  C   UNL     1      24.824   5.024   4.249  1.00  0.00     0.041 C 
ATOM      9  O   UNL     1      25.846   5.642   4.647  1.00  0.00    -0.550 OA
ATOM     10  O   UNL     1      24.971   3.820   3.573  1.00  0.00    -0.550 OA
ENDBRANCH   7   8
ENDBRANCH   6   7
ENDBRANCH   5   6
ENDBRANCH   4   5
ENDBRANCH   3   4
ENDBRANCH   2   3
ENDBRANCH   1   2
BRANCH   1  11
ATOM     11  C   UNL     1      19.281  10.027   6.103  1.00  0.00     0.000 C 
BRANCH  11  12
ATOM     12  C   UNL     1      17.775  10.325   6.059  1.00  0.00     0.000 C 
BRANCH  12  13
ATOM     13  C   UNL     1      16.977   9.552   7.125  1.00  0.00     0.000 C 
BRANCH  13  14
ATOM     14  C   UNL     1      17.052   8.018   7.016  1.00  0.00     0.000 C 
BRANCH  14  15
ATOM     15  C   UNL     1      16.230   7.459   5.843  1.00  0.00     0.000 C 
BRANCH  15  16
ATOM     16  C   UNL     1      16.986   6.379   5.047  1.00  0.00     0.006 C 
BRANCH  16  17
ATOM     17  C   UNL     1      18.474   6.689   4.811  1.00  0.00     0.053 C 
BRANCH  17  18
ATOM     18  C   UNL     1      18.754   7.048   3.384  1.00  0.00     0.041 C 
ATOM     19  O   UNL     1      18.721   8.252   3.016  1.00  0.00    -0.550 OA
ATOM     20  O   UNL     1      19.020   6.051   2.454  1.00  0.00    -0.550 OA
ENDBRANCH  17  18
ENDBRANCH  16  17
ENDBRANCH  15  16
ENDBRANCH  14  15
ENDBRANCH  13  14
ENDBRANCH  12  13
ENDBRANCH  11  12
ENDBRANCH   1  11
TORSDOF 15
ENDMDL
MODEL 3
REMARK VINA RESULT:    -4.199      1.293      5.900
REMARK INTER + INTRA:          -9.851
REMARK INTER:                  -8.101
REMARK INTRA:                  -1.749
REMARK UNBOUND:                -1.969
REMARK SMILES O=C([O-])CCCCCCCCCCCCCCC(=O)[O-]
REMARK SMILES IDX 10 1 9 2 8 3 7 4 6 5 5 6 4 7 2 8 1 9 3 10 11 11 12 12 13 13
REMARK SMILES IDX 14 14 15 15 16 16 17 17 18 18 19 19 20 20
REMARK H PARENT
REMARK Flexibility Score: inf
ROOT
ATOM      1  C   UNL     1      19.168   9.929   6.007  1.00  0.00     0.000 C 
ENDROOT
BRANCH   1   2
ATOM      2  C   UNL     1      19.966  10.301   7.262  1.00  0.00     0.000 C 
BRANCH   2   3
ATOM      3  C   UNL     1      20.580   9.056   7.913  1.00  0.00     0.000 C 
BRANCH   3   4
ATOM      4  C   UNL     1      20.597   7.875   6.931  1.00  0.00     0.000 C 
BRANCH   4   5
ATOM      5  C   UNL     1      21.159   6.585   7.554  1.00  0.00     0.000 C 
BRANCH   5   6
ATOM      6  C   UNL     1      22.664   6.616   7.885  1.00  0.00     0.006 C 
BRANCH   6   7
ATOM      7  C   UNL     1      23.580   6.617   6.648  1.00  0.00     0.053 C 
BRANCH   7   8
ATOM      8  C   UNL     1      23.270   5.499   5.698  1.00  0.00     0.041 C 
ATOM      9  O   UNL     1      23.437   4.301   6.051  1.00  0.00    -0.550 OA
ATOM     10  O   UNL     1      22.759   5.777   4.437  1.00  0.00    -0.550 OA
ENDBRANCH   7   8
ENDBRANCH   6   7
ENDBRANCH   5   6
ENDBRANCH   4   5
ENDBRANCH   3   4
ENDBRANCH   2   3
ENDBRANCH   1   2
BRANCH   1  11
ATOM     11  C   UNL     1      17.885  10.762   5.903  1.00  0.00     0.000 C 
BRANCH  11  12
ATOM     12  C   UNL     1      16.640   9.868   6.001  1.00  0.00     0.000 C 
BRANCH  12  13
ATOM     13  C   UNL     1      16.875   8.595   6.834  1.00  0.00     0.000 C 
BRANCH  13  14
ATOM     14  C   UNL     1      16.385   7.287   6.187  1.00  0.00     0.000 C 
BRANCH  14  15
ATOM     15  C   UNL     1      17.521   6.475   5.543  1.00  0.00     0.000 C 
BRANCH  15  16
ATOM     16  C   UNL     1      17.255   6.152   4.060  1.00  0.00     0.006 C 
BRANCH  16  17
ATOM     17  C   UNL     1      15.879   6.607   3.548  1.00  0.00     0.053 C 
BRANCH  17  18
ATOM     18  C   UNL     1      15.994   7.612   2.442  1.00  0.00     0.041 C 
ATOM     19  O   UNL     1      15.896   8.842   2.692  1.00  0.00    -0.550 OA
ATOM     20  O   UNL     1      16.176   7.188   1.132  1.00  0.00    -0.550 OA
ENDBRANCH  17  18
ENDBRANCH  16  17
ENDBRANCH  15  16
ENDBRANCH  14  15
ENDBRANCH  13  14
ENDBRANCH  12  13
ENDBRANCH  11  12
ENDBRANCH   1  11
TORSDOF 15
ENDMDL
MODEL 4
REMARK VINA RESULT:    -4.175      2.324      3.205
REMARK INTER + INTRA:          -9.805
REMARK INTER:                  -8.569
REMARK INTRA:                  -1.235
REMARK UNBOUND:                -1.969
REMARK SMILES O=C([O-])CCCCCCCCCCCCCCC(=O)[O-]
REMARK SMILES IDX 10 1 9 2 8 3 7 4 6 5 5 6 4 7 2 8 1 9 3 10 11 11 12 12 13 13
REMARK SMILES IDX 14 14 15 15 16 16 17 17 18 18 19 19 20 20
REMARK H PARENT
REMARK Flexibility Score: inf
ROOT
ATOM      1  C   UNL     1      19.839   9.719   6.971  1.00  0.00     0.000 C 
ENDROOT
BRANCH   1   2
ATOM      2  C   UNL     1      19.292  11.110   6.630  1.00  0.00     0.000 C 
BRANCH   2   3
ATOM      3  C   UNL     1      18.474  11.079   5.334  1.00  0.00     0.000 C 
BRANCH   3   4
ATOM      4  C   UNL     1      18.530   9.688   4.684  1.00  0.00     0.000 C 
BRANCH   4   5
ATOM      5  C   UNL     1      17.142   9.148   4.300  1.00  0.00     0.000 C 
BRANCH   5   6
ATOM      6  C   UNL     1      16.212   8.823   5.486  1.00  0.00     0.006 C 
BRANCH   6   7
ATOM      7  C   UNL     1      16.192   7.334   5.878  1.00  0.00     0.053 C 
BRANCH   7   8
ATOM      8  C   UNL     1      17.139   7.018   6.997  1.00  0.00     0.041 C 
ATOM      9  O   UNL     1      17.844   5.975   6.956  1.00  0.00    -0.550 OA
ATOM     10  O   UNL     1      17.273   7.895   8.065  1.00  0.00    -0.550 OA
ENDBRANCH   7   8
ENDBRANCH   6   7
ENDBRANCH   5   6
ENDBRANCH   4   5
ENDBRANCH   3   4
ENDBRANCH   2   3
ENDBRANCH   1   2
BRANCH   1  11
ATOM     11  C   UNL     1      20.677   9.756   8.255  1.00  0.00     0.000 C 
BRANCH  11  12
ATOM     12  C   UNL     1      21.563   8.507   8.369  1.00  0.00     0.000 C 
BRANCH  12  13
ATOM     13  C   UNL     1      21.224   7.430   7.322  1.00  0.00     0.000 C 
BRANCH  13  14
ATOM     14  C   UNL     1      21.979   6.098   7.484  1.00  0.00     0.000 C 
BRANCH  14  15
ATOM     15  C   UNL     1      23.433   6.168   6.985  1.00  0.00     0.000 C 
BRANCH  15  16
ATOM     16  C   UNL     1      23.704   5.211   5.809  1.00  0.00     0.006 C 
BRANCH  16  17
ATOM     17  C   UNL     1      23.240   5.739   4.441  1.00  0.00     0.053 C 
BRANCH  17  18
ATOM     18  C   UNL     1      23.867   4.988   3.306  1.00  0.00     0.041 C 
ATOM     19  O   UNL     1      23.324   3.941   2.863  1.00  0.00    -0.550 OA
ATOM     20  O   UNL     1      25.066   5.425   2.759  1.00  0.00    -0.550 OA
ENDBRANCH  17  18
ENDBRANCH  16  17
ENDBRANCH  15  16
ENDBRANCH  14  15
ENDBRANCH  13  14
ENDBRANCH  12  13
ENDBRANCH  11  12
ENDBRANCH   1  11
TORSDOF 15
ENDMDL
MODEL 5
REMARK VINA RESULT:    -4.154      1.404      1.809
REMARK INTER + INTRA:          -9.765
REMARK INTER:                  -8.078
REMARK INTRA:                  -1.687
REMARK UNBOUND:                -1.969
REMARK SMILES O=C([O-])CCCCCCCCCCCCCCC(=O)[O-]
REMARK SMILES IDX 10 1 9 2 8 3 7 4 6 5 5 6 4 7 2 8 1 9 3 10 11 11 12 12 13 13
REMARK SMILES IDX 14 14 15 15 16 16 17 17 18 18 19 19 20 20
REMARK H PARENT
REMARK Flexibility Score: inf
ROOT
ATOM      1  C   UNL     1      19.432  10.423   6.769  1.00  0.00     0.000 C 
ENDROOT
BRANCH   1   2
ATOM      2  C   UNL     1      17.996  10.694   7.233  1.00  0.00     0.000 C 
BRANCH   2   3
ATOM      3  C   UNL     1      17.082   9.503   6.922  1.00  0.00     0.000 C 
BRANCH   3   4
ATOM      4  C   UNL     1      17.364   8.332   7.874  1.00  0.00     0.000 C 
BRANCH   4   5
ATOM      5  C   UNL     1      17.164   6.958   7.212  1.00  0.00     0.000 C 
BRANCH   5   6
ATOM      6  C   UNL     1      16.686   6.997   5.747  1.00  0.00     0.006 C 
BRANCH   6   7
ATOM      7  C   UNL     1      17.492   6.092   4.798  1.00  0.00     0.053 C 
BRANCH   7   8
ATOM      8  C   UNL     1      18.417   6.866   3.907  1.00  0.00     0.041 C 
ATOM      9  O   UNL     1      18.685   8.070   4.162  1.00  0.00    -0.550 OA
ATOM     10  O   UNL     1      19.015   6.246   2.818  1.00  0.00    -0.550 OA
ENDBRANCH   7   8
ENDBRANCH   6   7
ENDBRANCH   5   6
ENDBRANCH   4   5
ENDBRANCH   3   4
ENDBRANCH   2   3
ENDBRANCH   1   2
BRANCH   1  11
ATOM     11  C   UNL     1      20.415  10.502   7.944  1.00  0.00     0.000 C 
BRANCH  11  12
ATOM     12  C   UNL     1      21.017   9.123   8.251  1.00  0.00     0.000 C 
BRANCH  12  13
ATOM     13  C   UNL     1      20.783   8.099   7.125  1.00  0.00     0.000 C 
BRANCH  13  14
ATOM     14  C   UNL     1      20.969   6.625   7.531  1.00  0.00     0.000 C 
BRANCH  14  15
ATOM     15  C   UNL     1      22.357   6.073   7.165  1.00  0.00     0.000 C 
BRANCH  15  16
ATOM     16  C   UNL     1      22.696   6.255   5.673  1.00  0.00     0.006 C 
BRANCH  16  17
ATOM     17  C   UNL     1      23.977   5.536   5.220  1.00  0.00     0.053 C 
BRANCH  17  18
ATOM     18  C   UNL     1      23.738   4.656   4.030  1.00  0.00     0.041 C 
ATOM     19  O   UNL     1      24.075   3.444   4.062  1.00  0.00    -0.550 OA
ATOM     20  O   UNL     1      23.173   5.184   2.877  1.00  0.00    -0.550 OA
ENDBRANCH  17  18
ENDBRANCH  16  17
ENDBRANCH  15  16
ENDBRANCH  14  15
ENDBRANCH  13  14
ENDBRANCH  12  13
ENDBRANCH  11  12
ENDBRANCH   1  11
TORSDOF 15
ENDMDL
MODEL 6
REMARK VINA RESULT:    -4.122      1.996      5.985
REMARK INTER + INTRA:          -9.704
REMARK INTER:                  -8.358
REMARK INTRA:                  -1.346
REMARK UNBOUND:                -1.969
REMARK SMILES O=C([O-])CCCCCCCCCCCCCCC(=O)[O-]
REMARK SMILES IDX 10 1 9 2 8 3 7 4 6 5 5 6 4 7 2 8 1 9 3 10 11 11 12 12 13 13
REMARK SMILES IDX 14 14 15 15 16 16 17 17 18 18 19 19 20 20
REMARK H PARENT
REMARK Flexibility Score: inf
ROOT
ATOM      1  C   UNL     1      20.623   8.563   7.733  1.00  0.00     0.000 C 
ENDROOT
BRANCH   1   2
ATOM      2  C   UNL     1      21.901   7.793   8.087  1.00  0.00     0.000 C 
BRANCH   2   3
ATOM      3  C   UNL     1      21.817   6.338   7.612  1.00  0.00     0.000 C 
BRANCH   3   4
ATOM      4  C   UNL     1      22.211   6.222   6.131  1.00  0.00     0.000 C 
BRANCH   4   5
ATOM      5  C   UNL     1      23.722   6.384   5.898  1.00  0.00     0.000 C 
BRANCH   5   6
ATOM      6  C   UNL     1      24.533   5.072   5.901  1.00  0.00     0.006 C 
BRANCH   6   7
ATOM      7  C   UNL     1      24.359   4.223   4.629  1.00  0.00     0.053 C 
BRANCH   7   8
ATOM      8  C   UNL     1      24.601   5.006   3.373  1.00  0.00     0.041 C 
ATOM      9  O   UNL     1      25.759   5.412   3.091  1.00  0.00    -0.550 OA
ATOM     10  O   UNL     1      23.555   5.251   2.493  1.00  0.00    -0.550 OA
ENDBRANCH   7   8
ENDBRANCH   6   7
ENDBRANCH   5   6
ENDBRANCH   4   5
ENDBRANCH   3   4
ENDBRANCH   2   3
ENDBRANCH   1   2
BRANCH   1  11
ATOM     11  C   UNL     1      20.717  10.025   8.185  1.00  0.00     0.000 C 
BRANCH  11  12
ATOM     12  C   UNL     1      19.855  10.933   7.296  1.00  0.00     0.000 C 
BRANCH  12  13
ATOM     13  C   UNL     1      19.216  10.185   6.111  1.00  0.00     0.000 C 
BRANCH  13  14
ATOM     14  C   UNL     1      17.770  10.597   5.779  1.00  0.00     0.000 C 
BRANCH  14  15
ATOM     15  C   UNL     1      16.722   9.653   6.393  1.00  0.00     0.000 C 
BRANCH  15  16
ATOM     16  C   UNL     1      16.226   8.587   5.398  1.00  0.00     0.006 C 
BRANCH  16  17
ATOM     17  C   UNL     1      16.320   7.142   5.915  1.00  0.00     0.053 C 
BRANCH  17  18
ATOM     18  C   UNL     1      17.739   6.719   6.146  1.00  0.00     0.041 C 
ATOM     19  O   UNL     1      18.576   6.769   5.207  1.00  0.00    -0.550 OA
ATOM     20  O   UNL     1      18.127   6.237   7.390  1.00  0.00    -0.550 OA
ENDBRANCH  17  18
ENDBRANCH  16  17
ENDBRANCH  15  16
ENDBRANCH  14  15
ENDBRANCH  13  14
ENDBRANCH  12  13
ENDBRANCH  11  12
ENDBRANCH   1  11
TORSDOF 15
ENDMDL
MODEL 7
REMARK VINA RESULT:    -4.023      2.322      3.860
REMARK INTER + INTRA:          -9.520
REMARK INTER:                  -8.408
REMARK INTRA:                  -1.112
REMARK UNBOUND:                -1.969
REMARK SMILES O=C([O-])CCCCCCCCCCCCCCC(=O)[O-]
REMARK SMILES IDX 10 1 9 2 8 3 7 4 6 5 5 6 4 7 2 8 1 9 3 10 11 11 12 12 13 13
REMARK SMILES IDX 14 14 15 15 16 16 17 17 18 18 19 19 20 20
REMARK H PARENT
REMARK Flexibility Score: inf
ROOT
ATOM      1  C   UNL     1      20.736   7.228   6.902  1.00  0.00     0.000 C 
ENDROOT
BRANCH   1   2
ATOM      2  C   UNL     1      20.078   8.543   7.337  1.00  0.00     0.000 C 
BRANCH   2   3
ATOM      3  C   UNL     1      18.590   8.338   7.646  1.00  0.00     0.000 C 
BRANCH   3   4
ATOM      4  C   UNL     1      18.206   6.855   7.537  1.00  0.00     0.000 C 
BRANCH   4   5
ATOM      5  C   UNL     1      16.733   6.644   7.146  1.00  0.00     0.000 C 
BRANCH   5   6
ATOM      6  C   UNL     1      16.335   7.190   5.761  1.00  0.00     0.006 C 
BRANCH   6   7
ATOM      7  C   UNL     1      16.712   6.266   4.588  1.00  0.00     0.053 C 
BRANCH   7   8
ATOM      8  C   UNL     1      17.879   6.781   3.799  1.00  0.00     0.041 C 
ATOM      9  O   UNL     1      18.469   7.836   4.152  1.00  0.00    -0.550 OA
ATOM     10  O   UNL     1      18.340   6.073   2.697  1.00  0.00    -0.550 OA
ENDBRANCH   7   8
ENDBRANCH   6   7
ENDBRANCH   5   6
ENDBRANCH   4   5
ENDBRANCH   3   4
ENDBRANCH   2   3
ENDBRANCH   1   2
BRANCH   1  11
ATOM     11  C   UNL     1      22.013   6.958   7.707  1.00  0.00     0.000 C 
BRANCH  11  12
ATOM     12  C   UNL     1      23.183   6.603   6.779  1.00  0.00     0.000 C 
BRANCH  12  13
ATOM     13  C   UNL     1      22.731   5.930   5.469  1.00  0.00     0.000 C 
BRANCH  13  14
ATOM     14  C   UNL     1      23.871   5.461   4.546  1.00  0.00     0.000 C 
BRANCH  14  15
ATOM     15  C   UNL     1      23.381   5.065   3.143  1.00  0.00     0.000 C 
BRANCH  15  16
ATOM     16  C   UNL     1      24.488   5.163   2.077  1.00  0.00     0.006 C 
BRANCH  16  17
ATOM     17  C   UNL     1      25.097   3.812   1.667  1.00  0.00     0.053 C 
BRANCH  17  18
ATOM     18  C   UNL     1      26.429   3.576   2.311  1.00  0.00     0.041 C 
ATOM     19  O   UNL     1      26.914   4.433   3.096  1.00  0.00    -0.550 OA
ATOM     20  O   UNL     1      27.149   2.425   2.018  1.00  0.00    -0.550 OA
ENDBRANCH  17  18
ENDBRANCH  16  17
ENDBRANCH  15  16
ENDBRANCH  14  15
ENDBRANCH  13  14
ENDBRANCH  12  13
ENDBRANCH  11  12
ENDBRANCH   1  11
TORSDOF 15
ENDMDL
MODEL 8
REMARK VINA RESULT:    -4.022      1.355      6.001
REMARK INTER + INTRA:          -9.518
REMARK INTER:                  -7.832
REMARK INTRA:                  -1.687
REMARK UNBOUND:                -1.969
REMARK SMILES O=C([O-])CCCCCCCCCCCCCCC(=O)[O-]
REMARK SMILES IDX 10 1 9 2 8 3 7 4 6 5 5 6 4 7 2 8 1 9 3 10 11 11 12 12 13 13
REMARK SMILES IDX 14 14 15 15 16 16 17 17 18 18 19 19 20 20
REMARK H PARENT
REMARK Flexibility Score: inf
ROOT
ATOM      1  C   UNL     1      17.914   6.742   5.848  1.00  0.00     0.000 C 
ENDROOT
BRANCH   1   2
ATOM      2  C   UNL     1      18.769   6.933   7.107  1.00  0.00     0.000 C 
BRANCH   2   3
ATOM      3  C   UNL     1      19.551   8.251   7.047  1.00  0.00     0.000 C 
BRANCH   3   4
ATOM      4  C   UNL     1      20.949   8.087   7.662  1.00  0.00     0.000 C 
BRANCH   4   5
ATOM      5  C   UNL     1      21.535   6.681   7.456  1.00  0.00     0.000 C 
BRANCH   5   6
ATOM      6  C   UNL     1      22.906   6.636   6.752  1.00  0.00     0.006 C 
BRANCH   6   7
ATOM      7  C   UNL     1      22.881   5.963   5.368  1.00  0.00     0.053 C 
BRANCH   7   8
ATOM      8  C   UNL     1      23.781   4.767   5.290  1.00  0.00     0.041 C 
ATOM      9  O   UNL     1      24.820   4.800   4.578  1.00  0.00    -0.550 OA
ATOM     10  O   UNL     1      23.496   3.630   6.034  1.00  0.00    -0.550 OA
ENDBRANCH   7   8
ENDBRANCH   6   7
ENDBRANCH   5   6
ENDBRANCH   4   5
ENDBRANCH   3   4
ENDBRANCH   2   3
ENDBRANCH   1   2
BRANCH   1  11
ATOM     11  C   UNL     1      16.442   7.068   6.128  1.00  0.00     0.000 C 
BRANCH  11  12
ATOM     12  C   UNL     1      15.912   8.114   5.137  1.00  0.00     0.000 C 
BRANCH  12  13
ATOM     13  C   UNL     1      16.494   9.519   5.376  1.00  0.00     0.000 C 
BRANCH  13  14
ATOM     14  C   UNL     1      17.148  10.176   4.146  1.00  0.00     0.000 C 
BRANCH  14  15
ATOM     15  C   UNL     1      18.455   9.485   3.722  1.00  0.00     0.000 C 
BRANCH  15  16
ATOM     16  C   UNL     1      18.479   9.127   2.224  1.00  0.00     0.006 C 
BRANCH  16  17
ATOM     17  C   UNL     1      17.291   8.270   1.756  1.00  0.00     0.053 C 
BRANCH  17  18
ATOM     18  C   UNL     1      17.485   6.818   2.073  1.00  0.00     0.041 C 
ATOM     19  O   UNL     1      16.496   6.039   2.101  1.00  0.00    -0.550 OA
ATOM     20  O   UNL     1      18.752   6.334   2.368  1.00  0.00    -0.550 OA
ENDBRANCH  17  18
ENDBRANCH  16  17
ENDBRANCH  15  16
ENDBRANCH  14  15
ENDBRANCH  13  14
ENDBRANCH  12  13
ENDBRANCH  11  12
ENDBRANCH   1  11
TORSDOF 15
ENDMDL
MODEL 9
REMARK VINA RESULT:    -4.019      1.635      1.890
REMARK INTER + INTRA:          -9.512
REMARK INTER:                  -7.998
REMARK INTRA:                  -1.514
REMARK UNBOUND:                -1.969
REMARK SMILES O=C([O-])CCCCCCCCCCCCCCC(=O)[O-]
REMARK SMILES IDX 10 1 9 2 8 3 7 4 6 5 5 6 4 7 2 8 1 9 3 10 11 11 12 12 13 13
REMARK SMILES IDX 14 14 15 15 16 16 17 17 18 18 19 19 20 20
REMARK H PARENT
REMARK Flexibility Score: inf
ROOT
ATOM      1  C   UNL     1      19.275  10.450   6.392  1.00  0.00     0.000 C 
ENDROOT
BRANCH   1   2
ATOM      2  C   UNL     1      17.818  10.831   6.683  1.00  0.00     0.000 C 
BRANCH   2   3
ATOM      3  C   UNL     1      17.005   9.607   7.118  1.00  0.00     0.000 C 
BRANCH   3   4
ATOM      4  C   UNL     1      16.765   8.658   5.934  1.00  0.00     0.000 C 
BRANCH   4   5
ATOM      5  C   UNL     1      16.941   7.176   6.307  1.00  0.00     0.000 C 
BRANCH   5   6
ATOM      6  C   UNL     1      17.482   6.274   5.181  1.00  0.00     0.006 C 
BRANCH   6   7
ATOM      7  C   UNL     1      18.778   6.790   4.529  1.00  0.00     0.053 C 
BRANCH   7   8
ATOM      8  C   UNL     1      18.624   7.048   3.060  1.00  0.00     0.041 C 
ATOM      9  O   UNL     1      18.562   8.229   2.626  1.00  0.00    -0.550 OA
ATOM     10  O   UNL     1      18.591   5.986   2.166  1.00  0.00    -0.550 OA
ENDBRANCH   7   8
ENDBRANCH   6   7
ENDBRANCH   5   6
ENDBRANCH   4   5
ENDBRANCH   3   4
ENDBRANCH   2   3
ENDBRANCH   1   2
BRANCH   1  11
ATOM     11  C   UNL     1      20.168  10.716   7.609  1.00  0.00     0.000 C 
BRANCH  11  12
ATOM     12  C   UNL     1      20.767   9.409   8.148  1.00  0.00     0.000 C 
BRANCH  12  13
ATOM     13  C   UNL     1      20.437   8.188   7.270  1.00  0.00     0.000 C 
BRANCH  13  14
ATOM     14  C   UNL     1      21.280   6.931   7.553  1.00  0.00     0.000 C 
BRANCH  14  15
ATOM     15  C   UNL     1      22.372   6.691   6.497  1.00  0.00     0.000 C 
BRANCH  15  16
ATOM     16  C   UNL     1      23.745   6.380   7.121  1.00  0.00     0.006 C 
BRANCH  16  17
ATOM     17  C   UNL     1      24.876   6.176   6.100  1.00  0.00     0.053 C 
BRANCH  17  18
ATOM     18  C   UNL     1      26.132   6.889   6.501  1.00  0.00     0.041 C 
ATOM     19  O   UNL     1      27.179   6.235   6.748  1.00  0.00    -0.550 OA
ATOM     20  O   UNL     1      26.135   8.271   6.633  1.00  0.00    -0.550 OA
ENDBRANCH  17  18
ENDBRANCH  16  17
ENDBRANCH  15  16
ENDBRANCH  14  15
ENDBRANCH  13  14
ENDBRANCH  12  13
ENDBRANCH  11  12
ENDBRANCH   1  11
TORSDOF 15
ENDMDL
