MODEL 1
REMARK VINA RESULT:    -6.494      0.000      0.000
REMARK INTER + INTRA:          -7.063
REMARK INTER:                  -7.063
REMARK INTRA:                   0.000
REMARK UNBOUND:                 0.000
REMARK SMILES Cc1cc(O)c2c(c1)C(=O)c1cc(O)cc(O)c1C2=O
REMARK SMILES IDX 1 1 2 2 8 3 7 4 6 5 4 6 3 7 19 8 20 9 18 10 11 11 9 12 10 13
REMARK SMILES IDX 12 14 13 15 15 16 16 17 5 18 17 20 14 22
REMARK H PARENT 5 19 17 21 14 23
REMARK Flexibility Score: inf
ROOT
ATOM      1  C   UNL     1       9.120  -8.274   6.496  1.00  0.00     0.044 C 
ATOM      2  C   UNL     1       8.757  -7.492   5.267  1.00  0.00    -0.047 A 
ATOM      3  C   UNL     1       8.654  -8.134   4.029  1.00  0.00     0.016 A 
ATOM      4  C   UNL     1       8.348  -7.405   2.866  1.00  0.00     0.038 A 
ATOM      5  C   UNL     1       8.162  -6.009   2.942  1.00  0.00     0.076 A 
ATOM      6  C   UNL     1       8.279  -5.362   4.194  1.00  0.00     0.127 A 
ATOM      7  C   UNL     1       8.583  -6.106   5.341  1.00  0.00     0.050 A 
ATOM      8  C   UNL     1       7.879  -5.248   1.697  1.00  0.00     0.201 C 
ATOM      9  O   UNL     1       8.064  -4.002   1.676  1.00  0.00    -0.288 OA
ATOM     10  C   UNL     1       7.489  -5.968   0.452  1.00  0.00     0.076 A 
ATOM     11  C   UNL     1       7.742  -7.357   0.372  1.00  0.00     0.041 A 
ATOM     12  C   UNL     1       8.226  -8.095   1.562  1.00  0.00     0.194 C 
ATOM     13  O   UNL     1       8.518  -9.320   1.468  1.00  0.00    -0.289 OA
ATOM     14  C   UNL     1       7.523  -8.039  -0.837  1.00  0.00     0.059 A 
ATOM     15  C   UNL     1       7.043  -7.364  -1.958  1.00  0.00     0.120 A 
ATOM     16  C   UNL     1       6.746  -6.002  -1.872  1.00  0.00     0.093 A 
ATOM     17  C   UNL     1       6.927  -5.304  -0.674  1.00  0.00     0.131 A 
ENDROOT
BRANCH   6  18
ATOM     18  O   UNL     1       8.089  -3.984   4.303  1.00  0.00    -0.507 OA
ATOM     19  H   UNL     1       7.275  -3.593   4.764  1.00  0.00     0.293 HD
ENDBRANCH   6  18
BRANCH  17  20
ATOM     20  O   UNL     1       6.505  -3.973  -0.642  1.00  0.00    -0.507 OA
ATOM     21  H   UNL     1       6.249  -3.486   0.205  1.00  0.00     0.293 HD
ENDBRANCH  17  20
BRANCH  15  22
ATOM     22  O   UNL     1       6.850  -8.059  -3.150  1.00  0.00    -0.508 OA
ATOM     23  H   UNL     1       7.558  -8.077  -3.874  1.00  0.00     0.293 HD
ENDBRANCH  15  22
TORSDOF 3
ENDMDL
MODEL 2
REMARK VINA RESULT:    -6.396      1.757      6.329
REMARK INTER + INTRA:          -6.957
REMARK INTER:                  -6.957
REMARK INTRA:                   0.000
REMARK UNBOUND:                 0.000
REMARK SMILES Cc1cc(O)c2c(c1)C(=O)c1cc(O)cc(O)c1C2=O
REMARK SMILES IDX 1 1 2 2 8 3 7 4 6 5 4 6 3 7 19 8 20 9 18 10 11 11 9 12 10 13
REMARK SMILES IDX 12 14 13 15 15 16 16 17 5 18 17 20 14 22
REMARK H PARENT 5 19 17 21 14 23
REMARK Flexibility Score: inf
ROOT
ATOM      1  C   UNL     1       7.521  -3.701  -2.340  1.00  0.00     0.044 C 
ATOM      2  C   UNL     1       7.475  -4.587  -1.128  1.00  0.00    -0.047 A 
ATOM      3  C   UNL     1       8.002  -4.142   0.089  1.00  0.00     0.016 A 
ATOM      4  C   UNL     1       7.995  -4.976   1.222  1.00  0.00     0.038 A 
ATOM      5  C   UNL     1       7.472  -6.283   1.126  1.00  0.00     0.076 A 
ATOM      6  C   UNL     1       6.953  -6.733  -0.109  1.00  0.00     0.127 A 
ATOM      7  C   UNL     1       6.966  -5.886  -1.225  1.00  0.00     0.050 A 
ATOM      8  C   UNL     1       7.509  -7.165   2.322  1.00  0.00     0.201 C 
ATOM      9  O   UNL     1       7.391  -8.411   2.177  1.00  0.00    -0.288 OA
ATOM     10  C   UNL     1       7.799  -6.592   3.667  1.00  0.00     0.076 A 
ATOM     11  C   UNL     1       8.382  -5.305   3.738  1.00  0.00     0.041 A 
ATOM     12  C   UNL     1       8.540  -4.492   2.510  1.00  0.00     0.194 C 
ATOM     13  O   UNL     1       9.125  -3.374   2.566  1.00  0.00    -0.289 OA
ATOM     14  C   UNL     1       8.802  -4.795   4.978  1.00  0.00     0.059 A 
ATOM     15  C   UNL     1       8.636  -5.538   6.145  1.00  0.00     0.120 A 
ATOM     16  C   UNL     1       8.018  -6.789   6.089  1.00  0.00     0.093 A 
ATOM     17  C   UNL     1       7.565  -7.309   4.873  1.00  0.00     0.131 A 
ENDROOT
BRANCH   6  18
ATOM     18  O   UNL     1       6.417  -8.015  -0.231  1.00  0.00    -0.507 OA
ATOM     19  H   UNL     1       6.743  -8.664  -0.937  1.00  0.00     0.293 HD
ENDBRANCH   6  18
BRANCH  17  20
ATOM     20  O   UNL     1       6.862  -8.515   4.918  1.00  0.00    -0.507 OA
ATOM     21  H   UNL     1       5.959  -8.622   5.358  1.00  0.00     0.293 HD
ENDBRANCH  17  20
BRANCH  15  22
ATOM     22  O   UNL     1       9.077  -5.018   7.360  1.00  0.00    -0.508 OA
ATOM     23  H   UNL     1       8.875  -5.479   8.239  1.00  0.00     0.293 HD
ENDBRANCH  15  22
TORSDOF 3
ENDMDL
MODEL 3
REMARK VINA RESULT:    -6.285      1.502      5.758
REMARK INTER + INTRA:          -6.836
REMARK INTER:                  -6.836
REMARK INTRA:                   0.000
REMARK UNBOUND:                 0.000
REMARK SMILES Cc1cc(O)c2c(c1)C(=O)c1cc(O)cc(O)c1C2=O
REMARK SMILES IDX 1 1 2 2 8 3 7 4 6 5 4 6 3 7 19 8 20 9 18 10 11 11 9 12 10 13
REMARK SMILES IDX 12 14 13 15 15 16 16 17 5 18 17 20 14 22
REMARK H PARENT 5 19 17 21 14 23
REMARK Flexibility Score: inf
ROOT
ATOM      1  C   UNL     1       6.687  -7.055  -5.245  1.00  0.00     0.044 C 
ATOM      2  C   UNL     1       6.850  -6.579  -3.831  1.00  0.00    -0.047 A 
ATOM      3  C   UNL     1       7.066  -7.499  -2.799  1.00  0.00     0.016 A 
ATOM      4  C   UNL     1       7.185  -7.066  -1.466  1.00  0.00     0.038 A 
ATOM      5  C   UNL     1       7.066  -5.694  -1.161  1.00  0.00     0.076 A 
ATOM      6  C   UNL     1       6.835  -4.769  -2.205  1.00  0.00     0.127 A 
ATOM      7  C   UNL     1       6.721  -5.220  -3.527  1.00  0.00     0.050 A 
ATOM      8  C   UNL     1       7.155  -5.258   0.258  1.00  0.00     0.201 C 
ATOM      9  O   UNL     1       6.704  -4.130   0.590  1.00  0.00    -0.288 OA
ATOM     10  C   UNL     1       7.668  -6.194   1.298  1.00  0.00     0.076 A 
ATOM     11  C   UNL     1       7.720  -7.575   0.992  1.00  0.00     0.041 A 
ATOM     12  C   UNL     1       7.429  -8.044  -0.382  1.00  0.00     0.194 C 
ATOM     13  O   UNL     1       7.407  -9.281  -0.634  1.00  0.00    -0.289 OA
ATOM     14  C   UNL     1       8.059  -8.500   1.995  1.00  0.00     0.059 A 
ATOM     15  C   UNL     1       8.361  -8.071   3.286  1.00  0.00     0.120 A 
ATOM     16  C   UNL     1       8.358  -6.707   3.582  1.00  0.00     0.093 A 
ATOM     17  C   UNL     1       8.052  -5.762   2.598  1.00  0.00     0.131 A 
ENDROOT
BRANCH   6  18
ATOM     18  O   UNL     1       6.725  -3.405  -1.936  1.00  0.00    -0.507 OA
ATOM     19  H   UNL     1       5.894  -3.010  -1.512  1.00  0.00     0.293 HD
ENDBRANCH   6  18
BRANCH  17  20
ATOM     20  O   UNL     1       8.177  -4.415   2.946  1.00  0.00    -0.507 OA
ATOM     21  H   UNL     1       7.825  -3.654   2.383  1.00  0.00     0.293 HD
ENDBRANCH  17  20
BRANCH  15  22
ATOM     22  O   UNL     1       8.677  -9.009   4.266  1.00  0.00    -0.508 OA
ATOM     23  H   UNL     1       9.231  -9.831   4.055  1.00  0.00     0.293 HD
ENDBRANCH  15  22
TORSDOF 3
ENDMDL
MODEL 4
REMARK VINA RESULT:    -5.985     12.289     13.882
REMARK INTER + INTRA:          -6.510
REMARK INTER:                  -6.510
REMARK INTRA:                   0.000
REMARK UNBOUND:                 0.000
REMARK SMILES Cc1cc(O)c2c(c1)C(=O)c1cc(O)cc(O)c1C2=O
REMARK SMILES IDX 1 1 2 2 8 3 7 4 6 5 4 6 3 7 19 8 20 9 18 10 11 11 9 12 10 13
REMARK SMILES IDX 12 14 13 15 15 16 16 17 5 18 17 20 14 22
REMARK H PARENT 5 19 17 21 14 23
REMARK Flexibility Score: inf
ROOT
ATOM      1  C   UNL     1      -1.926 -10.299   1.416  1.00  0.00     0.044 C 
ATOM      2  C   UNL     1      -2.476  -9.798   0.112  1.00  0.00    -0.047 A 
ATOM      3  C   UNL     1      -3.728 -10.233  -0.338  1.00  0.00     0.016 A 
ATOM      4  C   UNL     1      -4.237  -9.796  -1.574  1.00  0.00     0.038 A 
ATOM      5  C   UNL     1      -3.471  -8.928  -2.381  1.00  0.00     0.076 A 
ATOM      6  C   UNL     1      -2.202  -8.501  -1.928  1.00  0.00     0.127 A 
ATOM      7  C   UNL     1      -1.713  -8.945  -0.692  1.00  0.00     0.050 A 
ATOM      8  C   UNL     1      -4.007  -8.508  -3.702  1.00  0.00     0.201 C 
ATOM      9  O   UNL     1      -3.220  -8.047  -4.572  1.00  0.00    -0.288 OA
ATOM     10  C   UNL     1      -5.441  -8.738  -4.036  1.00  0.00     0.076 A 
ATOM     11  C   UNL     1      -6.173  -9.661  -3.253  1.00  0.00     0.041 A 
ATOM     12  C   UNL     1      -5.568 -10.249  -2.035  1.00  0.00     0.194 C 
ATOM     13  O   UNL     1      -6.198 -11.125  -1.380  1.00  0.00    -0.289 OA
ATOM     14  C   UNL     1      -7.482 -10.012  -3.628  1.00  0.00     0.059 A 
ATOM     15  C   UNL     1      -8.074  -9.447  -4.756  1.00  0.00     0.120 A 
ATOM     16  C   UNL     1      -7.374  -8.500  -5.506  1.00  0.00     0.093 A 
ATOM     17  C   UNL     1      -6.081  -8.111  -5.141  1.00  0.00     0.131 A 
ENDROOT
BRANCH   6  18
ATOM     18  O   UNL     1      -1.427  -7.632  -2.697  1.00  0.00    -0.507 OA
ATOM     19  H   UNL     1      -1.777  -7.225  -3.556  1.00  0.00     0.293 HD
ENDBRANCH   6  18
BRANCH  17  20
ATOM     20  O   UNL     1      -5.493  -7.081  -5.879  1.00  0.00    -0.507 OA
ATOM     21  H   UNL     1      -5.613  -6.965  -6.875  1.00  0.00     0.293 HD
ENDBRANCH  17  20
BRANCH  15  22
ATOM     22  O   UNL     1      -9.366  -9.824  -5.116  1.00  0.00    -0.508 OA
ATOM     23  H   UNL     1      -9.622 -10.797  -5.232  1.00  0.00     0.293 HD
ENDBRANCH  15  22
TORSDOF 3
ENDMDL
MODEL 5
REMARK VINA RESULT:    -5.984      2.496      6.936
REMARK INTER + INTRA:          -6.508
REMARK INTER:                  -6.508
REMARK INTRA:                   0.000
REMARK UNBOUND:                 0.000
REMARK SMILES Cc1cc(O)c2c(c1)C(=O)c1cc(O)cc(O)c1C2=O
REMARK SMILES IDX 1 1 2 2 8 3 7 4 6 5 4 6 3 7 19 8 20 9 18 10 11 11 9 12 10 13
REMARK SMILES IDX 12 14 13 15 15 16 16 17 5 18 17 20 14 22
REMARK H PARENT 5 19 17 21 14 23
REMARK Flexibility Score: inf
ROOT
ATOM      1  C   UNL     1       8.757  -4.566  -0.708  1.00  0.00     0.044 C 
ATOM      2  C   UNL     1       8.534  -5.065   0.690  1.00  0.00    -0.047 A 
ATOM      3  C   UNL     1       8.707  -4.206   1.781  1.00  0.00     0.016 A 
ATOM      4  C   UNL     1       8.533  -4.672   3.096  1.00  0.00     0.038 A 
ATOM      5  C   UNL     1       8.202  -6.025   3.323  1.00  0.00     0.076 A 
ATOM      6  C   UNL     1       8.041  -6.892   2.218  1.00  0.00     0.127 A 
ATOM      7  C   UNL     1       8.215  -6.408   0.915  1.00  0.00     0.050 A 
ATOM      8  C   UNL     1       8.061  -6.511   4.721  1.00  0.00     0.201 C 
ATOM      9  O   UNL     1       8.126  -7.746   4.957  1.00  0.00    -0.288 OA
ATOM     10  C   UNL     1       7.961  -5.538   5.845  1.00  0.00     0.076 A 
ATOM     11  C   UNL     1       8.359  -4.200   5.613  1.00  0.00     0.041 A 
ATOM     12  C   UNL     1       8.703  -3.752   4.243  1.00  0.00     0.194 C 
ATOM     13  O   UNL     1       9.125  -2.578   4.052  1.00  0.00    -0.289 OA
ATOM     14  C   UNL     1       8.416  -3.292   6.685  1.00  0.00     0.059 A 
ATOM     15  C   UNL     1       8.070  -3.691   7.974  1.00  0.00     0.120 A 
ATOM     16  C   UNL     1       7.632  -4.997   8.201  1.00  0.00     0.093 A 
ATOM     17  C   UNL     1       7.538  -5.914   7.150  1.00  0.00     0.131 A 
ENDROOT
BRANCH   6  18
ATOM     18  O   UNL     1       7.701  -8.232   2.410  1.00  0.00    -0.507 OA
ATOM     19  H   UNL     1       8.153  -8.801   3.115  1.00  0.00     0.293 HD
ENDBRANCH   6  18
BRANCH  17  20
ATOM     20  O   UNL     1       6.988  -7.164   7.441  1.00  0.00    -0.507 OA
ATOM     21  H   UNL     1       6.056  -7.444   7.173  1.00  0.00     0.293 HD
ENDBRANCH  17  20
BRANCH  15  22
ATOM     22  O   UNL     1       8.152  -2.778   9.022  1.00  0.00    -0.508 OA
ATOM     23  H   UNL     1       8.920  -2.795   9.683  1.00  0.00     0.293 HD
ENDBRANCH  15  22
TORSDOF 3
ENDMDL
MODEL 6
REMARK VINA RESULT:    -5.847     11.863     14.141
REMARK INTER + INTRA:          -6.360
REMARK INTER:                  -6.360
REMARK INTRA:                   0.000
REMARK UNBOUND:                 0.000
REMARK SMILES Cc1cc(O)c2c(c1)C(=O)c1cc(O)cc(O)c1C2=O
REMARK SMILES IDX 1 1 2 2 8 3 7 4 6 5 4 6 3 7 19 8 20 9 18 10 11 11 9 12 10 13
REMARK SMILES IDX 12 14 13 15 15 16 16 17 5 18 17 20 14 22
REMARK H PARENT 5 19 17 21 14 23
REMARK Flexibility Score: inf
ROOT
ATOM      1  C   UNL     1       6.340   6.500  -1.692  1.00  0.00     0.044 C 
ATOM      2  C   UNL     1       6.580   6.168  -0.247  1.00  0.00    -0.047 A 
ATOM      3  C   UNL     1       5.759   6.714   0.746  1.00  0.00     0.016 A 
ATOM      4  C   UNL     1       5.996   6.438   2.104  1.00  0.00     0.038 A 
ATOM      5  C   UNL     1       7.085   5.619   2.473  1.00  0.00     0.076 A 
ATOM      6  C   UNL     1       7.919   5.080   1.467  1.00  0.00     0.127 A 
ATOM      7  C   UNL     1       7.664   5.365   0.119  1.00  0.00     0.050 A 
ATOM      8  C   UNL     1       7.345   5.370   3.916  1.00  0.00     0.201 C 
ATOM      9  O   UNL     1       8.480   4.961   4.279  1.00  0.00    -0.288 OA
ATOM     10  C   UNL     1       6.310   5.710   4.933  1.00  0.00     0.076 A 
ATOM     11  C   UNL     1       5.262   6.583   4.559  1.00  0.00     0.041 A 
ATOM     12  C   UNL     1       5.114   7.007   3.147  1.00  0.00     0.194 C 
ATOM     13  O   UNL     1       4.221   7.842   2.831  1.00  0.00    -0.289 OA
ATOM     14  C   UNL     1       4.354   7.041   5.530  1.00  0.00     0.059 A 
ATOM     15  C   UNL     1       4.465   6.630   6.857  1.00  0.00     0.120 A 
ATOM     16  C   UNL     1       5.468   5.731   7.223  1.00  0.00     0.093 A 
ATOM     17  C   UNL     1       6.368   5.238   6.274  1.00  0.00     0.131 A 
ENDROOT
BRANCH   6  18
ATOM     18  O   UNL     1       8.995   4.257   1.801  1.00  0.00    -0.507 OA
ATOM     19  H   UNL     1       8.879   3.261   1.946  1.00  0.00     0.293 HD
ENDBRANCH   6  18
BRANCH  17  20
ATOM     20  O   UNL     1       7.272   4.261   6.699  1.00  0.00    -0.507 OA
ATOM     21  H   UNL     1       8.121   4.029   6.205  1.00  0.00     0.293 HD
ENDBRANCH  17  20
BRANCH  15  22
ATOM     22  O   UNL     1       3.563   7.111   7.803  1.00  0.00    -0.508 OA
ATOM     23  H   UNL     1       2.732   7.625   7.532  1.00  0.00     0.293 HD
ENDBRANCH  15  22
TORSDOF 3
ENDMDL
MODEL 7
REMARK VINA RESULT:    -5.835      2.383      4.276
REMARK INTER + INTRA:          -6.346
REMARK INTER:                  -6.346
REMARK INTRA:                   0.000
REMARK UNBOUND:                 0.000
REMARK SMILES Cc1cc(O)c2c(c1)C(=O)c1cc(O)cc(O)c1C2=O
REMARK SMILES IDX 1 1 2 2 8 3 7 4 6 5 4 6 3 7 19 8 20 9 18 10 11 11 9 12 10 13
REMARK SMILES IDX 12 14 13 15 15 16 16 17 5 18 17 20 14 22
REMARK H PARENT 5 19 17 21 14 23
REMARK Flexibility Score: inf
ROOT
ATOM      1  C   UNL     1       8.872  -2.958   8.851  1.00  0.00     0.044 C 
ATOM      2  C   UNL     1       8.570  -3.903   7.725  1.00  0.00    -0.047 A 
ATOM      3  C   UNL     1       8.796  -3.513   6.400  1.00  0.00     0.016 A 
ATOM      4  C   UNL     1       8.485  -4.378   5.335  1.00  0.00     0.038 A 
ATOM      5  C   UNL     1       7.920  -5.643   5.602  1.00  0.00     0.076 A 
ATOM      6  C   UNL     1       7.681  -6.027   6.941  1.00  0.00     0.127 A 
ATOM      7  C   UNL     1       8.000  -5.153   7.988  1.00  0.00     0.050 A 
ATOM      8  C   UNL     1       7.560  -6.529   4.463  1.00  0.00     0.201 C 
ATOM      9  O   UNL     1       6.748  -7.474   4.645  1.00  0.00    -0.288 OA
ATOM     10  C   UNL     1       8.066  -6.230   3.093  1.00  0.00     0.076 A 
ATOM     11  C   UNL     1       8.571  -4.935   2.831  1.00  0.00     0.041 A 
ATOM     12  C   UNL     1       8.742  -3.965   3.937  1.00  0.00     0.194 C 
ATOM     13  O   UNL     1       9.125  -2.787   3.689  1.00  0.00    -0.289 OA
ATOM     14  C   UNL     1       8.919  -4.573   1.518  1.00  0.00     0.059 A 
ATOM     15  C   UNL     1       8.789  -5.483   0.471  1.00  0.00     0.120 A 
ATOM     16  C   UNL     1       8.337  -6.778   0.731  1.00  0.00     0.093 A 
ATOM     17  C   UNL     1       8.009  -7.175   2.031  1.00  0.00     0.131 A 
ENDROOT
BRANCH   6  18
ATOM     18  O   UNL     1       7.136  -7.277   7.236  1.00  0.00    -0.507 OA
ATOM     19  H   UNL     1       6.208  -7.374   7.633  1.00  0.00     0.293 HD
ENDBRANCH   6  18
BRANCH  17  20
ATOM     20  O   UNL     1       7.669  -8.516   2.222  1.00  0.00    -0.507 OA
ATOM     21  H   UNL     1       8.027  -9.272   1.656  1.00  0.00     0.293 HD
ENDBRANCH  17  20
BRANCH  15  22
ATOM     22  O   UNL     1       9.125  -5.095  -0.824  1.00  0.00    -0.508 OA
ATOM     23  H   UNL     1       9.721  -5.666  -1.411  1.00  0.00     0.293 HD
ENDBRANCH  15  22
TORSDOF 3
ENDMDL
MODEL 8
REMARK VINA RESULT:    -5.796     11.521     13.194
REMARK INTER + INTRA:          -6.305
REMARK INTER:                  -6.305
REMARK INTRA:                   0.000
REMARK UNBOUND:                 0.000
REMARK SMILES Cc1cc(O)c2c(c1)C(=O)c1cc(O)cc(O)c1C2=O
REMARK SMILES IDX 1 1 2 2 8 3 7 4 6 5 4 6 3 7 19 8 20 9 18 10 11 11 9 12 10 13
REMARK SMILES IDX 12 14 13 15 15 16 16 17 5 18 17 20 14 22
REMARK H PARENT 5 19 17 21 14 23
REMARK Flexibility Score: inf
ROOT
ATOM      1  C   UNL     1       5.994   5.282   6.546  1.00  0.00     0.044 C 
ATOM      2  C   UNL     1       6.448   5.337   5.116  1.00  0.00    -0.047 A 
ATOM      3  C   UNL     1       5.719   6.071   4.174  1.00  0.00     0.016 A 
ATOM      4  C   UNL     1       6.116   6.101   2.825  1.00  0.00     0.038 A 
ATOM      5  C   UNL     1       7.247   5.367   2.411  1.00  0.00     0.076 A 
ATOM      6  C   UNL     1       7.973   4.615   3.363  1.00  0.00     0.127 A 
ATOM      7  C   UNL     1       7.563   4.601   4.703  1.00  0.00     0.050 A 
ATOM      8  C   UNL     1       7.629   5.377   0.974  1.00  0.00     0.201 C 
ATOM      9  O   UNL     1       8.385   4.474   0.527  1.00  0.00    -0.288 OA
ATOM     10  C   UNL     1       7.031   6.379   0.047  1.00  0.00     0.076 A 
ATOM     11  C   UNL     1       5.860   7.059   0.457  1.00  0.00     0.041 A 
ATOM     12  C   UNL     1       5.349   6.894   1.838  1.00  0.00     0.194 C 
ATOM     13  O   UNL     1       4.266   7.445   2.179  1.00  0.00    -0.289 OA
ATOM     14  C   UNL     1       5.188   7.900  -0.446  1.00  0.00     0.059 A 
ATOM     15  C   UNL     1       5.671   8.086  -1.739  1.00  0.00     0.120 A 
ATOM     16  C   UNL     1       6.852   7.456  -2.135  1.00  0.00     0.093 A 
ATOM     17  C   UNL     1       7.557   6.635  -1.250  1.00  0.00     0.131 A 
ENDROOT
BRANCH   6  18
ATOM     18  O   UNL     1       9.103   3.889   2.986  1.00  0.00    -0.507 OA
ATOM     19  H   UNL     1      10.002   4.335   2.851  1.00  0.00     0.293 HD
ENDBRANCH   6  18
BRANCH  17  20
ATOM     20  O   UNL     1       8.784   6.130  -1.687  1.00  0.00    -0.507 OA
ATOM     21  H   UNL     1       9.660   6.623  -1.591  1.00  0.00     0.293 HD
ENDBRANCH  17  20
BRANCH  15  22
ATOM     22  O   UNL     1       4.977   8.911  -2.621  1.00  0.00    -0.508 OA
ATOM     23  H   UNL     1       3.970   9.012  -2.573  1.00  0.00     0.293 HD
ENDBRANCH  15  22
TORSDOF 3
ENDMDL
MODEL 9
REMARK VINA RESULT:    -5.774     12.040     14.006
REMARK INTER + INTRA:          -6.280
REMARK INTER:                  -6.280
REMARK INTRA:                   0.000
REMARK UNBOUND:                 0.000
REMARK SMILES Cc1cc(O)c2c(c1)C(=O)c1cc(O)cc(O)c1C2=O
REMARK SMILES IDX 1 1 2 2 8 3 7 4 6 5 4 6 3 7 19 8 20 9 18 10 11 11 9 12 10 13
REMARK SMILES IDX 12 14 13 15 15 16 16 17 5 18 17 20 14 22
REMARK H PARENT 5 19 17 21 14 23
REMARK Flexibility Score: inf
ROOT
ATOM      1  C   UNL     1       8.535   7.237  -2.875  1.00  0.00     0.044 C 
ATOM      2  C   UNL     1       7.677   7.077  -1.653  1.00  0.00    -0.047 A 
ATOM      3  C   UNL     1       8.174   6.412  -0.527  1.00  0.00     0.016 A 
ATOM      4  C   UNL     1       7.368   6.227   0.611  1.00  0.00     0.038 A 
ATOM      5  C   UNL     1       6.037   6.698   0.611  1.00  0.00     0.076 A 
ATOM      6  C   UNL     1       5.536   7.358  -0.534  1.00  0.00     0.127 A 
ATOM      7  C   UNL     1       6.356   7.534  -1.656  1.00  0.00     0.050 A 
ATOM      8  C   UNL     1       5.186   6.459   1.807  1.00  0.00     0.201 C 
ATOM      9  O   UNL     1       3.933   6.538   1.701  1.00  0.00    -0.288 OA
ATOM     10  C   UNL     1       5.803   6.017   3.089  1.00  0.00     0.076 A 
ATOM     11  C   UNL     1       7.116   5.490   3.056  1.00  0.00     0.041 A 
ATOM     12  C   UNL     1       7.906   5.537   1.804  1.00  0.00     0.194 C 
ATOM     13  O   UNL     1       9.049   5.002   1.760  1.00  0.00    -0.289 OA
ATOM     14  C   UNL     1       7.673   4.930   4.219  1.00  0.00     0.059 A 
ATOM     15  C   UNL     1       6.952   4.902   5.411  1.00  0.00     0.120 A 
ATOM     16  C   UNL     1       5.675   5.464   5.462  1.00  0.00     0.093 A 
ATOM     17  C   UNL     1       5.106   6.053   4.328  1.00  0.00     0.131 A 
ENDROOT
BRANCH   6  18
ATOM     18  O   UNL     1       4.229   7.846  -0.559  1.00  0.00    -0.507 OA
ATOM     19  H   UNL     1       3.938   8.621   0.025  1.00  0.00     0.293 HD
ENDBRANCH   6  18
BRANCH  17  20
ATOM     20  O   UNL     1       3.872   6.687   4.490  1.00  0.00    -0.507 OA
ATOM     21  H   UNL     1       3.595   7.514   3.982  1.00  0.00     0.293 HD
ENDBRANCH  17  20
BRANCH  15  22
ATOM     22  O   UNL     1       7.520   4.326   6.545  1.00  0.00    -0.508 OA
ATOM     23  H   UNL     1       8.514   4.385   6.729  1.00  0.00     0.293 HD
ENDBRANCH  15  22
TORSDOF 3
ENDMDL
