MODEL 1
REMARK VINA RESULT:    -3.621      0.000      0.000
REMARK INTER + INTRA:          -5.064
REMARK INTER:                  -4.573
REMARK INTRA:                  -0.490
REMARK UNBOUND:                -0.490
REMARK SMILES CC(C)=CCCC(C)=CCO
REMARK SMILES IDX 7 1 9 2 8 3 6 4 5 5 4 6 1 7 2 8 3 9 10 10 11 11
REMARK H PARENT 11 12
REMARK Flexibility Score: inf
ROOT
ATOM      1  C   UNL     1      11.647  -4.804  -1.340  1.00  0.00    -0.075 C 
ATOM      2  C   UNL     1      11.778  -4.635  -2.675  1.00  0.00    -0.000 C 
ATOM      3  C   UNL     1      12.797  -4.553  -0.393  1.00  0.00     0.039 C 
ENDROOT
BRANCH   1   4
ATOM      4  C   UNL     1      10.321  -5.279  -0.785  1.00  0.00     0.034 C 
BRANCH   4   5
ATOM      5  C   UNL     1       9.328  -5.568  -1.917  1.00  0.00     0.032 C 
BRANCH   5   6
ATOM      6  C   UNL     1       7.986  -4.948  -1.623  1.00  0.00    -0.028 C 
ATOM      7  C   UNL     1       6.156  -3.319  -1.817  1.00  0.00     0.039 C 
ATOM      8  C   UNL     1       7.537  -3.800  -2.179  1.00  0.00    -0.080 C 
ATOM      9  C   UNL     1       8.384  -2.986  -3.128  1.00  0.00     0.039 C 
ENDBRANCH   5   6
ENDBRANCH   4   5
ENDBRANCH   1   4
BRANCH   2  10
ATOM     10  C   UNL     1      13.045  -4.176  -3.341  1.00  0.00     0.183 C 
BRANCH  10  11
ATOM     11  O   UNL     1      12.781  -3.068  -4.156  1.00  0.00    -0.392 OA
ATOM     12  H   UNL     1      12.015  -2.595  -3.736  1.00  0.00     0.210 HD
ENDBRANCH  10  11
ENDBRANCH   2  10
TORSDOF 5
ENDMDL
MODEL 2
REMARK VINA RESULT:    -3.327      1.207      1.633
REMARK INTER + INTRA:          -4.692
REMARK INTER:                  -4.169
REMARK INTRA:                  -0.523
REMARK UNBOUND:                -0.490
REMARK SMILES CC(C)=CCCC(C)=CCO
REMARK SMILES IDX 7 1 9 2 8 3 6 4 5 5 4 6 1 7 2 8 3 9 10 10 11 11
REMARK H PARENT 11 12
REMARK Flexibility Score: inf
ROOT
ATOM      1  C   UNL     1      11.032  -5.124  -1.493  1.00  0.00    -0.075 C 
ATOM      2  C   UNL     1      11.919  -4.579  -0.630  1.00  0.00    -0.000 C 
ATOM      3  C   UNL     1      11.293  -5.155  -2.981  1.00  0.00     0.039 C 
ENDROOT
BRANCH   1   4
ATOM      4  C   UNL     1       9.737  -5.694  -0.956  1.00  0.00     0.034 C 
BRANCH   4   5
ATOM      5  C   UNL     1       8.719  -5.892  -2.086  1.00  0.00     0.032 C 
BRANCH   5   6
ATOM      6  C   UNL     1       7.435  -5.163  -1.782  1.00  0.00    -0.028 C 
ATOM      7  C   UNL     1       5.819  -3.312  -1.828  1.00  0.00     0.039 C 
ATOM      8  C   UNL     1       7.163  -3.898  -2.175  1.00  0.00    -0.080 C 
ATOM      9  C   UNL     1       8.170  -3.061  -2.927  1.00  0.00     0.039 C 
ENDBRANCH   5   6
ENDBRANCH   4   5
ENDBRANCH   1   4
BRANCH   2  10
ATOM     10  C   UNL     1      13.231  -3.975  -1.046  1.00  0.00     0.183 C 
BRANCH  10  11
ATOM     11  O   UNL     1      13.057  -2.619  -1.347  1.00  0.00    -0.392 OA
ATOM     12  H   UNL     1      12.266  -2.321  -0.826  1.00  0.00     0.210 HD
ENDBRANCH  10  11
ENDBRANCH   2  10
TORSDOF 5
ENDMDL
MODEL 3
REMARK VINA RESULT:    -3.290      1.537      2.200
REMARK INTER + INTRA:          -4.645
REMARK INTER:                  -4.222
REMARK INTRA:                  -0.423
REMARK UNBOUND:                -0.490
REMARK SMILES CC(C)=CCCC(C)=CCO
REMARK SMILES IDX 7 1 9 2 8 3 6 4 5 5 4 6 1 7 2 8 3 9 10 10 11 11
REMARK H PARENT 11 12
REMARK Flexibility Score: inf
ROOT
ATOM      1  C   UNL     1      10.900  -4.697  -2.910  1.00  0.00    -0.075 C 
ATOM      2  C   UNL     1      12.012  -3.962  -3.137  1.00  0.00    -0.000 C 
ATOM      3  C   UNL     1      10.733  -5.512  -1.649  1.00  0.00     0.039 C 
ENDROOT
BRANCH   1   4
ATOM      4  C   UNL     1       9.807  -4.721  -3.957  1.00  0.00     0.034 C 
BRANCH   4   5
ATOM      5  C   UNL     1       9.112  -3.357  -4.050  1.00  0.00     0.032 C 
BRANCH   5   6
ATOM      6  C   UNL     1       8.136  -3.175  -2.916  1.00  0.00    -0.028 C 
ATOM      7  C   UNL     1       5.978  -3.300  -1.747  1.00  0.00     0.039 C 
ATOM      8  C   UNL     1       6.826  -3.504  -2.975  1.00  0.00    -0.080 C 
ATOM      9  C   UNL     1       6.194  -4.047  -4.235  1.00  0.00     0.039 C 
ENDBRANCH   5   6
ENDBRANCH   4   5
ENDBRANCH   1   4
BRANCH   2  10
ATOM     10  C   UNL     1      13.165  -3.868  -2.177  1.00  0.00     0.183 C 
BRANCH  10  11
ATOM     11  O   UNL     1      13.029  -2.724  -1.381  1.00  0.00    -0.392 OA
ATOM     12  H   UNL     1      12.642  -2.025  -1.969  1.00  0.00     0.210 HD
ENDBRANCH  10  11
ENDBRANCH   2  10
TORSDOF 5
ENDMDL
MODEL 4
REMARK VINA RESULT:    -3.264      1.665      2.074
REMARK INTER + INTRA:          -4.612
REMARK INTER:                  -4.147
REMARK INTRA:                  -0.466
REMARK UNBOUND:                -0.490
REMARK SMILES CC(C)=CCCC(C)=CCO
REMARK SMILES IDX 7 1 9 2 8 3 6 4 5 5 4 6 1 7 2 8 3 9 10 10 11 11
REMARK H PARENT 11 12
REMARK Flexibility Score: inf
ROOT
ATOM      1  C   UNL     1      10.462  -4.352  -2.104  1.00  0.00    -0.075 C 
ATOM      2  C   UNL     1      10.984  -4.285  -3.349  1.00  0.00    -0.000 C 
ATOM      3  C   UNL     1      11.343  -4.456  -0.881  1.00  0.00     0.039 C 
ENDROOT
BRANCH   1   4
ATOM      4  C   UNL     1       8.958  -4.348  -1.935  1.00  0.00     0.034 C 
BRANCH   4   5
ATOM      5  C   UNL     1       8.335  -3.130  -2.628  1.00  0.00     0.032 C 
BRANCH   5   6
ATOM      6  C   UNL     1       6.998  -3.482  -3.229  1.00  0.00    -0.028 C 
ATOM      7  C   UNL     1       5.423  -4.225  -4.962  1.00  0.00     0.039 C 
ATOM      8  C   UNL     1       6.815  -3.868  -4.512  1.00  0.00    -0.080 C 
ATOM      9  C   UNL     1       7.957  -3.931  -5.498  1.00  0.00     0.039 C 
ENDBRANCH   5   6
ENDBRANCH   4   5
ENDBRANCH   1   4
BRANCH   2  10
ATOM     10  C   UNL     1      12.459  -4.290  -3.641  1.00  0.00     0.183 C 
BRANCH  10  11
ATOM     11  O   UNL     1      12.850  -3.041  -4.141  1.00  0.00    -0.392 OA
ATOM     12  H   UNL     1      13.615  -2.749  -3.581  1.00  0.00     0.210 HD
ENDBRANCH  10  11
ENDBRANCH   2  10
TORSDOF 5
ENDMDL
MODEL 5
REMARK VINA RESULT:    -3.088     10.222     12.220
REMARK INTER + INTRA:          -4.390
REMARK INTER:                  -3.803
REMARK INTRA:                  -0.587
REMARK UNBOUND:                -0.490
REMARK SMILES CC(C)=CCCC(C)=CCO
REMARK SMILES IDX 7 1 9 2 8 3 6 4 5 5 4 6 1 7 2 8 3 9 10 10 11 11
REMARK H PARENT 11 12
REMARK Flexibility Score: inf
ROOT
ATOM      1  C   UNL     1       8.697   4.090  -7.851  1.00  0.00    -0.075 C 
ATOM      2  C   UNL     1       7.460   4.578  -7.604  1.00  0.00    -0.000 C 
ATOM      3  C   UNL     1       9.665   3.787  -6.732  1.00  0.00     0.039 C 
ENDROOT
BRANCH   1   4
ATOM      4  C   UNL     1       9.127   3.866  -9.285  1.00  0.00     0.034 C 
BRANCH   4   5
ATOM      5  C   UNL     1       9.210   5.196 -10.044  1.00  0.00     0.032 C 
BRANCH   5   6
ATOM      6  C   UNL     1      10.219   6.115  -9.404  1.00  0.00    -0.028 C 
ATOM      7  C   UNL     1      11.034   8.118  -8.237  1.00  0.00     0.039 C 
ATOM      8  C   UNL     1       9.925   7.325  -8.878  1.00  0.00    -0.080 C 
ATOM      9  C   UNL     1       8.531   7.904  -8.933  1.00  0.00     0.039 C 
ENDBRANCH   5   6
ENDBRANCH   4   5
ENDBRANCH   1   4
BRANCH   2  10
ATOM     10  C   UNL     1       6.925   4.848  -6.226  1.00  0.00     0.183 C 
BRANCH  10  11
ATOM     11  O   UNL     1       6.405   3.669  -5.677  1.00  0.00    -0.392 OA
ATOM     12  H   UNL     1       5.501   3.558  -6.071  1.00  0.00     0.210 HD
ENDBRANCH  10  11
ENDBRANCH   2  10
TORSDOF 5
ENDMDL
MODEL 6
REMARK VINA RESULT:    -3.044      1.895      4.673
REMARK INTER + INTRA:          -4.336
REMARK INTER:                  -3.891
REMARK INTRA:                  -0.445
REMARK UNBOUND:                -0.490
REMARK SMILES CC(C)=CCCC(C)=CCO
REMARK SMILES IDX 7 1 9 2 8 3 6 4 5 5 4 6 1 7 2 8 3 9 10 10 11 11
REMARK H PARENT 11 12
REMARK Flexibility Score: inf
ROOT
ATOM      1  C   UNL     1       8.979  -5.164  -2.312  1.00  0.00    -0.075 C 
ATOM      2  C   UNL     1       9.283  -4.358  -3.355  1.00  0.00    -0.000 C 
ATOM      3  C   UNL     1       7.723  -6.003  -2.300  1.00  0.00     0.039 C 
ENDROOT
BRANCH   1   4
ATOM      4  C   UNL     1       9.911  -5.206  -1.120  1.00  0.00     0.034 C 
BRANCH   4   5
ATOM      5  C   UNL     1      10.954  -4.086  -1.202  1.00  0.00     0.032 C 
BRANCH   5   6
ATOM      6  C   UNL     1      12.351  -4.652  -1.162  1.00  0.00    -0.028 C 
ATOM      7  C   UNL     1      14.602  -5.181  -1.995  1.00  0.00     0.039 C 
ATOM      8  C   UNL     1      13.224  -4.605  -2.194  1.00  0.00    -0.080 C 
ATOM      9  C   UNL     1      12.850  -4.014  -3.532  1.00  0.00     0.039 C 
ENDBRANCH   5   6
ENDBRANCH   4   5
ENDBRANCH   1   4
BRANCH   2  10
ATOM     10  C   UNL     1       8.432  -4.226  -4.587  1.00  0.00     0.183 C 
BRANCH  10  11
ATOM     11  O   UNL     1       8.835  -3.106  -5.326  1.00  0.00    -0.392 OA
ATOM     12  H   UNL     1       9.825  -3.075  -5.259  1.00  0.00     0.210 HD
ENDBRANCH  10  11
ENDBRANCH   2  10
TORSDOF 5
ENDMDL
MODEL 7
REMARK VINA RESULT:    -2.988      2.321      5.498
REMARK INTER + INTRA:          -4.264
REMARK INTER:                  -3.863
REMARK INTRA:                  -0.401
REMARK UNBOUND:                -0.490
REMARK SMILES CC(C)=CCCC(C)=CCO
REMARK SMILES IDX 7 1 9 2 8 3 6 4 5 5 4 6 1 7 2 8 3 9 10 10 11 11
REMARK H PARENT 11 12
REMARK Flexibility Score: inf
ROOT
ATOM      1  C   UNL     1      10.598  -4.512  -2.727  1.00  0.00    -0.075 C 
ATOM      2  C   UNL     1       9.709  -3.736  -3.388  1.00  0.00    -0.000 C 
ATOM      3  C   UNL     1      10.288  -5.087  -1.365  1.00  0.00     0.039 C 
ENDROOT
BRANCH   1   4
ATOM      4  C   UNL     1      11.945  -4.790  -3.359  1.00  0.00     0.034 C 
BRANCH   4   5
ATOM      5  C   UNL     1      12.605  -6.017  -2.718  1.00  0.00     0.032 C 
BRANCH   5   6
ATOM      6  C   UNL     1      14.107  -5.891  -2.743  1.00  0.00    -0.028 C 
ATOM      7  C   UNL     1      16.346  -5.354  -1.885  1.00  0.00     0.039 C 
ATOM      8  C   UNL     1      14.848  -5.383  -1.732  1.00  0.00    -0.080 C 
ATOM      9  C   UNL     1      14.216  -4.833  -0.476  1.00  0.00     0.039 C 
ENDBRANCH   5   6
ENDBRANCH   4   5
ENDBRANCH   1   4
BRANCH   2  10
ATOM     10  C   UNL     1       8.347  -3.385  -2.858  1.00  0.00     0.183 C 
BRANCH  10  11
ATOM     11  O   UNL     1       8.440  -2.281  -2.001  1.00  0.00    -0.392 OA
ATOM     12  H   UNL     1       7.860  -2.488  -1.223  1.00  0.00     0.210 HD
ENDBRANCH  10  11
ENDBRANCH   2  10
TORSDOF 5
ENDMDL
MODEL 8
REMARK VINA RESULT:    -2.981     12.058     14.793
REMARK INTER + INTRA:          -4.256
REMARK INTER:                  -3.644
REMARK INTRA:                  -0.612
REMARK UNBOUND:                -0.490
REMARK SMILES CC(C)=CCCC(C)=CCO
REMARK SMILES IDX 7 1 9 2 8 3 6 4 5 5 4 6 1 7 2 8 3 9 10 10 11 11
REMARK H PARENT 11 12
REMARK Flexibility Score: inf
ROOT
ATOM      1  C   UNL     1      17.365   1.367   8.380  1.00  0.00    -0.075 C 
ATOM      2  C   UNL     1      16.333   1.200   7.523  1.00  0.00    -0.000 C 
ATOM      3  C   UNL     1      18.123   0.189   8.945  1.00  0.00     0.039 C 
ENDROOT
BRANCH   1   4
ATOM      4  C   UNL     1      17.754   2.768   8.799  1.00  0.00     0.034 C 
BRANCH   4   5
ATOM      5  C   UNL     1      18.321   3.556   7.611  1.00  0.00     0.032 C 
BRANCH   5   6
ATOM      6  C   UNL     1      19.820   3.676   7.716  1.00  0.00    -0.028 C 
ATOM      7  C   UNL     1      22.170   3.199   7.179  1.00  0.00     0.039 C 
ATOM      8  C   UNL     1      20.697   2.942   6.995  1.00  0.00    -0.080 C 
ATOM      9  C   UNL     1      20.242   1.868   6.035  1.00  0.00     0.039 C 
ENDBRANCH   5   6
ENDBRANCH   4   5
ENDBRANCH   1   4
BRANCH   2  10
ATOM     10  C   UNL     1      15.851  -0.141   7.042  1.00  0.00     0.183 C 
BRANCH  10  11
ATOM     11  O   UNL     1      15.877  -0.182   5.642  1.00  0.00    -0.392 OA
ATOM     12  H   UNL     1      15.112   0.372   5.337  1.00  0.00     0.210 HD
ENDBRANCH  10  11
ENDBRANCH   2  10
TORSDOF 5
ENDMDL
MODEL 9
REMARK VINA RESULT:    -2.976      2.451      5.104
REMARK INTER + INTRA:          -4.249
REMARK INTER:                  -3.775
REMARK INTRA:                  -0.474
REMARK UNBOUND:                -0.490
REMARK SMILES CC(C)=CCCC(C)=CCO
REMARK SMILES IDX 7 1 9 2 8 3 6 4 5 5 4 6 1 7 2 8 3 9 10 10 11 11
REMARK H PARENT 11 12
REMARK Flexibility Score: inf
ROOT
ATOM      1  C   UNL     1       8.564  -4.790  -1.874  1.00  0.00    -0.075 C 
ATOM      2  C   UNL     1       7.307  -4.638  -1.400  1.00  0.00    -0.000 C 
ATOM      3  C   UNL     1       9.182  -3.783  -2.817  1.00  0.00     0.039 C 
ENDROOT
BRANCH   1   4
ATOM      4  C   UNL     1       9.362  -6.011  -1.468  1.00  0.00     0.034 C 
BRANCH   4   5
ATOM      5  C   UNL     1      10.778  -5.957  -2.055  1.00  0.00     0.032 C 
BRANCH   5   6
ATOM      6  C   UNL     1      11.792  -5.666  -0.978  1.00  0.00    -0.028 C 
ATOM      7  C   UNL     1      13.675  -4.516   0.103  1.00  0.00     0.039 C 
ATOM      8  C   UNL     1      12.753  -4.719  -1.071  1.00  0.00    -0.080 C 
ATOM      9  C   UNL     1      12.936  -3.883  -2.315  1.00  0.00     0.039 C 
ENDBRANCH   5   6
ENDBRANCH   4   5
ENDBRANCH   1   4
BRANCH   2  10
ATOM     10  C   UNL     1       6.418  -3.474  -1.740  1.00  0.00     0.183 C 
BRANCH  10  11
ATOM     11  O   UNL     1       6.209  -2.687  -0.600  1.00  0.00    -0.392 OA
ATOM     12  H   UNL     1       6.338  -3.290   0.178  1.00  0.00     0.210 HD
ENDBRANCH  10  11
ENDBRANCH   2  10
TORSDOF 5
ENDMDL
