MODEL 1
REMARK VINA RESULT:    -4.664      0.000      0.000
REMARK INTER + INTRA:          -5.162
REMARK INTER:                  -5.073
REMARK INTRA:                  -0.089
REMARK UNBOUND:                -0.089
REMARK SMILES C=C(C)[C@H]1CC=C(C)[C@@H](O)C1
REMARK SMILES IDX 8 1 7 2 6 3 5 4 4 5 11 6 9 7 10 8 2 10 1 11 3 12
REMARK H PARENT 10 9
REMARK Flexibility Score: inf
ROOT
ATOM      1  C   UNL     1      44.125   1.525  -5.747  1.00  0.00     0.042 C 
ATOM      2  C   UNL     1      42.944   2.203  -6.392  1.00  0.00    -0.049 C 
ATOM      3  C   UNL     1      43.170   3.065  -7.406  1.00  0.00    -0.025 C 
ATOM      4  C   UNL     1      42.066   3.802  -8.122  1.00  0.00     0.035 C 
ATOM      5  C   UNL     1      40.721   3.063  -8.016  1.00  0.00     0.021 C 
ATOM      6  C   UNL     1      40.439   2.717  -6.547  1.00  0.00     0.044 C 
ATOM      7  C   UNL     1      41.532   1.782  -5.994  1.00  0.00     0.140 C 
ENDROOT
BRANCH   7   8
ATOM      8  O   UNL     1      41.413   1.680  -4.597  1.00  0.00    -0.389 OA
ATOM      9  H   UNL     1      42.251   1.272  -4.255  1.00  0.00     0.211 HD
ENDBRANCH   7   8
BRANCH   5  10
ATOM     10  C   UNL     1      39.587   3.871  -8.635  1.00  0.00    -0.077 C 
ATOM     11  C   UNL     1      39.556   4.138  -9.953  1.00  0.00     0.008 C 
ATOM     12  C   UNL     1      38.472   4.394  -7.769  1.00  0.00     0.039 C 
ENDBRANCH   5  10
TORSDOF 2
ENDMDL
MODEL 2
REMARK VINA RESULT:    -4.627     13.658     15.197
REMARK INTER + INTRA:          -5.122
REMARK INTER:                  -5.027
REMARK INTRA:                  -0.095
REMARK UNBOUND:                -0.089
REMARK SMILES C=C(C)[C@H]1CC=C(C)[C@@H](O)C1
REMARK SMILES IDX 8 1 7 2 6 3 5 4 4 5 11 6 9 7 10 8 2 10 1 11 3 12
REMARK H PARENT 10 9
REMARK Flexibility Score: inf
ROOT
ATOM      1  C   UNL     1      33.605  12.110   2.612  1.00  0.00     0.042 C 
ATOM      2  C   UNL     1      34.186  10.896   3.289  1.00  0.00    -0.049 C 
ATOM      3  C   UNL     1      34.296   9.752   2.581  1.00  0.00    -0.025 C 
ATOM      4  C   UNL     1      34.859   8.477   3.157  1.00  0.00     0.035 C 
ATOM      5  C   UNL     1      35.801   8.750   4.341  1.00  0.00     0.021 C 
ATOM      6  C   UNL     1      35.107   9.679   5.348  1.00  0.00     0.044 C 
ATOM      7  C   UNL     1      34.775  11.033   4.691  1.00  0.00     0.140 C 
ENDROOT
BRANCH   7   8
ATOM      8  O   UNL     1      33.919  11.773   5.526  1.00  0.00    -0.389 OA
ATOM      9  H   UNL     1      33.153  11.187   5.762  1.00  0.00     0.211 HD
ENDBRANCH   7   8
BRANCH   5  10
ATOM     10  C   UNL     1      36.269   7.456   4.995  1.00  0.00    -0.077 C 
ATOM     11  C   UNL     1      36.255   7.301   6.330  1.00  0.00     0.008 C 
ATOM     12  C   UNL     1      36.767   6.317   4.144  1.00  0.00     0.039 C 
ENDBRANCH   5  10
TORSDOF 2
ENDMDL
MODEL 3
REMARK VINA RESULT:    -4.571     13.056     14.645
REMARK INTER + INTRA:          -5.061
REMARK INTER:                  -4.973
REMARK INTRA:                  -0.088
REMARK UNBOUND:                -0.089
REMARK SMILES C=C(C)[C@H]1CC=C(C)[C@@H](O)C1
REMARK SMILES IDX 8 1 7 2 6 3 5 4 4 5 11 6 9 7 10 8 2 10 1 11 3 12
REMARK H PARENT 10 9
REMARK Flexibility Score: inf
ROOT
ATOM      1  C   UNL     1      33.625  11.839   2.094  1.00  0.00     0.042 C 
ATOM      2  C   UNL     1      34.334  10.709   2.795  1.00  0.00    -0.049 C 
ATOM      3  C   UNL     1      35.125  10.999   3.850  1.00  0.00    -0.025 C 
ATOM      4  C   UNL     1      35.884   9.950   4.623  1.00  0.00     0.035 C 
ATOM      5  C   UNL     1      35.232   8.563   4.500  1.00  0.00     0.021 C 
ATOM      6  C   UNL     1      34.984   8.241   3.019  1.00  0.00     0.044 C 
ATOM      7  C   UNL     1      34.018   9.269   2.399  1.00  0.00     0.140 C 
ENDROOT
BRANCH   7   8
ATOM      8  O   UNL     1      34.000   9.125   1.000  1.00  0.00    -0.389 OA
ATOM      9  H   UNL     1      34.942   9.152   0.685  1.00  0.00     0.211 HD
ENDBRANCH   7   8
BRANCH   5  10
ATOM     10  C   UNL     1      36.069   7.487   5.180  1.00  0.00    -0.077 C 
ATOM     11  C   UNL     1      36.139   7.398   6.520  1.00  0.00     0.008 C 
ATOM     12  C   UNL     1      36.845   6.497   4.352  1.00  0.00     0.039 C 
ENDBRANCH   5  10
TORSDOF 2
ENDMDL
MODEL 4
REMARK VINA RESULT:    -4.538      1.551      2.121
REMARK INTER + INTRA:          -5.025
REMARK INTER:                  -4.930
REMARK INTRA:                  -0.095
REMARK UNBOUND:                -0.089
REMARK SMILES C=C(C)[C@H]1CC=C(C)[C@@H](O)C1
REMARK SMILES IDX 8 1 7 2 6 3 5 4 4 5 11 6 9 7 10 8 2 10 1 11 3 12
REMARK H PARENT 10 9
REMARK Flexibility Score: inf
ROOT
ATOM      1  C   UNL     1      44.125   1.533  -5.746  1.00  0.00     0.042 C 
ATOM      2  C   UNL     1      42.974   2.054  -6.567  1.00  0.00    -0.049 C 
ATOM      3  C   UNL     1      41.763   2.167  -5.981  1.00  0.00    -0.025 C 
ATOM      4  C   UNL     1      40.540   2.672  -6.706  1.00  0.00     0.035 C 
ATOM      5  C   UNL     1      40.912   3.567  -7.900  1.00  0.00     0.021 C 
ATOM      6  C   UNL     1      41.950   2.852  -8.776  1.00  0.00     0.044 C 
ATOM      7  C   UNL     1      43.238   2.583  -7.974  1.00  0.00     0.140 C 
ENDROOT
BRANCH   7   8
ATOM      8  O   UNL     1      44.074   1.709  -8.691  1.00  0.00    -0.389 OA
ATOM      9  H   UNL     1      43.564   0.873  -8.853  1.00  0.00     0.211 HD
ENDBRANCH   7   8
BRANCH   5  10
ATOM     10  C   UNL     1      39.680   3.974  -8.700  1.00  0.00    -0.077 C 
ATOM     11  C   UNL     1      39.700   4.012 -10.044  1.00  0.00     0.008 C 
ATOM     12  C   UNL     1      38.407   4.349  -7.988  1.00  0.00     0.039 C 
ENDBRANCH   5  10
TORSDOF 2
ENDMDL
MODEL 5
REMARK VINA RESULT:    -4.513      2.485      3.653
REMARK INTER + INTRA:          -4.998
REMARK INTER:                  -4.911
REMARK INTRA:                  -0.087
REMARK UNBOUND:                -0.089
REMARK SMILES C=C(C)[C@H]1CC=C(C)[C@@H](O)C1
REMARK SMILES IDX 8 1 7 2 6 3 5 4 4 5 11 6 9 7 10 8 2 10 1 11 3 12
REMARK H PARENT 10 9
REMARK Flexibility Score: inf
ROOT
ATOM      1  C   UNL     1      41.061   2.422  -6.741  1.00  0.00     0.042 C 
ATOM      2  C   UNL     1      39.945   2.669  -7.723  1.00  0.00    -0.049 C 
ATOM      3  C   UNL     1      39.265   3.833  -7.648  1.00  0.00    -0.025 C 
ATOM      4  C   UNL     1      38.128   4.184  -8.575  1.00  0.00     0.035 C 
ATOM      5  C   UNL     1      38.219   3.422  -9.908  1.00  0.00     0.021 C 
ATOM      6  C   UNL     1      38.407   1.924  -9.632  1.00  0.00     0.044 C 
ATOM      7  C   UNL     1      39.718   1.678  -8.861  1.00  0.00     0.140 C 
ENDROOT
BRANCH   7   8
ATOM      8  O   UNL     1      39.756   0.354  -8.390  1.00  0.00    -0.389 OA
ATOM      9  H   UNL     1      39.857   0.391  -7.403  1.00  0.00     0.211 HD
ENDBRANCH   7   8
BRANCH   5  10
ATOM     10  C   UNL     1      37.006   3.688 -10.790  1.00  0.00    -0.077 C 
ATOM     11  C   UNL     1      37.074   4.522 -11.842  1.00  0.00     0.008 C 
ATOM     12  C   UNL     1      35.692   3.015 -10.489  1.00  0.00     0.039 C 
ENDBRANCH   5  10
TORSDOF 2
ENDMDL
MODEL 6
REMARK VINA RESULT:    -4.351     14.076     15.191
REMARK INTER + INTRA:          -4.821
REMARK INTER:                  -4.726
REMARK INTRA:                  -0.095
REMARK UNBOUND:                -0.089
REMARK SMILES C=C(C)[C@H]1CC=C(C)[C@@H](O)C1
REMARK SMILES IDX 8 1 7 2 6 3 5 4 4 5 11 6 9 7 10 8 2 10 1 11 3 12
REMARK H PARENT 10 9
REMARK Flexibility Score: inf
ROOT
ATOM      1  C   UNL     1      35.919   9.153   7.884  1.00  0.00     0.042 C 
ATOM      2  C   UNL     1      35.387   9.445   6.505  1.00  0.00    -0.049 C 
ATOM      3  C   UNL     1      35.334  10.730   6.093  1.00  0.00    -0.025 C 
ATOM      4  C   UNL     1      34.817  11.139   4.736  1.00  0.00     0.035 C 
ATOM      5  C   UNL     1      34.934   9.998   3.711  1.00  0.00     0.021 C 
ATOM      6  C   UNL     1      34.317   8.718   4.293  1.00  0.00     0.044 C 
ATOM      7  C   UNL     1      35.075   8.286   5.563  1.00  0.00     0.140 C 
ENDROOT
BRANCH   7   8
ATOM      8  O   UNL     1      34.355   7.277   6.229  1.00  0.00    -0.389 OA
ATOM      9  H   UNL     1      34.515   6.426   5.742  1.00  0.00     0.211 HD
ENDBRANCH   7   8
BRANCH   5  10
ATOM     10  C   UNL     1      34.300  10.376   2.378  1.00  0.00    -0.077 C 
ATOM     11  C   UNL     1      34.034  11.657   2.066  1.00  0.00     0.008 C 
ATOM     12  C   UNL     1      33.952   9.305   1.377  1.00  0.00     0.039 C 
ENDBRANCH   5  10
TORSDOF 2
ENDMDL
MODEL 7
REMARK VINA RESULT:    -4.252     13.576     14.328
REMARK INTER + INTRA:          -4.714
REMARK INTER:                  -4.618
REMARK INTRA:                  -0.096
REMARK UNBOUND:                -0.089
REMARK SMILES C=C(C)[C@H]1CC=C(C)[C@@H](O)C1
REMARK SMILES IDX 8 1 7 2 6 3 5 4 4 5 11 6 9 7 10 8 2 10 1 11 3 12
REMARK H PARENT 10 9
REMARK Flexibility Score: inf
ROOT
ATOM      1  C   UNL     1      37.959   7.570   5.481  1.00  0.00     0.042 C 
ATOM      2  C   UNL     1      36.851   8.425   4.924  1.00  0.00    -0.049 C 
ATOM      3  C   UNL     1      36.888   9.756   5.148  1.00  0.00    -0.025 C 
ATOM      4  C   UNL     1      35.831  10.706   4.642  1.00  0.00     0.035 C 
ATOM      5  C   UNL     1      35.099  10.146   3.412  1.00  0.00     0.021 C 
ATOM      6  C   UNL     1      34.616   8.719   3.705  1.00  0.00     0.044 C 
ATOM      7  C   UNL     1      35.813   7.795   3.998  1.00  0.00     0.140 C 
ENDROOT
BRANCH   7   8
ATOM      8  O   UNL     1      35.357   6.569   4.515  1.00  0.00    -0.389 OA
ATOM      9  H   UNL     1      35.102   5.997   3.744  1.00  0.00     0.211 HD
ENDBRANCH   7   8
BRANCH   5  10
ATOM     10  C   UNL     1      33.954  11.054   2.980  1.00  0.00    -0.077 C 
ATOM     11  C   UNL     1      33.596  12.125   3.710  1.00  0.00     0.008 C 
ATOM     12  C   UNL     1      33.192  10.758   1.714  1.00  0.00     0.039 C 
ENDBRANCH   5  10
TORSDOF 2
ENDMDL
MODEL 8
REMARK VINA RESULT:    -4.230      2.132      4.394
REMARK INTER + INTRA:          -4.690
REMARK INTER:                  -4.593
REMARK INTRA:                  -0.097
REMARK UNBOUND:                -0.089
REMARK SMILES C=C(C)[C@H]1CC=C(C)[C@@H](O)C1
REMARK SMILES IDX 8 1 7 2 6 3 5 4 4 5 11 6 9 7 10 8 2 10 1 11 3 12
REMARK H PARENT 10 9
REMARK Flexibility Score: inf
ROOT
ATOM      1  C   UNL     1      40.593   3.675 -11.340  1.00  0.00     0.042 C 
ATOM      2  C   UNL     1      41.028   3.146  -9.998  1.00  0.00    -0.049 C 
ATOM      3  C   UNL     1      42.340   3.190  -9.682  1.00  0.00    -0.025 C 
ATOM      4  C   UNL     1      42.888   2.685  -8.370  1.00  0.00     0.035 C 
ATOM      5  C   UNL     1      41.821   2.693  -7.263  1.00  0.00     0.021 C 
ATOM      6  C   UNL     1      40.554   1.985  -7.763  1.00  0.00     0.044 C 
ATOM      7  C   UNL     1      39.970   2.726  -8.982  1.00  0.00     0.140 C 
ENDROOT
BRANCH   7   8
ATOM      8  O   UNL     1      38.974   1.939  -9.588  1.00  0.00    -0.389 OA
ATOM      9  H   UNL     1      39.205   1.855 -10.550  1.00  0.00     0.211 HD
ENDBRANCH   7   8
BRANCH   5  10
ATOM     10  C   UNL     1      42.346   2.069  -5.975  1.00  0.00    -0.077 C 
ATOM     11  C   UNL     1      41.515   1.717  -4.979  1.00  0.00     0.008 C 
ATOM     12  C   UNL     1      43.824   1.840  -5.794  1.00  0.00     0.039 C 
ENDBRANCH   5  10
TORSDOF 2
ENDMDL
MODEL 9
REMARK VINA RESULT:    -4.215     13.498     14.536
REMARK INTER + INTRA:          -4.674
REMARK INTER:                  -4.581
REMARK INTRA:                  -0.093
REMARK UNBOUND:                -0.089
REMARK SMILES C=C(C)[C@H]1CC=C(C)[C@@H](O)C1
REMARK SMILES IDX 8 1 7 2 6 3 5 4 4 5 11 6 9 7 10 8 2 10 1 11 3 12
REMARK H PARENT 10 9
REMARK Flexibility Score: inf
ROOT
ATOM      1  C   UNL     1      35.652   4.991   6.398  1.00  0.00     0.042 C 
ATOM      2  C   UNL     1      35.460   6.284   5.650  1.00  0.00    -0.049 C 
ATOM      3  C   UNL     1      35.873   6.356   4.367  1.00  0.00    -0.025 C 
ATOM      4  C   UNL     1      35.734   7.599   3.525  1.00  0.00     0.035 C 
ATOM      5  C   UNL     1      34.599   8.508   4.027  1.00  0.00     0.021 C 
ATOM      6  C   UNL     1      34.760   8.747   5.535  1.00  0.00     0.044 C 
ATOM      7  C   UNL     1      34.669   7.415   6.304  1.00  0.00     0.140 C 
ENDROOT
BRANCH   7   8
ATOM      8  O   UNL     1      35.072   7.604   7.638  1.00  0.00    -0.389 OA
ATOM      9  H   UNL     1      35.501   6.762   7.942  1.00  0.00     0.211 HD
ENDBRANCH   7   8
BRANCH   5  10
ATOM     10  C   UNL     1      34.543   9.817   3.249  1.00  0.00    -0.077 C 
ATOM     11  C   UNL     1      34.945  10.976   3.799  1.00  0.00     0.008 C 
ATOM     12  C   UNL     1      34.025   9.833   1.835  1.00  0.00     0.039 C 
ENDBRANCH   5  10
TORSDOF 2
ENDMDL
