MODEL 1
REMARK VINA RESULT:    -6.794      0.000      0.000
REMARK INTER + INTRA:          -7.390
REMARK INTER:                  -7.390
REMARK INTRA:                   0.000
REMARK UNBOUND:                 0.000
REMARK SMILES Cc1cc(O)c2c(c1)C(=O)c1cc(O)cc(O)c1C2=O
REMARK SMILES IDX 1 1 2 2 8 3 7 4 6 5 4 6 3 7 19 8 20 9 18 10 11 11 9 12 10 13
REMARK SMILES IDX 12 14 13 15 15 16 16 17 5 18 17 20 14 22
REMARK H PARENT 5 19 17 21 14 23
REMARK Flexibility Score: inf
ROOT
ATOM      1  C   UNL     1      12.996  15.887  11.322  1.00  0.00     0.044 C 
ATOM      2  C   UNL     1      12.408  14.552  11.679  1.00  0.00    -0.047 A 
ATOM      3  C   UNL     1      12.626  13.444  10.854  1.00  0.00     0.016 A 
ATOM      4  C   UNL     1      12.105  12.185  11.194  1.00  0.00     0.038 A 
ATOM      5  C   UNL     1      11.353  12.032  12.381  1.00  0.00     0.076 A 
ATOM      6  C   UNL     1      11.207  13.140  13.254  1.00  0.00     0.127 A 
ATOM      7  C   UNL     1      11.718  14.388  12.884  1.00  0.00     0.050 A 
ATOM      8  C   UNL     1      10.694  10.724  12.632  1.00  0.00     0.201 C 
ATOM      9  O   UNL     1       9.619  10.680  13.286  1.00  0.00    -0.288 OA
ATOM     10  C   UNL     1      11.199   9.501  11.954  1.00  0.00     0.076 A 
ATOM     11  C   UNL     1      11.953   9.658  10.770  1.00  0.00     0.041 A 
ATOM     12  C   UNL     1      12.346  11.013  10.318  1.00  0.00     0.194 C 
ATOM     13  O   UNL     1      12.908  11.167   9.199  1.00  0.00    -0.289 OA
ATOM     14  C   UNL     1      12.330   8.526  10.027  1.00  0.00     0.059 A 
ATOM     15  C   UNL     1      11.981   7.246  10.458  1.00  0.00     0.120 A 
ATOM     16  C   UNL     1      11.270   7.084  11.649  1.00  0.00     0.093 A 
ATOM     17  C   UNL     1      10.900   8.193  12.417  1.00  0.00     0.131 A 
ENDROOT
BRANCH   6  18
ATOM     18  O   UNL     1      10.600  13.038  14.508  1.00  0.00    -0.507 OA
ATOM     19  H   UNL     1      10.696  12.233  15.111  1.00  0.00     0.293 HD
ENDBRANCH   6  18
BRANCH  17  20
ATOM     20  O   UNL     1      10.273   7.949  13.642  1.00  0.00    -0.507 OA
ATOM     21  H   UNL     1       9.856   7.062  13.888  1.00  0.00     0.293 HD
ENDBRANCH  17  20
BRANCH  15  22
ATOM     22  O   UNL     1      12.355   6.140   9.698  1.00  0.00    -0.508 OA
ATOM     23  H   UNL     1      12.171   6.095   8.703  1.00  0.00     0.293 HD
ENDBRANCH  15  22
TORSDOF 3
ENDMDL
MODEL 2
REMARK VINA RESULT:    -6.722      1.912      3.184
REMARK INTER + INTRA:          -7.312
REMARK INTER:                  -7.312
REMARK INTRA:                   0.000
REMARK UNBOUND:                 0.000
REMARK SMILES Cc1cc(O)c2c(c1)C(=O)c1cc(O)cc(O)c1C2=O
REMARK SMILES IDX 1 1 2 2 8 3 7 4 6 5 4 6 3 7 19 8 20 9 18 10 11 11 9 12 10 13
REMARK SMILES IDX 12 14 13 15 15 16 16 17 5 18 17 20 14 22
REMARK H PARENT 5 19 17 21 14 23
REMARK Flexibility Score: inf
ROOT
ATOM      1  C   UNL     1      13.195  11.948   8.775  1.00  0.00     0.044 C 
ATOM      2  C   UNL     1      12.510  11.255   9.916  1.00  0.00    -0.047 A 
ATOM      3  C   UNL     1      12.355   9.865   9.905  1.00  0.00     0.016 A 
ATOM      4  C   UNL     1      11.741   9.205  10.982  1.00  0.00     0.038 A 
ATOM      5  C   UNL     1      11.274   9.949  12.089  1.00  0.00     0.076 A 
ATOM      6  C   UNL     1      11.509  11.346  12.132  1.00  0.00     0.127 A 
ATOM      7  C   UNL     1      12.105  11.984  11.039  1.00  0.00     0.050 A 
ATOM      8  C   UNL     1      10.498   9.236  13.138  1.00  0.00     0.201 C 
ATOM      9  O   UNL     1       9.613   9.851  13.789  1.00  0.00    -0.288 OA
ATOM     10  C   UNL     1      10.636   7.763  13.285  1.00  0.00     0.076 A 
ATOM     11  C   UNL     1      11.106   7.023  12.176  1.00  0.00     0.041 A 
ATOM     12  C   UNL     1      11.586   7.730  10.966  1.00  0.00     0.194 C 
ATOM     13  O   UNL     1      11.887   7.076   9.930  1.00  0.00    -0.289 OA
ATOM     14  C   UNL     1      11.119   5.619  12.229  1.00  0.00     0.059 A 
ATOM     15  C   UNL     1      10.688   4.948  13.373  1.00  0.00     0.120 A 
ATOM     16  C   UNL     1      10.260   5.676  14.486  1.00  0.00     0.093 A 
ATOM     17  C   UNL     1      10.257   7.074  14.466  1.00  0.00     0.131 A 
ENDROOT
BRANCH   6  18
ATOM     18  O   UNL     1      11.204  12.129  13.248  1.00  0.00    -0.507 OA
ATOM     19  H   UNL     1      10.632  11.808  14.016  1.00  0.00     0.293 HD
ENDBRANCH   6  18
BRANCH  17  20
ATOM     20  O   UNL     1       9.904   7.734  15.646  1.00  0.00    -0.507 OA
ATOM     21  H   UNL     1       8.952   7.966  15.893  1.00  0.00     0.293 HD
ENDBRANCH  17  20
BRANCH  15  22
ATOM     22  O   UNL     1      10.699   3.554  13.397  1.00  0.00    -0.508 OA
ATOM     23  H   UNL     1      10.286   3.009  12.650  1.00  0.00     0.293 HD
ENDBRANCH  15  22
TORSDOF 3
ENDMDL
MODEL 3
REMARK VINA RESULT:    -6.637      3.521      6.873
REMARK INTER + INTRA:          -7.219
REMARK INTER:                  -7.219
REMARK INTRA:                   0.000
REMARK UNBOUND:                 0.000
REMARK SMILES Cc1cc(O)c2c(c1)C(=O)c1cc(O)cc(O)c1C2=O
REMARK SMILES IDX 1 1 2 2 8 3 7 4 6 5 4 6 3 7 19 8 20 9 18 10 11 11 9 12 10 13
REMARK SMILES IDX 12 14 13 15 15 16 16 17 5 18 17 20 14 22
REMARK H PARENT 5 19 17 21 14 23
REMARK Flexibility Score: inf
ROOT
ATOM      1  C   UNL     1      12.003   9.722  10.256  1.00  0.00     0.044 C 
ATOM      2  C   UNL     1      11.873   8.311  10.752  1.00  0.00    -0.047 A 
ATOM      3  C   UNL     1      11.219   8.048  11.961  1.00  0.00     0.016 A 
ATOM      4  C   UNL     1      11.068   6.729  12.419  1.00  0.00     0.038 A 
ATOM      5  C   UNL     1      11.578   5.655  11.655  1.00  0.00     0.076 A 
ATOM      6  C   UNL     1      12.164   5.923  10.392  1.00  0.00     0.127 A 
ATOM      7  C   UNL     1      12.322   7.245   9.966  1.00  0.00     0.050 A 
ATOM      8  C   UNL     1      11.531   4.291  12.242  1.00  0.00     0.201 C 
ATOM      9  O   UNL     1      12.413   3.446  11.935  1.00  0.00    -0.288 OA
ATOM     10  C   UNL     1      10.561   3.986  13.327  1.00  0.00     0.076 A 
ATOM     11  C   UNL     1      10.050   5.063  14.086  1.00  0.00     0.041 A 
ATOM     12  C   UNL     1      10.368   6.457  13.698  1.00  0.00     0.194 C 
ATOM     13  O   UNL     1      10.021   7.415  14.443  1.00  0.00    -0.289 OA
ATOM     14  C   UNL     1       9.240   4.805  15.206  1.00  0.00     0.059 A 
ATOM     15  C   UNL     1       8.921   3.496  15.564  1.00  0.00     0.120 A 
ATOM     16  C   UNL     1       9.390   2.431  14.793  1.00  0.00     0.093 A 
ATOM     17  C   UNL     1      10.181   2.660  13.662  1.00  0.00     0.131 A 
ENDROOT
BRANCH   6  18
ATOM     18  O   UNL     1      12.566   4.911   9.517  1.00  0.00    -0.507 OA
ATOM     19  H   UNL     1      12.050   4.052   9.381  1.00  0.00     0.293 HD
ENDBRANCH   6  18
BRANCH  17  20
ATOM     20  O   UNL     1      10.536   1.553  12.888  1.00  0.00    -0.507 OA
ATOM     21  H   UNL     1      10.415   1.511  11.886  1.00  0.00     0.293 HD
ENDBRANCH  17  20
BRANCH  15  22
ATOM     22  O   UNL     1       8.126   3.266  16.686  1.00  0.00    -0.508 OA
ATOM     23  H   UNL     1       7.122   3.153  16.609  1.00  0.00     0.293 HD
ENDBRANCH  15  22
TORSDOF 3
ENDMDL
MODEL 4
REMARK VINA RESULT:    -6.574      1.778      6.468
REMARK INTER + INTRA:          -7.151
REMARK INTER:                  -7.151
REMARK INTRA:                   0.000
REMARK UNBOUND:                 0.000
REMARK SMILES Cc1cc(O)c2c(c1)C(=O)c1cc(O)cc(O)c1C2=O
REMARK SMILES IDX 1 1 2 2 8 3 7 4 6 5 4 6 3 7 19 8 20 9 18 10 11 11 9 12 10 13
REMARK SMILES IDX 12 14 13 15 15 16 16 17 5 18 17 20 14 22
REMARK H PARENT 5 19 17 21 14 23
REMARK Flexibility Score: inf
ROOT
ATOM      1  C   UNL     1      11.432   7.503  11.043  1.00  0.00     0.044 C 
ATOM      2  C   UNL     1      11.632   8.991  11.050  1.00  0.00    -0.047 A 
ATOM      3  C   UNL     1      11.143   9.762  12.109  1.00  0.00     0.016 A 
ATOM      4  C   UNL     1      11.350  11.151  12.138  1.00  0.00     0.038 A 
ATOM      5  C   UNL     1      12.061  11.779  11.090  1.00  0.00     0.076 A 
ATOM      6  C   UNL     1      12.627  10.980  10.064  1.00  0.00     0.127 A 
ATOM      7  C   UNL     1      12.389   9.602  10.045  1.00  0.00     0.050 A 
ATOM      8  C   UNL     1      12.132  13.263  11.079  1.00  0.00     0.201 C 
ATOM      9  O   UNL     1      12.212  13.878   9.983  1.00  0.00    -0.288 OA
ATOM     10  C   UNL     1      11.918  14.021  12.340  1.00  0.00     0.076 A 
ATOM     11  C   UNL     1      11.211  13.389  13.387  1.00  0.00     0.041 A 
ATOM     12  C   UNL     1      10.834  11.961  13.267  1.00  0.00     0.194 C 
ATOM     13  O   UNL     1      10.094  11.429  14.140  1.00  0.00    -0.289 OA
ATOM     14  C   UNL     1      10.869  14.119  14.539  1.00  0.00     0.059 A 
ATOM     15  C   UNL     1      11.238  15.458  14.666  1.00  0.00     0.120 A 
ATOM     16  C   UNL     1      11.973  16.075  13.651  1.00  0.00     0.093 A 
ATOM     17  C   UNL     1      12.343  15.366  12.504  1.00  0.00     0.131 A 
ENDROOT
BRANCH   6  18
ATOM     18  O   UNL     1      13.457  11.505   9.070  1.00  0.00    -0.507 OA
ATOM     19  H   UNL     1      14.434  11.264   8.974  1.00  0.00     0.293 HD
ENDBRANCH   6  18
BRANCH  17  20
ATOM     20  O   UNL     1      13.155  16.021  11.575  1.00  0.00    -0.507 OA
ATOM     21  H   UNL     1      13.236  15.740  10.607  1.00  0.00     0.293 HD
ENDBRANCH  17  20
BRANCH  15  22
ATOM     22  O   UNL     1      10.878  16.164  15.812  1.00  0.00    -0.508 OA
ATOM     23  H   UNL     1      10.502  17.103  15.759  1.00  0.00     0.293 HD
ENDBRANCH  15  22
TORSDOF 3
ENDMDL
MODEL 5
REMARK VINA RESULT:    -6.521      3.744      7.818
REMARK INTER + INTRA:          -7.093
REMARK INTER:                  -7.093
REMARK INTRA:                   0.000
REMARK UNBOUND:                 0.000
REMARK SMILES Cc1cc(O)c2c(c1)C(=O)c1cc(O)cc(O)c1C2=O
REMARK SMILES IDX 1 1 2 2 8 3 7 4 6 5 4 6 3 7 19 8 20 9 18 10 11 11 9 12 10 13
REMARK SMILES IDX 12 14 13 15 15 16 16 17 5 18 17 20 14 22
REMARK H PARENT 5 19 17 21 14 23
REMARK Flexibility Score: inf
ROOT
ATOM      1  C   UNL     1       9.511   3.458  17.460  1.00  0.00     0.044 C 
ATOM      2  C   UNL     1       9.959   3.702  16.048  1.00  0.00    -0.047 A 
ATOM      3  C   UNL     1       9.961   4.999  15.525  1.00  0.00     0.016 A 
ATOM      4  C   UNL     1      10.406   5.240  14.214  1.00  0.00     0.038 A 
ATOM      5  C   UNL     1      10.856   4.166  13.415  1.00  0.00     0.076 A 
ATOM      6  C   UNL     1      10.930   2.867  13.980  1.00  0.00     0.127 A 
ATOM      7  C   UNL     1      10.463   2.648  15.280  1.00  0.00     0.050 A 
ATOM      8  C   UNL     1      11.177   4.437  11.989  1.00  0.00     0.201 C 
ATOM      9  O   UNL     1      11.021   3.530  11.129  1.00  0.00    -0.288 OA
ATOM     10  C   UNL     1      11.497   5.822  11.555  1.00  0.00     0.076 A 
ATOM     11  C   UNL     1      11.048   6.894  12.359  1.00  0.00     0.041 A 
ATOM     12  C   UNL     1      10.411   6.619  13.668  1.00  0.00     0.194 C 
ATOM     13  O   UNL     1       9.896   7.562  14.330  1.00  0.00    -0.289 OA
ATOM     14  C   UNL     1      11.211   8.217  11.913  1.00  0.00     0.059 A 
ATOM     15  C   UNL     1      11.828   8.483  10.691  1.00  0.00     0.120 A 
ATOM     16  C   UNL     1      12.309   7.429   9.912  1.00  0.00     0.093 A 
ATOM     17  C   UNL     1      12.178   6.104  10.342  1.00  0.00     0.131 A 
ENDROOT
BRANCH   6  18
ATOM     18  O   UNL     1      11.492   1.781  13.304  1.00  0.00    -0.507 OA
ATOM     19  H   UNL     1      11.340   1.595  12.323  1.00  0.00     0.293 HD
ENDBRANCH   6  18
BRANCH  17  20
ATOM     20  O   UNL     1      12.765   5.110   9.556  1.00  0.00    -0.507 OA
ATOM     21  H   UNL     1      12.808   4.137   9.826  1.00  0.00     0.293 HD
ENDBRANCH  17  20
BRANCH  15  22
ATOM     22  O   UNL     1      11.966   9.802  10.265  1.00  0.00    -0.508 OA
ATOM     23  H   UNL     1      11.228  10.483  10.400  1.00  0.00     0.293 HD
ENDBRANCH  15  22
TORSDOF 3
ENDMDL
MODEL 6
REMARK VINA RESULT:    -6.507      5.016      7.798
REMARK INTER + INTRA:          -7.078
REMARK INTER:                  -7.078
REMARK INTRA:                   0.000
REMARK UNBOUND:                 0.000
REMARK SMILES Cc1cc(O)c2c(c1)C(=O)c1cc(O)cc(O)c1C2=O
REMARK SMILES IDX 1 1 2 2 8 3 7 4 6 5 4 6 3 7 19 8 20 9 18 10 11 11 9 12 10 13
REMARK SMILES IDX 12 14 13 15 15 16 16 17 5 18 17 20 14 22
REMARK H PARENT 5 19 17 21 14 23
REMARK Flexibility Score: inf
ROOT
ATOM      1  C   UNL     1       9.567   7.414  15.584  1.00  0.00     0.044 C 
ATOM      2  C   UNL     1      10.181   6.643  14.451  1.00  0.00    -0.047 A 
ATOM      3  C   UNL     1      10.358   5.259  14.556  1.00  0.00     0.016 A 
ATOM      4  C   UNL     1      10.906   4.525  13.490  1.00  0.00     0.038 A 
ATOM      5  C   UNL     1      11.281   5.188  12.300  1.00  0.00     0.076 A 
ATOM      6  C   UNL     1      11.021   6.576  12.169  1.00  0.00     0.127 A 
ATOM      7  C   UNL     1      10.494   7.288  13.251  1.00  0.00     0.050 A 
ATOM      8  C   UNL     1      11.991   4.405  11.255  1.00  0.00     0.201 C 
ATOM      9  O   UNL     1      12.818   4.978  10.497  1.00  0.00    -0.288 OA
ATOM     10  C   UNL     1      11.867   2.924  11.229  1.00  0.00     0.076 A 
ATOM     11  C   UNL     1      11.488   2.266  12.421  1.00  0.00     0.041 A 
ATOM     12  C   UNL     1      11.084   3.058  13.606  1.00  0.00     0.194 C 
ATOM     13  O   UNL     1      10.867   2.481  14.707  1.00  0.00    -0.289 OA
ATOM     14  C   UNL     1      11.493   0.861  12.475  1.00  0.00     0.059 A 
ATOM     15  C   UNL     1      11.853   0.110  11.357  1.00  0.00     0.120 A 
ATOM     16  C   UNL     1      12.189   0.756  10.165  1.00  0.00     0.093 A 
ATOM     17  C   UNL     1      12.173   2.152  10.078  1.00  0.00     0.131 A 
ENDROOT
BRANCH   6  18
ATOM     18  O   UNL     1      11.234   7.275  10.978  1.00  0.00    -0.507 OA
ATOM     19  H   UNL     1      11.795   6.921  10.216  1.00  0.00     0.293 HD
ENDBRANCH   6  18
BRANCH  17  20
ATOM     20  O   UNL     1      12.430   2.724   8.830  1.00  0.00    -0.507 OA
ATOM     21  H   UNL     1      13.154   3.410   8.669  1.00  0.00     0.293 HD
ENDBRANCH  17  20
BRANCH  15  22
ATOM     22  O   UNL     1      11.863  -1.281  11.438  1.00  0.00    -0.508 OA
ATOM     23  H   UNL     1      11.219  -1.848  10.899  1.00  0.00     0.293 HD
ENDBRANCH  15  22
TORSDOF 3
ENDMDL
MODEL 7
REMARK VINA RESULT:    -6.405      3.607      6.108
REMARK INTER + INTRA:          -6.967
REMARK INTER:                  -6.967
REMARK INTRA:                   0.000
REMARK UNBOUND:                 0.000
REMARK SMILES Cc1cc(O)c2c(c1)C(=O)c1cc(O)cc(O)c1C2=O
REMARK SMILES IDX 1 1 2 2 8 3 7 4 6 5 4 6 3 7 19 8 20 9 18 10 11 11 9 12 10 13
REMARK SMILES IDX 12 14 13 15 15 16 16 17 5 18 17 20 14 22
REMARK H PARENT 5 19 17 21 14 23
REMARK Flexibility Score: inf
ROOT
ATOM      1  C   UNL     1      11.989   9.612  10.182  1.00  0.00     0.044 C 
ATOM      2  C   UNL     1      11.616   8.412  11.004  1.00  0.00    -0.047 A 
ATOM      3  C   UNL     1      11.927   7.125  10.552  1.00  0.00     0.016 A 
ATOM      4  C   UNL     1      11.608   5.998  11.328  1.00  0.00     0.038 A 
ATOM      5  C   UNL     1      10.968   6.162  12.577  1.00  0.00     0.076 A 
ATOM      6  C   UNL     1      10.732   7.472  13.066  1.00  0.00     0.127 A 
ATOM      7  C   UNL     1      11.040   8.578  12.268  1.00  0.00     0.050 A 
ATOM      8  C   UNL     1      10.513   4.945  13.298  1.00  0.00     0.201 C 
ATOM      9  O   UNL     1       9.502   5.001  14.047  1.00  0.00    -0.288 OA
ATOM     10  C   UNL     1      11.133   3.629  12.990  1.00  0.00     0.076 A 
ATOM     11  C   UNL     1      11.775   3.470  11.742  1.00  0.00     0.041 A 
ATOM     12  C   UNL     1      11.946   4.638  10.845  1.00  0.00     0.194 C 
ATOM     13  O   UNL     1      12.404   4.477   9.680  1.00  0.00    -0.289 OA
ATOM     14  C   UNL     1      12.252   2.205  11.358  1.00  0.00     0.059 A 
ATOM     15  C   UNL     1      12.112   1.107  12.205  1.00  0.00     0.120 A 
ATOM     16  C   UNL     1      11.514   1.268  13.457  1.00  0.00     0.093 A 
ATOM     17  C   UNL     1      11.050   2.520  13.872  1.00  0.00     0.131 A 
ENDROOT
BRANCH   6  18
ATOM     18  O   UNL     1      10.232   7.720  14.347  1.00  0.00    -0.507 OA
ATOM     19  H   UNL     1       9.598   7.099  14.829  1.00  0.00     0.293 HD
ENDBRANCH   6  18
BRANCH  17  20
ATOM     20  O   UNL     1      10.548   2.624  15.172  1.00  0.00    -0.507 OA
ATOM     21  H   UNL     1       9.634   2.995  15.389  1.00  0.00     0.293 HD
ENDBRANCH  17  20
BRANCH  15  22
ATOM     22  O   UNL     1      12.581  -0.140  11.797  1.00  0.00    -0.508 OA
ATOM     23  H   UNL     1      12.417  -0.974  12.349  1.00  0.00     0.293 HD
ENDBRANCH  15  22
TORSDOF 3
ENDMDL
MODEL 8
REMARK VINA RESULT:    -6.275      5.786      9.723
REMARK INTER + INTRA:          -6.825
REMARK INTER:                  -6.825
REMARK INTRA:                   0.000
REMARK UNBOUND:                 0.000
REMARK SMILES Cc1cc(O)c2c(c1)C(=O)c1cc(O)cc(O)c1C2=O
REMARK SMILES IDX 1 1 2 2 8 3 7 4 6 5 4 6 3 7 19 8 20 9 18 10 11 11 9 12 10 13
REMARK SMILES IDX 12 14 13 15 15 16 16 17 5 18 17 20 14 22
REMARK H PARENT 5 19 17 21 14 23
REMARK Flexibility Score: inf
ROOT
ATOM      1  C   UNL     1      10.335   1.263  18.532  1.00  0.00     0.044 C 
ATOM      2  C   UNL     1      10.839   1.461  17.131  1.00  0.00    -0.047 A 
ATOM      3  C   UNL     1      10.456   2.589  16.399  1.00  0.00     0.016 A 
ATOM      4  C   UNL     1      10.945   2.798  15.098  1.00  0.00     0.038 A 
ATOM      5  C   UNL     1      11.832   1.861  14.522  1.00  0.00     0.076 A 
ATOM      6  C   UNL     1      12.281   0.764  15.300  1.00  0.00     0.127 A 
ATOM      7  C   UNL     1      11.765   0.567  16.585  1.00  0.00     0.050 A 
ATOM      8  C   UNL     1      12.209   2.037  13.095  1.00  0.00     0.201 C 
ATOM      9  O   UNL     1      12.481   1.029  12.390  1.00  0.00    -0.288 OA
ATOM     10  C   UNL     1      12.081   3.373  12.457  1.00  0.00     0.076 A 
ATOM     11  C   UNL     1      11.196   4.308  13.039  1.00  0.00     0.041 A 
ATOM     12  C   UNL     1      10.540   4.000  14.331  1.00  0.00     0.194 C 
ATOM     13  O   UNL     1       9.655   4.773  14.790  1.00  0.00    -0.289 OA
ATOM     14  C   UNL     1      10.944   5.529  12.389  1.00  0.00     0.059 A 
ATOM     15  C   UNL     1      11.574   5.834  11.183  1.00  0.00     0.120 A 
ATOM     16  C   UNL     1      12.481   4.930  10.625  1.00  0.00     0.093 A 
ATOM     17  C   UNL     1      12.764   3.717  11.261  1.00  0.00     0.131 A 
ENDROOT
BRANCH   6  18
ATOM     18  O   UNL     1      13.260  -0.127  14.855  1.00  0.00    -0.507 OA
ATOM     19  H   UNL     1      13.569  -0.182  13.894  1.00  0.00     0.293 HD
ENDBRANCH   6  18
BRANCH  17  20
ATOM     20  O   UNL     1      13.749   2.905  10.692  1.00  0.00    -0.507 OA
ATOM     21  H   UNL     1      13.761   2.642   9.717  1.00  0.00     0.293 HD
ENDBRANCH  17  20
BRANCH  15  22
ATOM     22  O   UNL     1      11.299   7.045  10.551  1.00  0.00    -0.508 OA
ATOM     23  H   UNL     1      11.845   7.366   9.760  1.00  0.00     0.293 HD
ENDBRANCH  15  22
TORSDOF 3
ENDMDL
MODEL 9
REMARK VINA RESULT:    -6.230      4.538      9.494
REMARK INTER + INTRA:          -6.776
REMARK INTER:                  -6.776
REMARK INTRA:                   0.000
REMARK UNBOUND:                 0.000
REMARK SMILES Cc1cc(O)c2c(c1)C(=O)c1cc(O)cc(O)c1C2=O
REMARK SMILES IDX 1 1 2 2 8 3 7 4 6 5 4 6 3 7 19 8 20 9 18 10 11 11 9 12 10 13
REMARK SMILES IDX 12 14 13 15 15 16 16 17 5 18 17 20 14 22
REMARK H PARENT 5 19 17 21 14 23
REMARK Flexibility Score: inf
ROOT
ATOM      1  C   UNL     1      10.996  -0.724  15.235  1.00  0.00     0.044 C 
ATOM      2  C   UNL     1      11.264   0.299  14.169  1.00  0.00    -0.047 A 
ATOM      3  C   UNL     1      10.841   1.621  14.341  1.00  0.00     0.016 A 
ATOM      4  C   UNL     1      11.112   2.592  13.362  1.00  0.00     0.038 A 
ATOM      5  C   UNL     1      11.819   2.233  12.193  1.00  0.00     0.076 A 
ATOM      6  C   UNL     1      12.318   0.912  12.064  1.00  0.00     0.127 A 
ATOM      7  C   UNL     1      12.019  -0.042  13.042  1.00  0.00     0.050 A 
ATOM      8  C   UNL     1      11.957   3.248  11.116  1.00  0.00     0.201 C 
ATOM      9  O   UNL     1      12.034   2.880   9.914  1.00  0.00    -0.288 OA
ATOM     10  C   UNL     1      11.815   4.692  11.440  1.00  0.00     0.076 A 
ATOM     11  C   UNL     1      11.109   5.046  12.612  1.00  0.00     0.041 A 
ATOM     12  C   UNL     1      10.665   3.993  13.554  1.00  0.00     0.194 C 
ATOM     13  O   UNL     1       9.928   4.292  14.534  1.00  0.00    -0.289 OA
ATOM     14  C   UNL     1      10.835   6.399  12.880  1.00  0.00     0.059 A 
ATOM     15  C   UNL     1      11.268   7.397  12.008  1.00  0.00     0.120 A 
ATOM     16  C   UNL     1      12.000   7.054  10.869  1.00  0.00     0.093 A 
ATOM     17  C   UNL     1      12.304   5.718  10.590  1.00  0.00     0.131 A 
ENDROOT
BRANCH   6  18
ATOM     18  O   UNL     1      13.143   0.516  11.008  1.00  0.00    -0.507 OA
ATOM     19  H   UNL     1      12.860  -0.143  10.296  1.00  0.00     0.293 HD
ENDBRANCH   6  18
BRANCH  17  20
ATOM     20  O   UNL     1      13.118   5.459   9.484  1.00  0.00    -0.507 OA
ATOM     21  H   UNL     1      12.879   4.800   8.757  1.00  0.00     0.293 HD
ENDBRANCH  17  20
BRANCH  15  22
ATOM     22  O   UNL     1      10.973   8.730  12.288  1.00  0.00    -0.508 OA
ATOM     23  H   UNL     1      11.037   9.447  11.576  1.00  0.00     0.293 HD
ENDBRANCH  15  22
TORSDOF 3
ENDMDL
