MODEL 1
REMARK VINA RESULT:    -6.493      0.000      0.000
REMARK INTER + INTRA:          -7.278
REMARK INTER:                  -7.062
REMARK INTRA:                  -0.216
REMARK UNBOUND:                -0.216
REMARK SMILES CC(=O)[C@@H]1CC[C@H]2[C@H]3CC=C4C[C@H](O)CC[C@@]4(C)[C@@H]3CC[C@]12C
REMARK SMILES IDX 4 1 5 2 6 3 7 4 22 5 21 6 20 7 19 8 8 9 9 10 10 11 11 12
REMARK SMILES IDX 17 13 16 14 15 15 13 16 12 17 18 18 23 19 2 20 1 21 3 22
REMARK SMILES IDX 14 23
REMARK H PARENT 14 24
REMARK Flexibility Score: inf
ROOT
ATOM      1  C   UNL     1     177.726 174.223 188.126  1.00  0.00     0.062 C 
ATOM      2  C   UNL     1     179.073 174.336 188.890  1.00  0.00     0.012 C 
ATOM      3  C   UNL     1     179.821 173.004 188.701  1.00  0.00     0.005 C 
ATOM      4  C   UNL     1     178.995 172.246 187.669  1.00  0.00    -0.001 C 
ATOM      5  C   UNL     1     177.541 172.692 187.869  1.00  0.00    -0.020 C 
ATOM      6  C   UNL     1     176.686 172.266 186.617  1.00  0.00     0.008 C 
ATOM      7  C   UNL     1     177.261 171.046 185.835  1.00  0.00     0.005 C 
ATOM      8  C   UNL     1     177.998 170.050 186.768  1.00  0.00     0.003 C 
ATOM      9  C   UNL     1     179.223 170.724 187.446  1.00  0.00     0.000 C 
ATOM     10  C   UNL     1     179.621 169.894 188.669  1.00  0.00     0.031 C 
ATOM     11  C   UNL     1     179.792 168.439 188.286  1.00  0.00    -0.027 C 
ATOM     12  C   UNL     1     179.215 167.863 187.196  1.00  0.00    -0.065 C 
ATOM     13  C   UNL     1     178.398 168.661 186.155  1.00  0.00    -0.008 C 
ATOM     14  C   UNL     1     177.102 167.853 185.819  1.00  0.00     0.014 C 
ATOM     15  C   UNL     1     177.354 166.365 185.525  1.00  0.00     0.033 C 
ATOM     16  C   UNL     1     178.101 165.685 186.682  1.00  0.00     0.118 C 
ATOM     17  C   UNL     1     179.436 166.385 186.949  1.00  0.00     0.063 C 
ATOM     18  C   UNL     1     179.239 168.834 184.863  1.00  0.00     0.016 C 
ATOM     19  C   UNL     1     176.900 172.102 189.166  1.00  0.00     0.012 C 
ENDROOT
BRANCH   1  20
ATOM     20  C   UNL     1     177.673 175.110 186.885  1.00  0.00     0.133 C 
ATOM     21  C   UNL     1     176.431 175.815 186.406  1.00  0.00     0.088 C 
ATOM     22  O   UNL     1     178.706 175.289 186.257  1.00  0.00    -0.300 OA
ENDBRANCH   1  20
BRANCH  16  23
ATOM     23  O   UNL     1     178.345 164.339 186.368  1.00  0.00    -0.393 OA
ATOM     24  H   UNL     1     177.738 163.797 186.937  1.00  0.00     0.210 HD
ENDBRANCH  16  23
TORSDOF 2
ENDMDL
MODEL 2
REMARK VINA RESULT:    -6.379      7.578     11.448
REMARK INTER + INTRA:          -7.155
REMARK INTER:                  -6.961
REMARK INTRA:                  -0.194
REMARK UNBOUND:                -0.216
REMARK SMILES CC(=O)[C@@H]1CC[C@H]2[C@H]3CC=C4C[C@H](O)CC[C@@]4(C)[C@@H]3CC[C@]12C
REMARK SMILES IDX 4 1 5 2 6 3 7 4 22 5 21 6 20 7 19 8 8 9 9 10 10 11 11 12
REMARK SMILES IDX 17 13 16 14 15 15 13 16 12 17 18 18 23 19 2 20 1 21 3 22
REMARK SMILES IDX 14 23
REMARK H PARENT 14 24
REMARK Flexibility Score: inf
ROOT
ATOM      1  C   UNL     1     167.117 178.245 188.661  1.00  0.00     0.062 C 
ATOM      2  C   UNL     1     167.301 179.651 189.295  1.00  0.00     0.012 C 
ATOM      3  C   UNL     1     168.733 180.116 188.971  1.00  0.00     0.005 C 
ATOM      4  C   UNL     1     169.259 179.075 187.990  1.00  0.00    -0.001 C 
ATOM      5  C   UNL     1     168.568 177.754 188.352  1.00  0.00    -0.020 C 
ATOM      6  C   UNL     1     168.749 176.728 187.171  1.00  0.00     0.008 C 
ATOM      7  C   UNL     1     170.001 176.993 186.279  1.00  0.00     0.005 C 
ATOM      8  C   UNL     1     171.173 177.608 187.088  1.00  0.00     0.003 C 
ATOM      9  C   UNL     1     170.779 178.993 187.674  1.00  0.00     0.000 C 
ATOM     10  C   UNL     1     171.745 179.333 188.811  1.00  0.00     0.031 C 
ATOM     11  C   UNL     1     173.179 179.193 188.346  1.00  0.00    -0.027 C 
ATOM     12  C   UNL     1     173.568 178.426 187.291  1.00  0.00    -0.065 C 
ATOM     13  C   UNL     1     172.569 177.685 186.374  1.00  0.00    -0.008 C 
ATOM     14  C   UNL     1     173.103 176.236 186.128  1.00  0.00     0.014 C 
ATOM     15  C   UNL     1     174.590 176.177 185.741  1.00  0.00     0.033 C 
ATOM     16  C   UNL     1     175.469 176.881 186.786  1.00  0.00     0.118 C 
ATOM     17  C   UNL     1     175.043 178.342 186.954  1.00  0.00     0.063 C 
ATOM     18  C   UNL     1     172.470 178.428 185.015  1.00  0.00     0.016 C 
ATOM     19  C   UNL     1     169.114 177.129 189.676  1.00  0.00     0.012 C 
ENDROOT
BRANCH   1  20
ATOM     20  C   UNL     1     166.157 178.252 187.474  1.00  0.00     0.133 C 
ATOM     21  C   UNL     1     165.031 177.267 187.297  1.00  0.00     0.088 C 
ATOM     22  O   UNL     1     166.285 179.128 186.632  1.00  0.00    -0.300 OA
ENDBRANCH   1  20
BRANCH  16  23
ATOM     23  O   UNL     1     176.813 176.839 186.386  1.00  0.00    -0.393 OA
ATOM     24  H   UNL     1     176.817 176.849 185.393  1.00  0.00     0.210 HD
ENDBRANCH  16  23
TORSDOF 2
ENDMDL
MODEL 3
REMARK VINA RESULT:    -6.256      7.034     11.595
REMARK INTER + INTRA:          -7.021
REMARK INTER:                  -6.847
REMARK INTRA:                  -0.174
REMARK UNBOUND:                -0.216
REMARK SMILES CC(=O)[C@@H]1CC[C@H]2[C@H]3CC=C4C[C@H](O)CC[C@@]4(C)[C@@H]3CC[C@]12C
REMARK SMILES IDX 4 1 5 2 6 3 7 4 22 5 21 6 20 7 19 8 8 9 9 10 10 11 11 12
REMARK SMILES IDX 17 13 16 14 15 15 13 16 12 17 18 18 23 19 2 20 1 21 3 22
REMARK SMILES IDX 14 23
REMARK H PARENT 14 24
REMARK Flexibility Score: inf
ROOT
ATOM      1  C   UNL     1     174.942 178.114 186.754  1.00  0.00     0.062 C 
ATOM      2  C   UNL     1     175.284 179.382 187.582  1.00  0.00     0.012 C 
ATOM      3  C   UNL     1     174.022 179.764 188.378  1.00  0.00     0.005 C 
ATOM      4  C   UNL     1     173.066 178.598 188.160  1.00  0.00    -0.001 C 
ATOM      5  C   UNL     1     173.380 178.039 186.766  1.00  0.00    -0.020 C 
ATOM      6  C   UNL     1     172.722 176.616 186.611  1.00  0.00     0.008 C 
ATOM      7  C   UNL     1     171.484 176.382 187.529  1.00  0.00     0.005 C 
ATOM      8  C   UNL     1     170.687 177.689 187.779  1.00  0.00     0.003 C 
ATOM      9  C   UNL     1     171.560 178.740 188.519  1.00  0.00     0.000 C 
ATOM     10  C   UNL     1     170.927 180.120 188.329  1.00  0.00     0.031 C 
ATOM     11  C   UNL     1     169.462 180.087 188.711  1.00  0.00    -0.027 C 
ATOM     12  C   UNL     1     168.704 178.956 188.732  1.00  0.00    -0.065 C 
ATOM     13  C   UNL     1     169.284 177.548 188.469  1.00  0.00    -0.008 C 
ATOM     14  C   UNL     1     168.312 176.785 187.511  1.00  0.00     0.014 C 
ATOM     15  C   UNL     1     166.834 176.871 187.924  1.00  0.00     0.033 C 
ATOM     16  C   UNL     1     166.377 178.330 188.067  1.00  0.00     0.118 C 
ATOM     17  C   UNL     1     167.238 179.067 189.096  1.00  0.00     0.063 C 
ATOM     18  C   UNL     1     169.388 176.775 189.810  1.00  0.00     0.016 C 
ATOM     19  C   UNL     1     172.885 178.972 185.614  1.00  0.00     0.012 C 
ENDROOT
BRANCH   1  20
ATOM     20  C   UNL     1     175.664 176.866 187.256  1.00  0.00     0.133 C 
ATOM     21  C   UNL     1     175.992 175.678 186.391  1.00  0.00     0.088 C 
ATOM     22  O   UNL     1     176.031 176.840 188.422  1.00  0.00    -0.300 OA
ENDBRANCH   1  20
BRANCH  16  23
ATOM     23  O   UNL     1     165.036 178.373 188.478  1.00  0.00    -0.393 OA
ATOM     24  H   UNL     1     164.482 178.338 187.654  1.00  0.00     0.210 HD
ENDBRANCH  16  23
TORSDOF 2
ENDMDL
MODEL 4
REMARK VINA RESULT:    -6.027      3.871      5.860
REMARK INTER + INTRA:          -6.771
REMARK INTER:                  -6.552
REMARK INTRA:                  -0.219
REMARK UNBOUND:                -0.216
REMARK SMILES CC(=O)[C@@H]1CC[C@H]2[C@H]3CC=C4C[C@H](O)CC[C@@]4(C)[C@@H]3CC[C@]12C
REMARK SMILES IDX 4 1 5 2 6 3 7 4 22 5 21 6 20 7 19 8 8 9 9 10 10 11 11 12
REMARK SMILES IDX 17 13 16 14 15 15 13 16 12 17 18 18 23 19 2 20 1 21 3 22
REMARK SMILES IDX 14 23
REMARK H PARENT 14 24
REMARK Flexibility Score: inf
ROOT
ATOM      1  C   UNL     1     178.375 172.738 188.389  1.00  0.00     0.062 C 
ATOM      2  C   UNL     1     179.489 171.662 188.507  1.00  0.00     0.012 C 
ATOM      3  C   UNL     1     180.125 171.505 187.113  1.00  0.00     0.005 C 
ATOM      4  C   UNL     1     179.517 172.633 186.287  1.00  0.00    -0.001 C 
ATOM      5  C   UNL     1     178.111 172.871 186.854  1.00  0.00    -0.020 C 
ATOM      6  C   UNL     1     177.563 174.251 186.331  1.00  0.00     0.008 C 
ATOM      7  C   UNL     1     178.194 174.721 184.984  1.00  0.00     0.005 C 
ATOM      8  C   UNL     1     178.568 173.527 184.067  1.00  0.00     0.003 C 
ATOM      9  C   UNL     1     179.642 172.626 184.738  1.00  0.00     0.000 C 
ATOM     10  C   UNL     1     179.633 171.261 184.046  1.00  0.00     0.031 C 
ATOM     11  C   UNL     1     179.751 171.429 182.546  1.00  0.00    -0.027 C 
ATOM     12  C   UNL     1     179.415 172.565 181.876  1.00  0.00    -0.065 C 
ATOM     13  C   UNL     1     178.971 173.863 182.588  1.00  0.00    -0.008 C 
ATOM     14  C   UNL     1     177.729 174.441 181.834  1.00  0.00     0.014 C 
ATOM     15  C   UNL     1     177.898 174.499 180.307  1.00  0.00     0.033 C 
ATOM     16  C   UNL     1     178.257 173.121 179.731  1.00  0.00     0.118 C 
ATOM     17  C   UNL     1     179.543 172.589 180.367  1.00  0.00     0.063 C 
ATOM     18  C   UNL     1     180.125 174.899 182.537  1.00  0.00     0.016 C 
ATOM     19  C   UNL     1     177.107 171.733 186.479  1.00  0.00     0.012 C 
ENDROOT
BRANCH   1  20
ATOM     20  C   UNL     1     178.726 174.035 189.111  1.00  0.00     0.133 C 
ATOM     21  C   UNL     1     177.725 174.887 189.847  1.00  0.00     0.088 C 
ATOM     22  O   UNL     1     179.896 174.392 189.125  1.00  0.00    -0.300 OA
ENDBRANCH   1  20
BRANCH  16  23
ATOM     23  O   UNL     1     178.439 173.217 178.342  1.00  0.00    -0.393 OA
ATOM     24  H   UNL     1     179.127 173.917 178.190  1.00  0.00     0.210 HD
ENDBRANCH  16  23
TORSDOF 2
ENDMDL
MODEL 5
REMARK VINA RESULT:    -5.989     15.030     17.806
REMARK INTER + INTRA:          -6.730
REMARK INTER:                  -6.465
REMARK INTRA:                  -0.265
REMARK UNBOUND:                -0.216
REMARK SMILES CC(=O)[C@@H]1CC[C@H]2[C@H]3CC=C4C[C@H](O)CC[C@@]4(C)[C@@H]3CC[C@]12C
REMARK SMILES IDX 4 1 5 2 6 3 7 4 22 5 21 6 20 7 19 8 8 9 9 10 10 11 11 12
REMARK SMILES IDX 17 13 16 14 15 15 13 16 12 17 18 18 23 19 2 20 1 21 3 22
REMARK SMILES IDX 14 23
REMARK H PARENT 14 24
REMARK Flexibility Score: inf
ROOT
ATOM      1  C   UNL     1     161.980 169.085 188.825  1.00  0.00     0.062 C 
ATOM      2  C   UNL     1     160.430 168.990 188.849  1.00  0.00     0.012 C 
ATOM      3  C   UNL     1     159.879 170.355 188.400  1.00  0.00     0.005 C 
ATOM      4  C   UNL     1     161.106 171.126 187.928  1.00  0.00    -0.001 C 
ATOM      5  C   UNL     1     162.283 170.618 188.771  1.00  0.00    -0.020 C 
ATOM      6  C   UNL     1     163.637 171.065 188.102  1.00  0.00     0.008 C 
ATOM      7  C   UNL     1     163.520 172.337 187.208  1.00  0.00     0.005 C 
ATOM      8  C   UNL     1     162.439 173.320 187.731  1.00  0.00     0.003 C 
ATOM      9  C   UNL     1     161.031 172.663 187.707  1.00  0.00     0.000 C 
ATOM     10  C   UNL     1     160.108 173.454 188.636  1.00  0.00     0.031 C 
ATOM     11  C   UNL     1     160.158 174.929 188.298  1.00  0.00    -0.027 C 
ATOM     12  C   UNL     1     161.192 175.529 187.647  1.00  0.00    -0.065 C 
ATOM     13  C   UNL     1     162.397 174.746 187.079  1.00  0.00    -0.008 C 
ATOM     14  C   UNL     1     163.706 175.520 187.444  1.00  0.00     0.014 C 
ATOM     15  C   UNL     1     163.643 177.027 187.148  1.00  0.00     0.033 C 
ATOM     16  C   UNL     1     162.443 177.685 187.845  1.00  0.00     0.118 C 
ATOM     17  C   UNL     1     161.134 177.023 187.406  1.00  0.00     0.063 C 
ATOM     18  C   UNL     1     162.272 174.659 185.534  1.00  0.00     0.016 C 
ATOM     19  C   UNL     1     162.236 171.129 190.247  1.00  0.00     0.012 C 
ENDROOT
BRANCH   1  20
ATOM     20  C   UNL     1     162.608 168.251 187.712  1.00  0.00     0.133 C 
ATOM     21  C   UNL     1     162.113 168.237 186.289  1.00  0.00     0.088 C 
ATOM     22  O   UNL     1     163.593 167.578 187.978  1.00  0.00    -0.300 OA
ENDBRANCH   1  20
BRANCH  16  23
ATOM     23  O   UNL     1     162.395 179.051 187.526  1.00  0.00    -0.393 OA
ATOM     24  H   UNL     1     162.047 179.521 188.329  1.00  0.00     0.210 HD
ENDBRANCH  16  23
TORSDOF 2
ENDMDL
MODEL 6
REMARK VINA RESULT:    -5.863     17.524     18.961
REMARK INTER + INTRA:          -6.594
REMARK INTER:                  -6.324
REMARK INTRA:                  -0.270
REMARK UNBOUND:                -0.216
REMARK SMILES CC(=O)[C@@H]1CC[C@H]2[C@H]3CC=C4C[C@H](O)CC[C@@]4(C)[C@@H]3CC[C@]12C
REMARK SMILES IDX 4 1 5 2 6 3 7 4 22 5 21 6 20 7 19 8 8 9 9 10 10 11 11 12
REMARK SMILES IDX 17 13 16 14 15 15 13 16 12 17 18 18 23 19 2 20 1 21 3 22
REMARK SMILES IDX 14 23
REMARK H PARENT 14 24
REMARK Flexibility Score: inf
ROOT
ATOM      1  C   UNL     1     161.111 162.317 187.438  1.00  0.00     0.062 C 
ATOM      2  C   UNL     1     162.358 161.586 188.005  1.00  0.00     0.012 C 
ATOM      3  C   UNL     1     163.272 161.246 186.813  1.00  0.00     0.005 C 
ATOM      4  C   UNL     1     162.641 161.971 185.630  1.00  0.00    -0.001 C 
ATOM      5  C   UNL     1     161.132 162.011 185.905  1.00  0.00    -0.020 C 
ATOM      6  C   UNL     1     160.453 163.061 184.948  1.00  0.00     0.008 C 
ATOM      7  C   UNL     1     161.237 163.322 183.626  1.00  0.00     0.005 C 
ATOM      8  C   UNL     1     161.996 162.060 183.139  1.00  0.00     0.003 C 
ATOM      9  C   UNL     1     163.065 161.617 184.177  1.00  0.00     0.000 C 
ATOM     10  C   UNL     1     163.442 160.161 183.897  1.00  0.00     0.031 C 
ATOM     11  C   UNL     1     163.818 159.983 182.441  1.00  0.00    -0.027 C 
ATOM     12  C   UNL     1     163.416 160.815 181.441  1.00  0.00    -0.065 C 
ATOM     13  C   UNL     1     162.612 162.110 181.696  1.00  0.00    -0.008 C 
ATOM     14  C   UNL     1     161.457 162.189 180.645  1.00  0.00     0.014 C 
ATOM     15  C   UNL     1     161.907 161.913 179.201  1.00  0.00     0.033 C 
ATOM     16  C   UNL     1     162.618 160.556 179.086  1.00  0.00     0.118 C 
ATOM     17  C   UNL     1     163.831 160.501 180.019  1.00  0.00     0.063 C 
ATOM     18  C   UNL     1     163.543 163.339 181.520  1.00  0.00     0.016 C 
ATOM     19  C   UNL     1     160.446 160.618 185.724  1.00  0.00     0.012 C 
ENDROOT
BRANCH   1  20
ATOM     20  C   UNL     1     161.070 163.796 187.813  1.00  0.00     0.133 C 
ATOM     21  C   UNL     1     162.271 164.705 187.786  1.00  0.00     0.088 C 
ATOM     22  O   UNL     1     159.993 164.286 188.121  1.00  0.00    -0.300 OA
ENDBRANCH   1  20
BRANCH  16  23
ATOM     23  O   UNL     1     163.047 160.351 177.765  1.00  0.00    -0.393 OA
ATOM     24  H   UNL     1     163.947 160.765 177.689  1.00  0.00     0.210 HD
ENDBRANCH  16  23
TORSDOF 2
ENDMDL
MODEL 7
REMARK VINA RESULT:    -5.733     15.620     17.744
REMARK INTER + INTRA:          -6.452
REMARK INTER:                  -6.190
REMARK INTRA:                  -0.262
REMARK UNBOUND:                -0.216
REMARK SMILES CC(=O)[C@@H]1CC[C@H]2[C@H]3CC=C4C[C@H](O)CC[C@@]4(C)[C@@H]3CC[C@]12C
REMARK SMILES IDX 4 1 5 2 6 3 7 4 22 5 21 6 20 7 19 8 8 9 9 10 10 11 11 12
REMARK SMILES IDX 17 13 16 14 15 15 13 16 12 17 18 18 23 19 2 20 1 21 3 22
REMARK SMILES IDX 14 23
REMARK H PARENT 14 24
REMARK Flexibility Score: inf
ROOT
ATOM      1  C   UNL     1     162.133 162.365 188.520  1.00  0.00     0.062 C 
ATOM      2  C   UNL     1     162.986 163.624 188.833  1.00  0.00     0.012 C 
ATOM      3  C   UNL     1     163.726 164.011 187.540  1.00  0.00     0.005 C 
ATOM      4  C   UNL     1     163.124 163.107 186.471  1.00  0.00    -0.001 C 
ATOM      5  C   UNL     1     162.721 161.809 187.182  1.00  0.00    -0.020 C 
ATOM      6  C   UNL     1     161.754 160.982 186.254  1.00  0.00     0.008 C 
ATOM      7  C   UNL     1     161.915 161.282 184.733  1.00  0.00     0.005 C 
ATOM      8  C   UNL     1     163.376 161.650 184.363  1.00  0.00     0.003 C 
ATOM      9  C   UNL     1     163.826 162.946 185.093  1.00  0.00     0.000 C 
ATOM     10  C   UNL     1     165.355 163.007 185.080  1.00  0.00     0.031 C 
ATOM     11  C   UNL     1     165.879 162.824 183.671  1.00  0.00    -0.027 C 
ATOM     12  C   UNL     1     165.185 162.212 182.672  1.00  0.00    -0.065 C 
ATOM     13  C   UNL     1     163.728 161.724 182.835  1.00  0.00    -0.008 C 
ATOM     14  C   UNL     1     163.612 160.295 182.210  1.00  0.00     0.014 C 
ATOM     15  C   UNL     1     164.243 160.173 180.813  1.00  0.00     0.033 C 
ATOM     16  C   UNL     1     165.714 160.614 180.823  1.00  0.00     0.118 C 
ATOM     17  C   UNL     1     165.841 162.058 181.316  1.00  0.00     0.063 C 
ATOM     18  C   UNL     1     162.775 162.688 182.080  1.00  0.00     0.016 C 
ATOM     19  C   UNL     1     163.950 160.926 187.574  1.00  0.00     0.012 C 
ENDROOT
BRANCH   1  20
ATOM     20  C   UNL     1     160.634 162.652 188.510  1.00  0.00     0.133 C 
ATOM     21  C   UNL     1     160.023 163.917 187.966  1.00  0.00     0.088 C 
ATOM     22  O   UNL     1     159.877 161.793 188.936  1.00  0.00    -0.300 OA
ENDBRANCH   1  20
BRANCH  16  23
ATOM     23  O   UNL     1     166.249 160.523 179.528  1.00  0.00    -0.393 OA
ATOM     24  H   UNL     1     166.703 159.642 179.467  1.00  0.00     0.210 HD
ENDBRANCH  16  23
TORSDOF 2
ENDMDL
MODEL 8
REMARK VINA RESULT:    -3.541      8.481     10.687
REMARK INTER + INTRA:          -4.068
REMARK INTER:                  -3.848
REMARK INTRA:                  -0.221
REMARK UNBOUND:                -0.216
REMARK SMILES CC(=O)[C@@H]1CC[C@H]2[C@H]3CC=C4C[C@H](O)CC[C@@]4(C)[C@@H]3CC[C@]12C
REMARK SMILES IDX 4 1 5 2 6 3 7 4 22 5 21 6 20 7 19 8 8 9 9 10 10 11 11 12
REMARK SMILES IDX 17 13 16 14 15 15 13 16 12 17 18 18 23 19 2 20 1 21 3 22
REMARK SMILES IDX 14 23
REMARK H PARENT 14 24
REMARK Flexibility Score: inf
ROOT
ATOM      1  C   UNL     1     175.338 161.932 188.393  1.00  0.00     0.062 C 
ATOM      2  C   UNL     1     174.721 160.511 188.502  1.00  0.00     0.012 C 
ATOM      3  C   UNL     1     174.783 159.875 187.101  1.00  0.00     0.005 C 
ATOM      4  C   UNL     1     175.618 160.847 186.277  1.00  0.00    -0.001 C 
ATOM      5  C   UNL     1     175.355 162.242 186.860  1.00  0.00    -0.020 C 
ATOM      6  C   UNL     1     176.451 163.244 186.337  1.00  0.00     0.008 C 
ATOM      7  C   UNL     1     177.099 162.832 184.979  1.00  0.00     0.005 C 
ATOM      8  C   UNL     1     176.102 162.073 184.064  1.00  0.00     0.003 C 
ATOM      9  C   UNL     1     175.640 160.744 184.726  1.00  0.00     0.000 C 
ATOM     10  C   UNL     1     174.352 160.282 184.041  1.00  0.00     0.031 C 
ATOM     11  C   UNL     1     174.535 160.246 182.539  1.00  0.00    -0.027 C 
ATOM     12  C   UNL     1     175.475 160.966 181.867  1.00  0.00    -0.065 C 
ATOM     13  C   UNL     1     176.543 161.828 182.578  1.00  0.00    -0.008 C 
ATOM     14  C   UNL     1     176.642 163.201 181.837  1.00  0.00     0.014 C 
ATOM     15  C   UNL     1     176.741 163.079 180.308  1.00  0.00     0.033 C 
ATOM     16  C   UNL     1     175.570 162.267 179.734  1.00  0.00     0.118 C 
ATOM     17  C   UNL     1     175.527 160.869 180.356  1.00  0.00     0.063 C 
ATOM     18  C   UNL     1     177.917 161.111 182.506  1.00  0.00     0.016 C 
ATOM     19  C   UNL     1     173.934 162.789 186.505  1.00  0.00     0.012 C 
ENDROOT
BRANCH   1  20
ATOM     20  C   UNL     1     176.683 162.049 189.103  1.00  0.00     0.133 C 
ATOM     21  C   UNL     1     177.128 163.269 189.866  1.00  0.00     0.088 C 
ATOM     22  O   UNL     1     177.435 161.086 189.083  1.00  0.00    -0.300 OA
ENDBRANCH   1  20
BRANCH  16  23
ATOM     23  O   UNL     1     175.709 162.145 178.343  1.00  0.00    -0.393 OA
ATOM     24  H   UNL     1     176.620 161.786 178.177  1.00  0.00     0.210 HD
ENDBRANCH  16  23
TORSDOF 2
ENDMDL
