MODEL 1
REMARK VINA RESULT:    -4.845      0.000      0.000
REMARK INTER + INTRA:         -11.494
REMARK INTER:                  -9.377
REMARK INTRA:                  -2.117
REMARK UNBOUND:                -2.117
REMARK SMILES CCCCCCCCCCCCCCCCCC(=O)[O-]
REMARK SMILES IDX 10 1 11 2 12 3 13 4 14 5 15 6 16 7 17 8 18 9 19 10 20 11
REMARK SMILES IDX 9 12 8 13 7 14 6 15 5 16 4 17 3 18 2 19 1 20
REMARK H PARENT
REMARK Flexibility Score: inf
ROOT
ATOM      1  C   UNL     1      -2.600  10.790  -7.723  1.00  0.00     0.000 C 
ENDROOT
BRANCH   1   2
ATOM      2  C   UNL     1      -2.878  12.171  -8.336  1.00  0.00     0.000 C 
BRANCH   2   3
ATOM      3  C   UNL     1      -4.187  12.798  -7.826  1.00  0.00     0.000 C 
BRANCH   3   4
ATOM      4  C   UNL     1      -5.275  13.006  -8.901  1.00  0.00     0.000 C 
BRANCH   4   5
ATOM      5  C   UNL     1      -6.389  11.946  -8.915  1.00  0.00     0.000 C 
BRANCH   5   6
ATOM      6  C   UNL     1      -6.418  11.127 -10.214  1.00  0.00     0.000 C 
BRANCH   6   7
ATOM      7  C   UNL     1      -5.306  10.068 -10.221  1.00  0.00     0.006 C 
BRANCH   7   8
ATOM      8  C   UNL     1      -5.859   8.645 -10.066  1.00  0.00     0.053 C 
BRANCH   8   9
ATOM      9  C   UNL     1      -4.920   7.621 -10.627  1.00  0.00     0.041 C 
ATOM     10  O   UNL     1      -5.348   6.725 -11.403  1.00  0.00    -0.550 OA
ATOM     11  O   UNL     1      -3.579   7.635 -10.265  1.00  0.00    -0.550 OA
ENDBRANCH   8   9
ENDBRANCH   7   8
ENDBRANCH   6   7
ENDBRANCH   5   6
ENDBRANCH   4   5
ENDBRANCH   3   4
ENDBRANCH   2   3
ENDBRANCH   1   2
BRANCH   1  12
ATOM     12  C   UNL     1      -3.157  10.700  -6.296  1.00  0.00     0.000 C 
BRANCH  12  13
ATOM     13  C   UNL     1      -2.026  10.774  -5.259  1.00  0.00    -0.000 C 
BRANCH  13  14
ATOM     14  C   UNL     1      -1.914  12.159  -4.603  1.00  0.00    -0.000 C 
BRANCH  14  15
ATOM     15  C   UNL     1      -0.466  12.666  -4.531  1.00  0.00    -0.000 C 
BRANCH  15  16
ATOM     16  C   UNL     1       0.032  13.104  -5.916  1.00  0.00    -0.000 C 
BRANCH  16  17
ATOM     17  C   UNL     1       1.171  12.217  -6.444  1.00  0.00    -0.000 C 
BRANCH  17  18
ATOM     18  C   UNL     1       0.908  11.704  -7.871  1.00  0.00    -0.000 C 
BRANCH  18  19
ATOM     19  C   UNL     1       1.216  10.206  -8.024  1.00  0.00    -0.003 C 
ATOM     20  C   UNL     1       2.658   9.942  -8.457  1.00  0.00     0.004 C 
ENDBRANCH  18  19
ENDBRANCH  17  18
ENDBRANCH  16  17
ENDBRANCH  15  16
ENDBRANCH  14  15
ENDBRANCH  13  14
ENDBRANCH  12  13
ENDBRANCH   1  12
TORSDOF 16
ENDMDL
MODEL 2
REMARK VINA RESULT:    -4.796      2.981      6.080
REMARK INTER + INTRA:         -11.400
REMARK INTER:                  -8.868
REMARK INTRA:                  -2.532
REMARK UNBOUND:                -2.117
REMARK SMILES CCCCCCCCCCCCCCCCCC(=O)[O-]
REMARK SMILES IDX 10 1 11 2 12 3 13 4 14 5 15 6 16 7 17 8 18 9 19 10 20 11
REMARK SMILES IDX 9 12 8 13 7 14 6 15 5 16 4 17 3 18 2 19 1 20
REMARK H PARENT
REMARK Flexibility Score: inf
ROOT
ATOM      1  C   UNL     1      -5.511   9.805 -10.034  1.00  0.00     0.000 C 
ENDROOT
BRANCH   1   2
ATOM      2  C   UNL     1      -4.034   9.727 -10.447  1.00  0.00     0.000 C 
BRANCH   2   3
ATOM      3  C   UNL     1      -3.228  10.966 -10.019  1.00  0.00     0.000 C 
BRANCH   3   4
ATOM      4  C   UNL     1      -2.233  10.731  -8.863  1.00  0.00     0.000 C 
BRANCH   4   5
ATOM      5  C   UNL     1      -1.662  12.009  -8.225  1.00  0.00     0.000 C 
BRANCH   5   6
ATOM      6  C   UNL     1      -0.126  12.043  -8.228  1.00  0.00     0.000 C 
BRANCH   6   7
ATOM      7  C   UNL     1       0.450  10.916  -7.358  1.00  0.00     0.006 C 
BRANCH   7   8
ATOM      8  C   UNL     1       1.236   9.889  -8.184  1.00  0.00     0.053 C 
BRANCH   8   9
ATOM      9  C   UNL     1       2.709  10.157  -8.148  1.00  0.00     0.041 C 
ATOM     10  O   UNL     1       3.232  10.692  -7.134  1.00  0.00    -0.550 OA
ATOM     11  O   UNL     1       3.500   9.848  -9.248  1.00  0.00    -0.550 OA
ENDBRANCH   8   9
ENDBRANCH   7   8
ENDBRANCH   6   7
ENDBRANCH   5   6
ENDBRANCH   4   5
ENDBRANCH   3   4
ENDBRANCH   2   3
ENDBRANCH   1   2
BRANCH   1  12
ATOM     12  C   UNL     1      -6.082  11.205 -10.297  1.00  0.00     0.000 C 
BRANCH  12  13
ATOM     13  C   UNL     1      -6.587  11.846  -8.996  1.00  0.00    -0.000 C 
BRANCH  13  14
ATOM     14  C   UNL     1      -5.592  12.858  -8.409  1.00  0.00    -0.000 C 
BRANCH  14  15
ATOM     15  C   UNL     1      -5.142  12.491  -6.987  1.00  0.00    -0.000 C 
BRANCH  15  16
ATOM     16  C   UNL     1      -5.734  11.141  -6.556  1.00  0.00    -0.000 C 
BRANCH  16  17
ATOM     17  C   UNL     1      -4.661  10.055  -6.375  1.00  0.00    -0.000 C 
BRANCH  17  18
ATOM     18  C   UNL     1      -3.979  10.121  -4.997  1.00  0.00    -0.000 C 
BRANCH  18  19
ATOM     19  C   UNL     1      -2.461  10.334  -5.101  1.00  0.00    -0.003 C 
ATOM     20  C   UNL     1      -2.018  11.693  -4.558  1.00  0.00     0.004 C 
ENDBRANCH  18  19
ENDBRANCH  17  18
ENDBRANCH  16  17
ENDBRANCH  15  16
ENDBRANCH  14  15
ENDBRANCH  13  14
ENDBRANCH  12  13
ENDBRANCH   1  12
TORSDOF 16
ENDMDL
MODEL 3
REMARK VINA RESULT:    -4.792      2.933      6.294
REMARK INTER + INTRA:         -11.392
REMARK INTER:                  -8.922
REMARK INTRA:                  -2.470
REMARK UNBOUND:                -2.117
REMARK SMILES CCCCCCCCCCCCCCCCCC(=O)[O-]
REMARK SMILES IDX 10 1 11 2 12 3 13 4 14 5 15 6 16 7 17 8 18 9 19 10 20 11
REMARK SMILES IDX 9 12 8 13 7 14 6 15 5 16 4 17 3 18 2 19 1 20
REMARK H PARENT
REMARK Flexibility Score: inf
ROOT
ATOM      1  C   UNL     1      -5.830   9.638 -10.162  1.00  0.00     0.000 C 
ENDROOT
BRANCH   1   2
ATOM      2  C   UNL     1      -4.514   9.736  -9.376  1.00  0.00     0.000 C 
BRANCH   2   3
ATOM      3  C   UNL     1      -3.441  10.562 -10.108  1.00  0.00     0.000 C 
BRANCH   3   4
ATOM      4  C   UNL     1      -2.722  11.615  -9.240  1.00  0.00     0.000 C 
BRANCH   4   5
ATOM      5  C   UNL     1      -1.614  11.062  -8.327  1.00  0.00     0.000 C 
BRANCH   5   6
ATOM      6  C   UNL     1      -0.829  12.166  -7.604  1.00  0.00     0.000 C 
BRANCH   6   7
ATOM      7  C   UNL     1       0.637  11.755  -7.401  1.00  0.00     0.006 C 
BRANCH   7   8
ATOM      8  C   UNL     1       0.962  10.414  -8.071  1.00  0.00     0.053 C 
BRANCH   8   9
ATOM      9  C   UNL     1       2.440  10.202  -8.201  1.00  0.00     0.041 C 
ATOM     10  O   UNL     1       3.224  10.641  -7.318  1.00  0.00    -0.550 OA
ATOM     11  O   UNL     1       2.954   9.549  -9.314  1.00  0.00    -0.550 OA
ENDBRANCH   8   9
ENDBRANCH   7   8
ENDBRANCH   6   7
ENDBRANCH   5   6
ENDBRANCH   4   5
ENDBRANCH   3   4
ENDBRANCH   2   3
ENDBRANCH   1   2
BRANCH   1  12
ATOM     12  C   UNL     1      -6.547  10.994 -10.204  1.00  0.00     0.000 C 
BRANCH  12  13
ATOM     13  C   UNL     1      -6.708  11.575  -8.791  1.00  0.00    -0.000 C 
BRANCH  13  14
ATOM     14  C   UNL     1      -6.066  12.963  -8.645  1.00  0.00    -0.000 C 
BRANCH  14  15
ATOM     15  C   UNL     1      -5.500  13.211  -7.239  1.00  0.00    -0.000 C 
BRANCH  15  16
ATOM     16  C   UNL     1      -5.629  11.953  -6.367  1.00  0.00    -0.000 C 
BRANCH  16  17
ATOM     17  C   UNL     1      -4.279  11.489  -5.795  1.00  0.00    -0.000 C 
BRANCH  17  18
ATOM     18  C   UNL     1      -4.182   9.957  -5.681  1.00  0.00    -0.000 C 
BRANCH  18  19
ATOM     19  C   UNL     1      -5.503   9.255  -6.030  1.00  0.00    -0.003 C 
ATOM     20  C   UNL     1      -5.798   8.066  -5.117  1.00  0.00     0.004 C 
ENDBRANCH  18  19
ENDBRANCH  17  18
ENDBRANCH  16  17
ENDBRANCH  15  16
ENDBRANCH  14  15
ENDBRANCH  13  14
ENDBRANCH  12  13
ENDBRANCH   1  12
TORSDOF 16
ENDMDL
MODEL 4
REMARK VINA RESULT:    -4.752      2.624      6.921
REMARK INTER + INTRA:         -11.315
REMARK INTER:                  -8.973
REMARK INTRA:                  -2.342
REMARK UNBOUND:                -2.117
REMARK SMILES CCCCCCCCCCCCCCCCCC(=O)[O-]
REMARK SMILES IDX 10 1 11 2 12 3 13 4 14 5 15 6 16 7 17 8 18 9 19 10 20 11
REMARK SMILES IDX 9 12 8 13 7 14 6 15 5 16 4 17 3 18 2 19 1 20
REMARK H PARENT
REMARK Flexibility Score: inf
ROOT
ATOM      1  C   UNL     1      -3.472  10.567  -7.604  1.00  0.00     0.000 C 
ENDROOT
BRANCH   1   2
ATOM      2  C   UNL     1      -2.645  11.023  -6.392  1.00  0.00     0.000 C 
BRANCH   2   3
ATOM      3  C   UNL     1      -3.006  12.444  -5.924  1.00  0.00     0.000 C 
BRANCH   3   4
ATOM      4  C   UNL     1      -2.071  13.558  -6.438  1.00  0.00     0.000 C 
BRANCH   4   5
ATOM      5  C   UNL     1      -0.716  13.074  -6.983  1.00  0.00     0.000 C 
BRANCH   5   6
ATOM      6  C   UNL     1       0.386  13.054  -5.914  1.00  0.00     0.000 C 
BRANCH   6   7
ATOM      7  C   UNL     1       1.166  11.732  -5.953  1.00  0.00     0.006 C 
BRANCH   7   8
ATOM      8  C   UNL     1       0.885  10.929  -7.231  1.00  0.00     0.053 C 
BRANCH   8   9
ATOM      9  C   UNL     1       2.143  10.379  -7.829  1.00  0.00     0.041 C 
ATOM     10  O   UNL     1       2.087   9.569  -8.792  1.00  0.00    -0.550 OA
ATOM     11  O   UNL     1       3.378  10.734  -7.299  1.00  0.00    -0.550 OA
ENDBRANCH   8   9
ENDBRANCH   7   8
ENDBRANCH   6   7
ENDBRANCH   5   6
ENDBRANCH   4   5
ENDBRANCH   3   4
ENDBRANCH   2   3
ENDBRANCH   1   2
BRANCH   1  12
ATOM     12  C   UNL     1      -2.684  10.750  -8.907  1.00  0.00     0.000 C 
BRANCH  12  13
ATOM     13  C   UNL     1      -3.619  10.711 -10.126  1.00  0.00    -0.000 C 
BRANCH  13  14
ATOM     14  C   UNL     1      -4.366   9.375 -10.256  1.00  0.00    -0.000 C 
BRANCH  14  15
ATOM     15  C   UNL     1      -5.892   9.539 -10.192  1.00  0.00    -0.000 C 
BRANCH  15  16
ATOM     16  C   UNL     1      -6.288  11.019 -10.303  1.00  0.00    -0.000 C 
BRANCH  16  17
ATOM     17  C   UNL     1      -6.857  11.579  -8.989  1.00  0.00    -0.000 C 
BRANCH  17  18
ATOM     18  C   UNL     1      -6.200  12.910  -8.581  1.00  0.00    -0.000 C 
BRANCH  18  19
ATOM     19  C   UNL     1      -6.333  13.195  -7.077  1.00  0.00    -0.003 C 
ATOM     20  C   UNL     1      -6.700  11.950  -6.270  1.00  0.00     0.004 C 
ENDBRANCH  18  19
ENDBRANCH  17  18
ENDBRANCH  16  17
ENDBRANCH  15  16
ENDBRANCH  14  15
ENDBRANCH  13  14
ENDBRANCH  12  13
ENDBRANCH   1  12
TORSDOF 16
ENDMDL
MODEL 5
REMARK VINA RESULT:    -4.721      2.416      4.126
REMARK INTER + INTRA:         -11.254
REMARK INTER:                  -8.647
REMARK INTRA:                  -2.607
REMARK UNBOUND:                -2.117
REMARK SMILES CCCCCCCCCCCCCCCCCC(=O)[O-]
REMARK SMILES IDX 10 1 11 2 12 3 13 4 14 5 15 6 16 7 17 8 18 9 19 10 20 11
REMARK SMILES IDX 9 12 8 13 7 14 6 15 5 16 4 17 3 18 2 19 1 20
REMARK H PARENT
REMARK Flexibility Score: inf
ROOT
ATOM      1  C   UNL     1      -3.085  10.078  -9.098  1.00  0.00     0.000 C 
ENDROOT
BRANCH   1   2
ATOM      2  C   UNL     1      -4.119   9.653 -10.151  1.00  0.00     0.000 C 
BRANCH   2   3
ATOM      3  C   UNL     1      -4.962  10.831 -10.669  1.00  0.00     0.000 C 
BRANCH   3   4
ATOM      4  C   UNL     1      -6.450  10.800 -10.263  1.00  0.00     0.000 C 
BRANCH   4   5
ATOM      5  C   UNL     1      -6.769  11.452  -8.906  1.00  0.00     0.000 C 
BRANCH   5   6
ATOM      6  C   UNL     1      -6.165  12.857  -8.762  1.00  0.00     0.000 C 
BRANCH   6   7
ATOM      7  C   UNL     1      -5.506  13.033  -7.386  1.00  0.00     0.006 C 
BRANCH   7   8
ATOM      8  C   UNL     1      -5.439  11.716  -6.602  1.00  0.00     0.053 C 
BRANCH   8   9
ATOM      9  C   UNL     1      -4.166  11.599  -5.820  1.00  0.00     0.041 C 
ATOM     10  O   UNL     1      -3.501  12.630  -5.533  1.00  0.00    -0.550 OA
ATOM     11  O   UNL     1      -3.696  10.349  -5.439  1.00  0.00    -0.550 OA
ENDBRANCH   8   9
ENDBRANCH   7   8
ENDBRANCH   6   7
ENDBRANCH   5   6
ENDBRANCH   4   5
ENDBRANCH   3   4
ENDBRANCH   2   3
ENDBRANCH   1   2
BRANCH   1  12
ATOM     12  C   UNL     1      -2.708  11.556  -9.263  1.00  0.00     0.000 C 
BRANCH  12  13
ATOM     13  C   UNL     1      -1.464  11.903  -8.431  1.00  0.00    -0.000 C 
BRANCH  13  14
ATOM     14  C   UNL     1      -0.937  10.706  -7.626  1.00  0.00    -0.000 C 
BRANCH  14  15
ATOM     15  C   UNL     1       0.551  10.426  -7.884  1.00  0.00    -0.000 C 
BRANCH  15  16
ATOM     16  C   UNL     1       1.401  11.673  -7.597  1.00  0.00    -0.000 C 
BRANCH  16  17
ATOM     17  C   UNL     1       1.519  11.976  -6.095  1.00  0.00    -0.000 C 
BRANCH  17  18
ATOM     18  C   UNL     1       0.817  13.286  -5.699  1.00  0.00    -0.000 C 
BRANCH  18  19
ATOM     19  C   UNL     1      -0.057  13.131  -4.446  1.00  0.00    -0.003 C 
ATOM     20  C   UNL     1      -0.313  11.668  -4.082  1.00  0.00     0.004 C 
ENDBRANCH  18  19
ENDBRANCH  17  18
ENDBRANCH  16  17
ENDBRANCH  15  16
ENDBRANCH  14  15
ENDBRANCH  13  14
ENDBRANCH  12  13
ENDBRANCH   1  12
TORSDOF 16
ENDMDL
MODEL 6
REMARK VINA RESULT:    -4.686      3.173      7.899
REMARK INTER + INTRA:         -11.186
REMARK INTER:                 -10.188
REMARK INTRA:                  -0.998
REMARK UNBOUND:                -2.117
REMARK SMILES CCCCCCCCCCCCCCCCCC(=O)[O-]
REMARK SMILES IDX 10 1 11 2 12 3 13 4 14 5 15 6 16 7 17 8 18 9 19 10 20 11
REMARK SMILES IDX 9 12 8 13 7 14 6 15 5 16 4 17 3 18 2 19 1 20
REMARK H PARENT
REMARK Flexibility Score: inf
ROOT
ATOM      1  C   UNL     1      -5.464  10.894 -10.342  1.00  0.00     0.000 C 
ENDROOT
BRANCH   1   2
ATOM      2  C   UNL     1      -6.184  11.764  -9.302  1.00  0.00     0.000 C 
BRANCH   2   3
ATOM      3  C   UNL     1      -5.221  12.396  -8.282  1.00  0.00     0.000 C 
BRANCH   3   4
ATOM      4  C   UNL     1      -3.767  12.561  -8.771  1.00  0.00     0.000 C 
BRANCH   4   5
ATOM      5  C   UNL     1      -2.687  12.138  -7.760  1.00  0.00     0.000 C 
BRANCH   5   6
ATOM      6  C   UNL     1      -1.493  11.433  -8.422  1.00  0.00     0.000 C 
BRANCH   6   7
ATOM      7  C   UNL     1      -0.165  11.940  -7.841  1.00  0.00     0.006 C 
BRANCH   7   8
ATOM      8  C   UNL     1       0.521  10.890  -6.957  1.00  0.00     0.053 C 
BRANCH   8   9
ATOM      9  C   UNL     1       1.763  10.351  -7.598  1.00  0.00     0.041 C 
ATOM     10  O   UNL     1       1.682   9.572  -8.584  1.00  0.00    -0.550 OA
ATOM     11  O   UNL     1       3.011  10.682  -7.084  1.00  0.00    -0.550 OA
ENDBRANCH   8   9
ENDBRANCH   7   8
ENDBRANCH   6   7
ENDBRANCH   5   6
ENDBRANCH   4   5
ENDBRANCH   3   4
ENDBRANCH   2   3
ENDBRANCH   1   2
BRANCH   1  12
ATOM     12  C   UNL     1      -5.696   9.403 -10.067  1.00  0.00     0.000 C 
BRANCH  12  13
ATOM     13  C   UNL     1      -4.603   8.545 -10.722  1.00  0.00    -0.000 C 
BRANCH  13  14
ATOM     14  C   UNL     1      -4.896   7.040 -10.628  1.00  0.00    -0.000 C 
BRANCH  14  15
ATOM     15  C   UNL     1      -6.371   6.740 -10.322  1.00  0.00    -0.000 C 
BRANCH  15  16
ATOM     16  C   UNL     1      -6.834   5.467 -11.047  1.00  0.00    -0.000 C 
BRANCH  16  17
ATOM     17  C   UNL     1      -5.911   5.082 -12.214  1.00  0.00    -0.000 C 
BRANCH  17  18
ATOM     18  C   UNL     1      -6.651   4.318 -13.326  1.00  0.00    -0.000 C 
BRANCH  18  19
ATOM     19  C   UNL     1      -5.817   4.194 -14.611  1.00  0.00    -0.003 C 
ATOM     20  C   UNL     1      -4.888   5.388 -14.828  1.00  0.00     0.004 C 
ENDBRANCH  18  19
ENDBRANCH  17  18
ENDBRANCH  16  17
ENDBRANCH  15  16
ENDBRANCH  14  15
ENDBRANCH  13  14
ENDBRANCH  12  13
ENDBRANCH   1  12
TORSDOF 16
ENDMDL
MODEL 7
REMARK VINA RESULT:    -4.623      3.112      6.990
REMARK INTER + INTRA:         -11.065
REMARK INTER:                  -8.688
REMARK INTRA:                  -2.377
REMARK UNBOUND:                -2.117
REMARK SMILES CCCCCCCCCCCCCCCCCC(=O)[O-]
REMARK SMILES IDX 10 1 11 2 12 3 13 4 14 5 15 6 16 7 17 8 18 9 19 10 20 11
REMARK SMILES IDX 9 12 8 13 7 14 6 15 5 16 4 17 3 18 2 19 1 20
REMARK H PARENT
REMARK Flexibility Score: inf
ROOT
ATOM      1  C   UNL     1      -3.026  12.631  -7.929  1.00  0.00     0.000 C 
ENDROOT
BRANCH   1   2
ATOM      2  C   UNL     1      -1.689  12.130  -8.497  1.00  0.00     0.000 C 
BRANCH   2   3
ATOM      3  C   UNL     1      -1.283  10.753  -7.944  1.00  0.00     0.000 C 
BRANCH   3   4
ATOM      4  C   UNL     1       0.234  10.474  -7.934  1.00  0.00     0.000 C 
BRANCH   4   5
ATOM      5  C   UNL     1       1.124  11.713  -7.738  1.00  0.00     0.000 C 
BRANCH   5   6
ATOM      6  C   UNL     1       2.119  11.557  -6.578  1.00  0.00     0.000 C 
BRANCH   6   7
ATOM      7  C   UNL     1       1.807  12.551  -5.450  1.00  0.00     0.006 C 
BRANCH   7   8
ATOM      8  C   UNL     1       0.504  13.322  -5.698  1.00  0.00     0.053 C 
BRANCH   8   9
ATOM      9  C   UNL     1      -0.617  12.805  -4.849  1.00  0.00     0.041 C 
ATOM     10  O   UNL     1      -1.702  13.440  -4.776  1.00  0.00    -0.550 OA
ATOM     11  O   UNL     1      -0.450  11.640  -4.111  1.00  0.00    -0.550 OA
ENDBRANCH   8   9
ENDBRANCH   7   8
ENDBRANCH   6   7
ENDBRANCH   5   6
ENDBRANCH   4   5
ENDBRANCH   3   4
ENDBRANCH   2   3
ENDBRANCH   1   2
BRANCH   1  12
ATOM     12  C   UNL     1      -3.744  11.519  -7.155  1.00  0.00     0.000 C 
BRANCH  12  13
ATOM     13  C   UNL     1      -5.214  11.886  -6.900  1.00  0.00    -0.000 C 
BRANCH  13  14
ATOM     14  C   UNL     1      -6.184  11.109  -7.803  1.00  0.00    -0.000 C 
BRANCH  14  15
ATOM     15  C   UNL     1      -6.420  11.801  -9.154  1.00  0.00    -0.000 C 
BRANCH  15  16
ATOM     16  C   UNL     1      -6.162  10.832 -10.318  1.00  0.00    -0.000 C 
BRANCH  16  17
ATOM     17  C   UNL     1      -4.678  10.765 -10.714  1.00  0.00    -0.000 C 
BRANCH  17  18
ATOM     18  C   UNL     1      -4.008   9.452 -10.275  1.00  0.00    -0.000 C 
BRANCH  18  19
ATOM     19  C   UNL     1      -4.864   8.218 -10.598  1.00  0.00    -0.003 C 
ATOM     20  C   UNL     1      -5.196   7.390  -9.356  1.00  0.00     0.004 C 
ENDBRANCH  18  19
ENDBRANCH  17  18
ENDBRANCH  16  17
ENDBRANCH  15  16
ENDBRANCH  14  15
ENDBRANCH  13  14
ENDBRANCH  12  13
ENDBRANCH   1  12
TORSDOF 16
ENDMDL
MODEL 8
REMARK VINA RESULT:    -4.614      2.649      6.896
REMARK INTER + INTRA:         -11.047
REMARK INTER:                  -8.988
REMARK INTRA:                  -2.059
REMARK UNBOUND:                -2.117
REMARK SMILES CCCCCCCCCCCCCCCCCC(=O)[O-]
REMARK SMILES IDX 10 1 11 2 12 3 13 4 14 5 15 6 16 7 17 8 18 9 19 10 20 11
REMARK SMILES IDX 9 12 8 13 7 14 6 15 5 16 4 17 3 18 2 19 1 20
REMARK H PARENT
REMARK Flexibility Score: inf
ROOT
ATOM      1  C   UNL     1      -3.929  11.479  -6.427  1.00  0.00     0.000 C 
ENDROOT
BRANCH   1   2
ATOM      2  C   UNL     1      -3.407  10.941  -5.086  1.00  0.00     0.000 C 
BRANCH   2   3
ATOM      3  C   UNL     1      -1.907  10.603  -5.122  1.00  0.00     0.000 C 
BRANCH   3   4
ATOM      4  C   UNL     1      -0.974  11.714  -4.595  1.00  0.00     0.000 C 
BRANCH   4   5
ATOM      5  C   UNL     1       0.185  12.091  -5.534  1.00  0.00     0.000 C 
BRANCH   5   6
ATOM      6  C   UNL     1      -0.295  12.591  -6.904  1.00  0.00     0.000 C 
BRANCH   6   7
ATOM      7  C   UNL     1       0.417  11.844  -8.042  1.00  0.00     0.006 C 
BRANCH   7   8
ATOM      8  C   UNL     1       0.885  10.446  -7.616  1.00  0.00     0.053 C 
BRANCH   8   9
ATOM      9  C   UNL     1       2.322  10.211  -7.968  1.00  0.00     0.041 C 
ATOM     10  O   UNL     1       3.237  10.607  -7.198  1.00  0.00    -0.550 OA
ATOM     11  O   UNL     1       2.651   9.583  -9.163  1.00  0.00    -0.550 OA
ENDBRANCH   8   9
ENDBRANCH   7   8
ENDBRANCH   6   7
ENDBRANCH   5   6
ENDBRANCH   4   5
ENDBRANCH   3   4
ENDBRANCH   2   3
ENDBRANCH   1   2
BRANCH   1  12
ATOM     12  C   UNL     1      -3.379  10.659  -7.600  1.00  0.00     0.000 C 
BRANCH  12  13
ATOM     13  C   UNL     1      -3.344  11.495  -8.888  1.00  0.00    -0.000 C 
BRANCH  13  14
ATOM     14  C   UNL     1      -4.724  12.050  -9.271  1.00  0.00    -0.000 C 
BRANCH  14  15
ATOM     15  C   UNL     1      -5.485  11.132 -10.239  1.00  0.00    -0.000 C 
BRANCH  15  16
ATOM     16  C   UNL     1      -6.540  10.301  -9.491  1.00  0.00    -0.000 C 
BRANCH  16  17
ATOM     17  C   UNL     1      -6.403   8.794  -9.757  1.00  0.00    -0.000 C 
BRANCH  17  18
ATOM     18  C   UNL     1      -5.126   8.445 -10.541  1.00  0.00    -0.000 C 
BRANCH  18  19
ATOM     19  C   UNL     1      -4.984   6.937 -10.795  1.00  0.00    -0.003 C 
ATOM     20  C   UNL     1      -6.322   6.201 -10.740  1.00  0.00     0.004 C 
ENDBRANCH  18  19
ENDBRANCH  17  18
ENDBRANCH  16  17
ENDBRANCH  15  16
ENDBRANCH  14  15
ENDBRANCH  13  14
ENDBRANCH  12  13
ENDBRANCH   1  12
TORSDOF 16
ENDMDL
MODEL 9
REMARK VINA RESULT:    -4.607      2.551      4.050
REMARK INTER + INTRA:         -11.034
REMARK INTER:                  -8.715
REMARK INTRA:                  -2.320
REMARK UNBOUND:                -2.117
REMARK SMILES CCCCCCCCCCCCCCCCCC(=O)[O-]
REMARK SMILES IDX 10 1 11 2 12 3 13 4 14 5 15 6 16 7 17 8 18 9 19 10 20 11
REMARK SMILES IDX 9 12 8 13 7 14 6 15 5 16 4 17 3 18 2 19 1 20
REMARK H PARENT
REMARK Flexibility Score: inf
ROOT
ATOM      1  C   UNL     1      -4.540   9.749 -10.640  1.00  0.00     0.000 C 
ENDROOT
BRANCH   1   2
ATOM      2  C   UNL     1      -5.932   9.832  -9.996  1.00  0.00     0.000 C 
BRANCH   2   3
ATOM      3  C   UNL     1      -6.612  11.194 -10.217  1.00  0.00     0.000 C 
BRANCH   3   4
ATOM      4  C   UNL     1      -6.740  12.074  -8.956  1.00  0.00     0.000 C 
BRANCH   4   5
ATOM      5  C   UNL     1      -5.524  12.968  -8.659  1.00  0.00     0.000 C 
BRANCH   5   6
ATOM      6  C   UNL     1      -5.258  13.133  -7.155  1.00  0.00     0.000 C 
BRANCH   6   7
ATOM      7  C   UNL     1      -5.661  11.869  -6.383  1.00  0.00     0.006 C 
BRANCH   7   8
ATOM      8  C   UNL     1      -4.538  10.824  -6.352  1.00  0.00     0.053 C 
BRANCH   8   9
ATOM      9  C   UNL     1      -3.715  10.930  -5.105  1.00  0.00     0.041 C 
ATOM     10  O   UNL     1      -4.116  11.630  -4.138  1.00  0.00    -0.550 OA
ATOM     11  O   UNL     1      -2.489  10.282  -5.024  1.00  0.00    -0.550 OA
ENDBRANCH   8   9
ENDBRANCH   7   8
ENDBRANCH   6   7
ENDBRANCH   5   6
ENDBRANCH   4   5
ENDBRANCH   3   4
ENDBRANCH   2   3
ENDBRANCH   1   2
BRANCH   1  12
ATOM     12  C   UNL     1      -3.438   9.804  -9.575  1.00  0.00     0.000 C 
BRANCH  12  13
ATOM     13  C   UNL     1      -2.764  11.185  -9.551  1.00  0.00    -0.000 C 
BRANCH  13  14
ATOM     14  C   UNL     1      -1.629  11.272  -8.520  1.00  0.00    -0.000 C 
BRANCH  14  15
ATOM     15  C   UNL     1      -1.554  12.645  -7.835  1.00  0.00    -0.000 C 
BRANCH  15  16
ATOM     16  C   UNL     1      -0.351  12.717  -6.881  1.00  0.00    -0.000 C 
BRANCH  16  17
ATOM     17  C   UNL     1       0.409  11.385  -6.787  1.00  0.00    -0.000 C 
BRANCH  17  18
ATOM     18  C   UNL     1       1.914  11.580  -6.532  1.00  0.00    -0.000 C 
BRANCH  18  19
ATOM     19  C   UNL     1       2.781  10.613  -7.352  1.00  0.00    -0.003 C 
ATOM     20  C   UNL     1       1.974   9.831  -8.388  1.00  0.00     0.004 C 
ENDBRANCH  18  19
ENDBRANCH  17  18
ENDBRANCH  16  17
ENDBRANCH  15  16
ENDBRANCH  14  15
ENDBRANCH  13  14
ENDBRANCH  12  13
ENDBRANCH   1  12
TORSDOF 16
ENDMDL
